Measurement: Raman, 514 nm, ccw, Raman Data Processed
Mineral: Edingtonite
Rruff sample: R040003
Ideal chemistry: Ba(Si_3_Al_2_)O_10_4H_2_O
Locality: Bohl, Sweden
Source: University of Arizona Mineral Museum
Description: Colorless tetragonal prism
Measured chemistry: Ba_1.00_(Si_3.00_Al_2.00_)O_10_Â·4H_2_O; trace amounts of Na; H_2_O estimated by difference
Pin_id: m00029
Orientation: Laser parallel to c* (0 0 1). Fiducial mark perpendicular to laser is parallel to a [1 0 0]
Raman shift (cm-1)	intensity
119.947	0
124.116	737.882
128.284	3199.59
132.45	7263.39
136.614	10370.9
140.775	10843.7
144.935	12384.1
149.093	17744.2
153.248	25168.6
157.402	23997.1
161.554	14905
165.703	8672.54
169.851	5578.03
173.996	3822.39
178.14	2841.3
182.281	2360.8
186.421	2050.26
190.558	1814.1
194.694	1593.1
198.827	1360.38
202.959	1136.95
207.088	982.267
211.216	485.471
215.341	289.096
219.465	159.576
223.586	180.589
227.706	292.454
231.823	1050.49
235.939	1040.95
240.052	37.464
244.164	406.245
248.274	385.244
252.381	477.395
256.487	379.957
260.59	311.541
264.692	175.399
268.791	127.417
272.889	786.989
276.985	1298.38
281.078	1061.92
285.17	464.473
289.26	90.347
293.348	44.933
297.433	39.715
301.517	67.211
305.599	33.805
309.679	55.516
313.757	113.985
317.833	5.414
321.907	56.177
325.979	39.091
330.049	102.982
334.117	195.2
338.183	193.925
342.247	351.302
346.31	377.68
350.37	332.325
354.428	474.024
358.484	628.226
362.539	920.222
366.591	893.785
370.642	799.794
374.691	845.661
378.737	939.953
382.782	1057.56
386.825	1138.46
390.865	1293.97
394.904	1489.99
398.941	1941.16
402.976	2256.95
407.009	2323.52
411.04	1928.36
415.07	1864.9
419.097	2115.84
423.122	2743.84
427.146	3311.07
431.167	3787.39
435.187	3658.75
439.204	3011.77
443.22	2217.74
447.234	1774.32
451.246	1420.62
455.256	1375.97
459.264	1438.56
463.27	1493.41
467.274	1723.96
471.277	1910.84
475.277	2300.79
479.275	2632.76
483.272	3184.84
487.267	3918.41
491.26	4725.53
495.25	5547.7
499.239	6204.51
503.226	5892.61
507.212	5952.03
511.195	6379.86
515.176	8427.52
519.156	13895.5
523.133	28253.8
527.109	56792.2
531.083	57130.2
535.055	33856.3
539.025	16652.4
542.993	9218.67
546.959	5695.35
550.923	3802.32
554.886	2909.52
558.846	2136.77
562.805	1623.88
566.762	1252.78
570.717	1130.5
574.67	1065.5
578.621	902.429
582.57	742.798
586.518	724.265
590.463	589.844
594.407	505.536
598.349	449.72
602.289	416.492
606.227	303.933
610.163	274.428
614.097	245.818
618.03	116.013
621.961	164.169
625.889	88.285
629.816	44.602
633.741	105.91
637.664	59.802
641.586	25.544
645.505	54.914
649.423	59.366
653.339	84.087
657.253	3.542
661.165	34.071
665.075	98.985
668.983	0.241
672.89	70.522
676.795	172.204
680.697	240.791
684.598	257.49
688.498	431.544
692.395	673.352
696.29	1201.97
700.184	1908.31
704.076	2702.51
707.966	2876.69
711.854	2150.61
715.74	1434.36
719.625	1048.16
723.508	790.271
727.388	459.083
731.267	329.971
735.145	155.41
739.02	137.795
742.894	74.834
746.765	40.688
750.635	7.573
754.503	42.966
758.37	46.946
762.234	44.246
766.097	51.824
769.958	93.659
773.817	106.43
777.674	44.826
781.529	110.407
785.383	40.272
789.235	67.427
793.084	42.596
796.933	16.403
800.779	29.434
804.624	81.262
808.466	57.937
812.307	36.53
816.146	19.797
819.984	91.85
823.819	82.812
827.653	25.433
831.485	62.09
835.315	73.621
839.144	124.382
842.97	151.2
846.795	74.832
850.618	88.282
854.44	22.557
858.259	82.567
862.077	147.311
865.893	150.312
869.707	104.905
873.519	63.343
877.33	150.188
881.138	123.033
884.945	125.238
888.751	256.312
892.554	217.745
896.356	179.133
900.156	250.403
903.954	361.624
907.75	380.161
911.545	358.567
915.338	307.946
919.129	301.331
922.918	256.879
926.706	354.195
930.491	448.055
934.276	525.383
938.058	383.967
941.838	684.304
945.617	1053.68
949.394	1723.83
953.169	2892.9
956.943	3264.29
960.715	2525.03
964.485	2035.43
968.253	1985.52
972.019	1992.97
975.784	2444.45
979.547	3585.81
983.308	4786.87
987.068	5558.22
990.826	7149.15
994.582	9350.41
998.336	8391.98
1002.09	5253.63
1005.84	3195.14
1009.59	1966.66
1013.34	1428.51
1017.08	990.942
1020.83	984.829
1024.57	1149.85
1028.31	1181.97
1032.05	1434.38
1035.78	1466.62
1039.52	2048.58
1043.25	3101.87
1046.98	4884.47
1050.71	8006.92
1054.44	10119.5
1058.17	7883.12
1061.89	5315.22
1065.62	3427.79
1069.34	2392.79
1073.06	1657.69
1076.78	1148.91
1080.49	914.415
1084.21	868.112
1087.92	650.482
1091.63	725.486
1095.34	618.495
1099.05	783.294
1102.76	906.337
1106.46	809.218
1110.16	502.481
1113.86	369.854
1117.56	331.44
1121.26	832.813
1124.95	914.511
1128.65	97.276
1132.34	202.91
1136.03	68.005
1139.72	169.946
1143.41	93.802
1147.1	56.594
1150.78	2.596
1154.46	65.348
1158.14	49.989
1161.82	64.402
1165.5	225.24
1169.17	185.782
1172.85	34.502
1176.52	55
1180.19	45.741
1183.86	166.435
1187.53	104.921
1191.19	122.715
1194.86	235.008
1198.52	98.452
1202.18	65.792
1205.84	133.057
1209.49	30.23
1213.15	116.248
1216.8	152.403
1220.45	158.347
1224.11	174.24
1227.75	169.307
1231.4	126.749
1235.05	51.739
1238.69	135.696
1242.33	90.747
1245.97	52.437
1249.61	175.348
1253.25	138.049
1256.88	70.335
1260.52	5.475
1264.15	26.124
1267.78	104.86
1271.41	85.542
1275.04	36.171
1278.66	74.223
1282.29	84.453
1285.91	61.8
1289.53	77.332
1293.15	85.588
1296.76	53.454
1300.38	140.914
1303.99	6.893
1307.61	3.243
1311.22	19.69
1314.83	126.047
1318.43	421.527
1322.04	255.938
1325.64	71.575
1329.24	136.282
1332.85	178.334
1336.44	88.089
1340.04	123.268
1343.64	86.819
1347.23	259.305
1350.83	192.705
1354.42	153.184
1358.01	135.614
1361.59	50.882
1365.18	113.6
1368.76	198.923
1372.35	156.801
1375.93	190.198
1379.51	185.089
1383.09	272.292
1386.66	172.34
1390.24	197.115
1393.81	233.261
1397.38	254.371
1400.95	163.254
1404.52	300.629
1408.09	67.648
1411.65	147.855
1415.21	266.649
1418.78	174.836
1422.34	213.76
1425.9	241.655
1429.45	269.048
1433.01	340.636
1436.56	298.888
1440.12	446.75
1443.67	424.107
1447.21	481.566
1450.76	459.595
1454.31	456.422
1457.85	344.361
1461.39	332.147
1464.94	219.862
1468.47	448.236
1472.01	277.944
1475.55	365.513
1479.08	194.706
1482.62	244.423
1486.15	274.879
1489.68	76.376
1493.21	54.864
1496.73	6.088
