Measurement: Raman, 514 nm, ccw, Raman Data Processed
Mineral: Edingtonite
Rruff sample: R040003
Ideal chemistry: Ba(Si_3_Al_2_)O_10_4H_2_O
Locality: Bohl, Sweden
Source: University of Arizona Mineral Museum
Description: Colorless tetragonal prism
Measured chemistry: Ba_1.00_(Si_3.00_Al_2.00_)O_10_Â·4H_2_O; trace amounts of Na; H_2_O estimated by difference
Pin_id: m00038
Orientation: Laser parallel to b* (0 1 0). Fiducial mark perpendicular to laser is parallel to c [0 0 1]
Raman shift (cm-1)	intensity
125.506	0
129.673	392.326
133.838	1014.77
138.001	793.955
142.162	1613.12
146.321	2689.77
150.478	5094.61
154.633	7739.34
158.786	7380.87
162.937	4637.72
167.086	2506.5
171.233	1324.08
175.378	737.976
179.521	410.021
183.662	122.535
187.8	59.105
191.937	223.231
196.072	151.593
200.205	169.896
204.336	287.902
208.465	345.226
212.591	8.766
216.716	73.36
220.839	185.45
224.96	420.782
229.079	222.165
233.195	399.218
237.31	1322.69
241.423	611.938
245.534	167.719
249.643	50.922
253.75	103.864
257.855	145.401
261.958	130.782
266.059	100.917
270.158	52.77
274.255	99.623
278.35	11.052
282.443	82.341
286.534	70.86
290.623	191.241
294.71	376.342
298.795	535.396
302.878	517.889
306.959	754.773
311.038	1088.02
315.116	1097.5
319.191	1112.92
323.264	991.974
327.336	926.476
331.405	887.39
335.473	990.991
339.538	1095.28
343.602	1187.97
347.663	1355.95
351.723	1763.3
355.78	2849.9
359.836	4047.15
363.89	3941.67
367.942	2889.12
371.992	1906.37
376.04	1215.5
380.086	907.369
384.13	795.984
388.172	653.056
392.212	855.71
396.25	779.244
400.286	777.913
404.321	996.884
408.353	962.155
412.384	1019.83
416.412	1178.97
420.439	1497.32
424.464	2066.66
428.486	2625.42
432.507	2933.94
436.526	2716.05
440.543	1878.64
444.558	1132.78
448.572	657.398
452.583	437.561
456.592	358.918
460.6	209.57
464.605	157.896
468.609	161.995
472.61	274.942
476.61	304.699
480.608	264.77
484.604	229.03
488.598	452.46
492.59	747.389
496.58	1032.11
500.569	1296.61
504.555	1890.96
508.54	2685.39
512.522	4249.98
516.503	7034.78
520.482	13469.9
524.459	28844.8
528.434	52678.6
532.407	45540.6
536.378	23393
540.348	12025.5
544.315	6968.81
548.281	4293.24
552.244	2997.68
556.206	2232.08
560.166	1566.47
564.124	1330.94
568.08	1035.47
572.035	900.081
575.987	844.748
579.938	609.428
583.886	564.11
587.833	458.775
591.778	373.331
595.721	365.942
599.662	307.184
603.602	348.609
607.539	438.315
611.475	328.071
615.408	309.567
619.34	553.732
623.27	797.907
627.199	988.73
631.125	829.967
635.049	631.974
638.972	821.587
642.893	1009.01
646.811	1652.25
650.728	2282.48
654.644	3099.71
658.557	3185.67
662.468	2209.74
666.378	1463.87
670.286	937.516
674.192	680.969
678.096	674.328
681.998	517.544
685.898	480.935
689.797	643.621
693.694	726.188
697.589	828.639
701.482	1150.97
705.373	1323.18
709.262	1545.26
713.15	1787.22
717.035	1869.04
720.919	1610.73
724.801	812.288
728.682	553.708
732.56	274.991
736.437	176.15
740.311	127.007
744.184	7.936
748.055	58.173
751.925	19.175
755.792	41.366
759.658	49.838
763.522	189.661
767.384	109.832
771.244	100.334
775.102	31.211
778.959	22.419
782.814	163.914
786.667	75.78
790.518	77.999
794.367	0.491
798.215	76.796
802.061	33.913
805.905	40.872
809.747	167.683
813.587	204.359
817.426	190.898
821.263	27.3
825.098	203.557
828.931	119.689
832.762	175.703
836.592	321.599
840.42	347.38
844.246	413.045
848.07	468.599
851.892	364.044
855.713	679.379
859.532	994.609
863.349	869.735
867.164	744.76
870.978	469.687
874.789	374.221
878.599	367.966
882.408	499.199
886.214	452.145
890.019	435.063
893.822	316.28
897.623	675.811
901.422	452.624
905.22	429.282
909.015	415.639
912.809	353.171
916.602	281.754
920.392	199.286
924.181	295.915
927.968	273.391
931.753	245.166
935.536	217.216
939.318	170.473
943.098	323.789
946.876	477.89
950.653	801.713
954.427	1085.57
958.2	1139.09
961.971	813.209
965.741	647.552
969.508	681.912
973.274	616.29
977.039	610.452
980.801	855.06
984.562	869.454
988.321	1163.86
992.078	1578.27
995.833	1662.7
999.587	1567.14
1003.34	1911.63
1007.09	1196.3
1010.84	501.061
1014.58	407.014
1018.33	681.995
1022.07	944.938
1025.81	900.688
1029.55	895.587
1033.29	860.604
1037.03	905.845
1040.76	1180.89
1044.5	1726.45
1048.23	2861.79
1051.96	4357.16
1055.68	4814.86
1059.41	3450.61
1063.13	2068.96
1066.86	1537.35
1070.58	1076.58
1074.3	1204.61
1078.02	953.488
1081.73	831.962
1085.44	849.125
1089.16	655.763
1092.87	504.123
1096.58	383.4
1100.28	470.949
1103.99	478.019
1107.69	424.307
1111.39	270.286
1115.1	236.034
1118.8	211.766
1122.49	835.257
1126.19	643.553
1129.88	449.812
1133.57	315.869
1137.26	191.828
1140.95	97.21
1144.64	56.9
1148.32	58.516
1152.01	56.352
1155.69	118.98
1159.37	256.533
1163.05	272.627
1166.72	27.152
1170.4	111.577
1174.07	15.95
1177.74	250.166
1181.41	364.274
1185.08	118.269
1188.75	152.105
1192.41	105.793
1196.08	80.696
1199.74	127.415
1203.4	74.256
1207.06	18.593
1210.71	106.631
1214.37	230.548
1218.02	233.479
1221.67	96.019
1225.32	90.486
1228.97	24.222
1232.62	10.627
1236.26	43.204
1239.9	266.061
1243.55	448.367
1247.18	311.44
1250.82	292.122
1254.46	282.642
1258.1	192.934
1261.73	43.081
1265.36	53.261
1268.99	223.143
1272.62	342.573
1276.24	440.622
1279.87	400.79
1283.49	288.626
1287.11	320.812
1290.73	21.325
1294.35	227.216
1297.97	255.273
1301.58	233.506
1305.2	191.062
1308.81	208.742
1312.42	636.147
1316.03	533.379
1319.63	538.206
1323.24	394.909
1326.84	296.643
1330.44	149.401
1334.05	203.498
1337.64	19.187
1341.24	92.43
1344.84	265.645
1348.43	269.926
1352.02	224.416
1355.61	127.178
1359.2	52.159
1362.79	11.945
1366.37	24.073
1369.96	62.146
1373.54	168.262
1377.12	271.548
1380.7	267.82
1384.28	423.042
1387.85	228.751
1391.43	364.133
1395	209.692
1398.57	209.874
1402.14	125.367
1405.71	60.606
1409.28	95.721
1412.84	350.702
1416.4	425.65
1419.96	520.559
1423.52	506.701
1427.08	508.676
1430.64	467.836
1434.19	528.691
1437.75	557.253
1441.3	804.457
1444.85	1107.16
1448.4	1339.9
1451.94	1491.7
1455.49	1611.75
1459.03	1711.17
1462.58	1561.78
1466.12	1442.01
1469.65	1123.35
1473.19	765.831
1476.73	498.877
1480.26	432.194
1483.8	406.641
1487.33	472.654
1490.86	240.57
1494.38	391.34
1497.91	376.844
1501.43	362.939
