Measurement: Raman, 514 nm, ccw, Raman Data Processed
Mineral: Edingtonite
Rruff sample: R040003
Ideal chemistry: Ba(Si_3_Al_2_)O_10_4H_2_O
Locality: Bohl, Sweden
Source: University of Arizona Mineral Museum
Description: Colorless tetragonal prism
Measured chemistry: Ba_1.00_(Si_3.00_Al_2.00_)O_10_Â·4H_2_O; trace amounts of Na; H_2_O estimated by difference
Pin_id: m00026
Orientation: Laser parallel to a* (1 0 0). Fiducial mark perpendicular to laser is parallel to c [0 0 1]
Raman shift (cm-1)	intensity
124.675	0
128.84	361.766
133.003	2013.32
137.164	2667.73
141.323	2696.62
145.48	3540.19
149.635	7160.01
153.788	11598.4
157.939	13173.7
162.088	9836.11
166.235	7059.39
170.38	4203.33
174.523	2807.91
178.664	2196.62
182.803	1256.3
186.94	662.527
191.076	403.555
195.209	391.107
199.34	478.311
203.47	888.869
207.597	990.393
211.722	694.668
215.846	372.916
219.967	297.549
224.087	109.318
228.204	37.285
232.32	340.486
236.434	1187.06
240.545	1641.09
244.655	1381.59
248.763	733.59
252.869	303.055
256.973	140.295
261.075	120.697
265.175	282.031
269.273	107.008
273.369	241.242
277.463	232.809
281.556	188.617
285.646	103.816
289.734	147.715
293.821	527.502
297.905	661.186
301.988	619.684
306.069	337.802
310.147	445.213
314.224	601.48
318.299	606.831
322.372	421.47
326.443	574.583
330.512	846.369
334.579	897.641
338.645	978.027
342.708	1266.74
346.769	1456.66
350.829	1463.82
354.887	1545.94
358.942	1825.75
362.996	2038.76
367.048	2008.04
371.098	1723.27
375.146	1639.11
379.192	1813.23
383.236	1846.56
387.279	1870.13
391.319	1922.98
395.358	2007.3
399.394	2230.29
403.429	2129.76
407.462	2028.6
411.493	1818.23
415.522	1850.56
419.549	1856.54
423.575	2207.47
427.598	2679.76
431.619	2945.47
435.639	2902.7
439.657	2231.3
443.673	1796.58
447.687	1467.51
451.699	1037.9
455.709	847.189
459.717	819.442
463.724	914.629
467.728	982.475
471.731	949.301
475.732	1256.52
479.731	1400.88
483.728	1622.34
487.723	1784.53
491.716	2217.51
495.708	2750.24
499.697	2912.57
503.685	2927.18
507.671	3072.93
511.655	3580.25
515.637	5020.4
519.617	8434.28
523.596	17644
527.572	35899.6
531.547	43330.7
535.52	24378.7
539.491	11546
543.46	5892.98
547.427	3902.21
551.393	2563.77
555.356	1817.24
559.318	1211.33
563.278	1005.72
567.236	769.766
571.192	792.998
575.147	636.488
579.099	381.668
583.05	581.264
586.999	698.613
590.946	476.842
594.891	214.58
598.834	222.471
602.776	502.596
606.715	273.133
610.653	174.01
614.589	126.945
618.523	376.24
622.456	690.42
626.386	1093.86
630.315	877.514
634.242	415.174
638.167	282.264
642.09	456.152
646.012	675.203
649.931	862.279
653.849	784.707
657.765	777.619
661.679	439.58
665.592	163.281
669.502	22.936
673.411	23.76
677.318	113.961
681.223	107.047
685.126	247.521
689.028	117.379
692.927	207.139
696.825	336.854
700.721	916.539
704.616	1306.17
708.508	1335.72
712.399	1085.15
716.288	874.461
720.175	593.623
724.06	662.646
727.944	241.525
731.825	80.256
735.705	58.773
739.584	97.088
743.46	105.104
747.334	218.676
751.207	359.973
755.078	86.916
758.947	323.99
762.815	289.676
766.68	164.188
770.544	43.709
774.406	167.887
778.267	162.686
782.125	18.281
785.982	174.803
789.837	32.627
793.69	131.385
797.542	61.398
801.391	31.25
805.239	8.328
809.085	27.182
812.93	4.57
816.772	96.928
820.613	21.316
824.452	261.064
828.29	132.732
832.125	419.096
835.959	178.857
839.791	659.322
843.621	649.723
847.45	642.854
851.277	767.066
855.102	651.314
858.925	885.477
862.746	1279.44
866.566	1193.31
870.384	806.92
874.2	480.264
878.015	503.342
881.828	365.338
885.639	485.756
889.448	755.904
893.256	582.943
897.061	502.473
900.865	472.35
904.668	373.445
908.468	653.74
912.267	1004.35
916.064	834.047
919.86	491.736
923.653	396.352
927.445	393.145
931.236	645.773
935.024	708.111
938.811	864.02
942.596	823.949
946.379	820.957
950.161	1170.61
953.94	2032.82
957.719	2297.51
961.495	2015.55
965.27	1540.82
969.043	1343.41
972.814	933.594
976.583	1223.69
980.351	1846.08
984.117	2733.96
987.882	3248.86
991.644	3808.8
995.405	4815.39
999.165	4532.56
1002.92	3955.4
1006.68	2565.53
1010.43	1550.83
1014.18	946.787
1017.93	716.713
1021.68	1156.21
1025.43	1175.88
1029.18	1304.65
1032.92	1203.39
1036.66	1331.06
1040.4	1285.81
1044.14	1645.46
1047.88	2835.46
1051.62	4945.31
1055.35	6924.82
1059.08	6025.32
1062.81	3785.82
1066.54	2465.02
1070.27	1475.78
1073.99	1336.48
1077.72	1317.55
1081.44	1648.4
1085.16	1929.2
1088.88	1390.42
1092.59	931.996
1096.31	663.791
1100.02	495.688
1103.73	687.662
1107.44	819.758
1111.15	1012
1114.86	664.365
1118.57	516.85
1122.27	1089.51
1125.97	572.289
1129.67	185.129
1133.37	327.926
1137.07	410.604
1140.76	173.076
1144.45	5.326
1148.15	232.725
1151.84	421.334
1155.53	80.771
1159.21	70.496
1162.9	399.398
1166.58	218.955
1170.26	368.361
1173.94	437.699
1177.62	276.812
1181.3	104.211
1184.97	35.604
1188.65	202.752
1192.32	482.318
1195.99	457.43
1199.66	318.877
1203.33	463.156
1206.99	251.693
1210.65	73.609
1214.32	267.809
1217.98	531.217
1221.64	543.828
1225.29	820.633
1228.95	767.182
1232.6	683.623
1236.26	819.932
1239.91	835.135
1243.56	1390.09
1247.2	825.002
1250.85	979.426
1254.49	1083.56
1258.13	1087.98
1261.78	1092.68
1265.41	1046.23
1269.05	989.561
1272.69	1172.97
1276.32	1196.82
1279.95	1199.77
1283.59	1355.77
1287.21	1127.14
1290.84	1311.07
1294.47	1140.73
1298.09	1144.04
1301.72	586.949
1305.34	470.588
1308.96	727.41
1312.58	914.559
1316.19	791.859
1319.81	1148.63
1323.42	1485.97
1327.03	1165.05
1330.64	677.057
1334.25	211.021
1337.86	163.594
1341.46	259.193
1345.07	104.941
1348.67	200.961
1352.27	401.32
1355.87	374.979
1359.46	327.309
1363.06	209.879
1366.65	332.146
1370.25	214.031
1373.84	186.289
1377.43	169.105
1381.02	506.109
1384.6	539.869
1388.18	811.08
1391.77	1450.99
1395.35	816.555
1398.93	673.346
1402.51	689.701
1406.08	625.617
1409.66	451.064
1413.23	326.232
1416.8	201.432
1420.37	387.377
1423.94	673.795
1427.51	680.398
1431.08	1216.8
1434.64	1593.45
1438.2	1886.83
1441.76	2612.12
1445.32	3085.47
1448.88	2745.44
1452.43	3363.28
1455.99	3688.32
1459.54	3824.71
1463.09	3721.97
1466.64	3188.42
1470.19	2753.6
1473.74	2236.36
1477.28	2347.12
1480.83	1997.74
1484.37	1805.68
1487.91	1162.51
1491.45	872.23
1494.98	328.836
1498.52	247.08
1502.05	165.391
1505.59	564.082
1509.12	314.074
1512.65	516.963
1516.17	573.836
1519.7	742.635
1523.23	589.967
1526.75	569.221
1530.27	256.539
1533.79	0.221
