Measurement: Raman, 514 nm, ccw, Raman Data Processed
Mineral: Edingtonite
Rruff sample: R040110
Ideal chemistry: Ba(Si_3_Al_2_)O_10_4H_2_O
Locality: 2350 level, Brunswick 12 mine, Bathhurst, New Brunswick, Canada
Source: National Museums of Canada
Description: Colorless rectangular prism
Measured chemistry: Ba_1.00_(Si_3.00_Al_2.00_)O_10_Â·4H_2_O
Pin_id: L01449
Orientation: Laser parallel to b* (0 1 0). Fiducial mark perpendicular to laser is parallel to c [0 0 1]
Raman shift (cm-1)	intensity
91.012	0
95.948	563.791
100.883	2045.91
105.815	3328.74
110.744	2560.53
115.671	3972.89
120.596	5323.92
125.519	5580.52
130.439	5113.55
135.356	4261.89
140.271	4032.99
145.184	4529.74
150.094	6474.63
155.002	9282.03
159.908	8568.29
164.811	5158.79
169.711	2839.23
174.61	1644.92
179.505	960.923
184.399	553.201
189.29	354.825
194.178	300.921
199.064	241.179
203.948	174.224
208.829	136.87
213.708	112.723
218.585	262.971
223.459	304.68
228.33	309.305
233.199	308.503
238.066	1094.6
242.93	403.81
247.792	42.8882
252.651	170.065
257.508	176.703
262.363	26.9253
267.215	197.68
272.064	151.228
276.912	128.573
281.756	185.732
286.598	192.885
291.438	169.091
296.276	448.255
301.111	589.505
305.943	632.297
310.773	880.365
315.601	933.903
320.426	852.101
325.248	783.054
330.068	857.109
334.886	769.83
339.701	989.926
344.514	1129.45
349.324	1528.49
354.132	2252.85
358.938	3387.38
363.741	3703.36
368.541	2406.13
373.339	1361.01
378.135	833.257
382.928	520.68
387.718	414.965
392.506	565.445
397.292	484.665
402.075	548.157
406.856	788.874
411.634	913.448
416.41	1068.29
421.183	1521.14
425.954	2102.41
430.722	2720.4
435.488	2760.52
440.251	1892.1
445.012	1109.59
449.77	524.869
454.526	197.435
459.28	76.8101
464.03	7.98779
468.779	119.77
473.525	6.79297
478.268	11.5586
483.009	124.82
487.747	298.148
492.483	478.676
497.217	871.307
501.948	1248.84
506.676	2167.47
511.402	3895.6
516.125	7832.29
520.846	17213
525.565	35498
530.281	52566.9
534.994	32258
539.705	14338.7
544.413	7099.87
549.119	3941.25
553.822	2355.85
558.523	1653.62
563.222	1170.66
567.917	743.93
572.611	602.456
577.302	375.388
581.99	293.608
586.676	164.985
591.359	168.518
596.04	83.209
600.718	63.0596
605.394	151.262
610.067	69.4956
614.737	72.2158
619.406	140.072
624.071	249.656
628.734	234.685
633.395	185.44
638.053	418.073
642.708	703.158
647.361	1206.92
652.012	2014.61
656.66	2576.91
661.305	2360.08
665.948	1626.09
670.588	968.131
675.226	765.112
679.861	561.072
684.494	577.176
689.124	579.372
693.752	789.304
698.377	1075.43
702.999	1380.81
707.619	1504.46
712.237	1770.24
716.852	1935.68
721.464	1523.01
726.074	977.227
730.681	552.322
735.286	257.298
739.888	122.134
744.488	143.945
749.085	67.2295
753.68	83.1768
758.272	11.1392
762.861	32.1523
767.448	48.416
772.033	89.9414
776.614	40.0845
781.194	25.335
785.77	42.6143
790.345	105.03
794.916	80.0967
799.485	13.2441
804.052	127.32
808.616	119.665
813.177	156.186
817.736	151.496
822.292	9.59375
826.846	200.651
831.397	8.04688
835.945	27.6133
840.491	124.372
845.035	131.15
849.576	128.719
854.114	192.082
858.65	251.247
863.183	205.215
867.713	124.787
872.241	196.57
876.767	76.9648
881.29	232.156
885.81	243.665
890.328	140.042
894.843	143.818
899.356	190.124
903.866	143.012
908.373	53.1435
912.878	94.2949
917.38	3.04004
921.88	46.125
926.377	30.0361
930.872	6.69922
935.364	28.1973
939.853	25.4326
944.34	223.875
948.824	330.209
953.306	591.558
957.785	576.391
962.261	577.696
966.735	255.519
971.207	297.3
975.675	423.6
980.141	630.929
984.605	866.046
989.066	936.435
993.524	1074.85
997.98	1071.29
1002.43	789.768
1006.88	512.303
1011.33	465.882
1015.78	240.581
1020.22	209.389
1024.66	319.268
1029.1	419.099
1033.53	492.286
1037.97	615.566
1042.4	1008.08
1046.82	1930.38
1051.25	3234.64
1055.67	3969.02
1060.09	2911.8
1064.51	1892.74
1068.92	1344.13
1073.33	965.697
1077.74	844.183
1082.15	786.52
1086.55	716.966
1090.95	544.738
1095.35	512.646
1099.75	419.628
1104.14	424.754
1108.53	359.024
1112.92	187.468
1117.31	159.014
1121.69	254.648
1126.07	210.407
1130.45	162.222
1134.82	37.124
1139.19	90.9424
1143.57	128.66
1147.93	182.866
1152.3	49.1504
1156.66	70.5127
1161.02	99.9248
1165.38	148.516
1169.73	145.078
1174.08	108.694
1178.43	84.3428
1182.78	84.6309
1187.12	129.456
1191.46	141.263
1195.8	68.0557
1200.14	154.527
1204.47	109.221
1208.8	184.673
1213.13	12.9023
1217.46	99.4629
1221.78	3.90039
1226.1	62.709
1230.42	27.5576
1234.73	90.8975
1239.04	26.6299
1243.35	157.594
1247.66	109.873
1251.97	20.1455
1256.27	72.4121
1260.57	60.708
1264.86	179.056
1269.16	243.264
1273.45	106.924
1277.74	61.9893
1282.03	213.034
1286.31	103.033
1290.59	132.234
1294.87	22.3213
1299.14	100.397
1303.42	46.3506
1307.69	73.8643
1311.95	109.449
1316.22	113.211
1320.48	168.526
1324.74	160.217
1329	171.727
1333.26	78.4248
1337.51	80.0303
1341.76	149.092
1346	9.65625
1350.25	184.102
1354.49	146.56
1358.73	129.005
1362.96	127.386
1367.2	250.818
1371.43	64.2168
1375.66	141.385
1379.88	115.486
1384.11	153.528
1388.33	103.853
1392.54	118.917
1396.76	16.8438
1400.97	107.549
1405.18	27.543
1409.39	89.5391
1413.59	27.3828
1417.8	92.7471
1421.99	89.2324
1426.19	165.755
1430.38	59.2227
1434.58	221.848
1438.77	282.585
1442.95	181.004
1447.13	331.098
1451.32	192.17
1455.49	292.559
1459.67	331.281
1463.84	315.992
1468.01	107.812
1472.18	68.4531
1476.35	199.138
1480.51	110.797
1484.67	204.178
1488.83	105.401
1492.98	79.9814
1497.13	101.269
1501.28	111.615
1505.43	64.0029
1509.57	132.436
1513.71	109.986
1517.85	53.5205
1521.99	94.9482
1526.12	123.791
1530.25	133.711
1534.38	46.1143
1538.5	191.931
1542.62	217.824
1546.74	117.751
1550.86	138.71
1554.98	196.512
1559.09	66.7461
1563.2	38.081
1567.31	194.035
1571.41	5.55078
