Measurement: Raman, 514 nm, ccw, Raman Data Processed
Mineral: Edingtonite
Rruff sample: R040110
Ideal chemistry: Ba(Si_3_Al_2_)O_10_4H_2_O
Locality: 2350 level, Brunswick 12 mine, Bathhurst, New Brunswick, Canada
Source: National Museums of Canada
Description: Colorless rectangular prism
Measured chemistry: Ba_1.00_(Si_3.00_Al_2.00_)O_10_Â·4H_2_O
Pin_id: M00390
Orientation: Laser parallel to -c* (0 0 -1). Fiducial mark perpendicular to laser is parallel to a [1 0 0]
Raman shift (cm-1)	intensity
53.91	0
58.864	261.477
63.817	9.7431
68.767	65.8843
73.714	580.761
78.659	1816.16
83.602	3532.6
88.542	5198.61
93.48	6998.38
98.416	8605.34
103.349	9989.79
108.28	11956.4
113.208	11521.6
118.134	13291.9
123.058	15486.5
127.979	18879.7
132.898	21463.1
137.814	19982.1
142.728	18108.2
147.639	19428.4
152.549	21047.1
157.455	17776.6
162.359	12587
167.261	9191.25
172.161	7468.35
177.058	6567.93
181.952	5790.98
186.845	5404.99
191.734	4922.51
196.622	4475.56
201.507	4141.16
206.389	3452.15
211.269	3300.15
216.147	3146.07
221.022	3336.15
225.895	4738.35
230.765	7249.69
235.633	8410.4
240.498	4143.34
245.361	1861.08
250.222	1125.29
255.08	916.714
259.936	861.112
264.789	804.273
269.64	911.99
274.488	863.055
279.334	749.345
284.178	217.864
289.019	6.41602
293.857	71.5654
298.693	6.70996
303.527	389.099
308.358	517.356
313.187	667.69
318.013	228.338
322.837	39.2695
327.659	235.821
332.478	59.6777
337.294	248.833
342.108	516.961
346.92	932.971
351.729	928.034
356.535	895.137
361.34	847.86
366.141	329.543
370.94	1.06738
375.737	107.886
380.531	546.311
385.323	601.101
390.113	264.194
394.9	425.618
399.684	811.283
404.466	910.117
409.245	787.916
414.022	815.577
418.797	1080.03
423.569	1908.2
428.338	2610.01
433.105	2972.72
437.87	2147.41
442.632	1121.38
447.391	420.023
452.149	16.8584
456.903	181.699
461.655	329.503
466.405	163.436
471.152	187.906
475.897	644.623
480.639	906.345
485.378	1633.08
490.116	2527.05
494.85	2970.69
499.582	2911.58
504.312	3223.38
509.039	4066.94
513.764	7592.8
518.486	17053.3
523.206	34546.9
527.923	46826.7
532.638	31974.4
537.35	14339.7
542.059	6633.32
546.766	3525.24
551.471	2134.9
556.173	1355.11
560.873	806.756
565.57	622.735
570.264	560.986
574.957	471.407
579.646	451.926
584.333	624.543
589.018	820.137
593.7	1206.49
598.379	1232.15
603.056	1093.88
607.73	570.35
612.402	289.461
617.072	223.856
621.739	0.686523
626.403	89.3603
631.065	141.66
635.724	18.25
640.381	71.3047
645.035	333.082
649.687	852.187
654.336	1342.34
658.983	1192.48
663.627	554.026
668.268	491.799
672.907	236.13
677.544	348.856
682.178	344.34
686.809	502.217
691.438	897.374
696.065	1329.4
700.688	2112.48
705.31	2882.85
709.929	2763.12
714.545	2367.66
719.158	1805.72
723.77	1270.41
728.378	715.065
732.984	564.349
737.588	573.414
742.189	311.272
746.787	363.03
751.383	414.988
755.976	457.996
760.567	366.209
765.155	570.682
769.741	492.015
774.324	271.967
778.904	120.343
783.482	353.513
788.058	57.8935
792.631	145.305
797.201	22.6602
801.769	88.7842
806.334	134.144
810.897	124.119
815.457	68.1699
820.014	201.657
824.569	114.689
829.122	139.183
833.671	66.8144
838.219	115.997
842.763	61.8408
847.306	216.325
851.845	136.233
856.382	167.58
860.917	212.378
865.448	263.672
869.978	224.466
874.505	103.375
879.029	86.1963
883.55	5.4834
888.069	44.1807
892.586	112.784
897.1	177.269
901.611	141.428
906.12	5.41211
910.626	98.4356
915.129	26.7188
919.63	117.705
924.129	7.73828
928.625	161.94
933.118	233.727
937.609	70.6191
942.097	382.623
946.582	965.742
951.065	1675.06
955.546	2061.17
960.023	1600.35
964.499	1045
968.971	1107.02
973.441	1416.35
977.909	1973.4
982.374	2818.99
986.836	3488.94
991.295	4272.7
995.753	4635.29
1000.21	3190.01
1004.66	1652.31
1009.11	885.387
1013.55	630.719
1018	437.506
1022.44	382.758
1026.88	644.068
1031.32	787.346
1035.75	1259.68
1040.18	1983.96
1044.61	3700.38
1049.04	5932.52
1053.46	7879.54
1057.88	6473.95
1062.3	4288.02
1066.71	2786.43
1071.13	1811.02
1075.54	1207.93
1079.94	986.734
1084.35	1028.94
1088.75	1051.68
1093.15	1459.86
1097.55	1776.44
1101.94	2256.12
1106.34	1676.47
1110.73	1028.06
1115.11	494.91
1119.5	405.631
1123.88	223.408
1128.26	230.254
1132.63	114.082
1137.01	341.135
1141.38	37.3262
1145.75	70.3359
1150.12	137.572
1154.48	156.662
1158.84	8.82227
1163.2	66.7969
1167.55	138.93
1171.91	54.1211
1176.26	105.213
1180.61	148.19
1184.95	38.0898
1189.29	83.9277
1193.63	186.576
1197.97	86.9356
1202.31	90.3574
1206.64	53.459
1210.97	0.550781
1215.29	120.736
1219.62	126.172
1223.94	263.461
1228.26	185.269
1232.57	65.168
1236.89	291.217
1241.2	246.828
1245.51	124.26
1249.81	95.6445
1254.12	62.8184
1258.42	19.6875
1262.72	174.418
1267.01	29.7246
1271.3	355.6
1275.59	66.6113
1279.88	230.701
1284.17	66.5117
1288.45	39.0742
1292.73	47.5391
1297.01	84.0898
1301.28	225.856
1305.55	153.824
1309.82	138.795
1314.09	259.992
1318.35	306.131
1322.61	212.617
1326.87	181.414
1331.13	213.193
1335.38	211.635
1339.63	248.478
1343.88	210.924
1348.12	281.949
1352.37	27.0215
1356.61	225.307
1360.85	237.631
1365.08	409.34
1369.31	56.7168
1373.54	242.775
1377.77	30.6543
1381.99	193.693
1386.22	70.832
1390.43	57.8574
1394.65	114.992
1398.87	102.959
1403.08	174.844
1407.29	49.6426
1411.49	196.043
1415.69	37.7656
1419.89	219.506
1424.09	8.24609
1428.29	271.463
1432.48	92.6211
1436.67	323.914
1440.86	306.363
1445.04	218.857
1449.23	217.299
1453.4	340.494
1457.58	507.846
1461.76	276.717
1465.93	379.162
1470.1	323.885
1474.26	146.246
1478.43	222.377
1482.59	227.801
1486.75	328.756
1490.9	234.635
1495.06	46.0273
1499.21	132.312
1503.35	87.3652
1507.5	122.467
1511.64	159.529
1515.78	246.611
1519.92	107.883
1524.05	181.574
1528.18	166.135
1532.31	160.719
1536.44	164.406
1540.56	96.3242
1544.69	348.234
1548.8	70.0098
1552.92	271.211
1557.03	136.141
1561.14	192.082
1565.25	169.986
1569.36	145.414
