Measurement: Raman, 514 nm, ccw, Raman Data Processed
Mineral: Edingtonite
Rruff sample: R040003
Ideal chemistry: Ba(Si_3_Al_2_)O_10_4H_2_O
Locality: Bohl, Sweden
Source: University of Arizona Mineral Museum
Description: Colorless tetragonal prism
Measured chemistry: Ba_1.00_(Si_3.00_Al_2.00_)O_10_Â·4H_2_O; trace amounts of Na; H_2_O estimated by difference
Pin_id: m00026
Orientation: Laser parallel to a* (1 0 0). Fiducial mark perpendicular to laser is parallel to c [0 0 1]
Raman shift (cm-1)	intensity
121.337	0
125.506	958.49
129.673	2819.14
133.838	5401.1
138.001	6582.76
142.162	7338.54
146.321	10614.9
150.478	18200.1
154.633	23902.8
158.786	18215.8
162.937	10530
167.086	5755.97
171.233	3300.99
175.378	2127.92
179.521	1686.44
183.662	1228.3
187.8	1304.54
191.937	1055.09
196.072	1027.1
200.205	923.558
204.336	860.342
208.465	1064.32
212.591	100.274
216.716	118.326
220.839	250.822
224.96	335.224
229.079	211.586
233.195	25.141
237.31	92.462
241.423	289.468
245.534	343.671
249.643	365.859
253.75	420.224
257.855	281.596
261.958	121.266
266.059	40.889
270.158	261.14
274.255	766.696
278.35	973.135
282.443	715.719
286.534	419.656
290.623	252.216
294.71	154.105
298.795	149.878
302.878	373.439
306.959	514.833
311.038	629.297
315.116	754.313
319.191	686.143
323.264	637.107
327.336	620.378
331.405	698.469
335.473	771.63
339.538	900.51
343.602	1077.47
347.663	1131
351.723	1087.34
355.78	1099.13
359.836	1353.2
363.89	1445.77
367.942	1292.44
371.992	1282.02
376.04	1263.71
380.086	1498.24
384.13	1753.1
388.172	1956.71
392.212	1968.8
396.25	2203.98
400.286	2528.41
404.321	2763.57
408.353	2277.09
412.384	1965.16
416.412	2006.45
420.439	2523.06
424.464	3145.6
428.486	3912.78
432.507	4470.06
436.526	4121.31
440.543	3077.86
444.558	2132.55
448.572	1659.87
452.583	1516.58
456.592	1411.35
460.6	1365.96
464.605	1620.69
468.609	1719.68
472.61	1964.38
476.61	2334.34
480.608	2766.17
484.604	3371.7
488.598	4216.88
492.59	5055.37
496.58	5897.21
500.569	5939.27
504.555	6232.1
508.54	6375.15
512.522	7618.52
516.503	11152.2
520.482	20296.4
524.459	42261.9
528.434	59852.2
532.407	57345.8
536.378	28574.4
540.348	14656.8
544.315	8566.58
548.281	5391.91
552.244	3837.83
556.206	2927.07
560.166	2272.36
564.124	1803.58
568.08	1483.66
572.035	1474.59
575.987	1273.47
579.938	1125.39
583.886	1169.42
587.833	1247.58
591.778	1118.99
595.721	1167.2
599.662	1213.97
603.602	1054.63
607.539	965.714
611.475	729.207
615.408	962.962
619.34	1368.33
623.27	2454.66
627.199	3016.87
631.125	1837.79
635.049	931.047
638.972	986.037
642.893	1419.06
646.811	1956.12
650.728	1823.94
654.644	1456.48
658.557	791.854
662.468	245.135
666.378	15.309
670.286	82.746
674.192	186.151
678.096	259.039
681.998	210.511
685.898	179.547
689.797	52.954
693.694	285.223
697.589	707.338
701.482	1303.3
705.373	1961.11
709.262	1762.76
713.15	1016.26
717.035	798.611
720.919	570.808
724.801	260.849
728.682	223.732
732.56	58.453
736.437	33.008
740.311	56.717
744.184	27.712
748.055	9.016
751.925	46.49
755.792	87.233
759.658	56.223
763.522	58.531
767.384	44.103
771.244	51.561
775.102	83.538
778.959	109.852
782.814	202.541
786.667	4.675
790.518	35.915
794.367	145.338
798.215	200.618
802.061	199.757
805.905	202.734
809.747	278.303
813.587	240.962
817.426	321.537
821.263	268.569
825.098	450.249
828.931	624.088
832.762	631.107
836.592	636.361
840.42	804.56
844.246	1098.71
848.07	1253.81
851.892	1393.86
855.713	1820.88
859.532	2657.87
863.349	2335.83
867.164	1716.76
870.978	1362.21
874.789	1134.4
878.599	1182.55
882.408	1095
886.214	906.219
890.019	944.825
893.822	1099.15
897.623	1144.65
901.422	1135.9
905.22	1030.95
909.015	969.232
912.809	849.673
916.602	646.504
920.392	552.801
924.181	476.526
927.968	527.554
931.753	483.709
935.536	523.985
939.318	709.364
943.098	1041.89
946.876	1342.68
950.653	2414.74
954.427	3568.13
958.2	3202.87
961.971	2423.93
965.741	2143.24
969.508	1930.7
973.274	1874.29
977.039	2308.01
980.801	3390.87
984.562	4431.86
988.321	5832.99
992.078	7694.26
995.833	8835.68
999.587	7717.23
1003.34	6648.93
1007.09	2522.78
1010.84	1500.09
1014.58	1234.79
1018.33	1476.87
1022.07	1795.91
1025.81	1690.95
1029.55	1428.41
1033.29	1504.04
1037.03	1834.31
1040.76	2507.7
1044.5	3795.28
1048.23	6289.07
1051.96	9823.27
1055.68	10287.5
1059.41	7262.02
1063.13	4609.64
1066.86	3153.86
1070.58	2298.76
1074.3	1788.38
1078.02	1704.24
1081.73	1825.75
1085.44	1505.08
1089.16	1217.49
1092.87	1036.99
1096.58	1094.58
1100.28	1245.29
1103.99	1079.13
1107.69	879.054
1111.39	738.051
1115.1	502.117
1118.8	490.249
1122.49	800.183
1126.19	446.702
1129.88	197.017
1133.57	145.389
1137.26	72.814
1140.95	347.291
1144.64	138.198
1148.32	208.945
1152.01	148.795
1155.69	98.97
1159.37	26.277
1163.05	84.595
1166.72	103.067
1170.4	246.758
1174.07	301.476
1177.74	303.216
1181.41	133.976
1185.08	84.745
1188.75	90.522
1192.41	134.691
1196.08	141.988
1199.74	6.618
1203.4	185.214
1207.06	40.194
1210.71	63.676
1214.37	233.215
1218.02	216.598
1221.67	68.979
1225.32	41.36
1228.97	84.093
1232.62	405.395
1236.26	693.128
1239.9	636.865
1243.55	664.267
1247.18	644.707
1250.82	631.139
1254.46	489.552
1258.1	510.943
1261.73	626.313
1265.36	861.661
1268.99	1202.99
1272.62	1277.32
1276.24	1365.45
1279.87	949.603
1283.49	646.626
1287.11	619.638
1290.73	586.086
1294.35	1166.81
1297.97	973.171
1301.58	863.543
1305.2	946.879
1308.81	1274.1
1312.42	1496.32
1316.03	1367.37
1319.63	1432.64
1323.24	1233.08
1326.84	923.258
1330.44	548.185
1334.05	323.563
1337.64	157.611
1341.24	151.773
1344.84	115.311
1348.43	24.93
1352.02	50.66
1355.61	47.475
1359.2	86.46
1362.79	72.284
1366.37	141.127
1369.96	280.915
1373.54	278.242
1377.12	383.457
1380.7	425.664
1384.28	443.841
1387.85	299.992
1391.43	315.142
1395	89.797
1398.57	57.015
1402.14	18.423
1405.71	196.911
1409.28	211.475
1412.84	364.14
1416.4	239.011
1419.96	297.183
1423.52	152.619
1427.08	292.989
1430.64	571.582
1434.19	901.192
1437.75	1803.03
1441.3	2763.43
1444.85	3316.97
1448.4	3754.8
1451.94	4142.92
1455.49	4359.34
1459.03	4097.8
1462.58	3296.48
1466.12	2765.49
1469.65	2018.29
1473.19	1565.72
1476.73	1336.12
1480.26	1372.75
1483.8	1337.37
1487.33	1049.57
1490.86	651.239
1494.38	426.079
1497.91	297.377
1501.43	173.021
