Measurement: Raman, 514 nm, ccw, Raman Data Processed
Mineral: Edingtonite
Rruff sample: R040110
Ideal chemistry: Ba(Si_3_Al_2_)O_10_4H_2_O
Locality: 2350 level, Brunswick 12 mine, Bathhurst, New Brunswick, Canada
Source: National Museums of Canada
Description: Colorless rectangular prism
Measured chemistry: Ba_1.00_(Si_3.00_Al_2.00_)O_10_Â·4H_2_O
Pin_id: M00273
Orientation: Laser parallel to -a* (-1 0 0). Fiducial mark perpendicular to laser is parallel to b [0 1 0]
Raman shift (cm-1)	intensity
53.91	0
58.864	16.2698
63.817	137.316
68.767	186.914
73.714	342.861
78.659	1270.32
83.602	2756.15
88.542	4709.14
93.48	6453.01
98.416	8124.66
103.349	8466.64
108.28	8528.1
113.208	9217.06
118.134	10285.9
123.058	10529.3
127.979	9507.35
132.898	8344.53
137.814	7795.9
142.728	8684.86
147.639	10886
152.549	12971.5
157.455	11447.4
162.359	7810.79
167.261	5173.21
172.161	3744.48
177.058	2853.89
181.952	2228.42
186.845	1842.12
191.734	1590.18
196.622	1364.62
201.507	1196.85
206.389	858.236
211.269	571.884
216.147	523.356
221.022	377.421
225.895	614.007
230.765	1167.37
235.633	1756.97
240.498	1109.38
245.361	517.255
250.222	228.357
255.08	241.476
259.936	391.427
264.789	223.037
269.64	149.155
274.488	84.6406
279.334	60.5986
284.178	12.6128
289.019	8.54541
293.857	3.17236
298.693	139.167
303.527	234.53
308.358	446.579
313.187	428.891
318.013	377.82
322.837	212.345
327.659	294.519
332.478	250.494
337.294	356.045
342.108	574.896
346.92	1152.89
351.729	2021.83
356.535	3296.86
361.34	3599.75
366.141	2374.36
370.94	1238.84
375.737	559.37
380.531	216.598
385.323	132.212
390.113	185.147
394.9	215.341
399.684	559.741
404.466	605.293
409.245	728.945
414.022	996.65
418.797	1615.36
423.569	2239.46
428.338	2822.92
433.105	2671.93
437.87	1864.14
442.632	947.254
447.391	416.502
452.149	64.8364
456.903	117.634
461.655	219.371
466.405	195.434
471.152	209.381
475.897	50.9605
480.639	68.3232
485.378	229.936
490.116	559.96
494.85	872.586
499.582	1418.94
504.312	2338.77
509.039	4343.11
513.764	8643.82
518.486	20141.9
523.206	41210.2
527.923	56418.7
532.638	37738.4
537.35	16771.1
542.059	8216
546.766	4473.95
551.471	3273.93
556.173	1871.94
560.873	1300.77
565.57	1061.89
570.264	746.827
574.957	593.714
579.646	487.546
584.333	325.269
589.018	421.838
593.7	236.314
598.379	102.132
603.056	142.584
607.73	168.717
612.402	167.653
617.072	213.812
621.739	114.914
626.403	351.26
631.065	379.805
635.724	489.956
640.381	804.519
645.035	1279.42
649.687	2332.11
654.336	3067.32
658.983	2975.22
663.627	2059.51
668.268	1345.31
672.907	1119.98
677.544	914.259
682.178	747.176
686.809	875.127
691.438	998.63
696.065	1290.91
700.688	1578.42
705.31	1872.69
709.929	2327.65
714.545	2404.69
719.158	1879.12
723.77	1132.14
728.378	634.565
732.984	293.424
737.588	275.938
742.189	168.356
746.787	84.7871
751.383	140.902
755.976	50.3125
760.567	6.16699
765.155	51.7222
769.741	22.3604
774.324	89.355
778.904	28.8433
783.482	74.1611
788.058	166.148
792.631	53.1299
797.201	140.966
801.769	124.7
806.334	180.24
810.897	199.466
815.457	34.4014
820.014	100.014
824.569	101.339
829.122	88.3721
833.671	268.11
838.219	176.598
842.763	150.841
847.306	184.695
851.845	130.609
856.382	144.159
860.917	167.511
865.448	213.655
869.978	147.662
874.505	114.592
879.029	52.5073
883.55	189.754
888.069	165.006
892.586	147.872
897.1	30.3345
901.611	22.602
906.12	10.2832
910.626	134.573
915.129	27.1631
919.63	72.5117
924.129	21.4746
928.625	39.0781
933.118	41.019
937.609	36.5464
942.097	194.567
946.582	362.172
951.065	571.669
955.546	844.266
960.023	514.712
964.499	549.159
968.971	351.062
973.441	501.043
977.909	411.993
982.374	812.043
986.836	999.59
991.295	1401.1
995.753	1231.14
1000.21	863.523
1004.66	610.435
1009.11	361.463
1013.55	233.181
1018	243.379
1022.44	196.62
1026.88	394.03
1031.32	412.276
1035.75	565.924
1040.18	1004.46
1044.61	1809.22
1049.04	3361.48
1053.46	4565.97
1057.88	3556.63
1062.3	2226.23
1066.71	1410.08
1071.13	894.469
1075.54	753.531
1079.94	465.01
1084.35	382.6
1088.75	315.31
1093.15	350.427
1097.55	219.359
1101.94	175.403
1106.34	137.394
1110.73	2.4834
1115.11	233.128
1119.5	197.265
1123.88	107.716
1128.26	171.236
1132.63	141.435
1137.01	59.5928
1141.38	72.0264
1145.75	84.7539
1150.12	195.376
1154.48	109.356
1158.84	0.529297
1163.2	73.7266
1167.55	8.86523
1171.91	126.507
1176.26	4.10059
1180.61	125.282
1184.95	11.0576
1189.29	90.5342
1193.63	57.0576
1197.97	124.624
1202.31	88.2041
1206.64	139.785
1210.97	95.3467
1215.29	45.2539
1219.62	180.828
1223.94	70.3711
1228.26	110.894
1232.57	60.4043
1236.89	92.8691
1241.2	93.1602
1245.51	150.439
1249.81	179.7
1254.12	60.4629
1258.42	0.324219
1262.72	177.513
1267.01	89.5967
1271.3	175.51
1275.59	43.4062
1279.88	1.56641
1284.17	177.412
1288.45	48.2363
1292.73	107.824
1297.01	55.9658
1301.28	107.01
1305.55	64.1045
1309.82	12.0889
1314.09	152.947
1318.35	34.5801
1322.61	92.8975
1326.87	41.5078
1331.13	100.996
1335.38	103.737
1339.63	163.112
1343.88	297.813
1348.12	78.0684
1352.37	248.043
1356.61	60.1875
1360.85	60.2744
1365.08	196.44
1369.31	162.504
1373.54	142.409
1377.77	221.235
1381.99	255.046
1386.22	129.231
1390.43	184.985
1394.65	163.248
1398.87	176.254
1403.08	19.3369
1407.29	53.9365
1411.49	110.505
1415.69	81.0762
1419.89	196.377
1424.09	87.1709
1428.29	97.293
1432.48	33.416
1436.67	148.06
1440.86	65.3623
1445.04	198.886
1449.23	142.756
1453.4	262.359
1457.58	85.9062
1461.76	118.961
1465.93	64.3057
1470.1	163.56
1474.26	62.9385
1478.43	91.2119
1482.59	136.426
1486.75	73.6856
1490.9	28.124
1495.06	37.0147
1499.21	177.931
1503.35	172.153
1507.5	205.374
1511.64	74.625
1515.78	207.997
1519.92	114.5
1524.05	154.667
1528.18	124.243
1532.31	166.739
1536.44	142.524
1540.56	59.0869
1544.69	196.285
1548.8	77.4883
1552.92	230.943
1557.03	93.2891
1561.14	73.0478
1565.25	172.019
1569.36	22.6191
