Measurement: Raman, 514 nm, ccw, Raman Data Processed
Mineral: Edingtonite
Rruff sample: R040003
Ideal chemistry: Ba(Si_3_Al_2_)O_10_4H_2_O
Locality: Bohl, Sweden
Source: University of Arizona Mineral Museum
Description: Colorless tetragonal prism
Measured chemistry: Ba_1.00_(Si_3.00_Al_2.00_)O_10_Â·4H_2_O; trace amounts of Na; H_2_O estimated by difference
Pin_id: m00029
Orientation: Laser parallel to c* (0 0 1). Fiducial mark perpendicular to laser is parallel to a [1 0 0]
Raman shift (cm-1)	intensity
114.384	0
117.166	1116.62
119.947	1603.05
122.727	2624.42
125.506	4439.31
128.284	7927.33
131.062	12587
133.838	17090.6
136.614	16916.3
139.388	14493.1
142.162	10757.1
144.935	8113.25
147.707	6371.2
150.478	5499.77
153.248	5235.69
156.018	4968.98
158.786	3609.68
161.554	2675.07
164.32	1705.01
167.086	1342.35
169.851	1011.81
172.615	817.494
175.378	539.57
178.14	448.336
180.901	354.109
183.662	209.703
186.421	237.051
189.18	249.959
191.937	333.814
194.694	375.238
197.45	341.844
200.205	386.383
202.959	407.773
205.712	487.252
208.465	512.995
211.216	170.581
213.967	165.512
216.716	200.488
219.465	455.436
222.213	1010.34
224.96	1558.99
227.706	3318.85
230.451	6964.4
233.195	14668.2
235.939	20811.4
238.682	14824.1
241.423	6886.12
244.164	3167.67
246.904	1629.16
249.643	696.297
252.381	181.728
255.118	117.323
257.855	298.542
260.59	140.468
263.325	109.3
266.059	239.727
268.791	297.489
271.523	394.049
274.255	320.123
276.985	296.102
279.714	392.234
282.443	278.73
285.17	615.724
287.897	623.416
290.623	511.897
293.348	461.201
296.072	231.327
298.795	97.807
301.517	316.236
304.239	433.949
306.959	840.901
309.679	1087.04
312.398	1492.32
315.116	1496.79
317.833	1530.59
320.549	1253.73
323.264	1076.89
325.979	790.47
328.692	763.332
331.405	785.661
334.117	437.24
336.828	567.91
339.538	406.363
342.247	583.81
344.956	990.875
347.663	1165.26
350.37	1517.93
353.076	2019.35
355.78	2750.06
358.484	3429.23
361.188	3827.33
363.89	3546.1
366.591	2725.63
369.292	1784.91
371.992	1393.88
374.691	962.532
377.388	650.89
380.086	391.464
382.782	346.746
385.477	434.238
388.172	498.888
390.865	638.388
393.558	715.07
396.25	881.458
398.941	1365.03
401.631	1845.06
404.321	2085.33
407.009	2394.3
409.697	2442.47
412.384	2128.49
415.07	2064.75
417.755	2447.08
420.439	2898.51
423.122	3460.22
425.805	4250.32
428.486	5258.5
431.167	6226.07
433.847	6724.11
436.526	6384.91
439.204	5461.71
441.882	4330.78
444.558	3567.62
447.234	2812.73
449.909	2121.11
452.583	1631
455.256	1420.61
457.928	1129.96
460.6	799.062
463.27	577.924
465.94	256.549
468.609	264.947
471.277	333.105
473.944	391.012
476.61	257.869
479.275	113.266
481.94	258.719
484.604	193.938
487.267	230.768
489.929	287.15
492.59	653.77
495.25	790.916
497.91	997.236
500.569	1153.48
503.226	1429.64
505.883	1865.81
508.54	2581.91
511.195	3247.97
513.849	4503.97
516.503	6769.92
519.156	10165.8
521.808	16671.2
524.459	27864.1
527.109	43356.3
529.758	48089
532.407	41102
535.055	26996.1
537.701	17030.9
540.348	10836
542.993	7391.08
545.637	5277.37
548.281	3802.43
550.923	2818.01
553.565	2233.27
556.206	1748.64
558.846	1234.18
561.486	1359.84
564.124	965.652
566.762	731.605
569.399	787.719
572.035	774.01
574.67	690.527
577.304	767.303
579.938	664.332
582.57	691.637
585.202	789.121
587.833	916.715
590.463	1274.32
593.093	1292
595.721	1709.85
598.349	1947.73
600.976	2095.78
603.602	1995.03
606.227	1773.86
608.851	1212.98
611.475	791.705
614.097	758.836
616.719	456.133
619.34	434.393
621.961	231.549
624.58	111.027
627.199	218.111
629.816	490.502
632.433	199.748
635.049	58.457
637.664	326.92
640.279	532.371
642.893	872.037
645.505	1101.21
648.117	1474.07
650.728	2065.27
653.339	2988.71
655.948	3515.06
658.557	3134.57
661.165	2543.31
663.772	1851.71
666.378	1378.2
668.983	1114.65
671.588	522.123
674.192	348.773
676.795	325.385
679.397	332.803
681.998	240.828
684.598	148.492
687.198	464.918
689.797	163.023
692.395	270.771
694.992	319.355
697.589	592.859
700.184	868.434
702.779	1264.92
705.373	1750.83
707.966	2378.5
710.558	2823.75
713.15	2908.66
715.74	2914.02
718.33	2850.23
720.919	2495.04
723.508	1959.97
726.095	1404.24
728.682	918.566
731.267	652.225
733.852	706.762
736.437	514.676
739.02	259.861
741.603	13.238
744.184	126.391
746.765	159.363
749.345	62.205
751.925	145.268
754.503	529.396
757.081	1.641
759.658	213.682
762.234	205.537
764.809	156.715
767.384	151.625
769.958	149.428
772.53	321.416
775.102	81.436
777.674	258.025
780.244	12.178
782.814	117.842
785.383	71.787
787.951	71.096
790.518	179.871
793.084	171.174
795.65	417.188
798.215	195.305
800.779	3.182
803.342	1750.83
805.905	468.287
808.466	185.562
811.027	322.639
813.587	269.525
816.146	56.217
818.705	222.699
821.263	208.938
823.819	204.525
826.375	0.426
828.931	14.814
831.485	80.246
834.039	225.457
836.592	290.393
839.144	125.078
841.695	159.568
844.246	193.871
846.795	307.971
849.344	311.881
851.892	175.615
854.44	289.16
856.986	442.521
859.532	365.609
862.077	338.141
864.621	300.477
867.164	52.623
869.707	195.471
872.248	493.936
874.789	7.221
877.33	397.955
879.869	707.23
882.408	496.951
884.945	256.383
887.482	164.068
890.019	152.816
892.554	432.582
895.089	269.553
897.623	447.516
900.156	404.889
902.688	460.668
905.22	284.367
907.75	11.992
910.28	488.074
912.809	1124.07
915.338	1104.43
917.865	480.59
920.392	443.082
922.918	222.35
925.443	604.252
927.968	492.684
930.491	463.836
933.014	277.582
935.536	361.545
938.058	485.373
940.578	712.512
943.098	379.555
945.617	825.916
948.135	1042.31
950.653	1238.6
953.169	1303.99
955.685	1530.26
958.2	1674.93
960.715	1479.89
963.228	1056.26
965.741	820.92
968.253	1066.11
970.764	860.51
973.274	609.594
975.784	475.279
978.293	510.93
980.801	967.148
983.308	1132.09
985.815	428.656
988.321	654.17
990.826	1130.16
993.33	1035.3
995.833	624.686
998.336	586.947
1000.84	821.803
1003.34	1145.88
1005.84	808.35
1008.34	512.662
1010.84	446.855
1013.34	958.488
1015.83	602.469
1018.33	846.438
1020.83	630.51
1023.32	934.781
1025.81	1059.24
1028.31	843.768
1030.8	708.215
1033.29	1362.53
1035.78	1556.73
1038.27	1480.85
1040.76	1634.89
1043.25	2018.83
1045.74	3032.84
1048.23	3696.84
1050.71	4890.7
1053.2	5874.38
1055.68	6347.9
1058.17	5113
1060.65	3938.52
1063.13	2784.23
1065.62	3140.14
1068.1	2596.34
1070.58	1682.77
1073.06	1249.42
1075.54	1626.31
1078.02	1383.53
1080.49	711.154
1082.97	849.289
1085.44	848.062
1087.92	777.639
1090.39	337.957
1092.87	239.109
1095.34	461.258
1097.81	1194.63
1100.28	639.547
1102.76	176.352
1105.22	655.527
1107.69	913.104
1110.16	250.789
1112.63	1.654
1115.1	18.887
