Measurement: Raman, 514 nm, ccw, Raman Data Processed
Mineral: Edingtonite
Rruff sample: R040110
Ideal chemistry: Ba(Si_3_Al_2_)O_10_4H_2_O
Locality: 2350 level, Brunswick 12 mine, Bathhurst, New Brunswick, Canada
Source: National Museums of Canada
Description: Colorless rectangular prism
Measured chemistry: Ba_1.00_(Si_3.00_Al_2.00_)O_10_Â·4H_2_O
Pin_id: M00273
Orientation: Laser parallel to -a* (-1 0 0). Fiducial mark perpendicular to laser is parallel to b [0 1 0]
Raman shift (cm-1)	intensity
53.91	0
58.864	99.2217
63.817	13.4745
68.767	26.2719
73.714	338.18
78.659	1094.04
83.602	2211.12
88.542	3282.55
93.48	4641.85
98.416	5665.45
103.349	6346.48
108.28	6322.46
113.208	6093.48
118.134	7041.98
123.058	8310.43
127.979	10078.1
132.898	12023.2
137.814	13804.8
142.728	16332.2
147.639	21258
152.549	25121.4
157.455	20477.6
162.359	12963.7
167.261	8275.69
172.161	6043.53
177.058	4895.11
181.952	4122.55
186.845	3593.64
191.734	3207.43
196.622	2872.6
201.507	2446.86
206.389	2035.36
211.269	1763.45
216.147	1513.68
221.022	1315.15
225.895	1096.66
230.765	1009.71
235.633	830.939
240.498	690.054
245.361	473.821
250.222	429.071
255.08	363.668
259.936	396.5
264.789	570.465
269.64	782.463
274.488	1087.35
279.334	941.057
284.178	501.592
289.019	167.954
293.857	112.125
298.693	29.9248
303.527	24.7612
308.358	63.166
313.187	61.2559
318.013	55.0171
322.837	175.8
327.659	158.32
332.478	147.681
337.294	38.8584
342.108	40.6733
346.92	6.55664
351.729	57.8208
356.535	155.587
361.34	295.364
366.141	303.263
370.94	182.303
375.737	311.38
380.531	475.315
385.323	507.041
390.113	623.486
394.9	882.568
399.684	1364.2
404.466	1395.32
409.245	1147.91
414.022	1205.93
418.797	1499.36
423.569	2206.16
428.338	2926.31
433.105	2801.78
437.87	2161.54
442.632	1137.78
447.391	741.025
452.149	458.034
456.903	379.839
461.655	476.303
466.405	715.751
471.152	963.125
475.897	1364.53
480.639	1944.94
485.378	2719.26
490.116	3666.59
494.85	4334.99
499.582	4462.43
504.312	4726.19
509.039	5793.4
513.764	9511.47
518.486	20218.5
523.206	41480.1
527.923	55258.8
532.638	36301.6
537.35	16279.3
542.059	7837.88
546.766	4245.95
551.471	2582.51
556.173	1772.49
560.873	1225.84
565.57	881.474
570.264	684.368
574.957	595.483
579.646	475.815
584.333	367.31
589.018	282.966
593.7	220.737
598.379	319.728
603.056	319.865
607.73	172.321
612.402	113.278
617.072	27.9307
621.739	5.38184
626.403	56.5625
631.065	10.3115
635.724	55.4004
640.381	25.1221
645.035	77.6269
649.687	10.7446
654.336	10.2344
658.983	54.623
663.627	66.7715
668.268	138.011
672.907	114.27
677.544	232.908
682.178	332.069
686.809	471.956
691.438	756.531
696.065	1151.8
700.688	1831.21
705.31	2062.51
709.929	1826.74
714.545	1255.19
719.158	1056.52
723.77	690.168
728.378	484.123
732.984	335.88
737.588	259.869
742.189	435.354
746.787	227.511
751.383	358.75
755.976	266.405
760.567	238.321
765.155	162.159
769.741	154.026
774.324	88.5566
778.904	95.3281
783.482	104.003
788.058	87.6304
792.631	65.6289
797.201	55.7978
801.769	19.9507
806.334	121.3
810.897	40.061
815.457	27.5195
820.014	3.98389
824.569	54.0244
829.122	28.564
833.671	173.421
838.219	95.0708
842.763	97.4111
847.306	33.46
851.845	129.218
856.382	49.6738
860.917	15.8852
865.448	45.7895
869.978	68.4522
874.505	77.8984
879.029	14.1904
883.55	18.1753
888.069	81.9297
892.586	14.3013
897.1	120.403
901.611	53.1167
906.12	182.295
910.626	165.754
915.129	64.4243
919.63	82.8213
924.129	176.224
928.625	84.0527
933.118	272.464
937.609	241.796
942.097	597.859
946.582	1237.16
951.065	1932.08
955.546	2388.95
960.023	1878.97
964.499	1298.81
968.971	1311.91
973.441	1575.47
977.909	2223.88
982.374	3311.88
986.836	4247.57
991.295	5654.91
995.753	5808.47
1000.21	4005.73
1004.66	1958.89
1009.11	1097.36
1013.55	598.674
1018	539.405
1022.44	568.115
1026.88	530.805
1031.32	851.515
1035.75	1182.73
1040.18	1885.51
1044.61	3363.2
1049.04	5987.27
1053.46	7701.38
1057.88	6264.74
1062.3	3985.69
1066.71	2474.41
1071.13	1582.83
1075.54	975.498
1079.94	732.223
1084.35	706.406
1088.75	507.488
1093.15	615.106
1097.55	604.981
1101.94	752.09
1106.34	508.942
1110.73	242.742
1115.11	192.305
1119.5	239.046
1123.88	319.887
1128.26	230.699
1132.63	125.42
1137.01	160.625
1141.38	40.999
1145.75	68.8242
1150.12	4.44043
1154.48	113.017
1158.84	3.64551
1163.2	94.3594
1167.55	117.809
1171.91	57.0215
1176.26	1.35352
1180.61	24.0986
1184.95	23.8262
1189.29	65.4834
1193.63	83.0703
1197.97	49.9336
1202.31	80.3828
1206.64	52.2803
1210.97	97.6582
1215.29	36.9658
1219.62	90.1982
1223.94	51.4805
1228.26	118.574
1232.57	117.62
1236.89	7.42578
1241.2	184.482
1245.51	40.0967
1249.81	126.757
1254.12	31.3359
1258.42	131.174
1262.72	7.89648
1267.01	58.793
1271.3	94.6631
1275.59	87.4678
1279.88	65.1641
1284.17	53.3809
1288.45	129.815
1292.73	32.7119
1297.01	37.6377
1301.28	108.308
1305.55	132.797
1309.82	62.2656
1314.09	94.2559
1318.35	111.318
1322.61	23.9404
1326.87	77.4326
1331.13	177.394
1335.38	128.213
1339.63	39.0723
1343.88	111.851
1348.12	126.339
1352.37	135.062
1356.61	282.353
1360.85	234.701
1365.08	95.8574
1369.31	186.777
1373.54	87.6914
1377.77	177.541
1381.99	152.331
1386.22	248.685
1390.43	54.4346
1394.65	150.073
1398.87	114.677
1403.08	223.885
1407.29	269.348
1411.49	105.781
1415.69	29.8193
1419.89	139.16
1424.09	84.4941
1428.29	106.499
1432.48	156.377
1436.67	221.93
1440.86	121.076
1445.04	123.856
1449.23	264.09
1453.4	204.661
1457.58	77.4356
1461.76	124.797
1465.93	66.8047
1470.1	278.03
1474.26	86.1777
1478.43	148.27
1482.59	211.607
1486.75	86.0264
1490.9	41.457
1495.06	168.493
1499.21	199.177
1503.35	92.3496
1507.5	96.5791
1511.64	185.794
1515.78	104.181
1519.92	115.888
1524.05	89.8555
1528.18	168.184
1532.31	169.201
1536.44	55.5449
1540.56	232.894
1544.69	49.4316
1548.8	112.12
1552.92	78.0732
1557.03	87.4463
1561.14	109.651
1565.25	56.2812
1569.36	77.8008
