Measurement: Raman, 514 nm, ccw, Raman Data Processed
Mineral: Edingtonite
Rruff sample: R040110
Ideal chemistry: Ba(Si_3_Al_2_)O_10_4H_2_O
Locality: 2350 level, Brunswick 12 mine, Bathhurst, New Brunswick, Canada
Source: National Museums of Canada
Description: Colorless rectangular prism
Measured chemistry: Ba_1.00_(Si_3.00_Al_2.00_)O_10_Â·4H_2_O
Pin_id: L01449
Orientation: Laser parallel to b* (0 1 0). Fiducial mark perpendicular to laser is parallel to c [0 0 1]
Raman shift (cm-1)	intensity
91.012	0
95.948	191.13
100.883	933.73
105.815	2432.29
110.744	4125.12
115.671	5956.49
120.596	7255.97
125.519	9351.33
130.439	14362.4
135.356	19846
140.271	15559.7
145.184	9128.18
150.094	6802.38
155.002	6418.29
159.908	4752.76
164.811	2596.93
169.711	1276.65
174.61	638.082
179.505	463.845
184.399	349.913
189.29	509.405
194.178	547.146
199.064	423.389
203.948	320.373
208.829	149.461
213.708	250.251
218.585	455.304
223.459	987.051
228.33	3015.43
233.199	10274.5
238.066	18157.8
242.93	5889.19
247.792	1632.18
252.651	410.112
257.508	234.656
262.363	52.0083
267.215	150.457
272.064	117.969
276.912	70.0322
281.756	245.99
286.598	364.918
291.438	99.7417
296.276	11.103
301.111	328.747
305.943	847.539
310.773	1431.43
315.601	1745.5
320.426	1606.82
325.248	1143.77
330.068	943.753
334.886	763.181
339.701	914.195
344.514	1002.33
349.324	1344.61
354.132	2087.81
358.938	3333.79
363.741	3474.55
368.541	2191.09
373.339	1181.42
378.135	756.577
382.928	745.583
387.718	734.705
392.506	661.676
397.292	975.299
402.075	1889.47
406.856	2353.21
411.634	2091.91
416.41	2132.95
421.183	2853.82
425.954	3981.39
430.722	5527.22
435.488	6060.46
440.251	4895.85
445.012	3465.2
449.77	2093.35
454.526	1276.34
459.28	674.196
464.03	303.938
468.779	63.5859
473.525	7.79541
478.268	2.18994
483.009	56.4727
487.747	240.639
492.483	645.486
497.217	950.066
501.948	1235.33
506.676	1958.23
511.402	3184.61
516.125	5874.43
520.846	13412.6
525.565	32127.2
530.281	51787.9
534.994	31952.9
539.705	14054.1
544.413	6707.62
549.119	3706.4
553.822	2180.99
558.523	1401.71
563.222	875.557
567.917	630.713
572.611	501.788
577.302	442.813
581.99	482.267
586.676	648.481
591.359	738.995
596.04	1209.8
600.718	1688.88
605.394	1564.23
610.067	909.028
614.737	531.872
619.406	164.525
624.071	0.986816
628.734	37.2866
633.395	45.457
638.053	130.918
642.708	381.975
647.361	1005.42
652.012	1853.94
656.66	2644.65
661.305	2179.69
665.948	1281.66
670.588	624.271
675.226	346.122
679.861	175.235
684.494	131.132
689.124	187.773
693.752	213.281
698.377	546.33
702.999	968.928
707.619	1724.53
712.237	2305.79
716.852	2679.69
721.464	2004.32
726.074	1275.75
730.681	580.502
735.286	467.071
739.888	191.156
744.488	84.4438
749.085	17.6333
753.68	59.2231
758.272	0.776367
762.861	112.351
767.448	17.9927
772.033	51.1187
776.614	37.8496
781.194	24.7139
785.77	26.5059
790.345	49.9731
794.916	21.9863
799.485	13.331
804.052	84.0928
808.616	91.4048
813.177	113.266
817.736	112.673
822.292	161.649
826.846	42.1851
831.397	115.231
835.945	89.8096
840.491	135.916
845.035	177.589
849.576	140.846
854.114	228.69
858.65	160.13
863.183	65.1709
867.713	214.798
872.241	183.03
876.767	160.872
881.29	136.333
885.81	147.469
890.328	113.432
894.843	157.795
899.356	172.99
903.866	72.7314
908.373	120.811
912.878	115.098
917.38	34.459
921.88	22.5928
926.377	79.9624
930.872	36.0601
935.364	141.673
939.853	154.75
944.34	351.457
948.824	684.911
953.306	1308.92
957.785	1537.23
962.261	1048.59
966.735	590.943
971.207	346.176
975.675	287.089
980.141	214.191
984.605	300.321
989.066	337.675
993.524	190.007
997.98	266.824
1002.43	308.917
1006.88	195.982
1011.33	203.253
1015.78	222.514
1020.22	226.64
1024.66	303.019
1029.1	383.419
1033.53	653.179
1037.97	986.861
1042.4	1410.55
1046.82	2523.42
1051.25	4619.27
1055.67	6047.03
1060.09	4997.98
1064.51	3420.38
1068.92	2268.97
1073.33	1542.63
1077.74	1105.26
1082.15	947.962
1086.55	608.851
1090.95	557.053
1095.35	632.521
1099.75	714.857
1104.14	727.225
1108.53	543.657
1112.92	399.592
1117.31	376.622
1121.69	199.977
1126.07	168.194
1130.45	123.504
1134.82	2.08398
1139.19	102.421
1143.57	86.0249
1147.93	48.8394
1152.3	60.1509
1156.66	83.0327
1161.02	72.0356
1165.38	17.103
1169.73	15.5156
1174.08	10.2915
1178.43	52.9551
1182.78	8.28662
1187.12	11.3608
1191.46	118.01
1195.8	39.4209
1200.14	2.15234
1204.47	18.7686
1208.8	9.47607
1213.13	14.8799
1217.46	83.2256
1221.78	27.7407
1226.1	53.1699
1230.42	24.8984
1234.73	21.1792
1239.04	38.0645
1243.35	45.6899
1247.66	4.23438
1251.97	131.72
1256.27	54.1606
1260.57	19.6548
1264.86	106.085
1269.16	67.792
1273.45	113.264
1277.74	88.1528
1282.03	75.3188
1286.31	124.372
1290.59	69.2602
1294.87	91.1973
1299.14	95.0772
1303.42	129.301
1307.69	55.0576
1311.95	99.6143
1316.22	163.911
1320.48	179.33
1324.74	189.843
1329	121.204
1333.26	112.935
1337.51	3.82422
1341.76	0.992188
1346	14.0308
1350.25	68.0757
1354.49	107.622
1358.73	95.3379
1362.96	6.61328
1367.2	80.1938
1371.43	18.8975
1375.66	101.452
1379.88	27.9536
1384.11	111.524
1388.33	39.9941
1392.54	83.7119
1396.76	34.9673
1400.97	4.46191
1405.18	113.863
1409.39	70.731
1413.59	109.044
1417.8	169.684
1421.99	140.88
1426.19	49.8545
1430.38	65.894
1434.58	182.854
1438.77	37.793
1442.95	157.833
1447.13	95.4316
1451.32	158.634
1455.49	78.9228
1459.67	115.677
1463.84	166.404
1468.01	119.843
1472.18	117.473
1476.35	125.56
1480.51	130.409
1484.67	61.1211
1488.83	66.3296
1492.98	31.5952
1497.13	15.9727
1501.28	125.293
1505.43	47.6665
1509.57	71.0142
1513.71	145.415
1517.85	90.9898
1521.99	41.8989
1526.12	108.057
1530.25	43.3086
1534.38	151.762
1538.5	118.223
1542.62	163.282
1546.74	85.3872
1550.86	121.475
1554.98	207.81
1559.09	100.302
1563.2	19.5732
1567.31	56.7607
1571.41	0.07959
