Measurement: Raman, 514 nm, ccw, Raman Data Processed
Mineral: Elbaite
Rruff sample: R060562
Ideal chemistry: Na(Al_1.5_Li_1.5_)Al_6_(Si_6_O_18_)(BO_3_)_3_(OH)_3_OH
Locality: unknown
Source: Gemological Institute of America
Description: Blue colored polished fragment
Measured chemistry: (Na_0.68_Ca_0.20_[box]_0.12_)(Li_1.20_Al_1.12_Fe^2+^_0.50_Mn_0.18_)Al_6_(BO_3_)_3_[Si_6_O_18_]((OH)_0.80_F_0.20_)_4_
Pin_id: M00501
Orientation: Laser parallel to c* (0 0 1). Fiducial mark perpendicular to laser is parallel to -a [-1 0 0]
Raman shift (cm-1)	intensity
118.134	0
123.058	1324.51
127.979	2215.03
132.898	2368.96
137.814	1521.55
142.728	1138.93
147.639	1328.98
152.549	1628.02
157.455	999.915
162.359	466.755
167.261	189.371
172.161	114.353
177.058	103.02
181.952	143.45
186.845	1024.22
191.734	2497.99
196.622	4352.48
201.507	5802.48
206.389	5002.73
211.269	6618.98
216.147	10510.3
221.022	16261.8
225.895	19044.7
230.765	16825
235.633	13819.2
240.498	10802.1
245.361	7243.82
250.222	4393.41
255.08	2266.94
259.936	1787.5
264.789	170.538
269.64	469.74
274.488	292.141
279.334	146.131
284.178	89.501
289.019	234.264
293.857	529.229
298.693	843.425
303.527	1610.61
308.358	2755.98
313.187	3300.53
318.013	3858.42
322.837	4977.47
327.659	6298.55
332.478	6613.63
337.294	6010.76
342.108	5449.59
346.92	5017.65
351.729	5091.48
356.535	5806.33
361.34	8464.19
366.141	13927.1
370.94	24115
375.737	36406.9
380.531	31136.8
385.323	19160.8
390.113	12362.7
394.9	9694.76
399.684	9043.81
404.466	10222.1
409.245	10516.3
414.022	7249.11
418.797	3967.28
423.569	2351.11
428.338	1505.33
433.105	1113.82
437.87	920.753
442.632	793.645
447.391	819.516
452.149	913.38
456.903	1127.27
461.655	1735.23
466.405	2549.58
471.152	2699.24
475.897	2687.93
480.639	2330.55
485.378	2106.93
490.116	2231.53
494.85	2390.73
499.582	2396.09
504.312	2341.65
509.039	2141.47
513.764	2003.52
518.486	1704.69
523.206	1502.95
527.923	2145.26
532.638	2897.62
537.35	3285.63
542.059	3290.39
546.766	3159.06
551.471	2774.73
556.173	2309.58
560.873	1714.97
565.57	880.8
570.264	726.364
574.957	817.048
579.646	1208.48
584.333	1539.61
589.018	1873.4
593.7	1719.83
598.379	1600.91
603.056	1386.7
607.73	852.513
612.402	32.8516
617.072	276.353
621.739	456.638
626.403	212.379
631.065	266.557
635.724	796.329
640.381	918.358
645.035	684.913
649.687	337.757
654.336	524.938
658.983	709.213
663.627	587.56
668.268	627.938
672.907	598.309
677.544	342.635
682.178	74.8789
686.809	132.82
691.438	37.0371
696.065	642.87
700.688	2153.8
705.31	3417.67
709.929	5238.51
714.545	8591.94
719.158	14399.9
723.77	24313.4
728.378	34044.3
732.984	31818.3
737.588	21856.2
742.189	14748.3
746.787	9882.42
751.383	6365.7
755.976	4443.87
760.567	3280.69
765.155	1923.4
769.741	1233.33
774.324	550.964
778.904	127.436
783.482	209.06
788.058	373.103
792.631	543.63
797.201	807.182
801.769	1488.76
806.334	1854.35
810.897	1656.95
815.457	1173.54
820.014	759.108
824.569	704.207
829.122	1093.42
833.671	1677.08
838.219	1650.81
842.763	1339.61
847.306	935.476
851.845	840.395
856.382	820.372
860.917	738.403
865.448	539.491
869.978	289.608
874.505	67.6406
879.029	62.6592
883.55	71.1348
888.069	228.847
892.586	105.319
897.1	78.3369
901.611	108.638
906.12	123.613
910.626	59.3701
915.129	211.355
919.63	367.344
924.129	558.136
928.625	927.82
933.118	1164.78
937.609	1484.19
942.097	2428.9
946.582	2263.93
951.065	2370.84
955.546	2703.23
960.023	3123.35
964.499	3578.07
968.971	4016.32
973.441	4487.99
977.909	4343.05
982.374	4056.47
986.836	3657.28
991.295	3615.5
995.753	3667.13
1000.21	3807.19
1004.66	3983.24
1009.11	4284.17
1013.55	5011.48
1018	5898.25
1022.44	6488.75
1026.88	7200.85
1031.32	7327.71
1035.75	7951.97
1040.18	9464.9
1044.61	11597.2
1049.04	14752.6
1053.46	19340
1057.88	24158.5
1062.3	26614
1066.71	24199.4
1071.13	17410.4
1075.54	11193.4
1079.94	7214.35
1084.35	4871.68
1088.75	3804.68
1093.15	2900.88
1097.55	2547.99
1101.94	2119.51
1106.34	1826.23
1110.73	1544.59
1115.11	1427.41
1119.5	1356.08
1123.88	1099.66
1128.26	1072.08
1132.63	1403.51
1137.01	1623.74
1141.38	1837.97
1145.75	1424.43
1150.12	791.181
1154.48	432.449
1158.84	188.69
1163.2	107.786
1167.55	83.585
1171.91	67.8897
1176.26	27.6543
1180.61	21.6719
1184.95	30.1553
1189.29	192.841
1193.63	90.4824
1197.97	95.7422
1202.31	18.5332
1206.64	46.3438
1210.97	117.512
1215.29	64.9004
1219.62	66.7168
1223.94	34.0352
1228.26	9.64941
1232.57	58.7969
1236.89	46.541
1241.2	178.823
1245.51	180.065
1249.81	226.272
1254.12	221.432
1258.42	55.5449
1262.72	264.611
1267.01	455.635
1271.3	409.617
1275.59	613.553
1279.88	698.418
1284.17	647.206
1288.45	626.898
1292.73	693.476
1297.01	672.909
1301.28	605.027
1305.55	736.55
1309.82	720.953
1314.09	789.976
1318.35	796.302
1322.61	849.561
1326.87	768.208
1331.13	642.743
1335.38	633.485
1339.63	643.043
1343.88	871.601
1348.12	702.558
1352.37	509.181
1356.61	690.428
1360.85	826.918
1365.08	713.247
1369.31	857.294
1373.54	1339.05
1377.77	1605.66
1381.99	1969.93
1386.22	1874.17
1390.43	1886.93
1394.65	1511.97
1398.87	1257.32
1403.08	1180.03
1407.29	925.219
1411.49	815.814
1415.69	792.39
1419.89	712.296
1424.09	603.042
1428.29	569.658
1432.48	566.242
1436.67	637.039
1440.86	483.949
1445.04	185.384
1449.23	196.738
1453.4	338.806
1457.58	91.2227
1461.76	108.118
1465.93	91.2773
1470.1	56.3721
1474.26	26.9551
1478.43	64.4805
1482.59	34.8906
1486.75	217.833
1490.9	45.752
1495.06	9.0166
1499.21	30.4004
1503.35	124.734
1507.5	280.441
1511.64	251.74
1515.78	405.475
1519.92	531.564
1524.05	400.93
1528.18	232.892
1532.31	242.347
1536.44	114.623
1540.56	306.416
1544.69	214.198
1548.8	327.313
1552.92	304.081
1557.03	326.991
1561.14	232.4
1565.25	181.216
1569.36	139.254
