Measurement: Raman, 514 nm, ccw, Raman Data Processed
Mineral: Elbaite
Rruff sample: R050487
Ideal chemistry: Na(Al_1.5_Li_1.5_)Al_6_(Si_6_O_18_)(BO_3_)_3_(OH)_3_OH
Locality: White Queen mine, Pala, San Diego County, California, USA
Source: California Institute of Technology
Description: Mass of blue acicular crystals
Measured chemistry: (Na_0.86_[box]_0.13_Ca_0.01_)(Al_0.42_Li_0.38_Fe^2+^_0.18_Mn_0.02_)_3_Al_6_(BO_3_)_3_Si_6_O_18_((OH)_0.85_F_0.15_)_4_
Pin_id: M01385
Orientation: Laser parallel to c* (0 0 1). Fiducial mark perpendicular to laser is parallel to b [0 1 0]
Raman shift (cm-1)	intensity
191.399	0
196.296	191.589
201.19	273.239
206.082	1173.74
210.971	3192.94
215.858	5536.32
220.742	6660.18
225.624	6062.77
230.503	4064.54
235.38	2928.9
240.254	2371.26
245.125	2078.42
249.994	940.851
254.861	385.714
259.725	27.5264
264.586	73.2881
269.445	130.994
274.302	248.141
279.155	149.38
284.007	22.8975
288.855	126.21
293.702	128.175
298.545	219.256
303.386	0.25293
308.225	410.729
313.061	626.965
317.894	1332.04
322.725	2035.06
327.554	3089.29
332.38	3453.86
337.203	3449.5
342.024	3631.87
346.842	4486.82
351.658	5168.35
356.471	5520.76
361.281	6771.7
366.09	9687.11
370.895	12062.9
375.698	12263.4
380.498	8764.27
385.296	5305.27
390.092	3615.32
394.884	2924.61
399.675	2442.73
404.462	2675.66
409.248	2223.76
414.03	1585.39
418.81	1101.2
423.588	683.871
428.363	487.085
433.135	406.525
437.905	569.366
442.672	608.07
447.437	549.938
452.199	423.729
456.959	635.735
461.716	712.312
466.47	772.751
471.222	833.874
475.972	980.913
480.719	1126.89
485.463	1617.31
490.205	2050.99
494.944	2453.11
499.681	2835.32
504.415	2577.19
509.146	1712.26
513.875	891.553
518.602	181.133
523.326	87.041
528.047	93.3574
532.766	189.176
537.482	393.016
542.196	864.629
546.907	1063.21
551.616	1069.63
556.322	827.574
561.025	503.144
565.726	439.462
570.424	384.941
575.12	441.965
579.813	504.635
584.504	682.038
589.192	870.905
593.877	1238.78
598.56	1512.51
603.241	1480.06
607.919	921.413
612.594	632.6
617.267	446.945
621.937	238.847
626.604	351.384
631.269	604.267
635.932	838.99
640.592	701.396
645.249	500.461
649.904	794.176
654.556	801.62
659.206	1114.63
663.853	805.154
668.497	499.157
673.139	36.5684
677.779	114.383
682.416	342.078
687.05	294.593
691.682	35.4434
696.311	322.2
700.937	733.807
705.561	1794.7
710.183	3227.87
714.802	6545.31
719.418	10292
724.032	13244.9
728.643	11795
733.251	7779.24
737.857	4145.68
742.461	2765.27
747.062	2729.06
751.66	2715.39
756.256	2893.56
760.849	2219.77
765.44	1895.91
770.028	1281.94
774.613	1003.21
779.196	959.063
783.777	884.092
788.354	1013.45
792.93	1330.08
797.502	1730.85
802.072	2313.57
806.64	3482.19
811.205	4549.9
815.767	2987.15
820.327	1960.87
824.884	1885.85
829.439	2159.14
833.991	2485.26
838.541	2680.67
843.087	2571.8
847.632	3189.28
852.174	4655.14
856.713	5266.37
861.25	4245.01
865.784	2435.05
870.315	1052.51
874.844	579.407
879.371	344.155
883.894	119.591
888.416	67.9512
892.934	154.264
897.45	198.542
901.964	62.1201
906.475	66.5361
910.983	30.6328
915.489	32.6611
919.992	18.209
924.493	74.7676
928.991	393.589
933.486	245.852
937.979	478.078
942.47	569.961
946.957	810.252
951.443	943.109
955.925	1066.01
960.405	1460.54
964.883	1649.45
969.358	1601.79
973.83	1859.09
978.3	1779.28
982.767	1991.38
987.232	2208.39
991.694	2092.33
996.153	2031.21
1000.61	2442.05
1005.06	2139.86
1009.52	2444.66
1013.97	2463.46
1018.41	2572.35
1022.86	3065.92
1027.3	2985.48
1031.74	3392.18
1036.17	4104.39
1040.61	5056.36
1045.04	6207.99
1049.47	8530.17
1053.89	10715.5
1058.32	11906.2
1062.74	10818.1
1067.15	7869.48
1071.57	5208.08
1075.98	3358.07
1080.39	2069.09
1084.8	1634.75
1089.21	1496.01
1093.61	1696.44
1098.01	1853.01
1102.41	2209.07
1106.8	2852.42
1111.19	3749.31
1115.59	3517.84
1119.97	2214.46
1124.36	1527.74
1128.74	1170.16
1133.12	1055.73
1137.5	793.445
1141.87	547.326
1146.24	825.371
1150.61	548.611
1154.98	1154.22
1159.34	1209.67
1163.7	838.26
1168.06	530.926
1172.42	261.197
1176.77	416.746
1181.12	493.529
1185.47	414.555
1189.82	225.889
1194.16	48.4727
1198.5	348.857
1202.84	77.1113
1207.18	148.945
1211.51	85.8047
1215.84	122.914
1220.17	459.674
1224.5	424.379
1228.82	732.531
1233.14	713.889
1237.46	676.449
1241.77	795.229
1246.09	716.248
1250.39	536.607
1254.7	1029.25
1259.01	1113.13
1263.31	936.264
1267.61	937.654
1271.91	958.307
1276.2	771.234
1280.49	452.443
1284.78	588.936
1289.07	471.685
1293.35	873.84
1297.64	549.832
1301.91	623.537
1306.19	569.606
1310.46	564.053
1314.74	230.496
1319.01	254.125
1323.27	693.309
1327.54	288.852
1331.8	327.514
1336.06	322.705
1340.31	157.332
1344.57	152.691
1348.82	94.5019
1353.06	171.709
1357.31	187.367
1361.55	123.49
1365.79	185.084
1370.03	379.164
1374.27	557.961
1378.5	749.656
1382.73	875.246
1386.96	890.385
1391.18	908.094
1395.4	779.404
1399.62	687.338
1403.84	626.934
1408.06	473.164
1412.27	512.566
1416.48	651.549
1420.69	599.385
1424.89	894.195
1429.09	1335.28
1433.29	2049.52
1437.49	2930.62
1441.68	3596.36
1445.87	4436.71
1450.06	4504.16
1454.25	4162.54
1458.43	3932.81
1462.62	2628.91
1466.79	1900.88
1470.97	1277.66
1475.14	1009.98
1479.31	944.119
1483.48	824.139
1487.65	489.035
1491.81	382.815
1495.97	85.1992
1500.13	258.312
1504.29	42.459
1508.44	147.408
1512.59	238.191
1516.74	213.678
1520.88	106.809
1525.03	221.773
1529.17	273.772
1533.3	155.725
1537.44	150.551
1541.57	67.3711
1545.7	142.258
1549.83	257.1
1553.95	317.949
1558.08	97.5781
1562.19	115.66
