Measurement: Raman, 514 nm, ccw, Raman Data Processed
Mineral: Elbaite
Rruff sample: R050260
Ideal chemistry: Na(Al_1.5_Li_1.5_)Al_6_(Si_6_O_18_)(BO_3_)_3_(OH)_3_OH
Locality: Minas Gerais, Brazil
Source: Marcus Origlieri
Description: Greenish-gray prismatic single crystal
Measured chemistry: (Na_0.76_[box]_0.17_Ca_0.07_)_Σ=1_(Al_1.67_Li_0.97_Mn_0.36_)_Σ=3_Al_6.00_(B_1.00_O_3_)_3_Si_6.00_O_18_((OH)_3.40_F_0.60_)_Σ=4_; B assumed by stoichiometry; OH estimated by charge balance
Pin_id: L01964
Orientation: Laser parallel to a* (1 0 0). Fiducial mark perpendicular to laser is parallel to -c [0 0 -1]
Raman shift (cm-1)	intensity
118.134	0
123.058	569.635
127.979	525.482
132.898	964.683
137.814	960.594
142.728	155.477
147.639	440.809
152.549	1857.57
157.455	2353
162.359	2370.7
167.261	1441.71
172.161	484.202
177.058	52.877
181.952	153.254
186.845	188.338
191.734	1086.07
196.622	2182.27
201.507	3335.09
206.389	4252.8
211.269	7868.79
216.147	13207.3
221.022	20122.8
225.895	22471.7
230.765	15112
235.633	10350.3
240.498	8902.74
245.361	8317.14
250.222	6446.52
255.08	4151.89
259.936	3280.87
264.789	2358.99
269.64	2618.78
274.488	2734.15
279.334	2213.22
284.178	1184.74
289.019	473.029
293.857	191.049
298.693	342.484
303.527	161.846
308.358	1176.05
313.187	2379.9
318.013	3297.92
322.837	5149.37
327.659	7242.87
332.478	9133.08
337.294	9906.99
342.108	9376.62
346.92	8823.94
351.729	8912.91
356.535	10214.9
361.34	15071.4
366.141	22845.5
370.94	32117.3
375.737	40822.8
380.531	31407
385.323	19962.7
390.113	13588.9
394.9	10560.8
399.684	9601.12
404.466	9392.97
409.245	9069.3
414.022	7382.16
418.797	4321.58
423.569	2126.59
428.338	1186.21
433.105	783.463
437.87	814.418
442.632	1367.77
447.391	1877.56
452.149	2005.93
456.903	1849.16
461.655	1969.11
466.405	1656.65
471.152	1369.83
475.897	1186.08
480.639	1477.44
485.378	2193.9
490.116	3251.42
494.85	4325.97
499.582	4694.53
504.312	5049.06
509.039	5374.53
513.764	5199.9
518.486	4497.12
523.206	3644.24
527.923	3453.6
532.638	3730.16
537.35	3927.74
542.059	3794.09
546.766	2980.72
551.471	2181.97
556.173	1636.65
560.873	1106.72
565.57	754.1
570.264	544.74
574.957	353.574
579.646	31.4395
584.333	199.336
589.018	254.002
593.7	354.412
598.379	411.248
603.056	218.797
607.73	21.6484
612.402	83.2129
617.072	386.303
621.739	1118.13
626.403	2621.43
631.065	4703.4
635.724	5724.98
640.381	4353.39
645.035	2317.45
649.687	1167.92
654.336	576.606
658.983	658.797
663.627	712.387
668.268	484.69
672.907	540.773
677.544	915.881
682.178	1094.19
686.809	1656.67
691.438	3687.98
696.065	8062.74
700.688	13877.9
705.31	19297.4
709.929	19825.2
714.545	14137.4
719.158	7994.82
723.77	4536.95
728.378	3294.45
732.984	3502.94
737.588	5208.67
742.189	9415.94
746.787	16375.3
751.383	23654.7
755.976	22225.8
760.567	15116.3
765.155	10938.2
769.741	8099.77
774.324	6815.34
778.904	5691.29
783.482	3158.43
788.058	1371.78
792.631	622.421
797.201	192.881
801.769	34.1719
806.334	343.683
810.897	164.01
815.457	181.778
820.014	23.5576
824.569	728.405
829.122	1622.18
833.671	2799.86
838.219	3198.43
842.763	2675.92
847.306	1940.31
851.845	1589.63
856.382	1825.89
860.917	1488.24
865.448	1158.01
869.978	958.28
874.505	1024.23
879.029	691.138
883.55	487.009
888.069	380.063
892.586	62.9785
897.1	60.5957
901.611	91.3731
906.12	24.335
910.626	4.0166
915.129	105.76
919.63	108.428
924.129	445.128
928.625	865.246
933.118	1314.01
937.609	1712.1
942.097	1887.46
946.582	2192.22
951.065	2554.88
955.546	2813.98
960.023	2878.99
964.499	3290.14
968.971	3766.84
973.441	3956.1
977.909	4171.94
982.374	4346.37
986.836	4508.42
991.295	4274.09
995.753	4078.41
1000.21	4205.37
1004.66	4215.99
1009.11	4578.25
1013.55	5059.15
1018	5990.41
1022.44	6778.4
1026.88	7435.31
1031.32	8346.02
1035.75	10003.9
1040.18	13340.7
1044.61	18217.3
1049.04	24316.5
1053.46	29843.9
1057.88	32568.8
1062.3	30602
1066.71	25866.2
1071.13	20779.5
1075.54	16443.5
1079.94	13809.9
1084.35	11629.5
1088.75	9821.87
1093.15	7501.36
1097.55	5660.3
1101.94	4114.01
1106.34	3190.52
1110.73	2584.83
1115.11	2060.95
1119.5	2094.9
1123.88	1998.65
1128.26	1410.22
1132.63	956.614
1137.01	682.827
1141.38	456.864
1145.75	378.729
1150.12	249.427
1154.48	164.973
1158.84	47.4287
1163.2	42.9404
1167.55	207.395
1171.91	87.9814
1176.26	164.562
1180.61	42.7324
1184.95	31.4375
1189.29	186.645
1193.63	132.66
1197.97	94.2217
1202.31	8.58789
1206.64	123.04
1210.97	37.6455
1215.29	111.189
1219.62	166.092
1223.94	123.044
1228.26	130.931
1232.57	253.034
1236.89	457.257
1241.2	377.405
1245.51	341.389
1249.81	258.169
1254.12	305.748
1258.42	866.131
1262.72	322.326
1267.01	563.34
1271.3	502.177
1275.59	517.843
1279.88	587.345
1284.17	448.6
1288.45	582.458
1292.73	495.051
1297.01	619.084
1301.28	651.625
1305.55	638.297
1309.82	667.066
1314.09	735.544
1318.35	746.332
1322.61	865.13
1326.87	617.096
1331.13	758.077
1335.38	720.589
1339.63	1027.84
1343.88	626.579
1348.12	887.466
1352.37	1105.41
1356.61	1176.67
1360.85	1098.53
1365.08	1213.31
1369.31	1547.14
1373.54	1785.28
1377.77	2078.06
1381.99	2273.16
1386.22	2568.06
1390.43	2861.32
1394.65	3023.96
1398.87	2822.44
1403.08	2510.3
1407.29	2193.22
1411.49	1847.83
1415.69	1449.58
1419.89	1068.6
1424.09	1135.95
1428.29	983.676
1432.48	1128.01
1436.67	1048.02
1440.86	1079.37
1445.04	850.402
1449.23	819.391
1453.4	516.663
1457.58	672.908
1461.76	514.416
1465.93	367.704
1470.1	325.281
1474.26	74.835
1478.43	3.78223
1482.59	29.8154
1486.75	24.0713
1490.9	55.5254
1495.06	9.52832
1499.21	89.1514
1503.35	166.529
1507.5	276.522
1511.64	247.988
1515.78	425.365
1519.92	236.677
1524.05	235.898
1528.18	216.682
1532.31	410.875
1536.44	204.268
1540.56	254.807
1544.69	206.092
1548.8	308.974
1552.92	505.032
1557.03	121.042
1561.14	162.306
1565.25	227.394
1569.36	91.541
