Measurement: Raman, 514 nm, ccw, Raman Data Processed
Mineral: Elbaite
Rruff sample: R050119
Ideal chemistry: Na(Al_1.5_Li_1.5_)Al_6_(Si_6_O_18_)(BO_3_)_3_(OH)_3_OH
Locality: Cruziero mine, San Jose, Minas Gerais, Brazil
Source: Carlos and Paulo Vasconcelos
Description: Red fragment
Measured chemistry: (Na_0.90_Ca_0.10_)(Al_0.56_Li_0.38_Mn_0.06_)_3_Al_6_(BO_3_)_3_(Si_0.89_B_0.11_)_6_O_18_(OH)_4_
Pin_id: L00157
Orientation: Laser parallel to -b* (0 -1 0). Fiducial mark perpendicular to laser is parallel to c [0 0 1]
Raman shift (cm-1)	intensity
120.508	0
124.675	69.813
128.84	153.3
133.003	81.257
137.164	9.909
141.323	0.385
145.48	172.232
149.635	417.518
153.788	665.712
157.939	482.542
162.088	212.013
166.235	211.222
170.38	287.622
174.523	356.079
178.664	152.093
182.803	87.135
186.94	227.825
191.076	493.88
195.209	909.082
199.34	1665.26
203.47	2725.24
207.597	4243.93
211.722	7013.89
215.846	12216.6
219.967	21161.8
224.087	28169.5
228.204	25018
232.32	18327.1
236.434	13916.7
240.545	12346.9
244.655	13327.7
248.763	14619.2
252.869	13711.4
256.973	11774.2
261.075	10557.7
265.175	10552
269.273	11116.9
273.369	10492.4
277.463	8828.7
281.556	6285.64
285.646	3629.64
289.734	2075.68
293.821	1329.13
297.905	1068.63
301.988	989.514
306.069	1130.69
310.147	1937.95
314.224	3331.22
318.299	3463.71
322.372	2305.83
326.443	1918.42
330.512	1884.62
334.579	1833.28
338.645	1600.71
342.708	1810.88
346.769	2249.72
350.829	2699.23
354.887	3779.36
358.942	5880.12
362.996	9211.46
367.048	15033.4
371.098	26435.9
375.146	38068.9
379.192	33042.5
383.236	21466.6
387.279	14691.2
391.319	11446.3
395.358	10601.9
399.394	10377.9
403.429	10764.3
407.462	11281.2
411.493	10868.6
415.522	8646.43
419.549	6194.69
423.575	3893.38
427.598	2462.5
431.619	1582.04
435.639	835.999
439.657	623.364
443.673	550.131
447.687	377.311
451.699	17.946
455.709	86.673
459.717	122.095
463.724	100.524
467.728	238.149
471.731	192.903
475.732	118.716
479.731	150.771
483.728	172.079
487.723	64.279
491.716	239.908
495.708	769.609
499.697	1243.94
503.685	1977.98
507.671	2892.65
511.655	3908.09
515.637	4664.33
519.617	4631.35
523.596	4269.16
527.572	3337.7
531.547	2606.94
535.52	2316.81
539.491	1927.27
543.46	1758.27
547.427	1399.7
551.393	945.498
555.356	656.671
559.318	431.166
563.278	519.98
567.236	493.113
571.192	498.547
575.147	409.271
579.099	370.272
583.05	745.542
586.999	1002.07
590.946	862.862
594.891	961.898
598.834	1127.17
602.776	1112.66
606.715	1098.37
610.653	1003.17
614.589	1104.26
618.523	1373.04
622.456	1836.26
626.386	2358.78
630.315	3261.16
634.242	4754.5
638.167	7390.68
642.09	9759.22
646.012	9895.49
649.931	8545.83
653.849	7611.73
657.765	6300.17
661.679	4743.64
665.592	3193.1
669.502	2043.15
673.411	1742.27
677.318	1600.98
681.223	1757.44
685.126	1842.87
689.028	2298.54
692.927	3273.53
696.825	5069.65
700.721	7614.35
704.616	12138.3
708.508	16750.4
712.399	17379
716.288	13728
720.175	9136.96
724.06	5406.12
727.944	3684.7
731.825	2862.89
735.705	2760.29
739.584	2997.93
743.46	3515.34
747.334	4412.96
751.207	5069.97
755.078	4146.7
758.947	2793.08
762.815	1849.09
766.68	994.863
770.544	577.509
774.406	359.054
778.267	451.692
782.125	379.501
785.982	127.295
789.837	111.146
793.69	92.123
797.542	186.128
801.391	191.93
805.239	74.395
809.085	88.623
812.93	176.439
816.772	73.83
820.613	33.381
824.452	74.828
828.29	146.771
832.125	229.525
835.959	235.419
839.791	53.592
843.621	60.771
847.45	93.089
851.277	51.588
855.102	4.54
858.925	148.82
862.746	341.775
866.566	347.327
870.384	229.552
874.2	87.502
878.015	148.146
881.828	212.488
885.639	770.522
889.448	498.312
893.256	263.798
897.061	137.005
900.865	200.946
904.668	373.596
908.468	551.026
912.267	560.228
916.064	437.136
919.86	287.752
923.653	338.054
927.445	494.053
931.236	751.76
935.024	769.163
938.811	886.257
942.596	843
946.379	1169.26
950.161	1365.35
953.94	1979.28
957.719	2291.62
961.495	2741.08
965.27	2790.14
969.043	3182.99
972.814	3725.46
976.583	3968.98
980.351	4080.73
984.117	3989.21
987.882	3544.64
991.644	3588.14
995.405	3484.57
999.165	3651.93
1002.92	3856.64
1006.68	3421.13
1010.43	2882.22
1014.18	2511.8
1017.93	2314.22
1021.68	2332.27
1025.43	2460.22
1029.18	2292.11
1032.92	2190.71
1036.66	1779.79
1040.4	1614.33
1044.14	1467.96
1047.88	1726.53
1051.62	1872.44
1055.35	2075.04
1059.08	2258.12
1062.81	2305.71
1066.54	2429.12
1070.27	3210.99
1073.99	3852.77
1077.72	4626.53
1081.44	5088.75
1085.16	5251.26
1088.88	5562.8
1092.59	5804.65
1096.31	5135.98
1100.02	4493.08
1103.73	3964.5
1107.44	3326.02
1111.15	2688.16
1114.86	2069.99
1118.57	1552.11
1122.27	1304.95
1125.97	1348.07
1129.67	1341.6
1133.37	1216.83
1137.07	1130.73
1140.76	635.041
1144.45	379.961
1148.15	164.196
1151.84	268.849
1155.53	333.558
1159.21	378.178
1162.9	383.023
1166.58	219.289
1170.26	93.617
1173.94	7.89
1177.62	117.875
1181.3	27.315
1184.97	141.161
1188.65	309.349
1192.32	363.696
1195.99	147.564
1199.66	11.917
1203.33	194.319
1206.99	101.227
1210.65	42.316
1214.32	245.088
1217.98	497.659
1221.64	530.05
1225.29	222.268
1228.95	124.839
1232.6	47.615
1236.26	1.07
1239.91	163.107
1243.56	299.638
1247.2	526.311
1250.85	503.197
1254.49	470.284
1258.13	287.541
1261.78	184.893
1265.41	62.354
1269.05	119.924
1272.69	367.211
1276.32	725.533
1279.95	651.773
1283.59	628.203
1287.21	467.556
1290.84	284.599
1294.47	49.669
1298.09	40.805
1301.72	123.763
1305.34	251.896
1308.96	412.834
1312.58	544.893
1316.19	614.775
1319.81	504.615
1323.42	365.451
1327.03	153.457
1330.64	72.838
1334.25	5.521
1337.86	153.396
1341.46	412.584
1345.07	481.535
1348.67	704.765
1352.27	634.676
1355.87	529.671
1359.46	278.202
1363.06	134.894
1366.65	134.494
1370.25	98.935
1373.84	170.882
1377.43	468.895
1381.02	0
