Measurement: Raman, 514 nm, ccw, Raman Data Processed
Mineral: Elbaite
Rruff sample: R060631
Ideal chemistry: Na(Al_1.5_Li_1.5_)Al_6_(Si_6_O_18_)(BO_3_)_3_(OH)_3_OH
Locality: unknown
Source: Gemological Institute of America
Description: Pink polished fragment
Measured chemistry: (Na_0.55_Ca_0.34_[box]_0.11_)(Li_1.53_Al_1.30_Mn_0.14_Fe^2+^_0.03_)Al_6.00_(BO_3_)_3_[Si_6.00_O_18_]((OH)_0.82_F_0.18_)_4_
Pin_id: L01326
Orientation: Laser parallel to -c* (0 0 -1). Fiducial mark perpendicular to laser is parallel to b [0 1 0]
Raman shift (cm-1)	intensity
113.208	0
118.134	420.835
123.058	1521.88
127.979	2251.82
132.898	2881.03
137.814	1812.75
142.728	1200.03
147.639	1653.15
152.549	1804.12
157.455	1356.22
162.359	298.134
167.261	4.90918
172.161	201.175
177.058	193.078
181.952	75.9658
186.845	906.43
191.734	2192.79
196.622	3149.66
201.507	4285.51
206.389	4208.21
211.269	7138.28
216.147	11946.3
221.022	18008.1
225.895	17463.5
230.765	13115
235.633	11788.7
240.498	10827.5
245.361	9382.11
250.222	5704.35
255.08	3165.54
259.936	2106.03
264.789	1064.89
269.64	987.127
274.488	1105.02
279.334	1077.24
284.178	994.201
289.019	677.207
293.857	99.5781
298.693	343.19
303.527	291.365
308.358	1479.09
313.187	2375.16
318.013	3206.89
322.837	4748.34
327.659	6240.3
332.478	6740.35
337.294	5717.19
342.108	4847.64
346.92	5100.02
351.729	5786.78
356.535	7314.37
361.34	10596.9
366.141	15488.3
370.94	22573.7
375.737	29436.1
380.531	26332.5
385.323	16289.7
390.113	10661.8
394.9	8855.77
399.684	8866.48
404.466	9663.02
409.245	9318.9
414.022	6835.47
418.797	3507.75
423.569	1473.65
428.338	759.213
433.105	802.498
437.87	1184.22
442.632	1580.75
447.391	1597.57
452.149	1419.49
456.903	1388.47
461.655	1638.8
466.405	2022.76
471.152	2187.95
475.897	1796.76
480.639	1694.08
485.378	1459.73
490.116	1687.04
494.85	1470.7
499.582	2158.3
504.312	3105.25
509.039	3941.96
513.764	4398.42
518.486	4259.3
523.206	3660.24
527.923	4181.05
532.638	5632.65
537.35	7193.12
542.059	7785.02
546.766	7953.14
551.471	8000.93
556.173	6617.5
560.873	4848.07
565.57	3381.71
570.264	3187.35
574.957	1380.92
579.646	1338.34
584.333	1112.99
589.018	1081.76
593.7	935.16
598.379	399.072
603.056	134.412
607.73	97.0234
612.402	218.057
617.072	315.619
621.739	48.9668
626.403	50.4746
631.065	30.834
635.724	428.1
640.381	1181.34
645.035	1143.57
649.687	829.777
654.336	787.133
658.983	855.002
663.627	839.902
668.268	675.107
672.907	1289.33
677.544	758.955
682.178	244.094
686.809	383.516
691.438	304.269
696.065	109.002
700.688	1033.37
705.31	2234.28
709.929	4392.09
714.545	7638.4
719.158	14647.2
723.77	27585.5
728.378	42650.3
732.984	42210.6
737.588	27853.3
742.189	16982.5
746.787	11148.4
751.383	7365.54
755.976	5351.55
760.567	4004.92
765.155	2611.58
769.741	1636.78
774.324	593.062
778.904	342.414
783.482	106.559
788.058	6.46484
792.631	35.3477
797.201	419.94
801.769	939.865
806.334	1470.29
810.897	255.223
815.457	65.8867
820.014	57.3125
824.569	62.7637
829.122	23.3477
833.671	292.385
838.219	607.1
842.763	415.711
847.306	527.238
851.845	320.707
856.382	790.158
860.917	1176.61
865.448	1040.1
869.978	1187.66
874.505	1037.31
879.029	944.09
883.55	622.139
888.069	342.926
892.586	273.943
897.1	213.322
901.611	2.02148
906.12	178.816
910.626	8.77539
915.129	119.621
919.63	209.168
924.129	573.496
928.625	978.549
933.118	1608.89
937.609	2105.78
942.097	2633.99
946.582	2800.31
951.065	2879.13
955.546	3112
960.023	3222.17
964.499	3131.93
968.971	3554.96
973.441	3769
977.909	3926.08
982.374	3798.84
986.836	3629.32
991.295	3430.29
995.753	3412.66
1000.21	3988.13
1004.66	3802.73
1009.11	4016.47
1013.55	4720.77
1018	6044.41
1022.44	7109.74
1026.88	8177.75
1031.32	8147.18
1035.75	8783.76
1040.18	10422.2
1044.61	12531.9
1049.04	15556.2
1053.46	19481.6
1057.88	25321.1
1062.3	31520.5
1066.71	33874.9
1071.13	29501.5
1075.54	21428.5
1079.94	14624.5
1084.35	9772.01
1088.75	6628.02
1093.15	4983.94
1097.55	3665.92
1101.94	3013.55
1106.34	2757.97
1110.73	2225.24
1115.11	1764.36
1119.5	1513.31
1123.88	1156.11
1128.26	760.713
1132.63	951.139
1137.01	729.371
1141.38	614.398
1145.75	534.215
1150.12	207.805
1154.48	23.9004
1158.84	157.908
1163.2	77.9453
1167.55	166.465
1171.91	38.668
1176.26	68.2988
1180.61	94.082
1184.95	78.0898
1189.29	50.5605
1193.63	64.6328
1197.97	75.3711
1202.31	64.3262
1206.64	0.248047
1210.97	53.0918
1215.29	116.092
1219.62	162.451
1223.94	39.2109
1228.26	235.318
1232.57	288.984
1236.89	471.272
1241.2	383.188
1245.51	392.756
1249.81	514.021
1254.12	405.941
1258.42	415.518
1262.72	762.762
1267.01	899.674
1271.3	1247.27
1275.59	1176.56
1279.88	1111.54
1284.17	1207.64
1288.45	1084.91
1292.73	1130.45
1297.01	1283.64
1301.28	961.42
1305.55	1070.56
1309.82	1247.91
1314.09	1378.11
1318.35	1332.41
1322.61	1182.31
1326.87	983.209
1331.13	952.287
1335.38	665.768
1339.63	591.062
1343.88	544.166
1348.12	564.383
1352.37	641.139
1356.61	625.35
1360.85	685.531
1365.08	742.008
1369.31	750.021
1373.54	970.203
1377.77	1087.03
1381.99	1392.24
1386.22	1695.18
1390.43	2015.92
1394.65	2391.98
1398.87	2770.39
1403.08	2526.18
1407.29	2443.41
1411.49	1700.99
1415.69	1504.1
1419.89	1125.94
1424.09	948.775
1428.29	845
1432.48	1382.62
1436.67	1865.13
1440.86	2037.64
1445.04	2131.16
1449.23	2325.83
1453.4	2598.21
1457.58	2697.37
1461.76	2075.09
1465.93	1642.92
1470.1	964.453
1474.26	698.588
1478.43	312.348
1482.59	164.877
1486.75	35.2402
1490.9	174.484
1495.06	60.6465
1499.21	28.7148
1503.35	83.5957
1507.5	138.123
1511.64	113.424
1515.78	253.932
1519.92	166.85
1524.05	330.94
1528.18	411.809
1532.31	213.373
1536.44	385.639
1540.56	272.031
1544.69	473.469
1548.8	210.338
1552.92	370.016
1557.03	131.121
1561.14	204.375
1565.25	151.344
1569.36	109.947
