Measurement: Raman, 514 nm, ccw, Raman Data Processed
Mineral: Elbaite
Rruff sample: R060562
Ideal chemistry: Na(Al_1.5_Li_1.5_)Al_6_(Si_6_O_18_)(BO_3_)_3_(OH)_3_OH
Locality: unknown
Source: Gemological Institute of America
Description: Blue colored polished fragment
Measured chemistry: (Na_0.68_Ca_0.20_[box]_0.12_)(Li_1.20_Al_1.12_Fe^2+^_0.50_Mn_0.18_)Al_6_(BO_3_)_3_[Si_6_O_18_]((OH)_0.80_F_0.20_)_4_
Pin_id: M00501
Orientation: Laser parallel to c* (0 0 1). Fiducial mark perpendicular to laser is parallel to -a [-1 0 0]
Raman shift (cm-1)	intensity
118.134	0
123.058	935.993
127.979	3034.24
132.898	3559.07
137.814	2168.97
142.728	499.455
147.639	415.167
152.549	994.043
157.455	738.365
162.359	585.067
167.261	280.528
172.161	66.5332
177.058	51.6318
181.952	389.676
186.845	1013.04
191.734	2451.19
196.622	4209.34
201.507	5700.3
206.389	5018.81
211.269	7036.8
216.147	11255.5
221.022	16883.6
225.895	19205.4
230.765	17033.9
235.633	14317.4
240.498	11820.8
245.361	8325.13
250.222	4499.51
255.08	1919.04
259.936	1469.78
264.789	444.483
269.64	685.318
274.488	412.614
279.334	38.3037
284.178	103.089
289.019	384.473
293.857	405.969
298.693	885.318
303.527	1724.53
308.358	2979.57
313.187	3482.61
318.013	4385.05
322.837	5911.22
327.659	7489.14
332.478	7641.56
337.294	7545.39
342.108	7530.27
346.92	7238.93
351.729	6611.27
356.535	7311.81
361.34	10175.5
366.141	16407.4
370.94	26483.5
375.737	37210.7
380.531	31761.2
385.323	19444.8
390.113	12679.5
394.9	10033.5
399.684	9486.67
404.466	10275.3
409.245	10298.2
414.022	7255.45
418.797	4164.9
423.569	2472.02
428.338	1866.24
433.105	1426.99
437.87	1523.83
442.632	1642.32
447.391	1703.92
452.149	1480.16
456.903	1540.52
461.655	2305.6
466.405	3112.33
471.152	3376.53
475.897	2957.64
480.639	2802.55
485.378	2310.73
490.116	2075.44
494.85	2197.15
499.582	2318.2
504.312	2235.6
509.039	1986.37
513.764	1681.46
518.486	1378.83
523.206	1209.45
527.923	1515.3
532.638	2319.43
537.35	2912.6
542.059	3580
546.766	3821.44
551.471	3617.66
556.173	3096.8
560.873	2536.95
565.57	1899.58
570.264	1813.58
574.957	1863.63
579.646	2144.55
584.333	2325.26
589.018	2157.74
593.7	1652.01
598.379	1299.08
603.056	995.199
607.73	355.711
612.402	141.284
617.072	368.363
621.739	445.447
626.403	225.191
631.065	233.7
635.724	592.273
640.381	975.331
645.035	659.623
649.687	694.8
654.336	1239.15
658.983	1460.15
663.627	1309.25
668.268	810.395
672.907	554.543
677.544	255.653
682.178	43.3203
686.809	221.378
691.438	7.04394
696.065	699.111
700.688	2156.86
705.31	3617.2
709.929	5802.1
714.545	9604.5
719.158	16430.4
723.77	27108.7
728.378	37012.4
732.984	34250.2
737.588	23568.8
742.189	15978.5
746.787	10868.8
751.383	7544.46
755.976	5469.06
760.567	3994.55
765.155	2283.53
769.741	1334.01
774.324	1009.33
778.904	507.244
783.482	253.724
788.058	421.573
792.631	875.208
797.201	1374.08
801.769	2340.09
806.334	2793.32
810.897	2631.39
815.457	1928.29
820.014	1062.32
824.569	826.227
829.122	1283.5
833.671	1947.83
838.219	2076.06
842.763	1393.19
847.306	834.224
851.845	720.148
856.382	768.959
860.917	563.66
865.448	360.334
869.978	362.542
874.505	20.457
879.029	164.659
883.55	148.609
888.069	189.53
892.586	100.152
897.1	168.26
901.611	50.0498
906.12	26.3838
910.626	135.154
915.129	288.666
919.63	567.929
924.129	961.973
928.625	1394.12
933.118	1732.8
937.609	2169.81
942.097	2725.19
946.582	2989
951.065	3485.06
955.546	3672.31
960.023	3837.69
964.499	4141.5
968.971	4833.81
973.441	4988.32
977.909	4873.05
982.374	4413.01
986.836	4093.19
991.295	3976.65
995.753	4101.27
1000.21	4127.47
1004.66	4483.02
1009.11	4963.33
1013.55	5925.92
1018	6536.18
1022.44	7321.42
1026.88	7586.36
1031.32	8191.65
1035.75	9039.41
1040.18	11259.3
1044.61	14090.8
1049.04	18153.2
1053.46	24160
1057.88	30049.8
1062.3	33395.9
1066.71	29589.5
1071.13	21349
1075.54	14002.1
1079.94	9147.84
1084.35	6325.95
1088.75	4703.1
1093.15	3853.78
1097.55	3205.74
1101.94	2729.05
1106.34	2394.03
1110.73	1844.13
1115.11	1762.74
1119.5	1411.15
1123.88	1270.38
1128.26	1024.43
1132.63	1012.25
1137.01	734.427
1141.38	698.823
1145.75	657.805
1150.12	411.086
1154.48	445.101
1158.84	236.55
1163.2	55.3262
1167.55	72.9502
1171.91	46.9062
1176.26	0.09668
1180.61	11.1348
1184.95	92.1328
1189.29	174.161
1193.63	59.2129
1197.97	54.7383
1202.31	2.87305
1206.64	3.8125
1210.97	12.8193
1215.29	49.5557
1219.62	20.874
1223.94	42.8193
1228.26	161.144
1232.57	176.111
1236.89	199.162
1241.2	394.339
1245.51	391.505
1249.81	376.731
1254.12	279.946
1258.42	524.128
1262.72	544.28
1267.01	585.411
1271.3	801.519
1275.59	819.598
1279.88	924.627
1284.17	931.583
1288.45	813.437
1292.73	755.871
1297.01	983.665
1301.28	1076.3
1305.55	924.669
1309.82	1012.92
1314.09	802.424
1318.35	1103.83
1322.61	1201.03
1326.87	994.952
1331.13	1105.31
1335.38	1053.86
1339.63	1082.5
1343.88	1015.82
1348.12	985.836
1352.37	1138.84
1356.61	974.893
1360.85	1171.66
1365.08	1151.1
1369.31	1389.27
1373.54	1695.09
1377.77	2301.22
1381.99	2605.65
1386.22	2699.1
1390.43	2422.69
1394.65	2023.44
1398.87	1710.24
1403.08	1554.76
1407.29	1357.83
1411.49	1167.18
1415.69	1029.02
1419.89	1003.74
1424.09	1211.26
1428.29	785.619
1432.48	954.566
1436.67	768.081
1440.86	633.813
1445.04	391.856
1449.23	272.185
1453.4	322.342
1457.58	318.789
1461.76	91.6709
1465.93	186.561
1470.1	121.046
1474.26	0.807617
1478.43	11.7803
1482.59	219.465
1486.75	0.926758
1490.9	9.35156
1495.06	104.781
1499.21	67.5137
1503.35	100.918
1507.5	181.138
1511.64	276.308
1515.78	472.41
1519.92	314.082
1524.05	565.703
1528.18	470.637
1532.31	431.188
1536.44	160.697
1540.56	329.055
1544.69	194.221
1548.8	253.821
1552.92	317.952
1557.03	111.637
1561.14	26.2344
1565.25	156.803
1569.36	81.8311
