Measurement: Raman, 514 nm, ccw, Raman Data Processed
Mineral: Elbaite
Rruff sample: R050487
Ideal chemistry: Na(Al_1.5_Li_1.5_)Al_6_(Si_6_O_18_)(BO_3_)_3_(OH)_3_OH
Locality: White Queen mine, Pala, San Diego County, California, USA
Source: California Institute of Technology
Description: Mass of blue acicular crystals
Measured chemistry: (Na_0.86_[box]_0.13_Ca_0.01_)(Al_0.42_Li_0.38_Fe^2+^_0.18_Mn_0.02_)_3_Al_6_(BO_3_)_3_Si_6_O_18_((OH)_0.85_F_0.15_)_4_
Pin_id: M00967
Orientation: Laser parallel to -a* (-1 0 0). Fiducial mark perpendicular to laser is parallel to c [0 0 1]
Raman shift (cm-1)	intensity
187.985	0
192.896	1.09912
197.803	165.431
202.709	523.827
207.611	1160.47
212.51	2653.4
217.407	4782.48
222.301	6106.96
227.192	5035.38
232.08	3645.71
236.965	3262.35
241.848	3152.65
246.728	3078.69
251.604	2842.91
256.479	2559.31
261.35	2241.05
266.218	1934.94
271.084	1737.45
275.947	1297.94
280.807	966.22
285.664	386.103
290.518	64.3992
295.37	79.1042
300.219	150.914
305.065	61.575
309.908	203.045
314.749	468.997
319.586	465.092
324.421	499.522
329.253	674.919
334.083	870.517
338.909	1265.9
343.733	1585.33
348.554	1810.93
353.372	2063.98
358.187	2834.11
363	4872.09
367.81	8930.49
372.617	10377.5
377.421	6677.09
382.223	3852.48
387.022	2676.2
391.818	2221.22
396.611	2178.06
401.401	2631.48
406.189	3099.5
410.974	2875.46
415.756	1877.6
420.536	861.304
425.312	392.031
430.086	260.726
434.858	87.3633
439.626	135.482
444.392	65.3237
449.155	60.2129
453.915	103.189
458.672	37.7783
463.427	2.34302
468.179	41.1936
472.928	39.0042
477.675	6.80591
482.419	108.52
487.16	315.194
491.898	408.786
496.634	606.691
501.367	703.043
506.097	706.971
510.825	739.292
515.549	495.786
520.271	350.474
524.991	189.215
529.707	111.152
534.421	39.3486
539.132	12.738
543.841	15.8813
548.547	20.7959
553.25	4.02173
557.95	83.5947
562.648	39.1533
567.343	64.6516
572.035	104.088
576.724	119.085
581.411	171.322
586.095	217.42
590.777	253.813
595.456	274.455
600.132	343.751
604.805	344.077
609.476	340.936
614.144	377.879
618.809	788.557
623.472	1398.66
628.132	2343.74
632.789	2998.73
637.444	2862.64
642.096	2357.94
646.745	2163.54
651.392	1987.68
656.036	1701.63
660.677	1253.76
665.316	900.06
669.952	638.453
674.585	500.515
679.216	451.385
683.844	553.394
688.469	965.605
693.092	2020.24
697.712	3610.05
702.329	4885.74
706.944	4379.31
711.556	2659.68
716.166	1429.88
720.773	826.845
725.377	462.618
729.978	450.169
734.577	446.49
739.173	579.583
743.767	961.485
748.358	1681.34
752.946	1729.15
757.532	1141.92
762.115	615.367
766.695	404.592
771.273	245.595
775.848	245.372
780.421	41.0874
784.991	15.6743
789.558	22.9736
794.123	50.0896
798.685	26.9097
803.245	42.301
807.802	56.4839
812.356	64.5083
816.907	31.8369
821.456	87.8171
826.003	208.699
830.547	236.511
835.088	415.167
839.627	543.644
844.163	572.946
848.696	540.076
853.227	650.04
857.755	728.841
862.281	634.483
866.804	428.972
871.324	217.314
875.842	181.533
880.357	161.691
884.87	121.816
889.38	102.955
893.888	107.183
898.393	98.3616
902.895	68.4268
907.395	145.378
911.892	75.2329
916.387	105.028
920.879	80.8933
925.368	109.528
929.855	214.972
934.339	202.344
938.821	264.994
943.301	273.481
947.777	363.597
952.251	526.379
956.723	709.277
961.192	838.723
965.658	845.694
970.122	953.699
974.583	851.463
979.042	943.818
983.498	1006.94
987.952	945.104
992.403	974.677
996.852	1072.38
1001.3	1207.25
1005.74	1301.73
1010.18	1409.17
1014.62	1468.01
1019.06	1559.95
1023.49	1639.94
1027.92	1487.23
1032.35	1310.11
1036.78	1365.78
1041.2	1546.96
1045.62	1886.85
1050.04	2353.76
1054.45	2835.49
1058.87	2859.58
1063.28	2576.97
1067.68	2101.55
1072.09	1909.46
1076.49	2018.62
1080.89	2292.09
1085.29	2418.15
1089.69	1929.02
1094.08	1343.91
1098.47	952.804
1102.86	725.697
1107.24	540.588
1111.63	483.475
1116.01	388.358
1120.38	303.235
1124.76	249.106
1129.13	198.967
1133.5	124.818
1137.87	11.3408
1142.24	55.4175
1146.6	21.0046
1150.96	2.31323
1155.32	59.6885
1159.67	10.1191
1164.03	21.324
1168.38	151.746
1172.72	122.135
1177.07	0.530029
1181.41	9.23755
1185.75	65.0049
1190.09	8.22803
1194.43	53.6897
1198.76	50.8616
1203.09	45.8557
1207.42	32.5405
1211.75	0.651611
1216.07	99.6919
1220.39	119.688
1224.71	38.6399
1229.02	125.55
1233.34	187.518
1237.65	271.816
1241.96	230.052
1246.26	332.833
1250.57	300.613
1254.87	320.368
1259.17	354.098
1263.46	331.87
1267.76	436.064
1272.05	537.402
1276.34	503.052
1280.62	392.716
1284.91	248.204
1289.19	311.294
1293.47	459.671
1297.74	412.545
1302.02	355.969
1306.29	466.447
1310.56	583.577
1314.83	549.596
1319.09	511.641
1323.35	434.099
1327.61	271.002
1331.87	189.184
1336.12	128.133
1340.38	233.617
1344.63	141.033
1348.87	173.542
1353.12	157.15
1357.36	176.859
1361.6	207.673
1365.84	230.6
1370.08	281.644
1374.31	488.427
1378.54	546.849
1382.77	516.286
1386.99	447.536
1391.22	380.964
1395.44	323.879
1399.66	289.016
1403.87	260.319
1408.09	233.13
1412.3	255.086
1416.51	229.06
1420.71	204.969
1424.92	280.928
1429.12	289.916
1433.32	434.026
1437.51	707.455
1441.71	1085.3
1445.9	1241.94
1450.09	1433
1454.28	1464.79
1458.46	1350.93
1462.65	1098.34
1466.83	814.029
1471	550.944
1475.18	430.75
1479.35	473.345
1483.52	365.773
1487.69	173.471
1491.86	60.4265
1496.02	29.6777
1500.18	43.2629
1504.34	10.2261
1508.5	26.7239
1512.65	0.726318
1516.8	27.2285
1520.95	87.2671
1525.1	110.928
1529.24	144.313
1533.39	116.953
1537.53	113.921
1541.66	31.5784
1545.8	89.6773
1549.93	80.5713
1554.06	36.6406
1558.19	45.3511
1562.32	31.1985
