Measurement: Raman, 514 nm, ccw, Raman Data Processed
Mineral: Elbaite
Rruff sample: R050119
Ideal chemistry: Na(Al_1.5_Li_1.5_)Al_6_(Si_6_O_18_)(BO_3_)_3_(OH)_3_OH
Locality: Cruziero mine, San Jose, Minas Gerais, Brazil
Source: Carlos and Paulo Vasconcelos
Description: Red fragment
Measured chemistry: (Na_0.90_Ca_0.10_)(Al_0.56_Li_0.38_Mn_0.06_)_3_Al_6_(BO_3_)_3_(Si_0.89_B_0.11_)_6_O_18_(OH)_4_
Pin_id: L00105
Orientation: Laser parallel to c* (0 0 1). Fiducial mark perpendicular to laser is parallel to b [0 1 0]
Raman shift (cm-1)	intensity
105.212	0
109.387	489.133
113.559	917.017
117.729	1039.83
121.897	1278.95
126.063	1674.59
130.228	1959.34
134.39	2057.14
138.55	1749.58
142.709	1094.74
146.865	1162.04
151.019	1079.68
155.171	895.764
159.322	639.134
163.47	342.782
167.617	126.732
171.761	80.754
175.904	114.91
180.044	80.682
184.183	115.933
188.319	90.778
192.454	26.049
196.586	212.454
200.717	330.831
204.846	724.066
208.972	1260.52
213.097	2297.21
217.22	4194.4
221.341	6602.07
225.46	7439.89
229.577	5636.28
233.692	3761.97
237.805	3238.27
241.916	3285.16
246.025	2982.61
250.132	2480.62
254.237	1749.16
258.34	1158.24
262.442	840.392
266.541	957.959
270.639	999.021
274.734	1016.58
278.828	796.99
282.919	778.155
287.009	859.269
291.097	681.005
295.183	239.63
299.266	151.255
303.348	142.604
307.428	135.146
311.507	529.847
315.583	823.306
319.657	1027.23
323.729	1481.66
327.8	2186.49
331.868	2631.26
335.935	2794.05
339.999	2677.6
344.062	2497.52
348.123	2465.11
352.182	2429.94
356.239	2712.06
360.294	3308.75
364.347	4275.71
368.398	5462.29
372.448	7838.51
376.495	11485
380.54	12501.9
384.584	9459.09
388.626	6366.53
392.666	4694.26
396.704	4012.29
400.74	4068.36
404.774	4469.24
408.806	4558.15
412.836	4237.32
416.865	3156.77
420.891	2026.46
424.916	876.409
428.939	516.597
432.959	197.014
436.978	447.609
440.996	618.316
445.011	629.114
449.024	809.998
453.036	851.15
457.045	877.118
461.053	689.295
465.059	605.177
469.063	584.63
473.065	483.532
477.065	405.673
481.063	227.778
485.06	159.985
489.054	132.297
493.047	174.761
497.038	267.415
501.027	570.36
505.014	1084.08
508.999	1568.47
512.982	1883.79
516.964	2039.8
520.944	2136.07
524.921	1682.56
528.897	1620
532.871	1998.76
536.844	2489.21
540.814	2857.67
544.783	2845.58
548.749	2592.86
552.714	2430.15
556.677	2257.44
560.638	2334.72
564.597	1901.96
568.555	1509.17
572.511	1136.33
576.464	873.432
580.416	636.912
584.366	467.413
588.315	434.281
592.261	321.057
596.206	387.735
600.148	195.042
604.089	90.794
608.028	77.144
611.965	63.367
615.901	90.601
619.834	135.102
623.766	68.965
627.696	11.631
631.624	23.407
635.551	174.656
639.475	331.908
643.398	378.041
647.318	404.006
651.237	349.562
655.155	337.854
659.07	392.863
662.984	293.423
666.895	292.2
670.805	309.833
674.713	328.037
678.62	512.99
682.524	267.632
686.427	220.882
690.328	173.979
694.227	247.715
698.124	245.422
702.02	549.436
705.913	888.203
709.805	1546.08
713.695	2462.4
717.584	4058.09
721.47	6553.3
725.355	11458
729.238	17492.3
733.119	19146.1
736.998	13499.4
740.876	8392.57
744.752	5735.35
748.626	4007.66
752.498	3361.12
756.368	2902.89
760.237	2383.7
764.104	1845.04
767.969	1415.05
771.832	913.738
775.693	514.613
779.553	184.488
783.411	120.711
787.267	139.721
791.122	157.45
794.974	72.929
798.825	107.916
802.674	182.408
806.522	46.348
810.367	70.321
814.211	207.903
818.053	13.075
821.893	126.866
825.732	58.048
829.568	20.264
833.403	46.725
837.236	32.718
841.068	207.197
844.898	129.944
848.726	68.97
852.552	16.793
856.376	246.075
860.199	278.594
864.02	420.663
867.839	562.324
871.656	453.66
875.472	854.709
879.286	875.536
883.098	716.006
886.909	546.239
890.717	506.225
894.524	325.226
898.33	405.478
902.133	244.638
905.935	313.484
909.735	322.019
913.533	230.237
917.33	228.122
921.124	315.671
924.918	512.943
928.709	740.191
932.499	705.316
936.286	809.377
940.073	1102.19
943.857	1224.48
947.64	1276.34
951.421	1249.43
955.2	1312.12
958.978	1313.66
962.753	1106.79
966.527	1270.27
970.3	1430.15
974.071	1518.77
977.84	1531.05
981.607	1500.25
985.372	1402.56
989.136	1391.54
992.898	1542.73
996.659	1671.95
1000.42	1694.13
1004.17	1381.2
1007.93	1412.09
1011.68	1344.49
1015.43	1778.07
1019.18	1923.13
1022.93	2535.85
1026.68	2637.4
1030.42	2722.75
1034.17	2795.61
1037.91	3149.18
1041.65	3462.72
1045.39	3898.85
1049.12	4564.48
1052.86	5277.69
1056.59	6498.82
1060.33	7945.35
1064.06	9778.42
1067.78	11323.5
1071.51	11034.5
1075.23	8945.9
1078.96	6537.36
1082.68	4368.19
1086.4	3139.64
1090.12	2321.56
1093.83	1802.31
1097.55	1563.79
1101.26	1135.16
1104.97	1005.92
1108.68	737.248
1112.39	648.453
1116.1	539.525
1119.8	761.527
1123.5	1222.53
1127.2	843.268
1130.9	553.762
1134.6	674.393
1138.3	374.25
1141.99	503.939
1145.69	874.141
1149.38	553.926
1153.07	443.67
1156.76	323.395
1160.44	313.488
1164.13	2.473
1167.81	128.418
1171.49	130.027
1175.17	12.488
1178.85	104.994
1182.52	182.373
1186.2	89.115
1189.87	55.689
1193.54	51.438
1197.21	90.438
1200.88	123.148
1204.55	18.709
1208.21	174.385
1211.88	237.732
1215.54	359.551
1219.2	221.363
1222.86	163.172
1226.51	314.971
1230.17	116.752
1233.82	238.527
1237.47	650.289
1241.12	582.016
1244.77	413.746
1248.42	355.496
1252.06	187.311
1255.71	237.863
1259.35	326.457
1262.99	190.031
1266.63	476.418
1270.26	618.6
1273.9	618.809
1277.53	294.855
1281.16	260.709
1284.8	231.709
1288.42	69.93
1292.05	299.197
1295.68	285.836
1299.3	398.736
1302.92	581.834
1306.55	411.037
1310.16	488.549
1313.78	217.377
1317.4	239.033
1321.01	135.312
1324.62	89.014
1328.24	231.031
1331.85	286.484
1335.45	603.771
1339.06	567.541
1342.66	618.049
1346.27	353.07
1349.87	161.229
1353.47	0.197
