Measurement: Raman, 514 nm, ccw, Raman Data Processed
Mineral: Elbaite
Rruff sample: R050260
Ideal chemistry: Na(Al_1.5_Li_1.5_)Al_6_(Si_6_O_18_)(BO_3_)_3_(OH)_3_OH
Locality: Minas Gerais, Brazil
Source: Marcus Origlieri
Description: Greenish-gray prismatic single crystal
Measured chemistry: (Na_0.76_[box]_0.17_Ca_0.07_)_Σ=1_(Al_1.67_Li_0.97_Mn_0.36_)_Σ=3_Al_6.00_(B_1.00_O_3_)_3_Si_6.00_O_18_((OH)_3.40_F_0.60_)_Σ=4_; B assumed by stoichiometry; OH estimated by charge balance
Pin_id: L01093
Orientation: Laser parallel to c* (0 0 1). Fiducial mark perpendicular to laser is parallel to -a [-1 0 0]
Raman shift (cm-1)	intensity
118.134	0
123.058	621.613
127.979	866.566
132.898	1647.13
137.814	1003.6
142.728	155.582
147.639	439.672
152.549	1475.23
157.455	1228.63
162.359	943.604
167.261	568.834
172.161	167.857
177.058	296.246
181.952	78.0918
186.845	619.047
191.734	1566.71
196.622	2179.78
201.507	3203.3
206.389	3733.98
211.269	6649.03
216.147	12372.8
221.022	18702.8
225.895	18037.8
230.765	12118.3
235.633	9221.61
240.498	8413.74
245.361	7273.6
250.222	4882.17
255.08	2828.4
259.936	1830.69
264.789	1428.83
269.64	1396.73
274.488	1669.94
279.334	1390.69
284.178	778
289.019	395.102
293.857	180.857
298.693	299.225
303.527	204.941
308.358	1139.83
313.187	1933.3
318.013	2680.22
322.837	4397.92
327.659	6445.7
332.478	7596.63
337.294	7513.23
342.108	6862.31
346.92	6428.02
351.729	6428.78
356.535	7434.91
361.34	10003
366.141	14477.1
370.94	21790.3
375.737	30511.5
380.531	26851.6
385.323	16577.7
390.113	10539.5
394.9	8180.2
399.684	7443.66
404.466	7817.41
409.245	8089.48
414.022	6504.41
418.797	3847.28
423.569	1805.64
428.338	1135.63
433.105	862.062
437.87	1339.95
442.632	1475.84
447.391	1675.81
452.149	1318.46
456.903	1313.77
461.655	1503.67
466.405	2022.35
471.152	2552.55
475.897	2809.52
480.639	2399.56
485.378	2603.31
490.116	2457.84
494.85	2751.29
499.582	3004.64
504.312	3749.83
509.039	4188.86
513.764	4171.69
518.486	3751.83
523.206	3229.3
527.923	3422.94
532.638	4299.03
537.35	5191.15
542.059	5466.61
546.766	6022.75
551.471	5981.56
556.173	5131.04
560.873	4089.31
565.57	2639.39
570.264	1835.22
574.957	1420.73
579.646	1180.89
584.333	1023.85
589.018	841.518
593.7	387.59
598.379	255.986
603.056	146.359
607.73	236.303
612.402	169.623
617.072	250.666
621.739	238.264
626.403	579.062
631.065	377.283
635.724	706.264
640.381	1142.73
645.035	887.842
649.687	684.678
654.336	564.275
658.983	752.465
663.627	939.135
668.268	706.24
672.907	387.732
677.544	241.85
682.178	26.209
686.809	377.453
691.438	113.514
696.065	561.363
700.688	1664.31
705.31	3366.36
709.929	5786.48
714.545	10519.7
719.158	19369.9
723.77	32114
728.378	41304.2
732.984	35354.3
737.588	20872.3
742.189	12065.6
746.787	8047.76
751.383	6854.8
755.976	6327.07
760.567	5326.98
765.155	3701.58
769.741	2358.32
774.324	1017.04
778.904	433.762
783.482	288.93
788.058	538.422
792.631	497.514
797.201	902.49
801.769	1273.38
806.334	1280.2
810.897	573.945
815.457	286.99
820.014	246.553
824.569	679.213
829.122	1238.1
833.671	2356.52
838.219	2944.17
842.763	2364.03
847.306	1590.09
851.845	1349.37
856.382	1175.9
860.917	1213.67
865.448	1031.72
869.978	651.049
874.505	264.685
879.029	284.676
883.55	23.4844
888.069	131.031
892.586	62.0781
897.1	81.6836
901.611	117.834
906.12	231.74
910.626	77.9336
915.129	225.076
919.63	230.234
924.129	552.67
928.625	917.779
933.118	1230.6
937.609	1836.18
942.097	1948.56
946.582	2360.67
951.065	2368.42
955.546	2749.96
960.023	2804.68
964.499	3228.01
968.971	3166.65
973.441	3644.05
977.909	3463.19
982.374	3695.08
986.836	3448.75
991.295	3440.2
995.753	3396.46
1000.21	3598.56
1004.66	3636.56
1009.11	3909.2
1013.55	4598.76
1018	5268.78
1022.44	6291.67
1026.88	6707.87
1031.32	7322.15
1035.75	8407.61
1040.18	10153.7
1044.61	13073.3
1049.04	17022.5
1053.46	22822.5
1057.88	29568.5
1062.3	33467.5
1066.71	30825.2
1071.13	22977.4
1075.54	15445.1
1079.94	10140.9
1084.35	6785.99
1088.75	4896.04
1093.15	3648.24
1097.55	3165.28
1101.94	2514.92
1106.34	2253.78
1110.73	1941.54
1115.11	1749.22
1119.5	1682.82
1123.88	1551.05
1128.26	1269.48
1132.63	1026.63
1137.01	1123.89
1141.38	964.08
1145.75	619.188
1150.12	388.273
1154.48	7.31055
1158.84	122.406
1163.2	30.5195
1167.55	115.205
1171.91	237.617
1176.26	102.232
1180.61	104.492
1184.95	28.5977
1189.29	109.258
1193.63	2.61328
1197.97	45.0137
1202.31	30.9648
1206.64	72.4473
1210.97	78.4941
1215.29	35.8535
1219.62	95.5469
1223.94	48.2422
1228.26	154.773
1232.57	326.617
1236.89	112.697
1241.2	206.969
1245.51	235.519
1249.81	280.99
1254.12	120.371
1258.42	139.66
1262.72	286.762
1267.01	294.68
1271.3	126.535
1275.59	344.342
1279.88	406.078
1284.17	408.244
1288.45	454.84
1292.73	283.709
1297.01	474.816
1301.28	478.908
1305.55	543.791
1309.82	562.93
1314.09	400.453
1318.35	481.318
1322.61	592.08
1326.87	519.809
1331.13	532.609
1335.38	676.303
1339.63	620.381
1343.88	686.283
1348.12	584.391
1352.37	606.322
1356.61	535.508
1360.85	639.846
1365.08	538.205
1369.31	755.662
1373.54	974.225
1377.77	1265.04
1381.99	1552.14
1386.22	1930.12
1390.43	2468.45
1394.65	2362.77
1398.87	2158.29
1403.08	1863.5
1407.29	1738.23
1411.49	1355.1
1415.69	1316.15
1419.89	1051.11
1424.09	807.641
1428.29	969.119
1432.48	1031.85
1436.67	1135.07
1440.86	985.229
1445.04	665.607
1449.23	426.422
1453.4	749.082
1457.58	592.168
1461.76	669.994
1465.93	484.586
1470.1	395.342
1474.26	65.4082
1478.43	212.201
1482.59	79.6699
1486.75	126.119
1490.9	149.996
1495.06	80.4082
1499.21	5.41797
1503.35	183.086
1507.5	310.379
1511.64	190.215
1515.78	528.902
1519.92	213.453
1524.05	266.949
1528.18	259.039
1532.31	176.66
1536.44	336.773
1540.56	216.207
1544.69	131.379
1548.8	166.82
1552.92	278.981
1557.03	150.656
1561.14	85.5
1565.25	297.914
1569.36	219.508
