Measurement: Raman, 514 nm, ccw, Raman Data Processed
Mineral: Elbaite
Rruff sample: R060003
Ideal chemistry: Na(Al_1.5_Li_1.5_)Al_6_(Si_6_O_18_)(BO_3_)_3_(OH)_3_OH
Locality: Mount Begbie, Revelstoke, British Columbia, Canada
Source: Bob Downs
Description: Pink crystal associated with trilithionite, R060004
Measured chemistry: (Na_0.58_[box]_0.42_)(Al_1.69_Li_1.27_Mn_0.04_)Al_6_(BO_3_)_3_[Si_6_O_18_](OH)_4_
Pin_id: L00688
Orientation: Laser parallel to -a* (-1 0 0). Fiducial mark perpendicular to laser is parallel to -c [0 0 -1]
Raman shift (cm-1)	intensity
118.134	0
123.058	295.539
127.979	155.562
132.898	831.902
137.814	2036.92
142.728	2959.99
147.639	3067.84
152.549	2293.5
157.455	1510.92
162.359	990.592
167.261	798.719
172.161	1018.45
177.058	1252.05
181.952	1149.7
186.845	1415.79
191.734	1295.79
196.622	1744.3
201.507	2282.46
206.389	2051.92
211.269	3010.5
216.147	4099.49
221.022	4265.72
225.895	3191.13
230.765	2382.53
235.633	1948.56
240.498	2040.53
245.361	1832.58
250.222	1430.68
255.08	1246.8
259.936	1351.01
264.789	1731.16
269.64	1926.49
274.488	2027.52
279.334	2448.29
284.178	2462.93
289.019	1504.9
293.857	663.08
298.693	19.3281
303.527	26.6348
308.358	52.2832
313.187	298.742
318.013	584.627
322.837	1389.29
327.659	2154.03
332.478	1933.4
337.294	1435.19
342.108	1193.36
346.92	1118.88
351.729	1384.68
356.535	2663.62
361.34	4755.56
366.141	7628.59
370.94	9208.7
375.737	8369.92
380.531	5586.42
385.323	3742.36
390.113	3052.92
394.9	3003.3
399.684	3369.77
404.466	3465.4
409.245	3199.18
414.022	1986.24
418.797	630.686
423.569	139.652
428.338	232.6
433.105	219.373
437.87	73.9297
442.632	627.453
447.391	1328.56
452.149	1735.35
456.903	1471.07
461.655	1262.23
466.405	2081.83
471.152	4684.41
475.897	4827.4
480.639	3966.33
485.378	2311.65
490.116	1712.52
494.85	3633.92
499.582	7965.81
504.312	9728.19
509.039	9575.02
513.764	7378.27
518.486	4864.2
523.206	3099.17
527.923	2778.71
532.638	2959.75
537.35	2820.79
542.059	2559.8
546.766	2307
551.471	1575.29
556.173	1525.14
560.873	1008.56
565.57	973.461
570.264	774.691
574.957	874.269
579.646	591.215
584.333	506.609
589.018	248
593.7	117.394
598.379	7.27734
603.056	175.801
607.73	273.516
612.402	25.9805
617.072	126.195
621.739	484.16
626.403	553.148
631.065	949.941
635.724	1195.69
640.381	1067.53
645.035	1051.14
649.687	537.441
654.336	46.7852
658.983	34.4688
663.627	161.562
668.268	210.844
672.907	131.449
677.544	85.2539
682.178	120.094
686.809	18.5234
691.438	374.277
696.065	1394.31
700.688	2946.92
705.31	4519.89
709.929	5178.36
714.545	4439.1
719.158	3186.95
723.77	2448.44
728.378	2220.27
732.984	2581.41
737.588	3245.83
742.189	4732.22
746.787	6049.68
751.383	6018.54
755.976	5603.39
760.567	4498.68
765.155	3568.83
769.741	2531.78
774.324	2194.47
778.904	1293.36
783.482	849.445
788.058	509.262
792.631	441.019
797.201	450.699
801.769	588.871
806.334	1143.61
810.897	1915.39
815.457	1253.95
820.014	559.742
824.569	160.91
829.122	122.633
833.671	110.082
838.219	31.1953
842.763	40.9375
847.306	169.348
851.845	73.707
856.382	413.289
860.917	673.199
865.448	301.457
869.978	454.059
874.505	373.043
879.029	593.469
883.55	257.559
888.069	173.406
892.586	163.676
897.1	27.7148
901.611	133.09
906.12	55.8438
910.626	101.258
915.129	57.8633
919.63	102.25
924.129	44.9023
928.625	317.516
933.118	720.918
937.609	431.035
942.097	567.309
946.582	605.473
951.065	755.465
955.546	609.277
960.023	611.238
964.499	833.953
968.971	971.316
973.441	1110.79
977.909	1185.75
982.374	1740.08
986.836	1538.94
991.295	1385.82
995.753	1135.51
1000.21	1678.95
1004.66	1465.51
1009.11	1641.95
1013.55	1807.3
1018	1831.66
1022.44	1915.8
1026.88	2303.66
1031.32	2447.37
1035.75	2739.34
1040.18	3203.84
1044.61	3935.08
1049.04	5209.62
1053.46	6429.01
1057.88	6897.04
1062.3	7268.31
1066.71	6646.37
1071.13	5851.04
1075.54	4831.31
1079.94	4221.15
1084.35	3556.33
1088.75	3114.3
1093.15	2576.57
1097.55	2514.01
1101.94	1792.28
1106.34	1921.04
1110.73	2085.59
1115.11	1134.63
1119.5	1243.59
1123.88	1204.52
1128.26	762.875
1132.63	514.477
1137.01	731.266
1141.38	612.246
1145.75	636.391
1150.12	396.398
1154.48	392.266
1158.84	265
1163.2	55.6523
1167.55	277.215
1171.91	52.3359
1176.26	111.035
1180.61	202.344
1184.95	252.773
1189.29	79.9414
1193.63	95.9062
1197.97	68.2695
1202.31	13.0977
1206.64	257.852
1210.97	155.102
1215.29	487.219
1219.62	217.246
1223.94	360.199
1228.26	65.0781
1232.57	432.875
1236.89	335.602
1241.2	286.25
1245.51	146.824
1249.81	424.328
1254.12	286.715
1258.42	110.07
1262.72	67.6641
1267.01	20.7539
1271.3	219.688
1275.59	433.809
1279.88	405.199
1284.17	188.414
1288.45	303.707
1292.73	404.246
1297.01	457.426
1301.28	507.738
1305.55	449.402
1309.82	551.375
1314.09	226.766
1318.35	594.07
1322.61	44.0703
1326.87	281.258
1331.13	322.352
1335.38	364.508
1339.63	472.711
1343.88	535.594
1348.12	243.68
1352.37	406.965
1356.61	646.449
1360.85	371.152
1365.08	346.113
1369.31	448.348
1373.54	235.863
1377.77	527.688
1381.99	142.754
1386.22	645.047
1390.43	271.379
1394.65	542.164
1398.87	568.109
1403.08	1163.14
1407.29	515.644
1411.49	729.66
1415.69	378.242
1419.89	376.477
1424.09	698.125
1428.29	735.859
1432.48	1109.66
1436.67	1488.1
1440.86	1420.21
1445.04	1586.14
1449.23	1181.93
1453.4	1420.69
1457.58	1220.71
1461.76	1569.69
1465.93	1358.75
1470.1	1010.14
1474.26	862.797
1478.43	446.16
1482.59	155.785
1486.75	408.668
1490.9	484.453
1495.06	381.106
1499.21	220.414
1503.35	756.156
1507.5	419.555
1511.64	557.594
1515.78	567.805
1519.92	690.523
1524.05	185.883
1528.18	31.0664
1532.31	422.113
1536.44	117.172
1540.56	333.641
1544.69	208.148
1548.8	155.387
1552.92	222.117
1557.03	451.578
1561.14	27.2461
1565.25	152.582
1569.36	1.59375
