Measurement: Raman, 514 nm, ccw, Raman Data Processed
Mineral: Elbaite
Rruff sample: R060562
Ideal chemistry: Na(Al_1.5_Li_1.5_)Al_6_(Si_6_O_18_)(BO_3_)_3_(OH)_3_OH
Locality: unknown
Source: Gemological Institute of America
Description: Blue colored polished fragment
Measured chemistry: (Na_0.68_Ca_0.20_[box]_0.12_)(Li_1.20_Al_1.12_Fe^2+^_0.50_Mn_0.18_)Al_6_(BO_3_)_3_[Si_6_O_18_]((OH)_0.80_F_0.20_)_4_
Pin_id: M00501
Orientation: Laser parallel to c* (0 0 1). Fiducial mark perpendicular to laser is parallel to -a [-1 0 0]
Raman shift (cm-1)	intensity
118.134	0
123.058	1311.63
127.979	3440.83
132.898	4431.45
137.814	2880.76
142.728	974.496
147.639	601.158
152.549	1381.46
157.455	1164.23
162.359	855.279
167.261	669.97
172.161	382.965
177.058	121.714
181.952	77.3936
186.845	880.923
191.734	2466.2
196.622	4620.79
201.507	5316.65
206.389	4487.47
211.269	5901.28
216.147	9913.23
221.022	16247.6
225.895	19581
230.765	18426
235.633	17038.8
240.498	16680.2
245.361	11640.2
250.222	5568.09
255.08	1799.77
259.936	1775.31
264.789	798.857
269.64	889.819
274.488	518.846
279.334	15.6787
284.178	482.114
289.019	429.512
293.857	248.745
298.693	194.541
303.527	919.26
308.358	1992.39
313.187	3047.39
318.013	4074.02
322.837	6031.53
327.659	7452.99
332.478	7858.88
337.294	7679.81
342.108	7938.23
346.92	8279.21
351.729	8386.77
356.535	9734.97
361.34	12561.8
366.141	17585.1
370.94	26831.9
375.737	38289.2
380.531	31641
385.323	19292.2
390.113	12414.9
394.9	9454.03
399.684	8697.56
404.466	10024.8
409.245	10645.5
414.022	7869.77
418.797	4774.15
423.569	3077.6
428.338	2263.23
433.105	2231.46
437.87	1977.96
442.632	2224.72
447.391	2191.78
452.149	2135.05
456.903	2583.68
461.655	3494.64
466.405	4284.96
471.152	4777.77
475.897	4603.98
480.639	4379.84
485.378	4146.81
490.116	3714.72
494.85	4040.25
499.582	4311.16
504.312	4395.41
509.039	4388.98
513.764	3728.84
518.486	2793.97
523.206	2163.32
527.923	2124.87
532.638	2535.59
537.35	3212.44
542.059	3573.4
546.766	3902
551.471	4281.57
556.173	4053.17
560.873	3589.07
565.57	2805.97
570.264	2135.85
574.957	1925.48
579.646	1977.79
584.333	1767.75
589.018	1352.33
593.7	1088.54
598.379	814.44
603.056	394.245
607.73	83.333
612.402	89.3496
617.072	658.222
621.739	504.216
626.403	21.2539
631.065	672.465
635.724	1517.78
640.381	1936.46
645.035	1335.29
649.687	1327.45
654.336	1912.99
658.983	2134.75
663.627	1568.39
668.268	930.851
672.907	587.108
677.544	512.085
682.178	0.233398
686.809	141.933
691.438	1.26562
696.065	771.688
700.688	2029.05
705.31	3513.75
709.929	5719.73
714.545	9484.98
719.158	16448.4
723.77	28616.3
728.378	41186.8
732.984	39065.2
737.588	27499.2
742.189	18900.2
746.787	12715.1
751.383	8772.75
755.976	6304.35
760.567	4364.87
765.155	2845.81
769.741	1660.14
774.324	883.966
778.904	667.311
783.482	752.66
788.058	939.412
792.631	1599.65
797.201	2435.62
801.769	3663.62
806.334	4484.73
810.897	4112.86
815.457	2923.7
820.014	1713.36
824.569	1156.6
829.122	1801.4
833.671	2637.08
838.219	2706.71
842.763	1857.15
847.306	1218.41
851.845	763.473
856.382	745.352
860.917	570.047
865.448	311.524
869.978	151.637
874.505	51.7754
879.029	168.458
883.55	238.078
888.069	204.02
892.586	77.3613
897.1	51.4932
901.611	31.6523
906.12	75.8838
910.626	194.079
915.129	462.816
919.63	546.323
924.129	1120.42
928.625	1523.68
933.118	2048.3
937.609	2637.21
942.097	3247.53
946.582	3693.26
951.065	3977.34
955.546	4297.71
960.023	4541.17
964.499	4822.03
968.971	5176.49
973.441	5431.16
977.909	5387.08
982.374	4991.25
986.836	4816.71
991.295	4630.47
995.753	4618.01
1000.21	4812.64
1004.66	5322.53
1009.11	5656.77
1013.55	6758.18
1018	7386.16
1022.44	7991.44
1026.88	8449.02
1031.32	9128.36
1035.75	10281.4
1040.18	12348.2
1044.61	15866.7
1049.04	20561.4
1053.46	27373.1
1057.88	34968.8
1062.3	39898.4
1066.71	36188.8
1071.13	26232.7
1075.54	17132.6
1079.94	11182.8
1084.35	7693.48
1088.75	5934.2
1093.15	4934.48
1097.55	4112.21
1101.94	3557.27
1106.34	2954.16
1110.73	2450.9
1115.11	2167.5
1119.5	1967.97
1123.88	1615.32
1128.26	1313.58
1132.63	1200.76
1137.01	1390.99
1141.38	1498.36
1145.75	1414.36
1150.12	879.224
1154.48	418.353
1158.84	268.607
1163.2	115.861
1167.55	62.8633
1171.91	115.625
1176.26	94.8643
1180.61	54.8154
1184.95	56.79
1189.29	85.2939
1193.63	37.6074
1197.97	7.48242
1202.31	29.9521
1206.64	78.0957
1210.97	26.8975
1215.29	24.0938
1219.62	32.5625
1223.94	39.9131
1228.26	142.129
1232.57	161.751
1236.89	352.133
1241.2	357.571
1245.51	332.051
1249.81	384.519
1254.12	462.986
1258.42	466.433
1262.72	459.861
1267.01	682.273
1271.3	743.668
1275.59	920.03
1279.88	891.332
1284.17	891.55
1288.45	1033.65
1292.73	1090.61
1297.01	973.087
1301.28	1065.22
1305.55	1045.91
1309.82	1041.44
1314.09	1186.27
1318.35	1339.31
1322.61	1384.84
1326.87	1529.99
1331.13	1800.6
1335.38	1484.53
1339.63	1411.02
1343.88	1271.9
1348.12	1216.84
1352.37	1288.67
1356.61	1358.78
1360.85	1342.35
1365.08	1414.62
1369.31	1714.5
1373.54	1943.48
1377.77	2601.95
1381.99	3414.77
1386.22	3733.66
1390.43	3343.92
1394.65	2723.39
1398.87	2022.91
1403.08	1714.74
1407.29	1403.55
1411.49	1339.89
1415.69	1107.93
1419.89	1145.82
1424.09	1281.36
1428.29	1227.66
1432.48	1077.9
1436.67	826.042
1440.86	627.37
1445.04	418.187
1449.23	347.568
1453.4	414.403
1457.58	278.522
1461.76	38.2295
1465.93	175.013
1470.1	36.3213
1474.26	15.875
1478.43	0.445313
1482.59	15.0742
1486.75	67.7012
1490.9	4.48926
1495.06	112.637
1499.21	81.2041
1503.35	339.353
1507.5	214.114
1511.64	349.715
1515.78	372.049
1519.92	543.317
1524.05	451.124
1528.18	440.586
1532.31	372.978
1536.44	192.769
1540.56	253.037
1544.69	250.161
1548.8	238.678
1552.92	437.428
1557.03	159.456
1561.14	21.7617
1565.25	147.577
1569.36	1.90918
