Measurement: Raman, 514 nm, ccw, Raman Data Processed
Mineral: Elbaite
Rruff sample: R060560
Ideal chemistry: Na(Al_1.5_Li_1.5_)Al_6_(Si_6_O_18_)(BO_3_)_3_(OH)_3_OH
Locality: California, USA
Source: Gemological Institute of America
Description: Pink fragment
Measured chemistry: (Na_0.56_Ca_0.12_[box]_0.32_)(Al_1.60_Li_1.40_)Al_6_(BO_3_)_3_[Si_6_O_18_](OH)_4_
Pin_id: L01306
Orientation: Laser parallel to c* (0 0 1). Fiducial mark perpendicular to laser is parallel to a [1 0 0]
Raman shift (cm-1)	intensity
118.134	0
123.058	606.173
127.979	1441.37
132.898	2056.93
137.814	1875.31
142.728	1600.03
147.639	1906.34
152.549	1827.49
157.455	731.107
162.359	47.6182
167.261	212.148
172.161	23.0908
177.058	1.32129
181.952	132.299
186.845	51.251
191.734	696.361
196.622	1688.82
201.507	2623.64
206.389	3897.99
211.269	6600.39
216.147	11954.7
221.022	19386.5
225.895	19801.9
230.765	13918.4
235.633	10400.6
240.498	9845.48
245.361	9498
250.222	7279.17
255.08	4842.98
259.936	4268.4
264.789	3273.14
269.64	3876.16
274.488	4355.95
279.334	4246.68
284.178	3676.22
289.019	2604.58
293.857	780.031
298.693	31.5117
303.527	336.369
308.358	1834.57
313.187	2951.43
318.013	3654.36
322.837	5076.19
327.659	7170.91
332.478	7748.77
337.294	6710.85
342.108	5854.79
346.92	6044.74
351.729	6493.18
356.535	8104.85
361.34	11816.6
366.141	17412.6
370.94	25829.8
375.737	34336
380.531	31449.4
385.323	20463.9
390.113	13293.3
394.9	11207.7
399.684	11403.1
404.466	12961.3
409.245	12469
414.022	10163.5
418.797	5439.09
423.569	2003.78
428.338	437.557
433.105	256.462
437.87	734.855
442.632	1320.69
447.391	1896
452.149	2102.64
456.903	1670.93
461.655	1460.97
466.405	1032.73
471.152	665.192
475.897	326.578
480.639	2.29883
485.378	21.5791
490.116	266.53
494.85	674.136
499.582	1631.61
504.312	2879.39
509.039	4284.56
513.764	5524.09
518.486	6277.85
523.206	5589.95
527.923	5214.82
532.638	6377.73
537.35	8132.33
542.059	8415.1
546.766	7852.09
551.471	7800.26
556.173	7554.77
560.873	6865.81
565.57	5642.36
570.264	4226.34
574.957	2919.66
579.646	2139.26
584.333	1569.93
589.018	1116.55
593.7	771.999
598.379	290.182
603.056	137.004
607.73	57.6816
612.402	78.3799
617.072	191.75
621.739	307.804
626.403	61.4365
631.065	21.0508
635.724	109.89
640.381	591.771
645.035	669.38
649.687	507.399
654.336	222.731
658.983	265.847
663.627	154.412
668.268	287.26
672.907	813.677
677.544	660.278
682.178	597.109
686.809	9.81445
691.438	92.6797
696.065	498.714
700.688	1316.6
705.31	2800.85
709.929	4888.33
714.545	8773.4
719.158	16038.8
723.77	29292.2
728.378	47158.4
732.984	50788.1
737.588	34900.3
742.189	20279.8
746.787	12414
751.383	8341.24
755.976	6101.1
760.567	4795.37
765.155	3395.03
769.741	2147.1
774.324	1050.84
778.904	479.774
783.482	181.968
788.058	341.132
792.631	246.352
797.201	543.73
801.769	549.211
806.334	346.269
810.897	232.705
815.457	221.382
820.014	184.557
824.569	47.6728
829.122	11.1016
833.671	30.2832
838.219	131.841
842.763	146.69
847.306	224.824
851.845	129.227
856.382	384.99
860.917	699.381
865.448	795.517
869.978	1151.43
874.505	1271.16
879.029	1353.73
883.55	1315.23
888.069	959.938
892.586	948.238
897.1	644.492
901.611	382.658
906.12	250.343
910.626	188.429
915.129	212.722
919.63	315.227
924.129	597.638
928.625	1025.12
933.118	1509.72
937.609	1822.36
942.097	1981.25
946.582	2129.66
951.065	2031.23
955.546	2148.83
960.023	2233.19
964.499	2422.86
968.971	2685.87
973.441	2907.88
977.909	3432.33
982.374	3686.92
986.836	3408.61
991.295	3342.6
995.753	3003.42
1000.21	3029.65
1004.66	3417.97
1009.11	3617.37
1013.55	3745.89
1018	4756.54
1022.44	5668.33
1026.88	6398.27
1031.32	7306.36
1035.75	7984.59
1040.18	9275.23
1044.61	10656.1
1049.04	12707.9
1053.46	15122.5
1057.88	19324.6
1062.3	24274
1066.71	28845.7
1071.13	28279.5
1075.54	23010.3
1079.94	16257.4
1084.35	10914.8
1088.75	6876.82
1093.15	4672.38
1097.55	3357.99
1101.94	2615.26
1106.34	2131.9
1110.73	1933.8
1115.11	1632.34
1119.5	1378.74
1123.88	1407.91
1128.26	1246.38
1132.63	1235.65
1137.01	1572.49
1141.38	1575.21
1145.75	1519.81
1150.12	1042.27
1154.48	625.584
1158.84	275.736
1163.2	113.717
1167.55	36.5147
1171.91	7.97656
1176.26	100.012
1180.61	0.641602
1184.95	75.0752
1189.29	96.3838
1193.63	69.793
1197.97	64.2217
1202.31	53.0654
1206.64	13.6973
1210.97	150.703
1215.29	40.124
1219.62	86.3594
1223.94	22.4463
1228.26	46.6562
1232.57	219.56
1236.89	70.7197
1241.2	17.4111
1245.51	92.8779
1249.81	166.707
1254.12	266.083
1258.42	110.02
1262.72	391.503
1267.01	457.556
1271.3	541.182
1275.59	576.386
1279.88	385.172
1284.17	510.545
1288.45	421.511
1292.73	530.075
1297.01	517.058
1301.28	547.778
1305.55	479.228
1309.82	478.857
1314.09	546.636
1318.35	530.73
1322.61	475.44
1326.87	409.683
1331.13	649.933
1335.38	513.212
1339.63	464.185
1343.88	401.727
1348.12	360.927
1352.37	332.535
1356.61	337.786
1360.85	331.997
1365.08	434.113
1369.31	342.197
1373.54	366.343
1377.77	485.748
1381.99	676.159
1386.22	705.203
1390.43	1094.51
1394.65	1280.18
1398.87	1468.96
1403.08	1392.88
1407.29	1509.94
1411.49	1145.2
1415.69	1025.45
1419.89	603.08
1424.09	513.017
1428.29	426.413
1432.48	542.393
1436.67	839.564
1440.86	935.946
1445.04	838.676
1449.23	993.179
1453.4	1266.85
1457.58	1902.57
1461.76	2252.84
1465.93	1983.53
1470.1	1422.61
1474.26	676.133
1478.43	452.205
1482.59	53.6523
1486.75	35.3428
1490.9	65.208
1495.06	45.3623
1499.21	8.17188
1503.35	454.548
1507.5	554.337
1511.64	541.594
1515.78	324.951
1519.92	345.51
1524.05	442.17
1528.18	334.039
1532.31	207.394
1536.44	343.289
1540.56	224.603
1544.69	71.7803
1548.8	133.045
1552.92	206.975
1557.03	4.07715
1561.14	17.8838
1565.25	35.6523
1569.36	164.739
