Measurement: Raman, 514 nm, ccw, Raman Data Processed
Mineral: Elbaite
Rruff sample: R050487
Ideal chemistry: Na(Al_1.5_Li_1.5_)Al_6_(Si_6_O_18_)(BO_3_)_3_(OH)_3_OH
Locality: White Queen mine, Pala, San Diego County, California, USA
Source: California Institute of Technology
Description: Mass of blue acicular crystals
Measured chemistry: (Na_0.86_[box]_0.13_Ca_0.01_)(Al_0.42_Li_0.38_Fe^2+^_0.18_Mn_0.02_)_3_Al_6_(BO_3_)_3_Si_6_O_18_((OH)_0.85_F_0.15_)_4_
Pin_id: M00967
Orientation: Laser parallel to -a* (-1 0 0). Fiducial mark perpendicular to laser is parallel to c [0 0 1]
Raman shift (cm-1)	intensity
187.985	0
192.896	2.64795
197.803	134.756
202.709	339.693
207.611	1146.26
212.51	2478.07
217.407	4305.03
222.301	4621.23
227.192	3494.96
232.08	2326.38
236.965	1866.09
241.848	1820.65
246.728	1507.11
251.604	943.288
256.479	722.299
261.35	613.009
266.218	626.356
271.084	690.071
275.947	637.064
280.807	221.683
285.664	43.438
290.518	125.193
295.37	66.0747
300.219	104.007
305.065	212.087
309.908	403.016
314.749	614.197
319.586	1161.3
324.421	1703.37
329.253	2118.14
334.083	2207.82
338.909	2136.15
343.733	2073.11
348.554	2030.63
353.372	2155.75
358.187	3070.78
363	4984.29
367.81	7920.97
372.617	8679.33
377.421	6403.74
382.223	3966.06
387.022	2824.21
391.818	2213.62
396.611	1903.1
401.401	1976.12
406.189	1995.55
410.974	1649.93
415.756	1052.4
420.536	770.642
425.312	474.821
430.086	300.643
434.858	207.866
439.626	226.982
444.392	246.455
449.155	425.693
453.915	327.301
458.672	323.549
463.427	289.372
468.179	225.567
472.928	246.565
477.675	285.867
482.419	443.232
487.16	705.578
491.898	810.899
496.634	1047.21
501.367	968.524
506.097	786.865
510.825	735.264
515.549	605.77
520.271	460.51
524.991	294.598
529.707	305.8
534.421	210.92
539.132	208.505
543.841	140.281
548.547	96.5205
553.25	61.9463
557.95	77.5469
562.648	70.3159
567.343	70.2612
572.035	73.52
576.724	50.6182
581.411	15.8027
586.095	41.9673
590.777	64.7188
595.456	30.6562
600.132	120.606
604.805	44.624
609.476	47.7588
614.144	76.9873
618.809	314.293
623.472	863.664
628.132	1554.11
632.789	1468.65
637.444	1078.24
642.096	784.396
646.745	615.532
651.392	517.11
656.036	475.43
660.677	223.987
665.316	63.7537
669.952	20.4529
674.585	59.55
679.216	32.6406
683.844	147.75
688.469	506.002
693.092	1586.11
697.712	3168.96
702.329	4159.75
706.944	3651.28
711.556	2250.42
716.166	1176.66
720.773	539.616
725.377	396.4
729.978	424.927
734.577	661.504
739.173	1389.66
743.767	2849.5
748.358	4878.25
752.946	5000.52
757.532	3328.48
762.115	2054.99
766.695	1509.73
771.273	1212.18
775.848	948.581
780.421	469.2
784.991	242.58
789.558	61.2678
794.123	11.5652
798.685	6.8418
803.245	11.0464
807.802	48.4658
812.356	2.4751
816.907	75.9094
821.456	138.16
826.003	401.906
830.547	820.875
835.088	1072.59
839.627	1156.04
844.163	1032.23
848.696	893.169
853.227	777.86
857.755	785.304
862.281	882.501
866.804	548.458
871.324	240.199
875.842	116.756
880.357	39.9165
884.87	17.1404
889.38	21.1123
893.888	69.0081
898.393	76.7378
902.895	31.7293
907.395	31.6487
911.892	102.829
916.387	123.811
920.879	155.598
925.368	168.742
929.855	234.811
934.339	279.117
938.821	410.113
943.301	408.149
947.777	468.887
952.251	461.655
956.723	545.244
961.192	654.435
965.658	683.576
970.122	677.673
974.583	700.73
979.042	742.748
983.498	715.734
987.952	755.691
992.403	726.624
996.852	665.325
1001.3	735.307
1005.74	976.476
1010.18	941.187
1014.62	1040.49
1019.06	1283.56
1023.49	1488.38
1027.92	1610.22
1032.35	1894.69
1036.78	2392.3
1041.2	3602.97
1045.62	4928.22
1050.04	6265.71
1054.45	7037.12
1058.87	6629.89
1063.28	5286.71
1067.68	3889.79
1072.09	2873.07
1076.49	2425.88
1080.89	2111.09
1085.29	1985.26
1089.69	1455.14
1094.08	1059.57
1098.47	784.67
1102.86	649.739
1107.24	610.774
1111.63	558.777
1116.01	420.747
1120.38	349.687
1124.76	225.598
1129.13	195.481
1133.5	143.597
1137.87	24.168
1142.24	62.9727
1146.6	83.2305
1150.96	35.3391
1155.32	9.61841
1159.67	4.44971
1164.03	21.6199
1168.38	47.0002
1172.72	47.4045
1177.07	25.7715
1181.41	63.127
1185.75	124.476
1190.09	36.812
1194.43	0.135254
1198.76	65.96
1203.09	47.0083
1207.42	16.4211
1211.75	45.8557
1216.07	58.0859
1220.39	73.2905
1224.71	197.472
1229.02	146.949
1233.34	227.779
1237.65	346.911
1241.96	319.035
1246.26	346.167
1250.57	381.432
1254.87	356.735
1259.17	472.044
1263.46	466.406
1267.76	528.787
1272.05	625.17
1276.34	549.194
1280.62	500.722
1284.91	535.638
1289.19	545.633
1293.47	617.597
1297.74	494.452
1302.02	514.64
1306.29	626.375
1310.56	672.169
1314.83	636.023
1319.09	674.931
1323.35	620.676
1327.61	566.626
1331.87	366.083
1336.12	284.075
1340.38	373.336
1344.63	287.819
1348.87	338.426
1353.12	379.16
1357.36	374.026
1361.6	451.028
1365.84	462.172
1370.08	534.851
1374.31	783.397
1378.54	843.371
1382.77	835.152
1386.99	627.459
1391.22	572.088
1395.44	501.438
1399.66	421.04
1403.87	395.848
1408.09	289.842
1412.3	312.624
1416.51	304.513
1420.71	258.404
1424.92	319.399
1429.12	340.712
1433.32	434.81
1437.51	610.912
1441.71	955.929
1445.9	1054.99
1450.09	1186.84
1454.28	1246.38
1458.46	1136.25
1462.65	929.429
1466.83	612.928
1471	430.591
1475.18	402.238
1479.35	333.062
1483.52	331.152
1487.69	112.524
1491.86	25.2161
1496.02	67.269
1500.18	35.7175
1504.34	12.6545
1508.5	83.1724
1512.65	21.2036
1516.8	47.0574
1520.95	91.833
1525.1	107.594
1529.24	184.74
1533.39	74.9495
1537.53	103.848
1541.66	84.1829
1545.8	86.0178
1549.93	2.27075
1554.06	115.298
1558.19	33.6426
1562.32	49.8286
