Measurement: Raman, 514 nm, ccw, Raman Data Processed
Mineral: Elbaite
Rruff sample: R050487
Ideal chemistry: Na(Al_1.5_Li_1.5_)Al_6_(Si_6_O_18_)(BO_3_)_3_(OH)_3_OH
Locality: White Queen mine, Pala, San Diego County, California, USA
Source: California Institute of Technology
Description: Mass of blue acicular crystals
Measured chemistry: (Na_0.86_[box]_0.13_Ca_0.01_)(Al_0.42_Li_0.38_Fe^2+^_0.18_Mn_0.02_)_3_Al_6_(BO_3_)_3_Si_6_O_18_((OH)_0.85_F_0.15_)_4_
Pin_id: M01385
Orientation: Laser parallel to c* (0 0 1). Fiducial mark perpendicular to laser is parallel to b [0 1 0]
Raman shift (cm-1)	intensity
198.743	0
203.636	64.167
208.527	997.988
213.415	3183.91
218.301	5376.93
223.183	6311.6
228.064	4594.98
232.942	3031
237.817	2368.78
242.69	2053.42
247.56	1748.18
252.428	771.02
257.293	397.625
262.156	142.609
267.016	185.478
271.874	182.147
276.729	314.938
281.581	56.3262
286.431	49.8057
291.279	240.135
296.124	193.594
300.966	77.0703
305.806	271.445
310.643	545.383
315.478	719.686
320.31	1639.89
325.14	2622.26
329.967	3339.7
334.792	3468.57
339.614	3552.83
344.433	3938.02
349.25	4945.1
354.065	5616.07
358.876	6326.63
363.686	7481.88
368.493	9637.59
373.297	12325.6
378.099	11207.9
382.898	7017.18
387.694	4268.13
392.488	2941.8
397.28	2487.3
402.069	2570.83
406.855	2610.62
411.639	2291.95
416.42	1443.96
421.199	1173.22
425.975	860.528
430.749	586.322
435.52	391.157
440.289	364.95
445.055	505.407
449.818	572.71
454.579	403.529
459.338	770.356
464.094	959.811
468.847	1116.94
473.597	1087.73
478.346	1286.16
483.091	1530.21
487.834	1910.82
492.575	2537.55
497.313	3505.97
502.048	3444.97
506.781	2741.74
511.511	1720.62
516.239	891.674
520.964	153.977
525.687	95.6025
530.407	104.084
535.124	253.397
539.839	588.88
544.552	788.904
549.262	834.884
553.969	796.987
558.674	610.676
563.376	198.068
568.075	189.117
572.772	230.031
577.467	230.344
582.159	483.665
586.848	558.734
591.535	791.086
596.219	1126.44
600.901	1261.75
605.58	1284.98
610.257	1072.11
614.931	760.14
619.602	393.195
624.271	442.563
628.937	572.378
633.601	666.448
638.262	908.62
642.921	830.707
647.577	695.644
652.23	739.693
656.881	919.731
661.53	907.452
666.175	610.701
670.819	276.694
675.459	54.2022
680.097	159.676
684.733	201.441
689.366	343.873
693.996	138.748
698.624	341.073
703.25	915.116
707.872	1771.61
712.492	3467.53
717.11	6604.87
721.725	10659.6
726.338	12938.7
730.947	10885.1
735.555	6579.84
740.16	3663.91
744.762	2704.3
749.361	2526.99
753.958	2792.98
758.553	2668.04
763.145	2258.06
767.734	1685.63
772.321	1144.32
776.905	1101.58
781.487	831.516
786.066	862.336
790.642	1165.56
795.216	1593.33
799.788	1915.47
804.356	2638.03
808.923	3542.1
813.486	3172.11
818.047	2234
822.606	1775.98
827.162	1845.61
831.715	2247.17
836.266	2564.63
840.814	2620.88
845.36	3295.73
849.903	4478.1
854.444	6501.01
858.982	6493.44
863.517	4356.43
868.05	2367.98
872.58	1194.11
877.108	628.814
881.633	241.123
886.155	96.043
890.675	15.5039
895.193	51.9102
899.707	235.721
904.22	119.148
908.729	6.80469
913.236	232.731
917.741	29.7109
922.243	64.9414
926.742	7.625
931.239	186.195
935.733	283.445
940.225	512.496
944.714	362.385
949.2	403.738
953.684	732.744
958.166	932.055
962.644	1150.78
967.121	1428.82
971.594	1518.49
976.065	1627.18
980.534	1589.86
985	1870.52
989.463	1842.19
993.924	1761.88
998.382	2315.59
1002.84	2190.35
1007.29	2438.16
1011.74	2718.03
1016.19	2909.97
1020.63	2943.5
1025.08	3293.06
1029.52	3396.8
1033.95	4063.42
1038.39	4612.81
1042.82	5543.66
1047.25	6838.41
1051.68	8827.03
1056.1	11068.8
1060.53	11637
1064.95	9794.83
1069.36	6961.75
1073.78	4419.27
1078.19	2922.73
1082.6	2179.05
1087.01	1935.08
1091.41	1996.8
1095.81	2478.01
1100.21	2757.19
1104.61	2966.5
1109	4108.95
1113.39	4511.53
1117.78	3530.25
1122.16	2316.13
1126.55	1348.16
1130.93	1266.35
1135.31	1039.7
1139.68	1077.22
1144.06	958.922
1148.43	1144.81
1152.8	1395.88
1157.16	1443.24
1161.52	1550.11
1165.88	1102.81
1170.24	685.271
1174.6	597.387
1178.95	467.918
1183.3	523.795
1187.65	461.156
1191.99	38.9043
1196.33	228.102
1200.67	359.541
1205.01	208.834
1209.35	196.635
1213.68	24.1094
1218.01	233.076
1222.33	303.31
1226.66	578.775
1230.98	801.479
1235.3	648.426
1239.62	820.631
1243.93	879.107
1248.24	1001.88
1252.55	1135.93
1256.86	1174.27
1261.16	1159.91
1265.46	1191.9
1269.76	1030.29
1274.05	1001.1
1278.35	1056.25
1282.64	697.791
1286.93	1051.73
1291.21	809.021
1295.49	1005.65
1299.78	949.615
1304.05	888.883
1308.33	868.439
1312.6	612.186
1316.87	594.109
1321.14	487.144
1325.4	523.869
1329.67	411.143
1333.93	332.481
1338.18	287.562
1342.44	200.715
1346.69	176.15
1350.94	109.309
1355.19	359.004
1359.43	234.25
1363.67	333.049
1367.91	499.062
1372.15	547.596
1376.38	769.021
1380.62	822.443
1384.84	982.338
1389.07	933.947
1393.29	989.631
1397.52	1182.07
1401.73	790.984
1405.95	702.418
1410.16	719.824
1414.37	725.981
1418.58	954.775
1422.79	702.611
1426.99	1369.32
1431.19	2026.7
1435.39	3045.88
1439.59	3902.43
1443.78	5009.28
1447.97	5159.53
1452.16	4922.19
1456.34	4841.5
1460.52	3808.8
1464.7	2614.08
1468.88	1945.31
1473.06	1318.53
1477.23	1194.6
1481.4	746.148
1485.57	562.398
1489.73	370.451
1493.89	125.561
1498.05	35.8633
1502.21	155.184
1506.36	269.435
1510.52	110.533
1514.66	71.5664
1518.81	350.713
1522.95	79.3457
1527.1	189.055
1531.23	244.404
1535.37	98.7695
1539.51	63.3828
1543.64	111.941
1547.77	86.7637
1551.89	79.5684
1556.02	0.392578
