Measurement: Raman, 514 nm, ccw, Raman Data Processed
Mineral: Elbaite
Rruff sample: R060631
Ideal chemistry: Na(Al_1.5_Li_1.5_)Al_6_(Si_6_O_18_)(BO_3_)_3_(OH)_3_OH
Locality: unknown
Source: Gemological Institute of America
Description: Pink polished fragment
Measured chemistry: (Na_0.55_Ca_0.34_[box]_0.11_)(Li_1.53_Al_1.30_Mn_0.14_Fe^2+^_0.03_)Al_6.00_(BO_3_)_3_[Si_6.00_O_18_]((OH)_0.82_F_0.18_)_4_
Pin_id: L01326
Orientation: Laser parallel to -c* (0 0 -1). Fiducial mark perpendicular to laser is parallel to b [0 1 0]
Raman shift (cm-1)	intensity
113.208	0
118.134	234.645
123.058	1010.9
127.979	1811.76
132.898	2354.84
137.814	1703.85
142.728	1844.43
147.639	1539.5
152.549	1302.59
157.455	425.863
162.359	226.932
167.261	44.752
172.161	186.257
177.058	58.6885
181.952	25.1582
186.845	987.58
191.734	1882.14
196.622	2656.32
201.507	3935.6
206.389	3833.51
211.269	6745.01
216.147	11785.7
221.022	17035
225.895	15127.9
230.765	10796.6
235.633	9327.95
240.498	8717.92
245.361	6997.5
250.222	4362.69
255.08	2538.49
259.936	1691.73
264.789	1068.58
269.64	1175.58
274.488	1215.54
279.334	1244.26
284.178	1088.16
289.019	606.631
293.857	237.795
298.693	294.615
303.527	417.91
308.358	1445.61
313.187	2099.19
318.013	2868.72
322.837	5873.67
327.659	6323.17
332.478	5969.52
337.294	5179.33
342.108	4634.03
346.92	4621.31
351.729	4895.49
356.535	6626.15
361.34	9579.28
366.141	14324.9
370.94	21568.1
375.737	27791.7
380.531	23259.8
385.323	14438.3
390.113	9697.14
394.9	8213.34
399.684	8586.83
404.466	9384.78
409.245	8881.19
414.022	6367.07
418.797	3120.57
423.569	1134.39
428.338	616.549
433.105	523.205
437.87	1037.49
442.632	1175.62
447.391	1397.86
452.149	1528.07
456.903	1352.68
461.655	1458.98
466.405	1676.46
471.152	1702.11
475.897	1214.23
480.639	886.879
485.378	919.684
490.116	878.75
494.85	1221.64
499.582	1801.36
504.312	2653.99
509.039	3683.77
513.764	3918.74
518.486	3819.59
523.206	3312.05
527.923	3865
532.638	5275.38
537.35	6417.65
542.059	6724.85
546.766	7027.05
551.471	6731.61
556.173	6013.12
560.873	4398.98
565.57	2942.73
570.264	1986.29
574.957	1468.62
579.646	1023.65
584.333	967.801
589.018	668.902
593.7	491.477
598.379	276.461
603.056	13.9648
607.73	173.928
612.402	217.578
617.072	323.863
621.739	156.85
626.403	106.381
631.065	109.5
635.724	533.586
640.381	750.648
645.035	968.24
649.687	696.68
654.336	454.078
658.983	587.488
663.627	577.709
668.268	411.299
672.907	538.609
677.544	596.195
682.178	65.2559
686.809	274.545
691.438	53.5996
696.065	359.898
700.688	1160.96
705.31	2387.9
709.929	4546.63
714.545	7598.39
719.158	14559.8
723.77	27358.1
728.378	39836
732.984	36725.7
737.588	23690
742.189	14499.4
746.787	9380.81
751.383	6517.81
755.976	4722.66
760.567	3437.74
765.155	2304.3
769.741	1456.88
774.324	515.303
778.904	226.611
783.482	125.562
788.058	39.1211
792.631	232.418
797.201	443.709
801.769	929.275
806.334	771.297
810.897	60.0801
815.457	32.5059
820.014	138.619
824.569	40.4512
829.122	221.828
833.671	543.67
838.219	549.934
842.763	432.195
847.306	298.482
851.845	435.82
856.382	784.25
860.917	854.58
865.448	1091.5
869.978	958.369
874.505	884.434
879.029	840.738
883.55	703.521
888.069	504.266
892.586	220.277
897.1	33.3809
901.611	19.6348
906.12	95.2598
910.626	101.26
915.129	111.16
919.63	328.514
924.129	314.469
928.625	1193.88
933.118	1399.68
937.609	1812.63
942.097	2041.36
946.582	2467.16
951.065	2337.61
955.546	2425.17
960.023	2548.84
964.499	2819.23
968.971	3009.11
973.441	3133.27
977.909	3262.46
982.374	3371.75
986.836	3293.91
991.295	2896.23
995.753	2798.64
1000.21	3090.15
1004.66	3315.76
1009.11	3336.5
1013.55	3908.36
1018	4908.36
1022.44	5910.52
1026.88	6611.71
1031.32	6832.33
1035.75	7561.6
1040.18	8896.78
1044.61	10747.5
1049.04	13542.3
1053.46	17204.9
1057.88	22574.5
1062.3	28403.2
1066.71	29731.4
1071.13	25446.2
1075.54	18355.5
1079.94	12205.6
1084.35	8100.98
1088.75	5653.12
1093.15	3908.92
1097.55	3239.11
1101.94	2660.45
1106.34	2340.52
1110.73	1763.53
1115.11	1666.47
1119.5	1512.32
1123.88	1342.07
1128.26	932.561
1132.63	684.619
1137.01	749.502
1141.38	431.781
1145.75	642.932
1150.12	309.935
1154.48	135.756
1158.84	135.375
1163.2	73.7481
1167.55	100.879
1171.91	60.6152
1176.26	19.9121
1180.61	4.95703
1184.95	156.148
1189.29	263.635
1193.63	158.318
1197.97	91.8477
1202.31	34.957
1206.64	20.6602
1210.97	116.945
1215.29	73.5195
1219.62	120.572
1223.94	148.084
1228.26	70.2305
1232.57	203.088
1236.89	364.678
1241.2	110.018
1245.51	334.135
1249.81	262.484
1254.12	201.648
1258.42	367.992
1262.72	446.065
1267.01	629.889
1271.3	695.475
1275.59	844.828
1279.88	845.961
1284.17	881.854
1288.45	538.644
1292.73	858.875
1297.01	684.492
1301.28	652.521
1305.55	692.902
1309.82	683.254
1314.09	875.234
1318.35	783.596
1322.61	919.789
1326.87	805.512
1331.13	535.074
1335.38	548.912
1339.63	473.094
1343.88	723.994
1348.12	327.484
1352.37	388.238
1356.61	462.445
1360.85	446.94
1365.08	803.156
1369.31	540.229
1373.54	611.816
1377.77	622.559
1381.99	1001.51
1386.22	1478.85
1390.43	1595.28
1394.65	1936.99
1398.87	1999
1403.08	2231.36
1407.29	1853.02
1411.49	1492.82
1415.69	1145.81
1419.89	1083.51
1424.09	870.74
1428.29	747.523
1432.48	862.982
1436.67	1451.51
1440.86	1386.44
1445.04	1562.02
1449.23	1645.76
1453.4	1627.12
1457.58	1667.9
1461.76	1597.86
1465.93	1059.64
1470.1	537.932
1474.26	246.6
1478.43	339.832
1482.59	89.7793
1486.75	106.438
1490.9	60.1543
1495.06	110.064
1499.21	105.129
1503.35	234.992
1507.5	196.338
1511.64	231.475
1515.78	65.9297
1519.92	342.685
1524.05	261.818
1528.18	384.797
1532.31	220.133
1536.44	213.863
1540.56	128.744
1544.69	309.223
1548.8	159.154
1552.92	400.17
1557.03	60.6758
1561.14	189.06
1565.25	217.24
1569.36	0.095703
