Measurement: Raman, 514 nm, ccw, Raman Data Processed
Mineral: Elbaite
Rruff sample: R060631
Ideal chemistry: Na(Al_1.5_Li_1.5_)Al_6_(Si_6_O_18_)(BO_3_)_3_(OH)_3_OH
Locality: unknown
Source: Gemological Institute of America
Description: Pink polished fragment
Measured chemistry: (Na_0.55_Ca_0.34_[box]_0.11_)(Li_1.53_Al_1.30_Mn_0.14_Fe^2+^_0.03_)Al_6.00_(BO_3_)_3_[Si_6.00_O_18_]((OH)_0.82_F_0.18_)_4_
Pin_id: L01326
Orientation: Laser parallel to -c* (0 0 -1). Fiducial mark perpendicular to laser is parallel to b [0 1 0]
Raman shift (cm-1)	intensity
113.208	0
118.134	391.647
123.058	1288.4
127.979	1929.03
132.898	2083.48
137.814	1129.51
142.728	950.091
147.639	1559.98
152.549	1765.43
157.455	877.57
162.359	422.567
167.261	68.2119
172.161	264.415
177.058	200.855
181.952	136.748
186.845	912.564
191.734	1851.22
196.622	2902.21
201.507	3919.57
206.389	5097.4
211.269	8657.15
216.147	14434.7
221.022	20620.1
225.895	18295.9
230.765	13331.5
235.633	11497.9
240.498	10664
245.361	8728.98
250.222	5638.68
255.08	3216.1
259.936	1845.44
264.789	1256.75
269.64	1481.05
274.488	1748.67
279.334	1729.06
284.178	1562.24
289.019	906.339
293.857	52.0772
298.693	298.475
303.527	662.652
308.358	1821.41
313.187	2940.26
318.013	3955.21
322.837	5889.84
327.659	7723.19
332.478	7332.05
337.294	6333.75
342.108	5421.3
346.92	5268.02
351.729	6033.68
356.535	8148.05
361.34	11941.6
366.141	17564.3
370.94	26360.3
375.737	33302.4
380.531	27801.7
385.323	17513.1
390.113	11919.5
394.9	9949.83
399.684	10116.1
404.466	11170.5
409.245	10705.7
414.022	7687.2
418.797	3881.92
423.569	1342.58
428.338	485.207
433.105	495.835
437.87	948.139
442.632	1272.05
447.391	1469.44
452.149	1482.45
456.903	1369.63
461.655	1624.99
466.405	2010.24
471.152	1786.82
475.897	1342.02
480.639	1358.03
485.378	773.132
490.116	1066.54
494.85	1323.25
499.582	2051.22
504.312	3424.56
509.039	4394.51
513.764	4839.99
518.486	4450.72
523.206	4059.47
527.923	4757.1
532.638	6244.75
537.35	7660.96
542.059	8287.11
546.766	8220.49
551.471	8187.94
556.173	7236.01
560.873	5299.25
565.57	3563.65
570.264	2112.14
574.957	1296.63
579.646	774.054
584.333	734.545
589.018	592.993
593.7	339.124
598.379	77.8525
603.056	40.9424
607.73	358.896
612.402	412.67
617.072	332.725
621.739	12.0488
626.403	191.967
631.065	220.743
635.724	706.437
640.381	894.963
645.035	1004.78
649.687	745.613
654.336	408.293
658.983	356.219
663.627	573.266
668.268	530.738
672.907	616.258
677.544	688.591
682.178	93.6416
686.809	156.364
691.438	160.69
696.065	444.951
700.688	1418.62
705.31	2764.1
709.929	5241.37
714.545	9424.37
719.158	18012.1
723.77	33082.4
728.378	48052.5
732.984	45194.1
737.588	28659.2
742.189	17784
746.787	11153.9
751.383	7669.64
755.976	5453.5
760.567	4149.71
765.155	2543.94
769.741	1275.8
774.324	582.015
778.904	216.94
783.482	52.6758
788.058	96.7236
792.631	254.757
797.201	538.019
801.769	1054.8
806.334	940.197
810.897	104.202
815.457	110.999
820.014	160.697
824.569	25.7744
829.122	226.368
833.671	454.477
838.219	575.442
842.763	504.281
847.306	474.834
851.845	619.658
856.382	811.239
860.917	1091.78
865.448	1107.31
869.978	1085.84
874.505	1215.41
879.029	1033.08
883.55	856.301
888.069	621.846
892.586	360.754
897.1	188.96
901.611	37.4082
906.12	140.758
910.626	167.234
915.129	32.6289
919.63	137.188
924.129	444.768
928.625	756.82
933.118	1426.84
937.609	1929.94
942.097	2284.84
946.582	2510.62
951.065	2772.7
955.546	2611.47
960.023	2710.81
964.499	2905.87
968.971	3148.85
973.441	3528.1
977.909	3535.28
982.374	3498.35
986.836	3336.32
991.295	3077.19
995.753	3068
1000.21	3627.74
1004.66	3382.45
1009.11	3583.12
1013.55	4123.78
1018	5270.42
1022.44	6109.05
1026.88	7063.22
1031.32	7708.28
1035.75	8465.42
1040.18	10234.8
1044.61	12581.7
1049.04	15682.6
1053.46	20323.2
1057.88	26912.4
1062.3	33369.2
1066.71	35552.9
1071.13	30031
1075.54	21304.4
1079.94	14074
1084.35	9491.34
1088.75	6220.84
1093.15	4430.82
1097.55	3488.38
1101.94	2822.17
1106.34	2188.55
1110.73	1843.59
1115.11	1515.53
1119.5	1262.15
1123.88	1087.56
1128.26	853.743
1132.63	582.707
1137.01	441.44
1141.38	646.937
1145.75	363.19
1150.12	287.197
1154.48	98.9492
1158.84	62.4297
1163.2	75.3945
1167.55	102.311
1171.91	73.7871
1176.26	146.088
1180.61	71.5254
1184.95	52.8457
1189.29	10.169
1193.63	192.651
1197.97	17.2002
1202.31	130.804
1206.64	116.875
1210.97	10.9961
1215.29	3.37598
1219.62	13.2002
1223.94	148.994
1228.26	106.404
1232.57	104.928
1236.89	312.075
1241.2	107.865
1245.51	273.321
1249.81	355.446
1254.12	449.227
1258.42	298.665
1262.72	442.769
1267.01	499.544
1271.3	702
1275.59	786.145
1279.88	700.99
1284.17	693.438
1288.45	729.969
1292.73	806.8
1297.01	710.308
1301.28	692.667
1305.55	748.632
1309.82	806.363
1314.09	783.221
1318.35	980.326
1322.61	898.327
1326.87	569.863
1331.13	610.741
1335.38	633.113
1339.63	405.905
1343.88	498.844
1348.12	391.375
1352.37	441.142
1356.61	485.359
1360.85	603.432
1365.08	515.607
1369.31	553.618
1373.54	702.348
1377.77	943.481
1381.99	1067.47
1386.22	1434.62
1390.43	1866.97
1394.65	2162.54
1398.87	2383.35
1403.08	2197.43
1407.29	1941.82
1411.49	1573.42
1415.69	1262.31
1419.89	862.646
1424.09	879.519
1428.29	787.495
1432.48	882.219
1436.67	1132.41
1440.86	1474.66
1445.04	1439.58
1449.23	1556.05
1453.4	1755.4
1457.58	2015.62
1461.76	1730.02
1465.93	1315.02
1470.1	638.517
1474.26	296.441
1478.43	240.884
1482.59	208.934
1486.75	106.637
1490.9	40.9648
1495.06	31.1787
1499.21	14.9053
1503.35	108.764
1507.5	173.994
1511.64	301.815
1515.78	128.849
1519.92	145.064
1524.05	262.554
1528.18	258.468
1532.31	172.758
1536.44	77.6582
1540.56	157.281
1544.69	18.9053
1548.8	13.6953
1552.92	118.381
1557.03	21.1416
1561.14	100.235
1565.25	39.6855
1569.36	16.8652
