Measurement: Raman, 514 nm, ccw, Raman Data Processed
Mineral: Elbaite
Rruff sample: R050119
Ideal chemistry: Na(Al_1.5_Li_1.5_)Al_6_(Si_6_O_18_)(BO_3_)_3_(OH)_3_OH
Locality: Cruziero mine, San Jose, Minas Gerais, Brazil
Source: Carlos and Paulo Vasconcelos
Description: Red fragment
Measured chemistry: (Na_0.90_Ca_0.10_)(Al_0.56_Li_0.38_Mn_0.06_)_3_Al_6_(BO_3_)_3_(Si_0.89_B_0.11_)_6_O_18_(OH)_4_
Pin_id: L00157
Orientation: Laser parallel to -b* (0 -1 0). Fiducial mark perpendicular to laser is parallel to c [0 0 1]
Raman shift (cm-1)	intensity
120.508	0
124.675	64.982
128.84	143.8
133.003	214.956
137.164	140.969
141.323	220.253
145.48	280.198
149.635	332.922
153.788	412.243
157.939	319.523
162.088	196.872
166.235	51.22
170.38	27.438
174.523	11.275
178.664	57.411
182.803	15.996
186.94	50.909
191.076	92.309
195.209	153.181
199.34	257.515
203.47	261.357
207.597	380.677
211.722	637.955
215.846	1214.02
219.967	2233.56
224.087	2903.8
228.204	2427.24
232.32	1657.5
236.434	1249.51
240.545	1125.67
244.655	1216.09
248.763	1200.92
252.869	1031.73
256.973	654.947
261.075	545.44
265.175	627.207
269.273	759.25
273.369	779.57
277.463	867.17
281.556	844.95
285.646	585.217
289.734	347.454
293.821	190.847
297.905	31.106
301.988	31.921
306.069	37.752
310.147	291.221
314.224	390.523
318.299	441.151
322.372	524.542
326.443	904.597
330.512	1323.32
334.579	1435.06
338.645	1209.05
342.708	991.618
346.769	828.266
350.829	750.021
354.887	909.374
358.942	1324.95
362.996	1859.75
367.048	2834.78
371.098	4405.01
375.146	6149.46
379.192	5547.1
383.236	3904.95
387.279	2787
391.319	2013.24
395.358	1749.69
399.394	1703.35
403.429	1762.21
407.462	1914.28
411.493	1705.55
415.522	1276.02
419.549	738.698
423.575	395.57
427.598	88.637
431.619	35.897
435.639	10.341
439.657	111.967
443.673	243.764
447.687	259.743
451.699	329.897
455.709	297.222
459.717	256.719
463.724	185.555
467.728	42.41
471.731	25.551
475.732	35.383
479.731	59.165
483.728	118.935
487.723	10.357
491.716	199.866
495.708	339.678
499.697	422.92
503.685	598.792
507.671	870.272
511.655	1215.11
515.637	1527.12
519.617	1538.42
523.596	1242.02
527.572	1030.83
531.547	1014.88
535.52	1183.14
539.491	1294.58
543.46	1318.19
547.427	1259.95
551.393	936.866
555.356	721.916
559.318	431.101
563.278	395.416
567.236	322.858
571.192	285.421
575.147	192.104
579.099	166.898
583.05	151.803
586.999	223.368
590.946	125.925
594.891	92.397
598.834	129.563
602.776	113.982
606.715	213.506
610.653	88.123
614.589	72.83
618.523	172.617
622.456	267.481
626.386	298.418
630.315	402.77
634.242	540.978
638.167	703.769
642.09	723.585
646.012	522.558
649.931	283.41
653.849	180.083
657.765	63.73
661.679	41.424
665.592	24.761
669.502	11.101
673.411	204.608
677.318	345.451
681.223	392.836
685.126	276.845
689.028	261.144
692.927	505.403
696.825	845.392
700.721	1190.94
704.616	1992.99
708.508	2952.62
712.399	3092.02
716.288	2465.32
720.175	1782.51
724.06	1096.6
727.944	667.577
731.825	633.442
735.705	818.191
739.584	1096.82
743.46	1848.33
747.334	2915.9
751.207	3901.52
755.078	3484.18
758.947	2689.8
762.815	2048.96
766.68	1502.35
770.544	1224.47
774.406	1195.61
778.267	1354.01
782.125	1126.17
785.982	588.127
789.837	288.969
793.69	168.733
797.542	119.423
801.391	60.965
805.239	32.72
809.085	38.858
812.93	56.515
816.772	24.942
820.613	10.801
824.452	24.706
828.29	15.678
832.125	62.054
835.959	45.15
839.791	9.898
843.621	30.151
847.45	75.04
851.277	78.153
855.102	127.118
858.925	175.777
862.746	316.311
866.566	306.697
870.384	291.963
874.2	271.059
878.015	341.992
881.828	408.768
885.639	367.413
889.448	315.937
893.256	209.32
897.061	165.654
900.865	104.857
904.668	135.889
908.468	143.76
912.267	183.438
916.064	35.929
919.86	102.237
923.653	80.358
927.445	173.295
931.236	215.062
935.024	359.659
938.811	307.086
942.596	331.342
946.379	423.426
950.161	438.959
953.94	588.759
957.719	535.995
961.495	511.686
965.27	441.56
969.043	446.359
972.814	575.16
976.583	645.13
980.351	640.554
984.117	691.67
987.882	672.396
991.644	626.954
995.405	571.768
999.165	698.602
1002.92	766.104
1006.68	614.516
1010.43	655.763
1014.18	671.536
1017.93	849.351
1021.68	884.146
1025.43	1162.83
1029.18	1289.52
1032.92	1384.56
1036.66	1324.01
1040.4	1597.36
1044.14	1953.72
1047.88	2561.82
1051.62	3322.86
1055.35	4044.11
1059.08	4620.07
1062.81	4793.21
1066.54	4477.07
1070.27	4065.45
1073.99	3623.06
1077.72	3151.09
1081.44	2634.8
1085.16	2281.49
1088.88	1835.78
1092.59	1623.22
1096.31	1255.75
1100.02	1000.1
1103.73	902.817
1107.44	721.527
1111.15	585.552
1114.86	403.48
1118.57	392.872
1122.27	326.151
1125.97	374.478
1129.67	320.031
1133.37	347.367
1137.07	209.577
1140.76	170.638
1144.45	49.878
1148.15	65.672
1151.84	51.189
1155.53	167.077
1159.21	77.331
1162.9	131.327
1166.58	66.454
1170.26	53.993
1173.94	12.653
1177.62	13.947
1181.3	34.062
1184.97	123.827
1188.65	140.556
1192.32	55.102
1195.99	7.336
1199.66	61.192
1203.33	36.158
1206.99	2.727
1210.65	68.836
1214.32	48.652
1217.98	91.238
1221.64	145.572
1225.29	70.639
1228.95	17.515
1232.6	32.375
1236.26	31.283
1239.91	115.089
1243.56	117.704
1247.2	231.282
1250.85	182.802
1254.49	154.246
1258.13	140.438
1261.78	119.228
1265.41	120.403
1269.05	133.808
1272.69	157.862
1276.32	284.934
1279.95	295.753
1283.59	203.793
1287.21	145.146
1290.84	130.191
1294.47	145.303
1298.09	56.515
1301.72	127.579
1305.34	47.207
1308.96	162.266
1312.58	134.069
1316.19	266.645
1319.81	175.645
1323.42	165.34
1327.03	178.603
1330.64	45.86
1334.25	2.174
1337.86	49.891
1341.46	61.979
1345.07	120.514
1348.67	207.979
1352.27	142.345
1355.87	122.424
1359.46	33.683
1363.06	16.376
1366.65	59.311
1370.25	28.782
1373.84	6.655
