Measurement: Raman, 514 nm, ccw, Raman Data Processed
Mineral: Elbaite
Rruff sample: R050119
Ideal chemistry: Na(Al_1.5_Li_1.5_)Al_6_(Si_6_O_18_)(BO_3_)_3_(OH)_3_OH
Locality: Cruziero mine, San Jose, Minas Gerais, Brazil
Source: Carlos and Paulo Vasconcelos
Description: Red fragment
Measured chemistry: (Na_0.90_Ca_0.10_)(Al_0.56_Li_0.38_Mn_0.06_)_3_Al_6_(BO_3_)_3_(Si_0.89_B_0.11_)_6_O_18_(OH)_4_
Pin_id: L00105
Orientation: Laser parallel to c* (0 0 1). Fiducial mark perpendicular to laser is parallel to b [0 1 0]
Raman shift (cm-1)	intensity
102.428	0
106.604	345.616
110.777	1396.3
114.949	1611.44
119.119	1863.79
123.286	1850.2
127.452	1977.8
131.615	2026.3
135.777	1685.41
139.937	1383.52
144.094	1118.46
148.25	1031.52
152.403	1019.53
156.555	899.381
160.705	493.579
164.853	212.134
168.998	121.691
173.142	147.692
177.284	35.985
181.424	123.168
185.562	40.729
189.698	194.964
193.831	499.793
197.963	585.445
202.093	874.479
206.221	1121.23
210.347	1625.86
214.472	2771.53
218.594	4548.22
222.714	6475.58
226.832	6013.19
230.948	4251.6
235.063	3380.98
239.175	3219.94
243.286	3182.33
247.394	2844.26
251.501	2076.99
255.605	1290.51
259.708	734.789
263.808	579.815
267.907	641.996
272.004	698.124
276.099	688.939
280.192	571.925
284.283	716.354
288.372	651.995
292.459	168.235
296.544	204.66
300.627	236.918
304.709	9.22
308.788	508.176
312.865	636.177
316.941	934.271
321.015	1254.19
325.086	1783.98
329.156	2554.25
333.224	2905.01
337.29	2587.28
341.354	2144.83
345.416	1722.58
349.476	1619.68
353.534	2012.64
357.591	2476.03
361.645	3219.84
365.698	4373.56
369.748	5656.92
373.797	7760.76
377.844	10115.1
381.889	9149.93
385.932	6335.19
389.973	4490.84
394.012	3436.88
398.049	3263.28
402.084	3420.05
406.118	3727.17
410.15	3754.61
414.179	3142.38
418.207	2140.45
422.233	1158.82
426.257	487.896
430.279	218.877
434.299	158.558
438.318	328.254
442.334	556.701
446.349	654.681
450.361	855.371
454.372	651.498
458.381	632.205
462.388	630.644
466.394	672.427
470.397	765.042
474.398	889.137
478.398	755.577
482.396	737.854
486.391	690.293
490.385	602.875
494.377	665.573
498.368	787.95
502.356	1141.58
506.342	1595.13
510.327	1849.2
514.31	2363.69
518.291	2308.61
522.27	2063.69
526.247	1928.86
530.222	2315.61
534.196	2738.51
538.167	3657.31
542.137	3547.38
546.105	3533.24
550.071	3368.86
554.035	3014.45
557.998	2523.3
561.958	1965.47
565.917	1440.87
569.874	806.177
573.829	551.381
577.782	386.475
581.733	121.444
585.683	186.282
589.63	60.942
593.576	115.427
597.52	10.237
601.462	16.176
605.402	87.497
609.341	19.116
613.277	36.147
617.212	153.863
621.145	22.146
625.076	39.948
629.006	115.628
632.933	31.597
636.859	151.852
640.783	203.232
644.705	264.091
648.625	422.847
652.543	211.302
656.46	252.022
660.375	240.739
664.288	361.785
668.199	417.937
672.108	326.467
676.016	283.604
679.921	388.682
683.825	299.191
687.727	187.347
691.628	167.912
695.526	67.548
699.423	315.916
703.318	721.269
707.211	865.017
711.102	1617.89
714.992	2509.32
718.879	3930.28
722.765	7050.75
726.649	12780.7
730.532	17380.2
734.412	16049.3
738.291	11037.8
742.168	7166.93
746.043	4823.5
749.916	3512.29
753.788	2991.43
757.658	2651
761.526	2372.45
765.392	1807.28
769.257	1256.28
773.119	643.748
776.98	404.401
780.839	11.907
784.697	208.137
788.552	83.657
792.406	195.2
796.258	216.236
800.108	576.785
803.957	576.874
807.804	416.522
811.649	65.701
815.492	5.788
819.333	218.059
823.173	58.391
827.011	36.16
830.847	38.196
834.681	112.062
838.514	134.815
842.345	34.303
846.174	19.922
850.001	4.187
853.827	145.096
857.651	245.484
861.473	165.456
865.293	385.078
869.112	534.495
872.928	763.634
876.744	702.545
880.557	611.216
884.369	489.638
888.178	464.322
891.987	355.81
895.793	233.461
899.598	180.811
903.401	77.837
907.202	94.553
911.001	178.684
914.799	207.431
918.595	223.487
922.389	219.388
926.182	355.287
929.972	301.251
933.761	783.193
937.549	886.289
941.334	1188.49
945.118	1240.75
948.9	1263.94
952.681	1217.66
956.459	1302.27
960.236	1266.62
964.012	1406.52
967.785	1464.97
971.557	1244.34
975.327	1393.74
979.095	1461.62
982.862	1457.06
986.627	1571.63
990.39	1559.95
994.152	1356.38
997.912	1255.95
1001.67	1352.76
1005.43	1492.08
1009.18	1443.28
1012.93	1654.75
1016.68	1693.63
1020.43	2113.1
1024.18	2403.06
1027.93	2826.52
1031.67	2990.36
1035.42	3232.1
1039.16	3305.42
1042.9	3740.62
1046.63	4273.92
1050.37	4886.62
1054.11	5899.14
1057.84	7306.34
1061.57	9490.34
1065.3	11481.2
1069.03	12362.1
1072.75	11161.7
1076.47	8643.13
1080.2	6042.58
1083.92	4512.6
1087.64	3261.04
1091.36	2380.24
1095.07	1759.15
1098.79	1308.09
1102.5	866.369
1106.21	1164.4
1109.92	892.178
1113.62	859.652
1117.33	717.465
1121.04	625.141
1124.74	802.986
1128.44	290.641
1132.14	218.145
1135.83	245.654
1139.53	492.557
1143.22	689.531
1146.92	415.512
1150.61	191.221
1154.3	77
1157.98	42.588
1161.67	101.689
1165.35	203.531
1169.04	97.924
1172.72	221.588
1176.4	145.256
1180.07	131.91
1183.75	159.498
1187.42	37.703
1191.1	25.633
1194.77	55.764
1198.44	171.545
1202.1	244.475
1205.77	234.652
1209.43	54.717
1213.1	15.945
1216.76	132.422
1220.42	70.131
1224.07	297.23
1227.73	444.936
1231.38	379.682
1235.04	416.035
1238.69	132.211
1242.34	68.23
1245.99	174.111
1249.63	319.857
1253.28	255.441
1256.92	620.43
1260.56	714.17
1264.2	696.82
1267.84	517.887
1271.48	377.209
1275.11	256.814
1278.74	132.646
1282.38	335.867
1286.01	464.994
1289.63	389.26
1293.26	594.023
1296.89	477.979
1300.51	85.479
1304.13	104.445
1307.75	133.314
1311.37	100.959
1314.99	179.547
1318.6	207.434
1322.22	522.16
1325.83	376.646
1329.44	521.779
1333.05	346.666
1336.66	106.064
1340.26	59.535
1343.87	17.852
1347.47	150.578
1351.07	445.803
1354.67	594.027
1358.27	454.291
1361.86	605.945
1365.46	284.773
1369.05	142.887
1372.64	77.836
