Measurement: Raman, 514 nm, ccw, Raman Data Processed
Mineral: Elbaite
Rruff sample: R060560
Ideal chemistry: Na(Al_1.5_Li_1.5_)Al_6_(Si_6_O_18_)(BO_3_)_3_(OH)_3_OH
Locality: California, USA
Source: Gemological Institute of America
Description: Pink fragment
Measured chemistry: (Na_0.56_Ca_0.12_[box]_0.32_)(Al_1.60_Li_1.40_)Al_6_(BO_3_)_3_[Si_6_O_18_](OH)_4_
Pin_id: L01799
Orientation: Laser parallel to -a* (-1 0 0). Fiducial mark perpendicular to laser is parallel to -c [0 0 -1]
Raman shift (cm-1)	intensity
118.134	0
123.058	286.437
127.979	451.171
132.898	920.756
137.814	1096.73
142.728	1237.21
147.639	2093.38
152.549	2126.91
157.455	969.27
162.359	245.644
167.261	23.0684
172.161	97.9512
177.058	113.969
181.952	12.8535
186.845	517.535
191.734	1239.36
196.622	2209.94
201.507	3056.59
206.389	3856.8
211.269	6637.35
216.147	11277.5
221.022	16586.3
225.895	15598.1
230.765	11082
235.633	9110.65
240.498	8543.88
245.361	7928.69
250.222	5801.16
255.08	4131.46
259.936	3359.63
264.789	2706.13
269.64	3330.27
274.488	3906.54
279.334	3692.74
284.178	2637.35
289.019	1801.55
293.857	170.174
298.693	223.635
303.527	335.453
308.358	1642.86
313.187	2608.83
318.013	3707.31
322.837	5286.89
327.659	7423.39
332.478	7601.01
337.294	6387.48
342.108	4871.68
346.92	4712.32
351.729	5154.03
356.535	7508.99
361.34	12132.8
366.141	19905.7
370.94	29908.8
375.737	33596.2
380.531	25652.6
385.323	15756.6
390.113	11006.2
394.9	9711.87
399.684	10115.7
404.466	11035.4
409.245	10262.9
414.022	6986.29
418.797	3257.04
423.569	900.102
428.338	158.512
433.105	216.463
437.87	196.004
442.632	764.555
447.391	1508.38
452.149	1744.09
456.903	1432.97
461.655	1061.61
466.405	486.748
471.152	28.8789
475.897	154.797
480.639	10.4102
485.378	417.629
490.116	1242.03
494.85	2053.62
499.582	2827.38
504.312	4062.29
509.039	5487.32
513.764	6865.46
518.486	7150.32
523.206	6137.05
527.923	5457.19
532.638	6029.94
537.35	7324.21
542.059	7200.12
546.766	5717.55
551.471	4305.68
556.173	3381.82
560.873	2261.59
565.57	1492.9
570.264	1385.39
574.957	1054.01
579.646	1155.02
584.333	1118.43
589.018	991.443
593.7	960.562
598.379	616.869
603.056	408.137
607.73	415.352
612.402	336.445
617.072	642.242
621.739	808.643
626.403	1673.36
631.065	2520.35
635.724	3480.95
640.381	3438.13
645.035	2277.81
649.687	1057.89
654.336	314.748
658.983	365.863
663.627	318.481
668.268	200.121
672.907	1336.83
677.544	1503.28
682.178	1065.73
686.809	760.846
691.438	1760.41
696.065	3676.02
700.688	7276.9
705.31	13117.4
709.929	17665.7
714.545	16423.1
719.158	11445
723.77	7122.43
728.378	5484.85
732.984	5824.17
737.588	8350.32
742.189	12872.3
746.787	17495
751.383	18832.5
755.976	15045.7
760.567	11698.8
765.155	9207.62
769.741	7972.24
774.324	7712.04
778.904	7319.03
783.482	4571.12
788.058	2293.53
792.631	1349.68
797.201	491.4
801.769	79.9473
806.334	111.525
810.897	163.703
815.457	286.049
820.014	162.758
824.569	292.098
829.122	229.201
833.671	533.539
838.219	346.322
842.763	308.707
847.306	207.279
851.845	253.252
856.382	763.607
860.917	1043.63
865.448	1207.37
869.978	1501.86
874.505	1908.11
879.029	2027.14
883.55	2014.99
888.069	1479.67
892.586	1135.23
897.1	753.799
901.611	592.41
906.12	232.379
910.626	237.633
915.129	344.898
919.63	393.424
924.129	795.092
928.625	1028.99
933.118	1445.32
937.609	1637.57
942.097	1970.4
946.582	2140.22
951.065	2072.87
955.546	2240.69
960.023	2017.61
964.499	2395.01
968.971	2706.03
973.441	3230.47
977.909	3226.22
982.374	3758.41
986.836	3442.9
991.295	3581.89
995.753	3493.04
1000.21	3248.2
1004.66	3560.37
1009.11	3720.57
1013.55	4106.82
1018	4580.14
1022.44	5368.55
1026.88	5906.17
1031.32	6780.13
1035.75	7848.35
1040.18	9697.61
1044.61	12456.1
1049.04	16312.6
1053.46	20726.2
1057.88	24194.5
1062.3	24895.4
1066.71	23040.3
1071.13	19997.2
1075.54	17181.2
1079.94	14607.3
1084.35	11794.1
1088.75	9523.12
1093.15	7614.64
1097.55	5911.31
1101.94	4663.97
1106.34	3398.72
1110.73	3006.53
1115.11	2496.23
1119.5	1861.87
1123.88	1741.01
1128.26	1114.29
1132.63	908.195
1137.01	710.57
1141.38	738.857
1145.75	532.049
1150.12	217.135
1154.48	113.103
1158.84	104.816
1163.2	22.2285
1167.55	188.984
1171.91	151.703
1176.26	57.4297
1180.61	3.10352
1184.95	46.5195
1189.29	11.7168
1193.63	4.34961
1197.97	19.1152
1202.31	63.2695
1206.64	72.1484
1210.97	6.68945
1215.29	191.525
1219.62	0.033203
1223.94	1.08789
1228.26	71.3457
1232.57	63.5938
1236.89	209.381
1241.2	107.736
1245.51	27.6445
1249.81	16.9473
1254.12	64.668
1258.42	113.914
1262.72	295.709
1267.01	268.065
1271.3	282.992
1275.59	390.49
1279.88	378.57
1284.17	446.228
1288.45	327.482
1292.73	401.703
1297.01	234.631
1301.28	392.203
1305.55	323.389
1309.82	399.414
1314.09	255.898
1318.35	577.131
1322.61	534.225
1326.87	550.527
1331.13	578.881
1335.38	612.762
1339.63	414.934
1343.88	304.477
1348.12	465.115
1352.37	447.494
1356.61	392.369
1360.85	271.754
1365.08	696.725
1369.31	888.619
1373.54	861.924
1377.77	1020.71
1381.99	927.158
1386.22	837.201
1390.43	1063.55
1394.65	1674.22
1398.87	1414.97
1403.08	1651.83
1407.29	1442.74
1411.49	1277.54
1415.69	1433.21
1419.89	944.508
1424.09	669.404
1428.29	725.971
1432.48	543.176
1436.67	677.396
1440.86	698.832
1445.04	871.889
1449.23	800.135
1453.4	1336.61
1457.58	1769.19
1461.76	2055.98
1465.93	2090.05
1470.1	1509.6
1474.26	760.365
1478.43	250.807
1482.59	345.752
1486.75	89.1543
1490.9	224.049
1495.06	181.506
1499.21	285.545
1503.35	473.168
1507.5	759.244
1511.64	303.594
1515.78	285.83
1519.92	186.168
1524.05	416.525
1528.18	274.949
1532.31	341.523
1536.44	13.6602
1540.56	38.1738
1544.69	266.166
1548.8	144.301
1552.92	437.393
1557.03	92.1934
1561.14	15.9121
1565.25	130.652
1569.36	24.3398
