Measurement: Raman, 514 nm, ccw, Raman Data Processed
Mineral: Elbaite
Rruff sample: R060562
Ideal chemistry: Na(Al_1.5_Li_1.5_)Al_6_(Si_6_O_18_)(BO_3_)_3_(OH)_3_OH
Locality: unknown
Source: Gemological Institute of America
Description: Blue colored polished fragment
Measured chemistry: (Na_0.68_Ca_0.20_[box]_0.12_)(Li_1.20_Al_1.12_Fe^2+^_0.50_Mn_0.18_)Al_6_(BO_3_)_3_[Si_6_O_18_]((OH)_0.80_F_0.20_)_4_
Pin_id: L01792
Orientation: Laser parallel to -a* (-1 0 0). Fiducial mark perpendicular to laser is parallel to c [0 0 1]
Raman shift (cm-1)	intensity
118.134	0
123.058	155.537
127.979	90.7998
132.898	39.6709
137.814	26.5176
142.728	40.2627
147.639	413.082
152.549	725.891
157.455	1224.5
162.359	1261.26
167.261	860.09
172.161	468.248
177.058	398.615
181.952	559.66
186.845	1215.8
191.734	2250.56
196.622	3980.27
201.507	6097.29
206.389	7803.15
211.269	10999.7
216.147	15874.5
221.022	21942.6
225.895	25875.4
230.765	24898
235.633	22096.5
240.498	20328
245.361	17995.2
250.222	13700.4
255.08	10660.2
259.936	9034.78
264.789	6954.06
269.64	6126.75
274.488	5403.93
279.334	3971.38
284.178	2596.24
289.019	1456.61
293.857	633.031
298.693	538.498
303.527	1080.77
308.358	1592.23
313.187	2178.33
318.013	2964.87
322.837	2363.31
327.659	1931.96
332.478	2242.92
337.294	2413.14
342.108	3228.82
346.92	3767.34
351.729	4880.66
356.535	6946.74
361.34	12519.6
366.141	21909
370.94	36105.2
375.737	45665.8
380.531	31615.9
385.323	18194.5
390.113	12788.6
394.9	11733
399.684	13318.3
404.466	16426.9
409.245	19147
414.022	15226.8
418.797	8385.88
423.569	4379.75
428.338	2354.45
433.105	1411.87
437.87	956.912
442.632	454.512
447.391	120.623
452.149	120.832
456.903	167.131
461.655	87.5898
466.405	132.143
471.152	168.066
475.897	253.49
480.639	19.6133
485.378	353.254
490.116	1134.33
494.85	1629.6
499.582	2211.03
504.312	2743.6
509.039	2809.28
513.764	2866.16
518.486	1998.3
523.206	1181.73
527.923	575.811
532.638	288.539
537.35	130.525
542.059	44.0527
546.766	42.0918
551.471	24.9961
556.173	131.85
560.873	161.451
565.57	11.959
570.264	453.172
574.957	445.106
579.646	799.717
584.333	718.947
589.018	1066.76
593.7	1165.41
598.379	1166.27
603.056	1256.24
607.73	1390.61
612.402	1516.68
617.072	1839.29
621.739	3307.11
626.403	5991.02
631.065	9624.35
635.724	11327.1
640.381	9261.28
645.035	6910.74
649.687	6066.48
654.336	5974.37
658.983	5847.19
663.627	5074.99
668.268	4007.44
672.907	3190.9
677.544	2662.21
682.178	2886.52
686.809	3693.58
691.438	5660.38
696.065	9426.39
700.688	15319.1
705.31	19702.5
709.929	18942.6
714.545	12901.7
719.158	6992.43
723.77	4247.78
728.378	3318.81
732.984	3100.72
737.588	3543.47
742.189	3405.83
746.787	3615.06
751.383	3506.29
755.976	2656.16
760.567	1741.05
765.155	1188.5
769.741	755.062
774.324	524.635
778.904	264.482
783.482	321.766
788.058	25.5234
792.631	254.242
797.201	68.0254
801.769	27.4844
806.334	50.209
810.897	19.791
815.457	202.627
820.014	207.654
824.569	8.45703
829.122	56.2656
833.671	19.0547
838.219	90.3867
842.763	152.008
847.306	214.992
851.845	195.338
856.382	303.103
860.917	346.322
865.448	395.006
869.978	11.8379
874.505	213.68
879.029	338.617
883.55	168.9
888.069	124.666
892.586	157.971
897.1	188.775
901.611	345.209
906.12	152.272
910.626	202.793
915.129	329.889
919.63	218.592
924.129	553.027
928.625	421.144
933.118	612.746
937.609	670.838
942.097	1059.28
946.582	1169.61
951.065	1478.97
955.546	2073.15
960.023	2515.28
964.499	3039.9
968.971	2961.84
973.441	2806.59
977.909	2702.45
982.374	2819.56
986.836	2784.39
991.295	3027.47
995.753	3220.7
1000.21	3672.2
1004.66	3815.39
1009.11	4012.46
1013.55	4158.69
1018	4306.08
1022.44	4508.19
1026.88	4448.22
1031.32	4116.43
1035.75	4035.98
1040.18	4211.86
1044.61	4361.3
1049.04	4526.36
1053.46	5185.13
1057.88	5688.46
1062.3	6319.76
1066.71	6631.41
1071.13	6851.37
1075.54	7290.28
1079.94	8897.73
1084.35	10551.8
1088.75	10591
1093.15	9414.72
1097.55	7618.01
1101.94	5921.28
1106.34	4461.9
1110.73	3344.72
1115.11	2946.88
1119.5	3030.4
1123.88	2661.22
1128.26	1438.54
1132.63	918.189
1137.01	804.906
1141.38	305.363
1145.75	438.731
1150.12	95.4141
1154.48	282.344
1158.84	78.4805
1163.2	105.141
1167.55	78.7383
1171.91	141.342
1176.26	56.8613
1180.61	116.633
1184.95	79.2578
1189.29	129.783
1193.63	33.2344
1197.97	0.154297
1202.31	98.8281
1206.64	26.8672
1210.97	29.3242
1215.29	235.656
1219.62	77.9082
1223.94	6.07617
1228.26	225.902
1232.57	187.834
1236.89	159.703
1241.2	194.566
1245.51	130.734
1249.81	159.334
1254.12	164.152
1258.42	162.082
1262.72	263.191
1267.01	171.328
1271.3	236.316
1275.59	185.152
1279.88	221.904
1284.17	212.096
1288.45	180.672
1292.73	70.0371
1297.01	125.963
1301.28	10.2598
1305.55	72.9473
1309.82	154.894
1314.09	101.117
1318.35	205.732
1322.61	309.029
1326.87	79.0098
1331.13	190.353
1335.38	167.246
1339.63	57.0391
1343.88	197.594
1348.12	184.428
1352.37	307.475
1356.61	199.844
1360.85	149.797
1365.08	350.607
1369.31	340.328
1373.54	390.682
1377.77	726.502
1381.99	863.164
1386.22	672.051
1390.43	809.24
1394.65	590.924
1398.87	541.217
1403.08	439.971
1407.29	485.797
1411.49	688.514
1415.69	413.236
1419.89	498.721
1424.09	545.867
1428.29	302.973
1432.48	411.408
1436.67	395.869
1440.86	336.1
1445.04	265.203
1449.23	286.711
1453.4	146.682
1457.58	395.986
1461.76	38.1816
1465.93	142.66
1470.1	35.2402
1474.26	84.6602
1478.43	184.002
1482.59	232.719
1486.75	317.875
1490.9	242.248
1495.06	250.717
1499.21	65.6914
1503.35	343.891
1507.5	84.668
1511.64	248.619
1515.78	390.408
1519.92	313.668
1524.05	417.836
1528.18	503.221
1532.31	241.656
1536.44	514.467
1540.56	117.094
1544.69	126.769
1548.8	193.756
1552.92	497.76
1557.03	81.5176
1561.14	52.2578
1565.25	378.836
1569.36	27.7852
