Measurement: Raman, 514 nm, ccw, Raman Data Processed
Mineral: Elbaite
Rruff sample: R050260
Ideal chemistry: Na(Al_1.5_Li_1.5_)Al_6_(Si_6_O_18_)(BO_3_)_3_(OH)_3_OH
Locality: Minas Gerais, Brazil
Source: Marcus Origlieri
Description: Greenish-gray prismatic single crystal
Measured chemistry: (Na_0.76_[box]_0.17_Ca_0.07_)_Σ=1_(Al_1.67_Li_0.97_Mn_0.36_)_Σ=3_Al_6.00_(B_1.00_O_3_)_3_Si_6.00_O_18_((OH)_3.40_F_0.60_)_Σ=4_; B assumed by stoichiometry; OH estimated by charge balance
Pin_id: L01964
Orientation: Laser parallel to a* (1 0 0). Fiducial mark perpendicular to laser is parallel to -c [0 0 -1]
Raman shift (cm-1)	intensity
118.134	0
123.058	213.855
127.979	105.116
132.898	532.913
137.814	607.337
142.728	61.8047
147.639	14.749
152.549	572.903
157.455	616.117
162.359	321.731
167.261	100.936
172.161	11.1709
177.058	130.658
181.952	466.827
186.845	728.089
191.734	1352.47
196.622	2574.23
201.507	4603
206.389	7027.19
211.269	12779.9
216.147	20792
221.022	30660.5
225.895	33425
230.765	25119.3
235.633	19637.6
240.498	18373.9
245.361	18467.1
250.222	18019.2
255.08	15950.4
259.936	14552.4
264.789	11799
269.64	10382.7
274.488	8731.11
279.334	6383.4
284.178	3995.91
289.019	2363.43
293.857	843.345
298.693	47.1103
303.527	320.207
308.358	987.487
313.187	2133.52
318.013	3083.07
322.837	2670.29
327.659	2854.44
332.478	3604.68
337.294	4549.37
342.108	6145.34
346.92	7459.5
351.729	8685.15
356.535	11216.3
361.34	17866.9
366.141	28230
370.94	41865.3
375.737	48803
380.531	32426
385.323	19556.3
390.113	13404.8
394.9	11923.6
399.684	12617.2
404.466	14000
409.245	14034.7
414.022	11623
418.797	6910.74
423.569	3531.06
428.338	1463.96
433.105	790.398
437.87	261.525
442.632	131.224
447.391	69.3545
452.149	29.8877
456.903	155.287
461.655	207.888
466.405	239.373
471.152	139.997
475.897	107.523
480.639	4.49121
485.378	650.656
490.116	1211.05
494.85	1942.69
499.582	2615.66
504.312	3213.63
509.039	3337.01
513.764	3375.15
518.486	2646.32
523.206	1609.28
527.923	1093.97
532.638	734.299
537.35	533.141
542.059	307.68
546.766	45.4902
551.471	42.8291
556.173	65.4307
560.873	146.574
565.57	248.596
570.264	309.46
574.957	499.133
579.646	659.575
584.333	797.751
589.018	1019.62
593.7	1012.15
598.379	991.887
603.056	907.365
607.73	1053.24
612.402	986.248
617.072	1226.5
621.739	2484.87
626.403	4944.67
631.065	8849.84
635.724	11904.7
640.381	11084
645.035	8785.49
649.687	7286.2
654.336	6555.97
658.983	5438.21
663.627	4554.65
668.268	3190.71
672.907	2430.06
677.544	2081.58
682.178	2566.94
686.809	3811.25
691.438	6609.13
696.065	11775.5
700.688	18560.9
705.31	23618
709.929	22000.6
714.545	14502.8
719.158	8264.59
723.77	4961.84
728.378	3600.56
732.984	3094.6
737.588	3212.72
742.189	4036.4
746.787	5830.45
751.383	7308.32
755.976	5949.82
760.567	3633.38
765.155	1982.54
769.741	1188.42
774.324	727.033
778.904	416.938
783.482	92.5215
788.058	69.5469
792.631	135.998
797.201	82.2168
801.769	157.838
806.334	159.482
810.897	64.8799
815.457	51.5527
820.014	129.867
824.569	281.216
829.122	583.579
833.671	695.027
838.219	1103.42
842.763	981.768
847.306	883.081
851.845	703.376
856.382	743.668
860.917	759.965
865.448	572.284
869.978	297.635
874.505	308
879.029	110.267
883.55	0.792969
888.069	122.225
892.586	27.373
897.1	11.2432
901.611	33.5117
906.12	72.3545
910.626	249.097
915.129	434.886
919.63	635.076
924.129	858.54
928.625	1104.32
933.118	1512.75
937.609	1694.42
942.097	2041.68
946.582	2321.25
951.065	2829.13
955.546	3393.94
960.023	4210.59
964.499	4991.34
968.971	5575.44
973.441	5489.49
977.909	5394.57
982.374	5095.1
986.836	5048.07
991.295	5049.17
995.753	5051.39
1000.21	5201.79
1004.66	5050.93
1009.11	5293.95
1013.55	5522.87
1018	5733.07
1022.44	5672.89
1026.88	5406.07
1031.32	5438.99
1035.75	5214.22
1040.18	5799.4
1044.61	6621.26
1049.04	7667.11
1053.46	8948.66
1057.88	9900.82
1062.3	10485
1066.71	10208.4
1071.13	9961.76
1075.54	9844.48
1079.94	10731.7
1084.35	11457.6
1088.75	11251.4
1093.15	9114.89
1097.55	6849.68
1101.94	4901.35
1106.34	3509.98
1110.73	2716.66
1115.11	2055.44
1119.5	1751.71
1123.88	1541.85
1128.26	1042.6
1132.63	617.078
1137.01	476.869
1141.38	359.858
1145.75	77.1328
1150.12	115.759
1154.48	120.832
1158.84	97.5381
1163.2	119.833
1167.55	117.539
1171.91	444.937
1176.26	68.1406
1180.61	296.652
1184.95	234.5
1189.29	409.016
1193.63	405.593
1197.97	238.207
1202.31	543.955
1206.64	63.8447
1210.97	188.874
1215.29	55.3076
1219.62	63.5332
1223.94	11.5264
1228.26	3.79394
1232.57	31.5889
1236.89	78.9375
1241.2	161.442
1245.51	60.2139
1249.81	67.0635
1254.12	64.5918
1258.42	155.133
1262.72	167.278
1267.01	259.196
1271.3	293.91
1275.59	386.019
1279.88	624.703
1284.17	662.749
1288.45	772.527
1292.73	800.789
1297.01	850.987
1301.28	752.053
1305.55	740.547
1309.82	780.6
1314.09	780.524
1318.35	682.127
1322.61	781.425
1326.87	669.41
1331.13	632.074
1335.38	563.413
1339.63	453.057
1343.88	488.736
1348.12	381.926
1352.37	379.758
1356.61	357.815
1360.85	386.782
1365.08	444.604
1369.31	442.184
1373.54	512.726
1377.77	671.654
1381.99	815.406
1386.22	987.184
1390.43	1237.9
1394.65	1649.43
1398.87	1532.93
1403.08	1395.18
1407.29	1563.92
1411.49	1305.75
1415.69	1327.07
1419.89	1144.18
1424.09	1061.05
1428.29	1085.64
1432.48	980.996
1436.67	1102.29
1440.86	915.699
1445.04	760.519
1449.23	699.236
1453.4	718.348
1457.58	384.024
1461.76	493.337
1465.93	333.698
1470.1	174.273
1474.26	157.027
1478.43	95.4629
1482.59	148.072
1486.75	13.5654
1490.9	25.2891
1495.06	15.749
1499.21	171.022
1503.35	390.764
1507.5	381.055
1511.64	527.931
1515.78	477.464
1519.92	674.947
1524.05	636.41
1528.18	648.122
1532.31	687.714
1536.44	612.553
1540.56	439.327
1544.69	392.348
1548.8	406.702
1552.92	473.519
1557.03	382.071
1561.14	182.817
1565.25	281.126
1569.36	122.106
