Measurement: Raman, 514 nm, ccw, Raman Data Processed
Mineral: Elbaite
Rruff sample: R060560
Ideal chemistry: Na(Al_1.5_Li_1.5_)Al_6_(Si_6_O_18_)(BO_3_)_3_(OH)_3_OH
Locality: California, USA
Source: Gemological Institute of America
Description: Pink fragment
Measured chemistry: (Na_0.56_Ca_0.12_[box]_0.32_)(Al_1.60_Li_1.40_)Al_6_(BO_3_)_3_[Si_6_O_18_](OH)_4_
Pin_id: L01306
Orientation: Laser parallel to c* (0 0 1). Fiducial mark perpendicular to laser is parallel to a [1 0 0]
Raman shift (cm-1)	intensity
118.134	0
123.058	619.484
127.979	1404.67
132.898	2242.51
137.814	1962.08
142.728	1644.26
147.639	1702.83
152.549	1959.24
157.455	782.688
162.359	210.406
167.261	235.578
172.161	95.4775
177.058	11.6543
181.952	8.78027
186.845	369.429
191.734	1087.14
196.622	2058.33
201.507	2849.09
206.389	3369.6
211.269	5721.8
216.147	9556.93
221.022	16152.3
225.895	18232.8
230.765	13483.9
235.633	10582.9
240.498	10167
245.361	9425.55
250.222	7287.86
255.08	4518.74
259.936	3149.5
264.789	2336.69
269.64	2575.61
274.488	3111.81
279.334	3058.16
284.178	2572.09
289.019	1721.76
293.857	443.18
298.693	356.156
303.527	3.16113
308.358	1321.95
313.187	2158.18
318.013	2819.25
322.837	4098.81
327.659	6430.71
332.478	6642.84
337.294	5790.03
342.108	4778.88
346.92	4459.1
351.729	5220.32
356.535	6381.6
361.34	9754.93
366.141	14647.6
370.94	21109.7
375.737	28574.1
380.531	27784.8
385.323	18252.8
390.113	11421.9
394.9	9188.15
399.684	9491.45
404.466	10322.8
409.245	10722.5
414.022	8582.58
418.797	5071.28
423.569	1955.14
428.338	479.184
433.105	301.422
437.87	774.938
442.632	1445.81
447.391	2031.04
452.149	2110.31
456.903	1892.16
461.655	1608.84
466.405	1380.15
471.152	1319.88
475.897	1223.47
480.639	1002.5
485.378	1295.54
490.116	1368.73
494.85	1633.12
499.582	2037.14
504.312	3085.45
509.039	4197.11
513.764	5245.15
518.486	6064.41
523.206	5451.21
527.923	5242.36
532.638	6046.37
537.35	8216.56
542.059	9167.81
546.766	9098.43
551.471	9006.64
556.173	8462.23
560.873	7331.68
565.57	5880.01
570.264	4233.6
574.957	3059.41
579.646	2147.28
584.333	1635.51
589.018	1340.07
593.7	886.715
598.379	490.926
603.056	327.603
607.73	4.35156
612.402	5.79199
617.072	297.863
621.739	449.675
626.403	180.039
631.065	171.193
635.724	155.367
640.381	190.68
645.035	552.211
649.687	426.543
654.336	147.434
658.983	116.44
663.627	364.508
668.268	635.9
672.907	912.172
677.544	1032.62
682.178	700.449
686.809	71.5439
691.438	151.863
696.065	327.765
700.688	1109.57
705.31	1919.67
709.929	4012.21
714.545	7122.02
719.158	12838.5
723.77	23892.3
728.378	40414
732.984	47711
737.588	34979.3
742.189	20139.9
746.787	12622
751.383	8312.75
755.976	6175.02
760.567	4964.4
765.155	3615.62
769.741	2178.78
774.324	1202.99
778.904	668.424
783.482	194.227
788.058	282.232
792.631	446.183
797.201	563.769
801.769	847.181
806.334	582.016
810.897	113.835
815.457	187.598
820.014	99.9863
824.569	31.6113
829.122	123.856
833.671	211.255
838.219	58.8594
842.763	176.845
847.306	170.13
851.845	138.727
856.382	343.83
860.917	625.619
865.448	730.185
869.978	1028.56
874.505	1112.78
879.029	1553.88
883.55	1272.9
888.069	1043.02
892.586	979.782
897.1	664.804
901.611	259.136
906.12	101.421
910.626	50.5723
915.129	122.467
919.63	297.736
924.129	485.85
928.625	983.616
933.118	1383.85
937.609	1937.51
942.097	2227.01
946.582	2566.1
951.065	2585.23
955.546	2494.06
960.023	2561.61
964.499	2806.24
968.971	3049.97
973.441	3669.82
977.909	4058.96
982.374	4182.36
986.836	4422.65
991.295	4180.56
995.753	3710.53
1000.21	3706.54
1004.66	3870.62
1009.11	3987.78
1013.55	4603.04
1018	5364.41
1022.44	6580.91
1026.88	7543.53
1031.32	8456.1
1035.75	8689.59
1040.18	9599.09
1044.61	10943.9
1049.04	12844.9
1053.46	15455.6
1057.88	19519.6
1062.3	24994.1
1066.71	29805.9
1071.13	29762.8
1075.54	24885.1
1079.94	17918.8
1084.35	12130.1
1088.75	7813.27
1093.15	5278.3
1097.55	4019.81
1101.94	3332.13
1106.34	2705.61
1110.73	2209.28
1115.11	1819.7
1119.5	1677.69
1123.88	1425.48
1128.26	1409.52
1132.63	1141.47
1137.01	1261.59
1141.38	1312.52
1145.75	1142.23
1150.12	852.721
1154.48	329.15
1158.84	383.996
1163.2	171.74
1167.55	30.877
1171.91	35.1211
1176.26	34.002
1180.61	41.4883
1184.95	85.0625
1189.29	10.3516
1193.63	43.1582
1197.97	63.6875
1202.31	1.47461
1206.64	152.555
1210.97	28.0664
1215.29	65.0742
1219.62	104.027
1223.94	152.863
1228.26	126.971
1232.57	153.299
1236.89	99.0527
1241.2	197.258
1245.51	119.936
1249.81	15.9238
1254.12	75.5156
1258.42	191.428
1262.72	237.83
1267.01	468.736
1271.3	553.162
1275.59	587.107
1279.88	494.58
1284.17	600.584
1288.45	746.119
1292.73	491.373
1297.01	721.539
1301.28	745.045
1305.55	609.365
1309.82	643.699
1314.09	691.807
1318.35	526.311
1322.61	535.172
1326.87	533.535
1331.13	599.031
1335.38	586.426
1339.63	627.516
1343.88	563.9
1348.12	379.549
1352.37	494.004
1356.61	377.307
1360.85	510.744
1365.08	342.432
1369.31	398.018
1373.54	611.074
1377.77	513.775
1381.99	757.348
1386.22	859.229
1390.43	1133.62
1394.65	1454.64
1398.87	1522.75
1403.08	1592.95
1407.29	1560.27
1411.49	1423.42
1415.69	1296.82
1419.89	896.731
1424.09	756.219
1428.29	589.494
1432.48	675.875
1436.67	819.736
1440.86	1005.72
1445.04	1012.65
1449.23	1103.8
1453.4	1434.02
1457.58	1872.14
1461.76	2363.27
1465.93	2311.68
1470.1	1515.79
1474.26	801.137
1478.43	420.949
1482.59	218.291
1486.75	171.076
1490.9	72.3438
1495.06	111.844
1499.21	183.607
1503.35	380.711
1507.5	429.424
1511.64	432.629
1515.78	319.781
1519.92	292.068
1524.05	401.412
1528.18	455.924
1532.31	303.039
1536.44	155.447
1540.56	194.131
1544.69	258.301
1548.8	10.8633
1552.92	86.8789
1557.03	357.688
1561.14	134.707
1565.25	146.779
1569.36	257.69
