Measurement: Raman, 514 nm, ccw, Raman Data Processed
Mineral: Elbaite
Rruff sample: R060631
Ideal chemistry: Na(Al_1.5_Li_1.5_)Al_6_(Si_6_O_18_)(BO_3_)_3_(OH)_3_OH
Locality: unknown
Source: Gemological Institute of America
Description: Pink polished fragment
Measured chemistry: (Na_0.55_Ca_0.34_[box]_0.11_)(Li_1.53_Al_1.30_Mn_0.14_Fe^2+^_0.03_)Al_6.00_(BO_3_)_3_[Si_6.00_O_18_]((OH)_0.82_F_0.18_)_4_
Pin_id: L01625
Orientation: Laser parallel to a* (1 0 0). Fiducial mark perpendicular to laser is parallel to c [0 0 1]
Raman shift (cm-1)	intensity
113.208	0
118.134	276.287
123.058	883.775
127.979	1789.36
132.898	1638.6
137.814	1019.68
142.728	1208.77
147.639	1917.8
152.549	2264.18
157.455	1403.57
162.359	886.156
167.261	12.1758
172.161	191.775
177.058	102.922
181.952	181.211
186.845	1019.37
191.734	2109.77
196.622	3538.14
201.507	5130.73
206.389	6153.77
211.269	10656.7
216.147	16720
221.022	21159.4
225.895	18440
230.765	14283.4
235.633	12540.4
240.498	11027
245.361	8777.17
250.222	5696.62
255.08	3584.59
259.936	2780.52
264.789	1960.29
269.64	1972.62
274.488	2203.56
279.334	1571.16
284.178	1379.35
289.019	563.842
293.857	19.0645
298.693	19.6777
303.527	856.316
308.358	1991.9
313.187	3339.62
318.013	4868.42
322.837	6773.97
327.659	8527.82
332.478	8690.85
337.294	7465.9
342.108	6418.95
346.92	6259.97
351.729	7411.63
356.535	9840.87
361.34	16016
366.141	26100
370.94	37188
375.737	37537.7
380.531	27435.3
385.323	17849.6
390.113	12681.7
394.9	10949.4
399.684	11561.9
404.466	11852.1
409.245	9907.44
414.022	6273.86
418.797	2570.3
423.569	729.711
428.338	40.2285
433.105	10.957
437.87	213.185
442.632	725.65
447.391	916.303
452.149	663.789
456.903	882.199
461.655	944.234
466.405	708.836
471.152	438.947
475.897	378.725
480.639	842.42
485.378	2060.49
490.116	2635.9
494.85	3293.61
499.582	4001.58
504.312	4915.77
509.039	5290.13
513.764	5541.61
518.486	4660.29
523.206	3627.59
527.923	3757.44
532.638	4850.18
537.35	5000.27
542.059	4467.11
546.766	3683.86
551.471	2352.7
556.173	1779.33
560.873	911.51
565.57	227.148
570.264	177.188
574.957	34.9961
579.646	165.522
584.333	293.338
589.018	177.707
593.7	160.647
598.379	341.826
603.056	251.047
607.73	159.086
612.402	64.3594
617.072	287.973
621.739	880.195
626.403	2513.03
631.065	3563.61
635.724	4157.22
640.381	3586.59
645.035	2057.75
649.687	1102.17
654.336	420.736
658.983	133.941
663.627	510.164
668.268	862.701
672.907	1489.82
677.544	1318.14
682.178	1084.37
686.809	1354.1
691.438	3319.24
696.065	6745.41
700.688	12687.2
705.31	18387
709.929	19408.7
714.545	14448.8
719.158	9154.91
723.77	6076.45
728.378	5706.76
732.984	7003.5
737.588	9805.48
742.189	14168.7
746.787	18230.4
751.383	18932
755.976	15921.4
760.567	12654.2
765.155	10677.9
769.741	9400.1
774.324	8932.62
778.904	6237.77
783.482	3255.89
788.058	1640.06
792.631	909.35
797.201	286.353
801.769	53.25
806.334	318.088
810.897	349.24
815.457	207.93
820.014	47.8945
824.569	288.307
829.122	394.516
833.671	809.949
838.219	913.867
842.763	689.301
847.306	866.219
851.845	768.701
856.382	1092.8
860.917	1139.5
865.448	1364.8
869.978	1628.8
874.505	1619.19
879.029	1292.15
883.55	1097.58
888.069	850.307
892.586	490.914
897.1	299.406
901.611	232.535
906.12	196.973
910.626	227.074
915.129	85.4844
919.63	407.516
924.129	841.539
928.625	1242.8
933.118	1692.67
937.609	1859.47
942.097	2060.45
946.582	2490.78
951.065	2569.02
955.546	2630.19
960.023	2814.68
964.499	3136.25
968.971	3670.37
973.441	3812.08
977.909	3957.48
982.374	3832.52
986.836	4146.31
991.295	3674.85
995.753	3602.12
1000.21	3559.18
1004.66	3700.99
1009.11	4403.59
1013.55	4629.21
1018	5536.83
1022.44	6170.75
1026.88	6895.44
1031.32	8068.31
1035.75	9937.34
1040.18	12972.1
1044.61	16992.6
1049.04	22125.3
1053.46	26391.2
1057.88	27944.2
1062.3	26417
1066.71	22687.6
1071.13	18673.8
1075.54	15714.6
1079.94	13021.1
1084.35	11192
1088.75	9335.98
1093.15	7562.76
1097.55	5727.12
1101.94	4367.35
1106.34	3350.95
1110.73	2464.34
1115.11	2175.17
1119.5	1766.05
1123.88	1468.53
1128.26	1029.31
1132.63	929.848
1137.01	692.098
1141.38	482.996
1145.75	126.914
1150.12	123.262
1154.48	11.9922
1158.84	21.2344
1163.2	61.7188
1167.55	39.2695
1171.91	381.641
1176.26	41.3516
1180.61	14.6836
1184.95	118.75
1189.29	26.1172
1193.63	142.562
1197.97	26.4336
1202.31	64.2695
1206.64	121.082
1210.97	147.543
1215.29	122.062
1219.62	70.6523
1223.94	72.5898
1228.26	203.879
1232.57	74.6133
1236.89	35.8281
1241.2	156.367
1245.51	153.371
1249.81	100.695
1254.12	137.492
1258.42	67.7305
1262.72	379.394
1267.01	296.535
1271.3	429.133
1275.59	681.801
1279.88	481.863
1284.17	443.109
1288.45	410.391
1292.73	444.477
1297.01	409.262
1301.28	706.926
1305.55	491.121
1309.82	656.644
1314.09	661.215
1318.35	594.473
1322.61	665.152
1326.87	483.176
1331.13	600.293
1335.38	668.398
1339.63	623.824
1343.88	639.359
1348.12	557.93
1352.37	568.301
1356.61	627.547
1360.85	829.742
1365.08	759.231
1369.31	737.734
1373.54	901.809
1377.77	1509.36
1381.99	1303.45
1386.22	1749.56
1390.43	2128.51
1394.65	2468.01
1398.87	2193.7
1403.08	2160.23
1407.29	1844.67
1411.49	1263.51
1415.69	1279.73
1419.89	1103.44
1424.09	816.328
1428.29	834.121
1432.48	967.379
1436.67	1078.14
1440.86	1103.06
1445.04	1016.78
1449.23	762.246
1453.4	808.027
1457.58	1250.16
1461.76	1183.51
1465.93	856.344
1470.1	421.344
1474.26	315.922
1478.43	2.08594
1482.59	243.898
1486.75	35.3945
1490.9	196.84
1495.06	204.691
1499.21	354.551
1503.35	531.191
1507.5	435.445
1511.64	346.379
1515.78	215.59
1519.92	373.059
1524.05	346.906
1528.18	454.348
1532.31	425.832
1536.44	391.672
1540.56	290.648
1544.69	296.758
1548.8	109.621
1552.92	1007.36
1557.03	277.582
1561.14	13.4414
1565.25	199.406
1569.36	347.617
