Measurement: Raman, 514 nm, ccw, Raman Data Processed
Mineral: Elbaite
Rruff sample: R060560
Ideal chemistry: Na(Al_1.5_Li_1.5_)Al_6_(Si_6_O_18_)(BO_3_)_3_(OH)_3_OH
Locality: California, USA
Source: Gemological Institute of America
Description: Pink fragment
Measured chemistry: (Na_0.56_Ca_0.12_[box]_0.32_)(Al_1.60_Li_1.40_)Al_6_(BO_3_)_3_[Si_6_O_18_](OH)_4_
Pin_id: L01799
Orientation: Laser parallel to -a* (-1 0 0). Fiducial mark perpendicular to laser is parallel to -c [0 0 -1]
Raman shift (cm-1)	intensity
118.134	0
123.058	105.79
127.979	29.9766
132.898	274.977
137.814	524.112
142.728	926.534
147.639	1025.43
152.549	945.519
157.455	366.704
162.359	172.575
167.261	179.196
172.161	338.093
177.058	234.614
181.952	109.065
186.845	214.288
191.734	1147.35
196.622	2570.51
201.507	4555.99
206.389	6458.64
211.269	11139.5
216.147	18175.7
221.022	26254
225.895	26401.1
230.765	19347.1
235.633	15755
240.498	15602.6
245.361	16462.8
250.222	15220.6
255.08	11750.1
259.936	10528.1
264.789	9247.48
269.64	9361.47
274.488	8958.94
279.334	6831.39
284.178	4248.9
289.019	2463.51
293.857	1541.46
298.693	864.918
303.527	1365.24
308.358	1986.75
313.187	3477.68
318.013	3382.29
322.837	3176.22
327.659	3181.32
332.478	3384.23
337.294	3320.02
342.108	4001.7
346.92	4748.42
351.729	5912.59
356.535	8122.08
361.34	12793.9
366.141	22471.9
370.94	34877
375.737	39793.1
380.531	27491.2
385.323	16959.4
390.113	12427.9
394.9	11721.6
399.684	12553.1
404.466	13430.6
409.245	12858
414.022	9742.8
418.797	5856.13
423.569	2948.88
428.338	1489.99
433.105	836.406
437.87	486.096
442.632	451.014
447.391	381.119
452.149	45.4121
456.903	62.2949
461.655	220.914
466.405	250.102
471.152	277.023
475.897	208.318
480.639	198.094
485.378	62.4141
490.116	591.678
494.85	1377.88
499.582	2306
504.312	3206.02
509.039	4391.94
513.764	5263.73
518.486	5547.4
523.206	4438.97
527.923	3558.06
532.638	2859.37
537.35	2924.66
542.059	2539.81
546.766	1931.63
551.471	1416.52
556.173	1048.88
560.873	1007.39
565.57	574.189
570.264	525.365
574.957	698.381
579.646	853.371
584.333	928.072
589.018	982.332
593.7	921.082
598.379	664.869
603.056	695.818
607.73	668.328
612.402	882.08
617.072	806.434
621.739	1397.81
626.403	2616.66
631.065	4455.34
635.724	6786.54
640.381	8075.23
645.035	7329.38
649.687	6099.92
654.336	4813.85
658.983	3817.29
663.627	2584.28
668.268	1663.34
672.907	1253.49
677.544	1345.48
682.178	1111.98
686.809	1696.47
691.438	3110.66
696.065	5154.69
700.688	9533.46
705.31	15373.8
709.929	20224.6
714.545	18583.6
719.158	12871.1
723.77	8012.86
728.378	5467.63
732.984	4701.41
737.588	5092.7
742.189	6463.93
746.787	7315.28
751.383	6985.77
755.976	4718.84
760.567	3250.27
765.155	2243.08
769.741	1432.24
774.324	1131.65
778.904	1027.89
783.482	757.672
788.058	576.521
792.631	143.42
797.201	100.311
801.769	70.9316
806.334	66.4473
810.897	276.566
815.457	226.828
820.014	22.8457
824.569	317.353
829.122	35.8301
833.671	26.2109
838.219	116.133
842.763	37.3652
847.306	171.756
851.845	80.3945
856.382	288.865
860.917	312.9
865.448	490.697
869.978	617.564
874.505	862.311
879.029	636.481
883.55	729.285
888.069	607.109
892.586	791.619
897.1	307.812
901.611	413.695
906.12	418.627
910.626	250.801
915.129	545.268
919.63	669.016
924.129	771.988
928.625	826.369
933.118	1111.24
937.609	1280.52
942.097	1479.77
946.582	2003.02
951.065	2027.34
955.546	3209.05
960.023	3328.68
964.499	4072.47
968.971	4744.18
973.441	4954.74
977.909	5357.72
982.374	5273.65
986.836	5194.75
991.295	5263
995.753	5264.31
1000.21	5024.44
1004.66	4813.45
1009.11	4404.48
1013.55	4389.13
1018	4125.67
1022.44	4242.87
1026.88	4181.12
1031.32	3780.85
1035.75	3555.2
1040.18	3707.44
1044.61	4180.8
1049.04	4495.27
1053.46	5396.64
1057.88	5843.9
1062.3	6415.05
1066.71	7123.76
1071.13	7134.32
1075.54	7466.19
1079.94	7720.28
1084.35	8033.48
1088.75	8440.94
1093.15	8358.28
1097.55	7287.9
1101.94	6490.01
1106.34	5165.4
1110.73	4413.97
1115.11	3906.38
1119.5	4387.6
1123.88	3878.48
1128.26	2303.22
1132.63	1743.77
1137.01	1192.62
1141.38	1137.12
1145.75	705.902
1150.12	667.346
1154.48	226.857
1158.84	169.246
1163.2	112.762
1167.55	22.7324
1171.91	223.377
1176.26	98.4121
1180.61	20.1914
1184.95	94.1231
1189.29	85.3613
1193.63	41.9336
1197.97	25.0957
1202.31	188.57
1206.64	25.1719
1210.97	24.9199
1215.29	71.6406
1219.62	77.3984
1223.94	124.508
1228.26	187.119
1232.57	280.471
1236.89	149.371
1241.2	198.994
1245.51	251.227
1249.81	207.272
1254.12	20.2441
1258.42	319.42
1262.72	344.234
1267.01	250.643
1271.3	85.6953
1275.59	149.367
1279.88	122.617
1284.17	306.537
1288.45	179.129
1292.73	152.576
1297.01	300.404
1301.28	160.652
1305.55	225.734
1309.82	313.289
1314.09	247.397
1318.35	306.799
1322.61	221.529
1326.87	127.49
1331.13	237.731
1335.38	287.816
1339.63	167.934
1343.88	255.393
1348.12	249.156
1352.37	178.113
1356.61	186.75
1360.85	230.992
1365.08	316.789
1369.31	69.0859
1373.54	205.961
1377.77	77.3672
1381.99	201.375
1386.22	209.699
1390.43	271.203
1394.65	629.016
1398.87	488.676
1403.08	367.262
1407.29	758.606
1411.49	547.59
1415.69	416.488
1419.89	522.137
1424.09	342.066
1428.29	159.856
1432.48	498.016
1436.67	265.371
1440.86	365.023
1445.04	114.184
1449.23	449.332
1453.4	648.582
1457.58	667.273
1461.76	976.766
1465.93	980.555
1470.1	730.676
1474.26	332.938
1478.43	446.734
1482.59	71.3633
1486.75	515.766
1490.9	133.805
1495.06	96.8398
1499.21	280.731
1503.35	54.9102
1507.5	281.359
1511.64	546.996
1515.78	283.824
1519.92	215.613
1524.05	437.215
1528.18	239.289
1532.31	427.922
1536.44	468.754
1540.56	358.281
1544.69	111.223
1548.8	358.953
1552.92	1.125
1557.03	90.2539
1561.14	198.527
1565.25	223.219
1569.36	2.73438
