Measurement: Raman, 514 nm, ccw, Raman Data Processed
Mineral: Elbaite
Rruff sample: R050119
Ideal chemistry: Na(Al_1.5_Li_1.5_)Al_6_(Si_6_O_18_)(BO_3_)_3_(OH)_3_OH
Locality: Cruziero mine, San Jose, Minas Gerais, Brazil
Source: Carlos and Paulo Vasconcelos
Description: Red fragment
Measured chemistry: (Na_0.90_Ca_0.10_)(Al_0.56_Li_0.38_Mn_0.06_)_3_Al_6_(BO_3_)_3_(Si_0.89_B_0.11_)_6_O_18_(OH)_4_
Pin_id: L00157
Orientation: Laser parallel to -b* (0 -1 0). Fiducial mark perpendicular to laser is parallel to c [0 0 1]
Raman shift (cm-1)	intensity
121.897	0
126.063	13.328
130.228	45.442
134.39	112.54
138.55	224.81
142.709	208.819
146.865	181.648
151.019	194.601
155.171	156.229
159.322	30.06
163.47	18.268
167.617	9.922
171.761	134.449
175.904	223.348
180.044	174.405
184.183	69.427
188.319	22.277
192.454	146.854
196.586	297.079
200.717	519.888
204.846	736.219
208.972	1111.73
213.097	1887.46
217.22	3523.25
221.341	5659.41
225.46	6676.39
229.577	5283.34
233.692	3846.37
237.805	3177.52
241.916	3182.8
246.025	3288.23
250.132	3410.8
254.237	2939.54
258.34	2567.44
262.442	2328.49
266.541	2393.7
270.639	2440.08
274.734	2331.61
278.828	1955.3
282.919	1379.15
287.009	1000.73
291.097	670.887
295.183	412.823
299.266	250.216
303.348	200.666
307.428	254.244
311.507	473.938
315.583	796.247
319.657	765.857
323.729	593.169
327.8	685.833
331.868	830.855
335.935	883.528
339.999	972.412
344.062	1064.49
348.123	1244.76
352.182	1381.2
356.239	1674.81
360.294	2047.58
364.347	3026.51
368.398	4948.58
372.448	8168.8
376.495	9739.17
380.54	7419.67
384.584	4980.29
388.626	3486.02
392.666	2834.85
396.704	2572.79
400.74	2732.84
404.774	2788.98
408.806	2762.22
412.836	2560.56
416.865	1899
420.891	1301.53
424.916	709.155
428.939	354.633
432.959	205.668
436.978	244.555
440.996	233.524
445.011	194.574
449.024	123.71
453.036	138.975
457.045	41.366
461.053	95.875
465.059	110.57
469.063	65.197
473.065	101.075
477.065	58.274
481.063	53.642
485.06	84.822
489.054	136.291
493.047	171.019
497.038	276.07
501.027	419.432
505.014	751.052
508.999	903.803
512.982	1122.77
516.964	1238.93
520.944	1404.28
524.921	1112.81
528.897	719.469
532.871	637.221
536.844	658.056
540.814	738.009
544.783	564.056
548.749	474.166
552.714	327.32
556.677	157.512
560.638	241.733
564.597	206.978
568.555	119.244
572.511	49.528
576.464	62.825
580.416	72.134
584.366	51.454
588.315	281.783
592.261	180.115
596.206	243.45
600.148	241.789
604.089	213.131
608.028	235.471
611.965	109.808
615.901	353.14
619.834	396.453
623.766	415.88
627.696	599.166
631.624	924.782
635.551	1322.55
639.475	1862.87
643.398	2268.72
647.318	2228.28
651.237	1942.92
655.155	1645.1
659.07	1235
662.984	797.514
666.895	551.478
670.805	495.542
674.713	385.213
678.62	392.632
682.524	400.487
686.427	467.286
690.328	640.134
694.227	956.616
698.124	1374.33
702.02	2273.1
705.913	3606.42
709.805	4679.76
713.695	4422.53
717.584	3314.96
721.47	1937.25
725.355	1279.47
729.238	907.458
733.119	862.299
736.998	919.166
740.876	1043.16
744.752	1475.66
748.626	1934.38
752.498	2235.98
756.368	1776.04
760.237	1143.26
764.104	1177.79
767.969	462.578
771.832	366.604
775.693	399.195
779.553	326.246
783.411	245.173
787.267	106.121
791.122	135.064
794.974	50.917
798.825	28.686
802.674	15.818
806.522	120.813
810.367	140.511
814.211	71.869
818.053	99.303
821.893	38.847
825.732	40.513
829.568	73.633
833.403	1.777
837.236	6.806
841.068	127.482
844.898	92.894
848.726	56.955
852.552	43.825
856.376	22.355
860.199	230.648
864.02	253.803
867.839	270.822
871.656	252.722
875.472	314.522
879.286	364.188
883.098	330.692
886.909	265.08
890.717	183.313
894.524	187.399
898.33	140.358
902.133	180.141
905.935	149.758
909.735	244.261
913.533	67.61
917.33	43.764
921.124	136.703
924.918	231.429
928.709	273.958
932.499	332.31
936.286	240.485
940.073	337.025
943.857	294.79
947.64	429.191
951.421	607.341
955.2	742.391
958.978	747.299
962.753	829.834
966.527	917.985
970.3	1226.76
974.071	1213.43
977.84	1290.36
981.607	1308.5
985.372	1239.47
989.136	1301.26
992.898	1196.58
996.659	1362.15
1000.42	1324.64
1004.17	1289.08
1007.93	1184.75
1011.68	1045.38
1015.43	1188.12
1019.18	1169.3
1022.93	1221.57
1026.68	1176.68
1030.42	1257.07
1034.17	1149.68
1037.91	1158.41
1041.65	1096.81
1045.39	1390.08
1049.12	1508.46
1052.86	1735.16
1056.59	2086.42
1060.33	2319.21
1064.06	2294.99
1067.78	2389.76
1071.51	2274.12
1075.23	2348.99
1078.96	2233.3
1082.68	2161.01
1086.4	2085.58
1090.12	2210.73
1093.83	2125.21
1097.55	1919.84
1101.26	1644.05
1104.97	1258.27
1108.68	1002.63
1112.39	747.18
1116.1	621.867
1119.8	506.534
1123.5	661.154
1127.2	535.711
1130.9	400.015
1134.6	334.2
1138.3	228.208
1141.99	82.011
1145.69	285.999
1149.38	149.511
1153.07	242.958
1156.76	245.996
1160.44	129.199
1164.13	42.057
1167.81	55.479
1171.49	113.25
1175.17	21.398
1178.85	20.243
1182.52	82.207
1186.2	6.579
1189.87	14.064
1193.54	6.649
1197.21	87.262
1200.88	30.995
1204.55	70.785
1208.21	109.099
1211.88	148.746
1215.54	218.144
1219.2	147.252
1222.86	206.571
1226.51	24.461
1230.17	133.499
1233.82	107.273
1237.47	340.978
1241.12	244.624
1244.77	258.209
1248.42	291.707
1252.06	185.112
1255.71	248.424
1259.35	221.165
1262.99	201.313
1266.63	233.317
1270.26	480.965
1273.9	347.956
1277.53	251.596
1281.16	277.684
1284.8	212.158
1288.42	30.646
1292.05	169.191
1295.68	73.052
1299.3	178.911
1302.92	328.938
1306.55	243.496
1310.16	387.45
1313.78	261.507
1317.4	194.296
1321.01	75.781
1324.62	2.905
1328.24	59.301
1331.85	100.885
1335.45	204.04
1339.06	328.142
1342.66	270.125
1346.27	323.761
1349.87	195.257
1353.47	100.091
1357.07	133.019
1360.66	50.926
1364.26	2.369
1367.85	165.676
1371.44	249.153
