Measurement: Raman, 514 nm, ccw, Raman Data Processed
Mineral: Elbaite
Rruff sample: R060560
Ideal chemistry: Na(Al_1.5_Li_1.5_)Al_6_(Si_6_O_18_)(BO_3_)_3_(OH)_3_OH
Locality: California, USA
Source: Gemological Institute of America
Description: Pink fragment
Measured chemistry: (Na_0.56_Ca_0.12_[box]_0.32_)(Al_1.60_Li_1.40_)Al_6_(BO_3_)_3_[Si_6_O_18_](OH)_4_
Pin_id: L01306
Orientation: Laser parallel to c* (0 0 1). Fiducial mark perpendicular to laser is parallel to a [1 0 0]
Raman shift (cm-1)	intensity
118.134	0
123.058	432.135
127.979	886.308
132.898	1552.93
137.814	1333.19
142.728	1255.14
147.639	1823.05
152.549	1787.14
157.455	797.789
162.359	93.0566
167.261	52.456
172.161	29.3438
177.058	110.722
181.952	34.7305
186.845	545.294
191.734	1454.16
196.622	2320.87
201.507	3264.57
206.389	3887.1
211.269	6346.38
216.147	10877.5
221.022	16919.8
225.895	17856.9
230.765	12770.5
235.633	10038.8
240.498	9450
245.361	8566.93
250.222	6361.64
255.08	3737.16
259.936	3192.46
264.789	2141.1
269.64	2552.44
274.488	3341.84
279.334	3263.33
284.178	2766.3
289.019	1879.76
293.857	163.048
298.693	306.008
303.527	522.525
308.358	1998.55
313.187	2831.48
318.013	3602.34
322.837	5027.71
327.659	7155.73
332.478	7243.62
337.294	5825.88
342.108	4877.57
346.92	4449.21
351.729	5046.3
356.535	7013.24
361.34	11043.2
366.141	16388.4
370.94	23039.9
375.737	29016.6
380.531	26347.8
385.323	17308.2
390.113	11200.6
394.9	9515.04
399.684	9539.42
404.466	10581.7
409.245	10514.2
414.022	8481.87
418.797	4720.81
423.569	1665.69
428.338	371.547
433.105	367.427
437.87	833.409
442.632	1495.57
447.391	2016.95
452.149	2049.32
456.903	2059.2
461.655	1686.19
466.405	1503.1
471.152	1504.04
475.897	1309.13
480.639	1291.81
485.378	1430.03
490.116	1531
494.85	1760.77
499.582	2273.02
504.312	3649.49
509.039	5010.1
513.764	6309.82
518.486	7083.32
523.206	6753.15
527.923	6707.65
532.638	8169.91
537.35	10320
542.059	11259.6
546.766	10611.3
551.471	10009.3
556.173	9100.65
560.873	7252.6
565.57	5257.87
570.264	3372.38
574.957	2093.12
579.646	1218.94
584.333	896.765
589.018	665.562
593.7	352.039
598.379	225.102
603.056	137.637
607.73	96.5156
612.402	317.031
617.072	200.952
621.739	295.902
626.403	163.916
631.065	128.914
635.724	126.434
640.381	393.011
645.035	776.66
649.687	434.536
654.336	98.5723
658.983	2.99121
663.627	170.392
668.268	365.106
672.907	752.237
677.544	924.943
682.178	618.745
686.809	41.081
691.438	94.4981
696.065	455.602
700.688	931.958
705.31	2126.89
709.929	4057.37
714.545	7742.16
719.158	14116.5
723.77	26373.9
728.378	43576.8
732.984	48558.2
737.588	34554.2
742.189	20276.1
746.787	12641.2
751.383	8497.52
755.976	6196.73
760.567	4858.48
765.155	3534.27
769.741	2317.96
774.324	1064.56
778.904	733.416
783.482	471.729
788.058	483.717
792.631	810.495
797.201	1162.98
801.769	1709.3
806.334	1291.31
810.897	431.925
815.457	204.219
820.014	129.138
824.569	81.4062
829.122	12.8848
833.671	196.306
838.219	197.574
842.763	129.357
847.306	54.6406
851.845	183.78
856.382	488.06
860.917	671.874
865.448	1034.02
869.978	1030.14
874.505	1468.24
879.029	1572.38
883.55	1457.66
888.069	1017.47
892.586	966.252
897.1	410.377
901.611	279.636
906.12	75.5527
910.626	38.5654
915.129	42.3467
919.63	310.254
924.129	418.503
928.625	830.996
933.118	1184.27
937.609	1902.5
942.097	2059.61
946.582	2477.09
951.065	2544.2
955.546	2417.46
960.023	2574.97
964.499	2781.23
968.971	2897.01
973.441	3310.39
977.909	3710
982.374	3773.34
986.836	3770.19
991.295	3501.45
995.753	3405.91
1000.21	3395.34
1004.66	3459.76
1009.11	3591.17
1013.55	4009.6
1018	4868.04
1022.44	6009.52
1026.88	7160.04
1031.32	7909.76
1035.75	8836
1040.18	9697.98
1044.61	11511.9
1049.04	13799.3
1053.46	17148.8
1057.88	21885.5
1062.3	28060.2
1066.71	33012.8
1071.13	32528.8
1075.54	26458.8
1079.94	19095.8
1084.35	12716.3
1088.75	8496.48
1093.15	5714.43
1097.55	4331.7
1101.94	3557.75
1106.34	2969.87
1110.73	2400.27
1115.11	2147.71
1119.5	1558.96
1123.88	1257.92
1128.26	1195.07
1132.63	914.993
1137.01	800.489
1141.38	662.951
1145.75	683.165
1150.12	302.124
1154.48	151.818
1158.84	120.238
1163.2	93.3701
1167.55	18.1133
1171.91	44.4512
1176.26	5.59961
1180.61	50.5283
1184.95	127.347
1189.29	126.608
1193.63	22.0254
1197.97	2.11035
1202.31	116.107
1206.64	21.6797
1210.97	108.776
1215.29	115.506
1219.62	27.54
1223.94	89.4228
1228.26	81.7949
1232.57	140.6
1236.89	47.9102
1241.2	204.797
1245.51	117.215
1249.81	147.154
1254.12	173.606
1258.42	312.589
1262.72	88.126
1267.01	483.218
1271.3	407.886
1275.59	424.137
1279.88	417.978
1284.17	525.815
1288.45	548.402
1292.73	343.714
1297.01	525.364
1301.28	448.078
1305.55	565.516
1309.82	561.911
1314.09	494.137
1318.35	552.312
1322.61	339.022
1326.87	601.338
1331.13	374.522
1335.38	483.307
1339.63	342.184
1343.88	523.477
1348.12	257.319
1352.37	394.102
1356.61	368.905
1360.85	423.606
1365.08	422.55
1369.31	398.106
1373.54	308.615
1377.77	564.71
1381.99	801.975
1386.22	832.769
1390.43	997.832
1394.65	1368.76
1398.87	1590.8
1403.08	1575.98
1407.29	1369.29
1411.49	1405.62
1415.69	1134.16
1419.89	941.955
1424.09	650.348
1428.29	621.883
1432.48	645.867
1436.67	760.08
1440.86	853.66
1445.04	1052.24
1449.23	1137.75
1453.4	1368.7
1457.58	2162.27
1461.76	2491.9
1465.93	2219.58
1470.1	1470.76
1474.26	591.223
1478.43	323.141
1482.59	254.545
1486.75	21.4414
1490.9	17.2305
1495.06	150.826
1499.21	130.42
1503.35	331.631
1507.5	493.299
1511.64	589.422
1515.78	315.463
1519.92	298.58
1524.05	226.131
1528.18	292.023
1532.31	7.9043
1536.44	143.705
1540.56	232.844
1544.69	41.5684
1548.8	155.043
1552.92	99.8594
1557.03	130.529
1561.14	50.4316
1565.25	86.8418
1569.36	16.3652
