Measurement: Raman, 514 nm, ccw, Raman Data Processed
Mineral: Elbaite
Rruff sample: R060003
Ideal chemistry: Na(Al_1.5_Li_1.5_)Al_6_(Si_6_O_18_)(BO_3_)_3_(OH)_3_OH
Locality: Mount Begbie, Revelstoke, British Columbia, Canada
Source: Bob Downs
Description: Pink crystal associated with trilithionite, R060004
Measured chemistry: (Na_0.58_[box]_0.42_)(Al_1.69_Li_1.27_Mn_0.04_)Al_6_(BO_3_)_3_[Si_6_O_18_](OH)_4_
Pin_id: L00688
Orientation: Laser parallel to -a* (-1 0 0). Fiducial mark perpendicular to laser is parallel to -c [0 0 -1]
Raman shift (cm-1)	intensity
118.134	0
123.058	301.947
127.979	48.1738
132.898	552.992
137.814	1618.07
142.728	1561.7
147.639	1778.3
152.549	2356.13
157.455	1583.81
162.359	1608.24
167.261	1574.07
172.161	1653.39
177.058	1366.35
181.952	887.598
186.845	1326.09
191.734	1379.9
196.622	1861.75
201.507	2829.3
206.389	3981.27
211.269	7107.61
216.147	11056.8
221.022	13985.6
225.895	12202.7
230.765	8568.96
235.633	7035.35
240.498	7107.8
245.361	7347.2
250.222	6612.47
255.08	5367.47
259.936	5239.51
264.789	5506.67
269.64	5724.19
274.488	4897.38
279.334	4324.43
284.178	3419.64
289.019	3000.2
293.857	1751.92
298.693	445.951
303.527	314.172
308.358	749.336
313.187	852.375
318.013	1043.77
322.837	1402.76
327.659	1757.19
332.478	1782.83
337.294	2032.61
342.108	2269.2
346.92	2888.59
351.729	3327.69
356.535	4646.37
361.34	7863.51
366.141	13431.1
370.94	18883
375.737	17712.2
380.531	11934.7
385.323	7524.43
390.113	5753.31
394.9	5628.35
399.684	5878.57
404.466	5707.82
409.245	4938.12
414.022	3200.2
418.797	1647.09
423.569	375.598
428.338	314.867
433.105	230.039
437.87	187.129
442.632	187.562
447.391	70.7344
452.149	185.926
456.903	134.074
461.655	137.449
466.405	844.168
471.152	2106.31
475.897	3391.01
480.639	3415.52
485.378	1791.52
490.116	1381.17
494.85	2622.42
499.582	5402.24
504.312	8674.6
509.039	10387.5
513.764	8149.01
518.486	5606.1
523.206	3542.82
527.923	2353.24
532.638	1980.38
537.35	2084.85
542.059	1801.66
546.766	1420.99
551.471	1075.46
556.173	704.738
560.873	447.754
565.57	279.359
570.264	278.309
574.957	319.977
579.646	385.07
584.333	354.809
589.018	75.0195
593.7	301.184
598.379	217.344
603.056	224.383
607.73	42.1836
612.402	85.332
617.072	122.828
621.739	833.879
626.403	945.793
631.065	2041.56
635.724	3397.25
640.381	4424.06
645.035	4360.87
649.687	3700.52
654.336	2586.47
658.983	1643.12
663.627	911.301
668.268	708.023
672.907	133.809
677.544	248.656
682.178	227.492
686.809	587.18
691.438	1497.19
696.065	3074.98
700.688	6141.38
705.31	8838.16
709.929	9861.63
714.545	8062.42
719.158	5644.78
723.77	3772.34
728.378	3184.77
732.984	2775.99
737.588	3208.75
742.189	4363.56
746.787	4977.02
751.383	4772.92
755.976	3780.27
760.567	2591.34
765.155	1817.54
769.741	1324.35
774.324	1235.76
778.904	798.797
783.482	438.188
788.058	176.316
792.631	90.5781
797.201	176.793
801.769	132.402
806.334	92.6211
810.897	533.906
815.457	459.188
820.014	197.965
824.569	227.035
829.122	35.0977
833.671	81.6758
838.219	80.5312
842.763	181.777
847.306	106.231
851.845	295.328
856.382	568.969
860.917	436.723
865.448	595.641
869.978	710.848
874.505	507.449
879.029	459.812
883.55	409.879
888.069	601.234
892.586	290.148
897.1	209.316
901.611	62.6875
906.12	66.3633
910.626	73.1719
915.129	74.75
919.63	581.844
924.129	313.801
928.625	298.894
933.118	592.176
937.609	631.367
942.097	647.406
946.582	765.945
951.065	1094.97
955.546	1329.77
960.023	1743.1
964.499	2319.57
968.971	2565.32
973.441	2834.12
977.909	3190.06
982.374	3130.77
986.836	2936.75
991.295	3153.78
995.753	2969.79
1000.21	3163.89
1004.66	2692.94
1009.11	2638.77
1013.55	2670.53
1018	2504.16
1022.44	2703.4
1026.88	2872.11
1031.32	2586.33
1035.75	2326.7
1040.18	2822.38
1044.61	2753.59
1049.04	3393.9
1053.46	3799.78
1057.88	4724.52
1062.3	4947.6
1066.71	4868.82
1071.13	4786.11
1075.54	5197.49
1079.94	5171.14
1084.35	5134.97
1088.75	4498.55
1093.15	4495.68
1097.55	3757.44
1101.94	3490.61
1106.34	2518.28
1110.73	2431.32
1115.11	1873.76
1119.5	1812.07
1123.88	1816.36
1128.26	1338.59
1132.63	1455.16
1137.01	782.957
1141.38	646.957
1145.75	361.047
1150.12	577.887
1154.48	221.641
1158.84	200.32
1163.2	99.9023
1167.55	65.6016
1171.91	166.418
1176.26	87.7656
1180.61	106.367
1184.95	78.8398
1189.29	253
1193.63	51.1758
1197.97	189.883
1202.31	462.477
1206.64	14.9727
1210.97	310.672
1215.29	40.8711
1219.62	2.73828
1223.94	126.449
1228.26	307.305
1232.57	462.519
1236.89	85.4453
1241.2	86.75
1245.51	251.672
1249.81	254.918
1254.12	217.144
1258.42	56.0391
1262.72	217.738
1267.01	141.133
1271.3	142.281
1275.59	134.207
1279.88	458.934
1284.17	135.492
1288.45	351.906
1292.73	694.254
1297.01	382.168
1301.28	396.359
1305.55	569.918
1309.82	799.445
1314.09	444.836
1318.35	522.898
1322.61	554.09
1326.87	338.102
1331.13	223.086
1335.38	494.031
1339.63	447.277
1343.88	200.562
1348.12	258.199
1352.37	228.297
1356.61	333.961
1360.85	335.094
1365.08	532.418
1369.31	303.047
1373.54	230.633
1377.77	283.914
1381.99	163.664
1386.22	335.406
1390.43	372.359
1394.65	277.789
1398.87	420.285
1403.08	440.594
1407.29	395.09
1411.49	320.914
1415.69	258.144
1419.89	493.984
1424.09	369.203
1428.29	713.363
1432.48	1176.43
1436.67	1266.84
1440.86	1481.44
1445.04	1443.77
1449.23	1237.32
1453.4	1378.22
1457.58	1146.69
1461.76	951.848
1465.93	1109.73
1470.1	729.844
1474.26	436.852
1478.43	420.731
1482.59	666.699
1486.75	286.453
1490.9	455.789
1495.06	193.133
1499.21	81.1758
1503.35	160.234
1507.5	2.67969
