Measurement: Raman, 514 nm, ccw, Raman Data Processed
Mineral: Elbaite
Rruff sample: R050260
Ideal chemistry: Na(Al_1.5_Li_1.5_)Al_6_(Si_6_O_18_)(BO_3_)_3_(OH)_3_OH
Locality: Minas Gerais, Brazil
Source: Marcus Origlieri
Description: Greenish-gray prismatic single crystal
Measured chemistry: (Na_0.76_[box]_0.17_Ca_0.07_)_Σ=1_(Al_1.67_Li_0.97_Mn_0.36_)_Σ=3_Al_6.00_(B_1.00_O_3_)_3_Si_6.00_O_18_((OH)_3.40_F_0.60_)_Σ=4_; B assumed by stoichiometry; OH estimated by charge balance
Pin_id: L01093
Orientation: Laser parallel to c* (0 0 1). Fiducial mark perpendicular to laser is parallel to -a [-1 0 0]
Raman shift (cm-1)	intensity
118.134	0
123.058	568.719
127.979	1033
132.898	1346.87
137.814	766.174
142.728	14.0264
147.639	396.294
152.549	1477.31
157.455	1070.48
162.359	836.273
167.261	528.458
172.161	23.0254
177.058	265.749
181.952	48.7617
186.845	666.856
191.734	1354.16
196.622	2131.51
201.507	2928.12
206.389	3245.94
211.269	6219.81
216.147	11512.9
221.022	16725.9
225.895	15506.1
230.765	10703.5
235.633	8200.1
240.498	7282.14
245.361	6400.17
250.222	4096.5
255.08	2328
259.936	1610.97
264.789	924.389
269.64	1109.01
274.488	1357.6
279.334	1256.63
284.178	909.949
289.019	337.842
293.857	108.393
298.693	412.621
303.527	306.25
308.358	1138.47
313.187	1589.88
318.013	2447.35
322.837	3931.22
327.659	5793.44
332.478	6585.43
337.294	6363.5
342.108	6123.41
346.92	5923.65
351.729	5830.63
356.535	6596.64
361.34	8860.27
366.141	13281.6
370.94	20233.7
375.737	27211.4
380.531	23211.7
385.323	14159.7
390.113	9254.14
394.9	7116.06
399.684	6568.52
404.466	6927.93
409.245	6888.4
414.022	5693.51
418.797	3067.67
423.569	1676.01
428.338	906.543
433.105	747.227
437.87	915.5
442.632	1154.59
447.391	1342.34
452.149	1267.93
456.903	1186.23
461.655	1232.25
466.405	1788.47
471.152	2096.72
475.897	2161.58
480.639	2066.79
485.378	2076.9
490.116	1954.02
494.85	2261.14
499.582	2794.94
504.312	3223.37
509.039	3792.49
513.764	3490.22
518.486	3131.42
523.206	2706.04
527.923	2936.02
532.638	3663.29
537.35	4589.54
542.059	4780.64
546.766	5200.33
551.471	5111.74
556.173	4181.64
560.873	3199.46
565.57	2327.01
570.264	1750.21
574.957	1286.01
579.646	1265.36
584.333	842.953
589.018	670.209
593.7	248.293
598.379	49.3438
603.056	45.9531
607.73	126.809
612.402	345.603
617.072	223.451
621.739	306.117
626.403	1.31641
631.065	358.43
635.724	687.117
640.381	1264.28
645.035	665.664
649.687	524.936
654.336	674.881
658.983	725.121
663.627	645.889
668.268	497.137
672.907	362.828
677.544	303.457
682.178	148.609
686.809	174.588
691.438	70.7422
696.065	638.914
700.688	1567.26
705.31	2941.78
709.929	5333.45
714.545	9755.25
719.158	17743.2
723.77	29487.2
728.378	37514.2
732.984	30196.3
737.588	17863.5
742.189	10320.2
746.787	7031.77
751.383	5895.14
755.976	5454.35
760.567	4490.07
765.155	3071.13
769.741	1837.7
774.324	733.863
778.904	600.004
783.482	290.188
788.058	384.596
792.631	539.9
797.201	871.205
801.769	1453.53
806.334	1038.87
810.897	375.254
815.457	253.85
820.014	397.049
824.569	604.146
829.122	1135.25
833.671	2131.05
838.219	2594.55
842.763	1870.32
847.306	1405.4
851.845	826.773
856.382	949.471
860.917	1085.5
865.448	861.883
869.978	550.631
874.505	375.772
879.029	415.539
883.55	149.719
888.069	95.0547
892.586	59.5547
897.1	30.752
901.611	172.041
906.12	77.2754
910.626	237.297
915.129	93.2168
919.63	257.59
924.129	522.023
928.625	729.256
933.118	1203.52
937.609	1517.94
942.097	1919.17
946.582	2043.76
951.065	2247.72
955.546	2387.71
960.023	2598.41
964.499	2653.59
968.971	3074
973.441	3321.28
977.909	2965.46
982.374	3172.47
986.836	3056.3
991.295	3075.98
995.753	2828.53
1000.21	2841.93
1004.66	3067.22
1009.11	3588.02
1013.55	3848.09
1018	4878.98
1022.44	5655.7
1026.88	6152.46
1031.32	6447.49
1035.75	7715.67
1040.18	9558.61
1044.61	11800.8
1049.04	15553.5
1053.46	20798.8
1057.88	26355.3
1062.3	29574.4
1066.71	26889.5
1071.13	20128.9
1075.54	13573.6
1079.94	8941.11
1084.35	5827.17
1088.75	4035.78
1093.15	3218.8
1097.55	2475.24
1101.94	2269.67
1106.34	1918.01
1110.73	1674.35
1115.11	1586.65
1119.5	1545.91
1123.88	1574.13
1128.26	1443.31
1132.63	1069.46
1137.01	812.57
1141.38	796.654
1145.75	479.707
1150.12	287.732
1154.48	73.7734
1158.84	149.127
1163.2	21.1816
1167.55	6.41992
1171.91	120.455
1176.26	98.0664
1180.61	192.285
1184.95	19.3945
1189.29	16.3945
1193.63	4.77734
1197.97	159.742
1202.31	3.1875
1206.64	17.9375
1210.97	36.5273
1215.29	22.4277
1219.62	36.0625
1223.94	66.6562
1228.26	136.459
1232.57	31.3223
1236.89	366.701
1241.2	246.664
1245.51	279.227
1249.81	333.609
1254.12	188.514
1258.42	131.365
1262.72	216.168
1267.01	351.932
1271.3	248.65
1275.59	277.334
1279.88	446.977
1284.17	386.475
1288.45	482.006
1292.73	367.43
1297.01	677.701
1301.28	399.894
1305.55	269.135
1309.82	392.971
1314.09	544.762
1318.35	249.164
1322.61	523.396
1326.87	549.43
1331.13	595.852
1335.38	279.356
1339.63	645.037
1343.88	845.83
1348.12	559.664
1352.37	482.143
1356.61	546.389
1360.85	870.303
1365.08	676.631
1369.31	706.32
1373.54	941.406
1377.77	1245.83
1381.99	1385.36
1386.22	1829.02
1390.43	2192.8
1394.65	2191.74
1398.87	2113.85
1403.08	1843.93
1407.29	1389.44
1411.49	1510.59
1415.69	1065.5
1419.89	916.394
1424.09	781.467
1428.29	857.477
1432.48	923.43
1436.67	997.693
1440.86	797.875
1445.04	571.398
1449.23	864.678
1453.4	801.129
1457.58	538.004
1461.76	823.992
1465.93	261.988
1470.1	282.1
1474.26	63.1543
1478.43	17.5098
1482.59	68
1486.75	155.754
1490.9	250.779
1495.06	36.8047
1499.21	67.1074
1503.35	199.592
1507.5	156.738
1511.64	492.606
1515.78	324.215
1519.92	251.451
1524.05	321.316
1528.18	355.598
1532.31	93.8769
1536.44	315.68
1540.56	139.682
1544.69	83.9414
1548.8	119.543
1552.92	532.971
1557.03	102.103
1561.14	80.2402
1565.25	204.238
1569.36	122.066
