Measurement: Raman, 514 nm, ccw, Raman Data Processed
Mineral: Elbaite
Rruff sample: R060562
Ideal chemistry: Na(Al_1.5_Li_1.5_)Al_6_(Si_6_O_18_)(BO_3_)_3_(OH)_3_OH
Locality: unknown
Source: Gemological Institute of America
Description: Blue colored polished fragment
Measured chemistry: (Na_0.68_Ca_0.20_[box]_0.12_)(Li_1.20_Al_1.12_Fe^2+^_0.50_Mn_0.18_)Al_6_(BO_3_)_3_[Si_6_O_18_]((OH)_0.80_F_0.20_)_4_
Pin_id: L01792
Orientation: Laser parallel to -a* (-1 0 0). Fiducial mark perpendicular to laser is parallel to c [0 0 1]
Raman shift (cm-1)	intensity
118.134	0
123.058	349.851
127.979	113.609
132.898	693.067
137.814	1313.02
142.728	1030.1
147.639	1053.27
152.549	1081.88
157.455	1063.66
162.359	1175.23
167.261	498.887
172.161	188.609
177.058	126.631
181.952	227.516
186.845	743.373
191.734	1466.12
196.622	2838.07
201.507	4809.15
206.389	5274.69
211.269	7435.31
216.147	11495.4
221.022	17740.7
225.895	22364.6
230.765	21913.3
235.633	19567.5
240.498	18025.3
245.361	16125.7
250.222	12118.6
255.08	8643.91
259.936	8220.55
264.789	5356.23
269.64	4869.12
274.488	4455.22
279.334	3987.12
284.178	2831.68
289.019	1600.16
293.857	612.969
298.693	263.658
303.527	571.609
308.358	896.656
313.187	1628.38
318.013	2852.58
322.837	2799.52
327.659	2655.98
332.478	2618.85
337.294	3072.98
342.108	3847.13
346.92	5119.16
351.729	5692.71
356.535	6443.73
361.34	9272.17
366.141	16468
370.94	31450
375.737	43532.3
380.531	31677.8
385.323	18243.4
390.113	11868
394.9	9446.52
399.684	10056.9
404.466	13238
409.245	16633.3
414.022	13996
418.797	7809.26
423.569	3817.95
428.338	1960.83
433.105	906.873
437.87	442.943
442.632	20.9844
447.391	37.9902
452.149	204.857
456.903	15.3477
461.655	15.8379
466.405	82.3828
471.152	11.1777
475.897	74.3672
480.639	165.07
485.378	282.221
490.116	889.303
494.85	1705.38
499.582	2230.05
504.312	2679.26
509.039	2945
513.764	2606.26
518.486	2212.99
523.206	1007.37
527.923	552.705
532.638	62.7637
537.35	59.7695
542.059	150.01
546.766	123.686
551.471	24.0996
556.173	85.5996
560.873	436.168
565.57	244.902
570.264	188.793
574.957	281.805
579.646	488.914
584.333	654.928
589.018	702.773
593.7	817.07
598.379	911.1
603.056	1087.38
607.73	1077.39
612.402	1025.46
617.072	1209.4
621.739	2076.81
626.403	4508.34
631.065	8088.12
635.724	10323.9
640.381	8085.53
645.035	6143.1
649.687	4954.49
654.336	4882.56
658.983	4765.52
663.627	4707.53
668.268	3676.97
672.907	2690.87
677.544	2097.51
682.178	2118.72
686.809	2510.51
691.438	4104.22
696.065	7478.72
700.688	12953.9
705.31	18184.9
709.929	19278.1
714.545	13895.8
719.158	7656.86
723.77	4336.38
728.378	3166.52
732.984	3108.65
737.588	3414.53
742.189	3893.09
746.787	4791.28
751.383	5109.45
755.976	4656.34
760.567	3287.12
765.155	2515.35
769.741	1560.1
774.324	1448.94
778.904	1218.73
783.482	754.019
788.058	143.19
792.631	378.256
797.201	1.87109
801.769	74.1387
806.334	112.311
810.897	22.1973
815.457	48.8691
820.014	119.859
824.569	18.416
829.122	149.182
833.671	276.215
838.219	668.455
842.763	379.897
847.306	468.535
851.845	342.385
856.382	501.445
860.917	457.727
865.448	23.7617
869.978	233.76
874.505	70.709
879.029	6.65039
883.55	59.2754
888.069	131.326
892.586	20.2988
897.1	164.215
901.611	40.4395
906.12	131.385
910.626	104.383
915.129	145.541
919.63	397.029
924.129	474.092
928.625	536.519
933.118	1078.79
937.609	1172.64
942.097	1300.83
946.582	1381.41
951.065	1891.26
955.546	2481.05
960.023	3059.43
964.499	3734.36
968.971	4144.21
973.441	4399.2
977.909	4340.65
982.374	4009.12
986.836	3875.22
991.295	4002.15
995.753	4257.84
1000.21	4728.96
1004.66	5142.24
1009.11	5489.02
1013.55	5681.45
1018	6264.62
1022.44	6365.37
1026.88	5877.73
1031.32	5403.62
1035.75	5502.95
1040.18	5997.81
1044.61	6283.06
1049.04	7520.87
1053.46	9144.34
1057.88	10116.3
1062.3	11075
1066.71	10297.8
1071.13	9547.09
1075.54	9050.43
1079.94	10038.6
1084.35	11625.3
1088.75	12090.3
1093.15	11020.1
1097.55	8810.33
1101.94	7326.32
1106.34	5473.64
1110.73	4070.65
1115.11	3269.65
1119.5	2903.59
1123.88	2239.86
1128.26	1916.39
1132.63	1406.77
1137.01	833.801
1141.38	779.969
1145.75	350.301
1150.12	375.945
1154.48	350.908
1158.84	78.0684
1163.2	103.041
1167.55	148.111
1171.91	61.7656
1176.26	22.0254
1180.61	104.103
1184.95	54.5078
1189.29	20.959
1193.63	72.5938
1197.97	44.5293
1202.31	45.3555
1206.64	22.6641
1210.97	208.57
1215.29	44.5332
1219.62	141.42
1223.94	8.98047
1228.26	249.156
1232.57	60.0078
1236.89	261.045
1241.2	307.418
1245.51	134.478
1249.81	191.955
1254.12	54.25
1258.42	246.377
1262.72	134.246
1267.01	448.93
1271.3	531.447
1275.59	535.793
1279.88	327.953
1284.17	195.918
1288.45	420.676
1292.73	471.902
1297.01	507.066
1301.28	254.562
1305.55	144.141
1309.82	346.703
1314.09	216.352
1318.35	368.859
1322.61	330.188
1326.87	670.875
1331.13	269.066
1335.38	532.004
1339.63	530.023
1343.88	606.828
1348.12	550.594
1352.37	534.008
1356.61	413.832
1360.85	480.211
1365.08	373.305
1369.31	474.039
1373.54	823.148
1377.77	870.957
1381.99	1168.44
1386.22	1379.3
1390.43	1227.04
1394.65	1318.19
1398.87	979.676
1403.08	785.75
1407.29	623.594
1411.49	567.434
1415.69	388.106
1419.89	515.223
1424.09	593.766
1428.29	458.266
1432.48	460.184
1436.67	369.504
1440.86	434.324
1445.04	283.82
1449.23	281.25
1453.4	287.957
1457.58	146.723
1461.76	90.6523
1465.93	133.176
1470.1	101.691
1474.26	355.992
1478.43	43.5664
1482.59	152.121
1486.75	531.066
1490.9	26.2969
1495.06	237.898
1499.21	119.941
1503.35	205.543
1507.5	233.75
1511.64	260.031
1515.78	566.019
1519.92	426.223
1524.05	401.508
1528.18	426.481
1532.31	82.7891
1536.44	545.441
1540.56	388.606
1544.69	310.242
1548.8	89.1797
1552.92	869.734
1557.03	333.719
1561.14	199.773
1565.25	213.102
1569.36	62.8672
