Measurement: Raman, 514 nm, ccw, Raman Data Processed
Mineral: Elbaite
Rruff sample: R060003
Ideal chemistry: Na(Al_1.5_Li_1.5_)Al_6_(Si_6_O_18_)(BO_3_)_3_(OH)_3_OH
Locality: Mount Begbie, Revelstoke, British Columbia, Canada
Source: Bob Downs
Description: Pink crystal associated with trilithionite, R060004
Measured chemistry: (Na_0.58_[box]_0.42_)(Al_1.69_Li_1.27_Mn_0.04_)Al_6_(BO_3_)_3_[Si_6_O_18_](OH)_4_
Pin_id: M00450
Orientation: Laser parallel to -c* (0 0 -1). Fiducial mark perpendicular to laser is parallel to -a [-1 0 0]
Raman shift (cm-1)	intensity
167.261	0
172.161	96.6269
177.058	130.141
181.952	0.919922
186.845	321.199
191.734	1057.32
196.622	1023.72
201.507	1606.6
206.389	1641.12
211.269	3036.18
216.147	5653.99
221.022	8531.31
225.895	7294.97
230.765	4620.09
235.633	3885.01
240.498	3957.03
245.361	3604.39
250.222	2504.13
255.08	1708.26
259.936	1870.19
264.789	1749.45
269.64	1977.04
274.488	2061.67
279.334	1669.93
284.178	1333
289.019	406.109
293.857	313.777
298.693	207.707
303.527	169.211
308.358	911.981
313.187	1179.09
318.013	1371.69
322.837	2378.82
327.659	3758.28
332.478	3681.43
337.294	3036.63
342.108	2618.66
346.92	2473.8
351.729	2682.45
356.535	3907.49
361.34	5826.76
366.141	8507.17
370.94	11273.6
375.737	13939
380.531	12143.2
385.323	7761.21
390.113	5525.03
394.9	4989.69
399.684	5038.16
404.466	5520.43
409.245	5178.74
414.022	3557.99
418.797	1902.88
423.569	631.445
428.338	208.545
433.105	273.166
437.87	498.658
442.632	1110.94
447.391	1470.33
452.149	1582.57
456.903	1184.15
461.655	699.465
466.405	529.514
471.152	118.227
475.897	282.115
480.639	169.682
485.378	330.389
490.116	452.422
494.85	655.17
499.582	1382.99
504.312	1937.55
509.039	2688.18
513.764	3612.84
518.486	3937.83
523.206	3621.2
527.923	3609.4
532.638	4331.52
537.35	5557.35
542.059	5868.58
546.766	5690.97
551.471	5354.05
556.173	5008.63
560.873	4027.62
565.57	2982.3
570.264	2142.64
574.957	1553.38
579.646	1023.05
584.333	757.229
589.018	563.369
593.7	354.672
598.379	291.096
603.056	125.592
607.73	133.076
612.402	27.4297
617.072	68.2598
621.739	181.18
626.403	293.916
631.065	69.2559
635.724	124.561
640.381	298.191
645.035	248.615
649.687	298.606
654.336	109.891
658.983	419.992
663.627	328.082
668.268	432.363
672.907	753.293
677.544	415.383
682.178	335.742
686.809	56.0352
691.438	240.107
696.065	550.613
700.688	968.391
705.31	1624.26
709.929	3011.28
714.545	4504.89
719.158	8007.14
723.77	14899.2
728.378	22391.2
732.984	20583
737.588	13043.7
742.189	8022.32
746.787	5611.73
751.383	4456.42
755.976	3633.34
760.567	2883.24
765.155	2112.71
769.741	1368.64
774.324	693
778.904	575.508
783.482	551.141
788.058	413.809
792.631	331.644
797.201	418.996
801.769	773.254
806.334	193.473
810.897	288.523
815.457	246
820.014	50.2305
824.569	52.7031
829.122	15.1562
833.671	116.902
838.219	195.461
842.763	13.5391
847.306	363.023
851.845	372.606
856.382	385.203
860.917	573.894
865.448	725.707
869.978	979.668
874.505	987.797
879.029	832.106
883.55	641.617
888.069	460.375
892.586	453.547
897.1	143.766
901.611	245.867
906.12	67.6406
910.626	5.18359
915.129	119.285
919.63	220.879
924.129	378.914
928.625	619.426
933.118	522.727
937.609	1090.61
942.097	1165.22
946.582	1373.78
951.065	1190.56
955.546	1282.5
960.023	1396.7
964.499	1639.02
968.971	1546.85
973.441	1612.94
977.909	1872.82
982.374	2060.13
986.836	1873.35
991.295	1788.86
995.753	1527.19
1000.21	1622.43
1004.66	2024.71
1009.11	1783.76
1013.55	1970.68
1018	2594.5
1022.44	2831.2
1026.88	3414.96
1031.32	3632.08
1035.75	4210.61
1040.18	4796.93
1044.61	5325.09
1049.04	6363.57
1053.46	8447.25
1057.88	10150.9
1062.3	12960.1
1066.71	15151.7
1071.13	15095.3
1075.54	11765.6
1079.94	8264.76
1084.35	5183.07
1088.75	3307.38
1093.15	2576.16
1097.55	1896.17
1101.94	1565.43
1106.34	1407.18
1110.73	969.168
1115.11	900.66
1119.5	889.676
1123.88	1054.6
1128.26	736.25
1132.63	657.402
1137.01	577.652
1141.38	535.094
1145.75	236.883
1150.12	78.8867
1154.48	262.723
1158.84	77.2188
1163.2	77.8398
1167.55	27.957
1171.91	46.957
1176.26	53.5625
1180.61	45.5586
1184.95	25.1797
1189.29	248.348
1193.63	286.012
1197.97	109.883
1202.31	62.1523
1206.64	74.2266
1210.97	184.223
1215.29	122.863
1219.62	186.102
1223.94	381.918
1228.26	208.203
1232.57	69.0234
1236.89	242.828
1241.2	107.18
1245.51	333.621
1249.81	264.633
1254.12	273.25
1258.42	120.633
1262.72	476.738
1267.01	308.723
1271.3	389.328
1275.59	334.535
1279.88	159.535
1284.17	384.816
1288.45	545.055
1292.73	114.656
1297.01	114.391
1301.28	279.644
1305.55	263.883
1309.82	103.199
1314.09	184.012
1318.35	345.074
1322.61	359.781
1326.87	246.356
1331.13	389.547
1335.38	357.516
1339.63	295.383
1343.88	151.531
1348.12	103.926
1352.37	413.887
1356.61	593.539
1360.85	154.613
1365.08	308.465
1369.31	547.941
1373.54	295.738
1377.77	50.6406
1381.99	337.812
1386.22	464.527
1390.43	374.383
1394.65	422.785
1398.87	551.129
1403.08	503.793
1407.29	638.121
1411.49	789.852
1415.69	640.195
1419.89	645.891
1424.09	486.875
1428.29	300.055
1432.48	99.8359
1436.67	352.262
1440.86	540.156
1445.04	589.391
1449.23	610.82
1453.4	406.031
1457.58	756.606
1461.76	774.34
1465.93	631.379
1470.1	774.867
1474.26	370.68
1478.43	490.484
1482.59	278.402
1486.75	31.8555
1490.9	216.828
1495.06	111.301
1499.21	183.566
1503.35	521.793
1507.5	618.57
1511.64	508.418
1515.78	72.2695
1519.92	417.289
1524.05	177.641
1528.18	390.684
1532.31	193.504
1536.44	315.441
1540.56	232.133
1544.69	379.035
1548.8	297.941
1552.92	406.606
1557.03	368.176
1561.14	529.887
1565.25	432.785
1569.36	89.418
