Measurement: Raman, 514 nm, ccw, Raman Data Processed
Mineral: Elbaite
Rruff sample: R060003
Ideal chemistry: Na(Al_1.5_Li_1.5_)Al_6_(Si_6_O_18_)(BO_3_)_3_(OH)_3_OH
Locality: Mount Begbie, Revelstoke, British Columbia, Canada
Source: Bob Downs
Description: Pink crystal associated with trilithionite, R060004
Measured chemistry: (Na_0.58_[box]_0.42_)(Al_1.69_Li_1.27_Mn_0.04_)Al_6_(BO_3_)_3_[Si_6_O_18_](OH)_4_
Pin_id: M00450
Orientation: Laser parallel to -c* (0 0 -1). Fiducial mark perpendicular to laser is parallel to -a [-1 0 0]
Raman shift (cm-1)	intensity
167.261	0
172.161	202.374
177.058	67.3496
181.952	185.375
186.845	635.836
191.734	1245.01
196.622	1539.89
201.507	2208.15
206.389	2203.68
211.269	3935.69
216.147	7203.4
221.022	10665.7
225.895	8954.34
230.765	5781.25
235.633	4660.02
240.498	4932.17
245.361	4433.02
250.222	3078.83
255.08	2032.98
259.936	2518.09
264.789	1789.38
269.64	2446.83
274.488	2673.4
279.334	2114.91
284.178	1726.26
289.019	571.418
293.857	59.3105
298.693	310.129
303.527	401.002
308.358	1122.41
313.187	1611.79
318.013	2024.88
322.837	3115.16
327.659	4519.01
332.478	4611.25
337.294	3462.59
342.108	2737.14
346.92	2324.29
351.729	3240.88
356.535	4643.5
361.34	7174.9
366.141	10286
370.94	14144.6
375.737	17036.7
380.531	14728.9
385.323	9767.17
390.113	6850.72
394.9	6298.57
399.684	6745.68
404.466	7037.02
409.245	6561.63
414.022	4725.45
418.797	2270.34
423.569	742.256
428.338	243.131
433.105	37.9004
437.87	518.769
442.632	1347.18
447.391	1709.5
452.149	1792.93
456.903	1290.71
461.655	902.232
466.405	854.711
471.152	388.258
475.897	434.772
480.639	489.744
485.378	479.34
490.116	906.301
494.85	967.426
499.582	1541.75
504.312	2553.51
509.039	3528.21
513.764	4608.87
518.486	4868.07
523.206	4607.63
527.923	4638.18
532.638	5841.7
537.35	6871.32
542.059	7555.73
546.766	7222.33
551.471	6916.91
556.173	6308.59
560.873	5280.03
565.57	3981.17
570.264	2718.95
574.957	2140.24
579.646	1442.96
584.333	1133.44
589.018	489.602
593.7	297.981
598.379	242.523
603.056	70.1738
607.73	92.7793
612.402	113.115
617.072	196.207
621.739	383.283
626.403	336.387
631.065	76.2969
635.724	176.269
640.381	350.848
645.035	312.553
649.687	258.768
654.336	67.7852
658.983	315.394
663.627	291.342
668.268	285.682
672.907	408.988
677.544	490.773
682.178	391.227
686.809	260.373
691.438	616.695
696.065	609.144
700.688	1238.67
705.31	2300.62
709.929	3453.38
714.545	5605.8
719.158	10081.9
723.77	18413
728.378	27787.9
732.984	25269.5
737.588	16018.9
742.189	9777.68
746.787	6991.81
751.383	5639.55
755.976	4677.71
760.567	3563.96
765.155	2469.71
769.741	1687.23
774.324	895.514
778.904	614.164
783.482	174.205
788.058	368.887
792.631	472.717
797.201	763.248
801.769	853.025
806.334	307.711
810.897	190.205
815.457	80.0723
820.014	310.603
824.569	282.213
829.122	8.48633
833.671	300.119
838.219	208.455
842.763	106.498
847.306	403.268
851.845	295.328
856.382	327.486
860.917	598.371
865.448	862.158
869.978	1034.07
874.505	1296.12
879.029	977.344
883.55	760.852
888.069	710.947
892.586	484.947
897.1	309.291
901.611	163.307
906.12	14.3008
910.626	23.2754
915.129	46.3652
919.63	278.434
924.129	447.256
928.625	708.674
933.118	860.055
937.609	1354.25
942.097	1568.54
946.582	1373.66
951.065	1550.08
955.546	1617.99
960.023	1504.56
964.499	1513.26
968.971	1744.14
973.441	2070
977.909	2191.85
982.374	2070.97
986.836	2292.51
991.295	1933.71
995.753	1967.95
1000.21	2078.68
1004.66	2038.5
1009.11	2103.28
1013.55	2436.04
1018	2863.8
1022.44	3333.4
1026.88	3937.47
1031.32	4432.02
1035.75	4847.93
1040.18	5634.16
1044.61	6640.52
1049.04	7890.11
1053.46	9947.03
1057.88	12909.4
1062.3	16105.8
1066.71	18891.3
1071.13	18459.6
1075.54	14324.1
1079.94	10078.2
1084.35	6365.52
1088.75	4478.68
1093.15	3120.86
1097.55	2499.45
1101.94	1660.66
1106.34	1695.44
1110.73	1285.06
1115.11	1238.32
1119.5	1254.34
1123.88	1230.08
1128.26	806.596
1132.63	588.686
1137.01	438.781
1141.38	346.135
1145.75	469.674
1150.12	87.8281
1154.48	228.943
1158.84	148.648
1163.2	158.207
1167.55	151.842
1171.91	49.998
1176.26	128.822
1180.61	10.7402
1184.95	36.3984
1189.29	67.5137
1193.63	0.134766
1197.97	14.6914
1202.31	73.0918
1206.64	102.822
1210.97	22.4062
1215.29	49.2754
1219.62	196.156
1223.94	116.955
1228.26	90.1094
1232.57	64.6992
1236.89	252.672
1241.2	97.0312
1245.51	288.926
1249.81	127.41
1254.12	274.402
1258.42	174.75
1262.72	245.496
1267.01	310.652
1271.3	242.398
1275.59	164.75
1279.88	262.812
1284.17	284.398
1288.45	287.148
1292.73	441.441
1297.01	285.598
1301.28	157.094
1305.55	294.481
1309.82	336.461
1314.09	187.856
1318.35	82.2266
1322.61	426.418
1326.87	389.004
1331.13	122.406
1335.38	221.488
1339.63	396.773
1343.88	376.074
1348.12	122.231
1352.37	472.856
1356.61	192.246
1360.85	375.973
1365.08	182.418
1369.31	173.965
1373.54	348.266
1377.77	177.629
1381.99	572.648
1386.22	312.465
1390.43	515.609
1394.65	215.566
1398.87	289.152
1403.08	727.449
1407.29	553.75
1411.49	780.551
1415.69	423.375
1419.89	370.375
1424.09	351.789
1428.29	491.09
1432.48	279.309
1436.67	449.668
1440.86	476.211
1445.04	849.594
1449.23	551.594
1453.4	826.871
1457.58	702.715
1461.76	1195.37
1465.93	1063.71
1470.1	824.738
1474.26	445.074
1478.43	342.953
1482.59	299.469
1486.75	52.0664
1490.9	258.352
1495.06	33.5742
1499.21	333.191
1503.35	390.629
1507.5	478.461
1511.64	246.629
1515.78	479.957
1519.92	296.519
1524.05	309.43
1528.18	276.875
1532.31	74.6328
1536.44	365.461
1540.56	262.441
1544.69	486.652
1548.8	321.078
1552.92	158.996
1557.03	322.734
1561.14	427.715
1565.25	4.80078
1569.36	0.359375
