Measurement: Raman, 514 nm, ccw, Raman Data Processed
Mineral: Elbaite
Rruff sample: R050487
Ideal chemistry: Na(Al_1.5_Li_1.5_)Al_6_(Si_6_O_18_)(BO_3_)_3_(OH)_3_OH
Locality: White Queen mine, Pala, San Diego County, California, USA
Source: California Institute of Technology
Description: Mass of blue acicular crystals
Measured chemistry: (Na_0.86_[box]_0.13_Ca_0.01_)(Al_0.42_Li_0.38_Fe^2+^_0.18_Mn_0.02_)_3_Al_6_(BO_3_)_3_Si_6_O_18_((OH)_0.85_F_0.15_)_4_
Pin_id: M00967
Orientation: Laser parallel to -a* (-1 0 0). Fiducial mark perpendicular to laser is parallel to c [0 0 1]
Raman shift (cm-1)	intensity
178.155	0
183.071	54.4907
187.985	233.068
192.896	928.569
197.803	2079.67
202.709	3689.89
207.611	6576.74
212.51	12321.7
217.407	21086.4
222.301	27150.9
227.192	23564.9
232.08	18122.8
236.965	15830.4
241.848	15407.4
246.728	14517.8
251.604	13528
256.479	12186.3
261.35	10520.2
266.218	8938.58
271.084	7517.66
275.947	5492.32
280.807	3521.38
285.664	1630.43
290.518	247.412
295.37	268.747
300.219	424.947
305.065	50.019
309.908	789.614
314.749	1817.91
319.586	1483.89
324.421	654.092
329.253	818.02
334.083	1324.63
338.909	1984.56
343.733	2954.18
348.554	3709.78
353.372	5260.62
358.187	8729.86
363	17149
367.81	33820.1
372.617	42013.9
377.421	27337.6
382.223	15205.7
387.022	10439.9
391.818	8916.96
396.611	9108.86
401.401	11096.7
406.189	13609
410.974	13280.4
415.756	8550.72
420.536	4636.65
425.312	2402.82
430.086	1153.32
434.858	686.09
439.626	454.112
444.392	224.168
449.155	52.9775
453.915	146.762
458.672	35.3691
463.427	64.3198
468.179	76.8726
472.928	39.9312
477.675	78.1406
482.419	195.383
487.16	642.04
491.898	1231.77
496.634	1864.51
501.367	2344.25
506.097	2706.18
510.825	2680.73
515.549	2191.97
520.271	1514.4
524.991	967.877
529.707	532.557
534.421	261.562
539.132	48.8169
543.841	96.3232
548.547	137.185
553.25	34.9971
557.95	99.6846
562.648	224.785
567.343	409.607
572.035	505.144
576.724	733.38
581.411	897.447
586.095	1009.19
590.777	1047.42
595.456	1105.41
600.132	1317.63
604.805	1497.83
609.476	1494.32
614.144	1984.38
618.809	3006.31
623.472	5311.5
628.132	8943.98
632.789	12195.1
637.444	12775.1
642.096	10808.1
646.745	9397.38
651.392	8658.86
656.036	7499.78
660.677	6011.74
665.316	4406.67
669.952	3217.48
674.585	2851.15
679.216	2825.53
683.844	3130.85
688.469	4576.34
693.092	8324.74
697.712	14445.4
702.329	19350.1
706.944	16731.9
711.556	10064.2
716.166	5310.01
720.773	2731.31
725.377	1769.1
729.978	1272.38
734.577	1274.17
739.173	1288.65
743.767	1813.7
748.358	2804.34
752.946	2848.66
757.532	1817.84
762.115	1141.7
766.695	631.076
771.273	436.982
775.848	109.416
780.421	73.7136
784.991	147.034
789.558	151.355
794.123	23.2346
798.685	42.3235
803.245	87.311
807.802	97.4216
812.356	35.8298
816.907	72.6914
821.456	70.9622
826.003	141.679
830.547	257.895
835.088	350.342
839.627	439.584
844.163	659.551
848.696	696.256
853.227	963.713
857.755	1437.93
862.281	1585.93
866.804	883.715
871.324	541.304
875.842	464.705
880.357	396.04
884.87	412.554
889.38	289.112
893.888	301.65
898.393	295.164
902.895	300.602
907.395	221.956
911.892	256.159
916.387	185.721
920.879	48.9605
925.368	28.1123
929.855	167.255
934.339	297.101
938.821	397.093
943.301	471.099
947.777	794.666
952.251	1265.19
956.723	1751.78
961.192	2218.01
965.658	2261.33
970.122	2330.91
974.583	2066.67
979.042	1973.59
983.498	1941.7
987.952	2114.99
992.403	2317.47
996.852	2788.98
1001.3	2864.32
1005.74	3149.45
1010.18	3369.43
1014.62	3770.17
1019.06	4072.21
1023.49	4189.36
1027.92	3914.89
1032.35	3544.3
1036.78	3266.31
1041.2	2948.99
1045.62	3128.66
1050.04	3609.58
1054.45	4470.13
1058.87	4987.4
1063.28	4950
1067.68	4589.47
1072.09	4776.95
1076.49	5242.56
1080.89	6749.71
1085.29	7391.76
1089.69	5880.4
1094.08	4430.13
1098.47	3035.92
1102.86	2264.75
1107.24	1832.62
1111.63	1470.52
1116.01	1171.44
1120.38	815.386
1124.76	732.346
1129.13	514.316
1133.5	281.288
1137.87	65.2573
1142.24	7.80322
1146.6	117.323
1150.96	0.644531
1155.32	19.8359
1159.67	60.3877
1164.03	4.62451
1168.38	27.7632
1172.72	89.9702
1177.07	59.7842
1181.41	75.3057
1185.75	85.8955
1190.09	10.4165
1194.43	3.26416
1198.76	25.4902
1203.09	28.1455
1207.42	87.291
1211.75	14.3633
1216.07	298.312
1220.39	176.867
1224.71	265.014
1229.02	285.528
1233.34	413.05
1237.65	400.743
1241.96	417.31
1246.26	524.763
1250.57	482.125
1254.87	485.428
1259.17	506.618
1263.46	620.698
1267.76	890.027
1272.05	932.945
1276.34	799.9
1280.62	635.182
1284.91	510.535
1289.19	594.801
1293.47	779.495
1297.74	788.898
1302.02	638.481
1306.29	778.072
1310.56	962.69
1314.83	925.342
1319.09	963.496
1323.35	761.871
1327.61	428.116
1331.87	235.018
1336.12	54.79
1340.38	100.991
1344.63	112.465
1348.87	125.335
1353.12	95.312
1357.36	116.407
1361.6	117.633
1365.84	308.211
1370.08	323.522
1374.31	430.008
1378.54	578.34
1382.77	757.51
1386.99	720.763
1391.22	626.244
1395.44	464.971
1399.66	438.993
1403.87	407.573
1408.09	361.696
1412.3	515.037
1416.51	429.777
1420.71	406.96
1424.92	426.544
1429.12	490.626
1433.32	731.307
1437.51	1101.52
1441.71	1589.34
1445.9	1833.38
1450.09	1953.37
1454.28	2060.94
1458.46	1896.27
1462.65	1451.02
1466.83	1103.2
1471	804.807
1475.18	608.701
1479.35	570.077
1483.52	489.975
1487.69	215.378
1491.86	126.272
1496.02	6.36475
1500.18	57.5855
1504.34	8.39502
1508.5	76.8135
1512.65	114.975
1516.8	83.0874
1520.95	102.251
1525.1	122.606
1529.24	142.31
1533.39	171.768
1537.53	211.678
1541.66	135.695
1545.8	52.5395
1549.93	160.97
1554.06	78.7212
1558.19	150.843
1562.32	7.49268
