Measurement: Raman, 514 nm, ccw, Raman Data Processed
Mineral: Elbaite
Rruff sample: R050487
Ideal chemistry: Na(Al_1.5_Li_1.5_)Al_6_(Si_6_O_18_)(BO_3_)_3_(OH)_3_OH
Locality: White Queen mine, Pala, San Diego County, California, USA
Source: California Institute of Technology
Description: Mass of blue acicular crystals
Measured chemistry: (Na_0.86_[box]_0.13_Ca_0.01_)(Al_0.42_Li_0.38_Fe^2+^_0.18_Mn_0.02_)_3_Al_6_(BO_3_)_3_Si_6_O_18_((OH)_0.85_F_0.15_)_4_
Pin_id: M01385
Orientation: Laser parallel to c* (0 0 1). Fiducial mark perpendicular to laser is parallel to b [0 1 0]
Raman shift (cm-1)	intensity
199.967	0
204.859	361.793
209.749	2415.34
214.637	6368.73
219.521	9408.79
224.404	8781.88
229.284	5851.14
234.161	4202.22
239.036	3471.37
243.908	2867.36
248.777	2234.4
253.645	1135.76
258.509	135.655
263.371	117.916
268.231	41.1973
273.088	376.257
277.942	260.962
282.794	79.2637
287.643	120.243
292.49	319.843
297.335	277.137
302.176	76.3076
307.015	396.38
311.852	919.064
316.686	1795.44
321.518	2928.7
326.347	4386.63
331.173	5185.15
335.997	5401.27
340.819	5604.52
345.638	6167.17
350.454	7712.93
355.268	9118.39
360.079	10046.7
364.888	13122.2
369.694	17678.9
374.498	19687.2
379.299	14533.6
384.097	8737.71
388.893	5549.43
393.686	4313.3
398.477	3777.93
403.266	3799.86
408.051	3786.52
412.835	2964.34
417.615	1835.46
422.394	1450.56
427.169	1166.97
431.942	862.502
436.713	804.72
441.481	878.389
446.246	732.929
451.009	707.548
455.769	791.282
460.527	927.445
465.282	1320.11
470.035	1461.14
474.785	1628.3
479.532	1907.55
484.277	2146.88
489.02	2901.21
493.76	4170.81
498.497	5123.45
503.232	5310.19
507.964	3906.12
512.693	2189.33
517.421	677.924
522.145	143.039
526.867	251.793
531.587	409.237
536.303	946.187
541.018	1214.27
545.729	1603.26
550.439	1296.28
555.145	1000.31
559.849	653.525
564.551	474.692
569.25	302.685
573.946	351.846
578.64	345.636
583.331	528.737
588.02	496.457
592.706	784.802
597.39	1309.37
602.071	1623.07
606.749	1652.88
611.425	1128.8
616.099	694.167
620.769	626.481
625.438	364.941
630.103	839.316
634.766	1090.49
639.427	1108.78
644.085	917.019
648.74	878.355
653.393	1042.6
658.044	1404.62
662.691	1265.36
667.336	809.764
671.979	147.802
676.619	82.7314
681.257	305.585
685.892	348.748
690.524	338.8
695.154	89.0684
699.781	750.505
704.406	1720.29
709.028	3645.42
713.647	7311.86
718.264	13009.6
722.878	18894.5
727.49	19117.6
732.1	13289.9
736.706	7282.28
741.31	4464.78
745.912	3724.68
750.511	3917.32
755.107	4362.25
759.701	3868.45
764.292	2859.59
768.881	2052.94
773.467	1677.94
778.051	1383.87
782.632	1330.72
787.21	1308.68
791.786	1588.44
796.359	2081.9
800.93	2518.39
805.498	3054.58
810.064	4271.35
814.627	3357.06
819.187	2575.83
823.745	2585.03
828.301	2901.88
832.853	3369.32
837.403	3833.44
841.951	3715.3
846.496	4499.34
851.038	6984.59
855.578	9752.05
860.116	9208.73
864.65	5592.64
869.183	2856.8
873.712	1440.22
878.239	726.903
882.764	128.876
887.285	116.983
891.805	177.721
896.322	231.198
900.836	79.6894
905.347	117.757
909.856	187.039
914.363	14.0586
918.867	44.044
923.368	20.0752
927.867	308.18
932.363	349.157
936.856	794.713
941.347	744.195
945.836	1063.77
950.322	1173.37
954.805	1442.31
959.286	1924.95
963.764	2052.56
968.239	2460.34
972.712	2397.1
977.183	2639.66
981.65	2782.02
986.116	2766.2
990.578	2896.23
995.038	3226.11
999.496	3429.86
1003.95	3684.5
1008.4	4123.05
1012.85	4547.03
1017.3	4776.36
1021.75	5104.6
1026.19	5394.19
1030.63	5845
1035.06	6698.98
1039.5	8124.89
1043.93	9799.57
1048.36	12113
1052.79	15471.1
1057.21	18524.4
1061.63	17818.3
1066.05	13500.5
1070.47	8941.62
1074.88	5513.31
1079.29	4256.72
1083.7	3010.68
1088.11	3000.45
1092.51	3180.49
1096.91	3563.32
1101.31	3968.75
1105.7	4868.86
1110.1	6105.19
1114.49	6516.5
1118.88	4688.87
1123.26	2790.32
1127.64	2249.85
1132.02	1847.47
1136.4	1772.19
1140.78	1568.01
1145.15	1697.95
1149.52	1994.02
1153.89	2301.36
1158.25	2343.59
1162.61	1941.06
1166.97	1468.81
1171.33	940.711
1175.68	714.325
1180.04	654.586
1184.39	567.49
1188.73	335.132
1193.08	4.99219
1197.42	204.753
1201.76	295.655
1206.1	342.089
1210.43	187.332
1214.76	13.5537
1219.09	333.36
1223.41	552.198
1227.74	775.235
1232.06	999.452
1236.38	974.859
1240.69	1182.47
1245.01	1430.3
1249.32	1379.39
1253.63	1567.79
1257.93	1738.47
1262.23	1706.42
1266.54	1700.65
1270.83	1819.23
1275.13	1712.11
1279.42	1654.3
1283.71	1228.83
1288	1273.7
1292.28	1042.89
1296.57	1189.38
1300.85	1019.21
1305.12	920.341
1309.4	778.774
1313.67	701.512
1317.94	759.46
1322.21	699.252
1326.47	781.957
1330.73	728.616
1334.99	557.318
1339.25	519.744
1343.5	454.178
1347.75	306.519
1352	186.428
1356.25	177.047
1360.49	236.818
1364.73	500.799
1368.97	626.307
1373.21	913.969
1377.44	1135.55
1381.67	1321.28
1385.9	1563.68
1390.13	1466.97
1394.35	1472.75
1398.57	1396.75
1402.79	1264.27
1407	1022.12
1411.22	840.383
1415.43	863.623
1419.63	988.635
1423.84	1206.81
1428.04	1755.69
1432.24	2506.62
1436.44	3775.53
1440.63	5279.02
1444.83	6183.99
1449.02	6466.67
1453.2	6291.68
1457.39	6030.66
1461.57	4023.03
1465.75	2763.61
1469.93	2012.41
1474.1	1768.44
1478.27	1249.61
1482.44	904.113
1486.61	446.393
1490.77	276.727
1494.93	35.2773
1499.09	86.9394
1503.25	48.8594
1507.4	61.9902
1511.55	167.168
1515.7	210.568
1519.85	88.2188
1523.99	8.68945
1528.13	152.113
1532.27	147.555
1536.4	338.115
1540.54	29.7832
1544.67	194.769
1548.8	15.7676
1552.92	264.816
1557.05	222.832
1561.16	1.70117
1565.28	0
