Measurement: Raman, 514 nm, ccw, Raman Data Processed
Mineral: Elbaite
Rruff sample: R060003
Ideal chemistry: Na(Al_1.5_Li_1.5_)Al_6_(Si_6_O_18_)(BO_3_)_3_(OH)_3_OH
Locality: Mount Begbie, Revelstoke, British Columbia, Canada
Source: Bob Downs
Description: Pink crystal associated with trilithionite, R060004
Measured chemistry: (Na_0.58_[box]_0.42_)(Al_1.69_Li_1.27_Mn_0.04_)Al_6_(BO_3_)_3_[Si_6_O_18_](OH)_4_
Pin_id: L00688
Orientation: Laser parallel to -a* (-1 0 0). Fiducial mark perpendicular to laser is parallel to -c [0 0 -1]
Raman shift (cm-1)	intensity
118.134	0
123.058	110.577
127.979	27.1484
132.898	152.338
137.814	299.25
142.728	748.352
147.639	895.047
152.549	1590.88
157.455	1569.32
162.359	1852.78
167.261	1740.22
172.161	1522.35
177.058	1472.46
181.952	1256.81
186.845	1161.08
191.734	1695.2
196.622	2747.21
201.507	4684.27
206.389	7563.58
211.269	13764.8
216.147	22669.4
221.022	28623.4
225.895	26573.8
230.765	19443.8
235.633	15511.6
240.498	15211.2
245.361	15414.5
250.222	14429.5
255.08	12541
259.936	12243
264.789	11781.8
269.64	11831.4
274.488	9976.26
279.334	7276.36
284.178	4933.31
289.019	2873.96
293.857	1783.43
298.693	845.963
303.527	1016.47
308.358	2041.21
313.187	2928.94
318.013	2610.52
322.837	1688.32
327.659	1578.45
332.478	1634.71
337.294	1285.95
342.108	1819.1
346.92	2835.15
351.729	4491.08
356.535	7589.79
361.34	14072.1
366.141	25123.9
370.94	34718.1
375.737	34073.6
380.531	23364.4
385.323	15065.5
390.113	11768.8
394.9	11284.3
399.684	11822
404.466	11843.9
409.245	10550
414.022	7936.85
418.797	4643.75
423.569	2388.62
428.338	841.811
433.105	82.3477
437.87	198.102
442.632	494.404
447.391	360.783
452.149	251.15
456.903	288.33
461.655	116.531
466.405	741.555
471.152	2158.8
475.897	2325.17
480.639	2064.64
485.378	1162.17
490.116	962.742
494.85	2371.32
499.582	5442.88
504.312	8610.39
509.039	10089
513.764	8714.89
518.486	6802.71
523.206	4578.58
527.923	3103.58
532.638	2428.76
537.35	1970
542.059	1579.38
546.766	1070.42
551.471	429.258
556.173	270.746
560.873	288.332
565.57	155.721
570.264	51.3906
574.957	209.24
579.646	350.928
584.333	538.947
589.018	328.9
593.7	743.922
598.379	474.102
603.056	104.314
607.73	307.916
612.402	414.111
617.072	930.805
621.739	1533.98
626.403	2716.62
631.065	4327.66
635.724	6840.06
640.381	9053.77
645.035	9876.4
649.687	8667.61
654.336	6267.85
658.983	4480.4
663.627	2392.03
668.268	1439.38
672.907	889.258
677.544	887.289
682.178	1050.35
686.809	1884.25
691.438	3227.47
696.065	6096.34
700.688	10503.1
705.31	16071
709.929	16935.2
714.545	13585.5
719.158	9121.43
723.77	5904.26
728.378	4416.32
732.984	3789.9
737.588	3980.91
742.189	4883.96
746.787	5426.78
751.383	4685.27
755.976	3277.58
760.567	1936.98
765.155	883.672
769.741	565.449
774.324	222.369
778.904	288.416
783.482	244.418
788.058	10.7695
792.631	138.57
797.201	225.18
801.769	31.2949
806.334	32.752
810.897	43.5098
815.457	131.394
820.014	51.3691
824.569	169.398
829.122	41.625
833.671	6.71289
838.219	120.986
842.763	24.2246
847.306	298.1
851.845	87.1152
856.382	185.168
860.917	583.285
865.448	253.283
869.978	290.16
874.505	191.898
879.029	213.432
883.55	439.74
888.069	428.877
892.586	182.943
897.1	434.924
901.611	177.934
906.12	552.881
910.626	379.85
915.129	407.883
919.63	747.682
924.129	536.25
928.625	512.697
933.118	646.592
937.609	936.199
942.097	968.188
946.582	1380.07
951.065	1687.8
955.546	2176.3
960.023	2754.81
964.499	3041.7
968.971	3863.37
973.441	3945.97
977.909	4336.8
982.374	4164.7
986.836	4063.07
991.295	4026.31
995.753	4021.27
1000.21	3717.07
1004.66	3525.89
1009.11	2808.74
1013.55	2488.64
1018	2382.86
1022.44	2242.73
1026.88	2224.95
1031.32	1876.95
1035.75	1959.04
1040.18	1671.61
1044.61	1745.18
1049.04	1595.73
1053.46	1700.69
1057.88	2235.66
1062.3	2453.09
1066.71	3182.77
1071.13	4127.17
1075.54	4856.68
1079.94	5433.07
1084.35	5914.6
1088.75	6181.86
1093.15	6202.39
1097.55	5533.98
1101.94	4670.53
1106.34	3914.88
1110.73	3176.59
1115.11	2920.84
1119.5	3198.71
1123.88	2919.44
1128.26	1883.27
1132.63	1491.94
1137.01	1288.78
1141.38	748.617
1145.75	673.574
1150.12	725.051
1154.48	182.688
1158.84	317.375
1163.2	123.969
1167.55	225.5
1171.91	63.0781
1176.26	170.633
1180.61	195.934
1184.95	69.2891
1189.29	106.109
1193.63	80.668
1197.97	341.211
1202.31	92.9297
1206.64	80.5039
1210.97	100.246
1215.29	123.859
1219.62	176.414
1223.94	228.879
1228.26	1121.24
1232.57	812.527
1236.89	255.613
1241.2	27.4258
1245.51	143.91
1249.81	85.1758
1254.12	142.211
1258.42	76.1992
1262.72	52.7188
1267.01	87.8516
1271.3	222.207
1275.59	6.77734
1279.88	225.867
1284.17	451.32
1288.45	186.488
1292.73	402.852
1297.01	413.781
1301.28	462.555
1305.55	102.961
1309.82	345.609
1314.09	110.777
1318.35	397.199
1322.61	424.176
1326.87	329.289
1331.13	274.363
1335.38	387.254
1339.63	399.582
1343.88	185.012
1348.12	253.223
1352.37	304.289
1356.61	62.25
1360.85	17.1328
1365.08	318.941
1369.31	456.633
1373.54	293.731
1377.77	264.207
1381.99	271.93
1386.22	20.2383
1390.43	233.949
1394.65	403.856
1398.87	192.797
1403.08	370.223
1407.29	119.496
1411.49	198.047
1415.69	645.797
1419.89	259.941
1424.09	389.856
1428.29	480.734
1432.48	936.113
1436.67	1219.2
1440.86	996.852
1445.04	850.68
1449.23	901.137
1453.4	1088.34
1457.58	816.32
1461.76	863.922
1465.93	582.961
1470.1	522.551
1474.26	280.844
1478.43	631.344
1482.59	284.269
1486.75	726.801
1490.9	350.125
1495.06	33.9883
1499.21	333.289
1503.35	388.008
1507.5	236.035
1511.64	416.156
1515.78	240.805
1519.92	553.769
1524.05	291.301
1528.18	320.336
1532.31	270.816
1536.44	104.273
1540.56	189.75
1544.69	445.129
1548.8	152.856
1552.92	489.074
1557.03	184.352
1561.14	25.5977
1565.25	285.477
1569.36	85.0273
