Measurement: Raman, 514 nm, ccw, Raman Data Processed
Mineral: Elbaite
Rruff sample: R060562
Ideal chemistry: Na(Al_1.5_Li_1.5_)Al_6_(Si_6_O_18_)(BO_3_)_3_(OH)_3_OH
Locality: unknown
Source: Gemological Institute of America
Description: Blue colored polished fragment
Measured chemistry: (Na_0.68_Ca_0.20_[box]_0.12_)(Li_1.20_Al_1.12_Fe^2+^_0.50_Mn_0.18_)Al_6_(BO_3_)_3_[Si_6_O_18_]((OH)_0.80_F_0.20_)_4_
Pin_id: L01792
Orientation: Laser parallel to -a* (-1 0 0). Fiducial mark perpendicular to laser is parallel to c [0 0 1]
Raman shift (cm-1)	intensity
118.134	0
123.058	970.521
127.979	1887.98
132.898	2662.9
137.814	2038.47
142.728	1579.2
147.639	2368.12
152.549	3565.75
157.455	3992.07
162.359	3533.41
167.261	2326.24
172.161	1156.19
177.058	587.707
181.952	671.891
186.845	1485.08
191.734	2702.89
196.622	3793.07
201.507	5002.06
206.389	5479.66
211.269	8690.56
216.147	14095.7
221.022	19919
225.895	20861.1
230.765	18081.6
235.633	16262
240.498	14300.2
245.361	9982.56
250.222	4966.67
255.08	1793.97
259.936	861.637
264.789	337.232
269.64	334.885
274.488	118.914
279.334	104.887
284.178	25.1074
289.019	251.867
293.857	290.731
298.693	109.207
303.527	1280.82
308.358	2517.11
313.187	4249.95
318.013	5935
322.837	8006.1
327.659	9783.37
332.478	9866.86
337.294	9263.38
342.108	8849.49
346.92	8662.75
351.729	9285.84
356.535	10974.6
361.34	16261.1
366.141	26622.5
370.94	41098.6
375.737	40502.3
380.531	28244.7
385.323	17863.8
390.113	12746.5
394.9	10347.8
399.684	10078.7
404.466	10987.2
409.245	10743.6
414.022	7637.65
418.797	4370.17
423.569	2809.31
428.338	1831.32
433.105	1508.6
437.87	1441.59
442.632	1843.89
447.391	2395.3
452.149	2946.47
456.903	2914.1
461.655	3258.29
466.405	3078.76
471.152	2593.53
475.897	2376.62
480.639	2987.05
485.378	4036.89
490.116	5256.2
494.85	5774.01
499.582	5564.39
504.312	5279.34
509.039	4739.84
513.764	3684.89
518.486	2458.48
523.206	1454.6
527.923	1010.24
532.638	827.375
537.35	961.008
542.059	640.125
546.766	543.717
551.471	408.928
556.173	373.807
560.873	98.2812
565.57	28.9316
570.264	148.555
574.957	39.3164
579.646	188.236
584.333	102.59
589.018	34.1641
593.7	292.195
598.379	39.7266
603.056	199.078
607.73	246.627
612.402	627.836
617.072	1000.51
621.739	2334.74
626.403	5264.36
631.065	7229.1
635.724	5823.69
640.381	3072.97
645.035	1525.65
649.687	1024.6
654.336	1166.73
658.983	1243.99
663.627	1143.36
668.268	656.811
672.907	585.324
677.544	729.879
682.178	680.445
686.809	1425
691.438	3804.53
696.065	8822.98
700.688	16058.3
705.31	21302.9
709.929	19273.5
714.545	12626.5
719.158	6818.58
723.77	4511.05
728.378	3924.86
732.984	5248.3
737.588	7426.02
742.189	10807.7
746.787	15358.7
751.383	18619.2
755.976	16658.3
760.567	12947.3
765.155	10366.3
769.741	9055.9
774.324	8124.65
778.904	5454.67
783.482	2992.09
788.058	2018.97
792.631	1373.48
797.201	1140.05
801.769	1366.98
806.334	1613.72
810.897	1842.51
815.457	1293.17
820.014	702.418
824.569	825.731
829.122	1532.1
833.671	2147.5
838.219	2248.92
842.763	1722.64
847.306	1344.96
851.845	1016.74
856.382	1403.02
860.917	1043.12
865.448	605.86
869.978	243.874
874.505	63.1807
879.029	77.5254
883.55	246.339
888.069	136.013
892.586	118.038
897.1	12.7969
901.611	104.621
906.12	96.8076
910.626	0.422852
915.129	346.682
919.63	488.144
924.129	849.771
928.625	1256.15
933.118	1595.19
937.609	2000.19
942.097	2398.14
946.582	2794.2
951.065	3158.3
955.546	3573.4
960.023	3813.59
964.499	4277.81
968.971	4508
973.441	4718.14
977.909	4835.24
982.374	4746.31
986.836	4442.35
991.295	4333.34
995.753	4603.31
1000.21	5136.19
1004.66	5329.73
1009.11	5758.73
1013.55	6160.87
1018	6716.77
1022.44	7109.51
1026.88	7767.38
1031.32	8841.42
1035.75	11057.9
1040.18	14685.6
1044.61	20179
1049.04	26774
1053.46	32277.2
1057.88	34168.7
1062.3	30832.8
1066.71	24292.4
1071.13	18049.1
1075.54	14058.5
1079.94	11846.3
1084.35	11290.9
1088.75	9045.74
1093.15	7183.55
1097.55	5775.24
1101.94	4582.38
1106.34	3616.5
1110.73	2827.92
1115.11	2320.01
1119.5	1982.78
1123.88	1729.26
1128.26	1182.47
1132.63	835.42
1137.01	572.205
1141.38	298.92
1145.75	337.059
1150.12	323.143
1154.48	124.359
1158.84	135.469
1163.2	62.6934
1167.55	3.42773
1171.91	49.0664
1176.26	88.3809
1180.61	93.3926
1184.95	84.0137
1189.29	129.529
1193.63	109.223
1197.97	9.19141
1202.31	75.0762
1206.64	24.2871
1210.97	22.1406
1215.29	37.7227
1219.62	20.6699
1223.94	15.3223
1228.26	144.973
1232.57	52.2695
1236.89	181.69
1241.2	327.305
1245.51	236.99
1249.81	309.803
1254.12	525.633
1258.42	490.484
1262.72	706.363
1267.01	543.279
1271.3	785.731
1275.59	751.221
1279.88	878.225
1284.17	836.019
1288.45	849.469
1292.73	884.834
1297.01	786.918
1301.28	912.357
1305.55	1037.44
1309.82	955.695
1314.09	956.859
1318.35	1081.11
1322.61	961.699
1326.87	1077.35
1331.13	1260.49
1335.38	1444.52
1339.63	1484.76
1343.88	1395.61
1348.12	1497.35
1352.37	1428.05
1356.61	1718.04
1360.85	1919.49
1365.08	2039.18
1369.31	2038.3
1373.54	2580.32
1377.77	3067.46
1381.99	3511.79
1386.22	3677.81
1390.43	3467.03
1394.65	2874.47
1398.87	2254.08
1403.08	2008.51
1407.29	1514.52
1411.49	1437.71
1415.69	1194.49
1419.89	913.205
1424.09	1308.26
1428.29	1135.85
1432.48	1243.36
1436.67	907.213
1440.86	641.896
1445.04	486.019
1449.23	377.318
1453.4	360.209
1457.58	409.955
1461.76	168.514
1465.93	179.539
1470.1	31.4863
1474.26	38.877
1478.43	237.705
1482.59	107.588
1486.75	119.795
1490.9	270.361
1495.06	2.44727
1499.21	107.213
1503.35	226.785
1507.5	416.012
1511.64	328.246
1515.78	434.633
1519.92	531.5
1524.05	471.002
1528.18	514.6
1532.31	326.18
1536.44	383.303
1540.56	402.965
1544.69	255.461
1548.8	143.182
1552.92	314.416
1557.03	260.603
1561.14	197.119
1565.25	285.66
1569.36	9.79492
