Measurement: Raman, 514 nm, ccw, Raman Data Processed
Mineral: Elbaite
Rruff sample: R060560
Ideal chemistry: Na(Al_1.5_Li_1.5_)Al_6_(Si_6_O_18_)(BO_3_)_3_(OH)_3_OH
Locality: California, USA
Source: Gemological Institute of America
Description: Pink fragment
Measured chemistry: (Na_0.56_Ca_0.12_[box]_0.32_)(Al_1.60_Li_1.40_)Al_6_(BO_3_)_3_[Si_6_O_18_](OH)_4_
Pin_id: L01799
Orientation: Laser parallel to -a* (-1 0 0). Fiducial mark perpendicular to laser is parallel to -c [0 0 -1]
Raman shift (cm-1)	intensity
118.134	0
123.058	248.271
127.979	39.9937
132.898	1.75439
137.814	60.0015
142.728	384.252
147.639	776.781
152.549	927.163
157.455	420.728
162.359	259.19
167.261	169.167
172.161	267.198
177.058	168.587
181.952	119.623
186.845	481.2
191.734	1400.44
196.622	2923.16
201.507	5176.54
206.389	8104.8
211.269	13390.5
216.147	22779.9
221.022	33415.4
225.895	32315.8
230.765	23521
235.633	18962.3
240.498	19427.2
245.361	20681.7
250.222	18824.7
255.08	14787.3
259.936	12366.5
264.789	11577.3
269.64	11586.2
274.488	10897.7
279.334	7912.03
284.178	4413.77
289.019	2250.51
293.857	1213.45
298.693	1082.28
303.527	1467.7
308.358	2714.64
313.187	4273.95
318.013	3797.85
322.837	2919.11
327.659	2678.94
332.478	2573.13
337.294	2428.4
342.108	2752.38
346.92	3625.99
351.729	5160.94
356.535	8256.22
361.34	14275.8
366.141	25997.5
370.94	42883.4
375.737	46600.2
380.531	32203.9
385.323	19461.5
390.113	14715
394.9	14286.3
399.684	15426.6
404.466	16707.7
409.245	16007.6
414.022	12034.9
418.797	7528.68
423.569	3884.95
428.338	2075.66
433.105	1174.69
437.87	733.005
442.632	364.548
447.391	12.292
452.149	74.0019
456.903	309.007
461.655	227.942
466.405	64.2871
471.152	239.628
475.897	215.072
480.639	321.438
485.378	114.778
490.116	609.76
494.85	1452.73
499.582	2322.66
504.312	3751.56
509.039	5083.41
513.764	5840.19
518.486	6309.91
523.206	5007.54
527.923	3589.16
532.638	3179.93
537.35	2773.25
542.059	2213.26
546.766	1498.11
551.471	1172.78
556.173	993.197
560.873	693.234
565.57	572.773
570.264	561.83
574.957	685.062
579.646	969.254
584.333	1123.27
589.018	1261.48
593.7	1167.73
598.379	1089.16
603.056	1001.32
607.73	1157.65
612.402	1194.58
617.072	1367.77
621.739	1917
626.403	3479.47
631.065	5655.36
635.724	8659.97
640.381	10337.2
645.035	9334.18
649.687	7610.73
654.336	6648.88
658.983	5222.59
663.627	3787.67
668.268	2224.08
672.907	1656.15
677.544	1481.25
682.178	1668.6
686.809	2167.4
691.438	3878.77
696.065	6185.84
700.688	10891.4
705.31	17909.9
709.929	22776.5
714.545	20621.5
719.158	14163.2
723.77	8762.44
728.378	5908.05
732.984	4996.51
737.588	5112.49
742.189	5866.54
746.787	6471.86
751.383	5576.29
755.976	3851.14
760.567	2190.53
765.155	1291.17
769.741	692.305
774.324	311.864
778.904	303.825
783.482	270.492
788.058	330.853
792.631	422.869
797.201	313.192
801.769	153.791
806.334	24.4434
810.897	153.307
815.457	140.243
820.014	181.676
824.569	161.824
829.122	76.6728
833.671	80.1152
838.219	109.817
842.763	57.8643
847.306	42.0772
851.845	13.1357
856.382	113.088
860.917	194.994
865.448	222.989
869.978	322.126
874.505	433.422
879.029	317.891
883.55	330.528
888.069	326.332
892.586	351.297
897.1	398.415
901.611	463.679
906.12	499.096
910.626	451.685
915.129	416.512
919.63	471.565
924.129	605.948
928.625	685.575
933.118	716.618
937.609	938.161
942.097	1231.4
946.582	1436.83
951.065	1854.41
955.546	2543.27
960.023	3081.7
964.499	3698.74
968.971	4132.45
973.441	4600.91
977.909	4612.34
982.374	4522.11
986.836	4455.15
991.295	4337.02
995.753	4329.1
1000.21	4060.84
1004.66	3869.5
1009.11	3294.47
1013.55	3078.96
1018	2764.44
1022.44	2773.95
1026.88	2622.48
1031.32	2424.03
1035.75	2157.63
1040.18	2103.28
1044.61	2045.26
1049.04	2079.93
1053.46	2373.7
1057.88	2542.92
1062.3	3031.12
1066.71	3611.28
1071.13	4619.21
1075.54	5580.57
1079.94	6059.94
1084.35	7041.62
1088.75	7952.66
1093.15	7918.82
1097.55	7494.78
1101.94	6470.94
1106.34	5295.46
1110.73	4401.23
1115.11	3770.13
1119.5	3417.48
1123.88	2966.25
1128.26	2305.18
1132.63	1989.06
1137.01	1541.05
1141.38	1293.75
1145.75	957.164
1150.12	801.674
1154.48	455.088
1158.84	124.766
1163.2	129.562
1167.55	49.5137
1171.91	67.415
1176.26	15.501
1180.61	20.3682
1184.95	5.83496
1189.29	161.098
1193.63	42.2764
1197.97	5.5
1202.31	19.5059
1206.64	91.2793
1210.97	2.16894
1215.29	4.24707
1219.62	116.198
1223.94	6.19434
1228.26	75.1016
1232.57	62.0088
1236.89	43.7832
1241.2	123.345
1245.51	60.706
1249.81	140.714
1254.12	41.5752
1258.42	67.4062
1262.72	40.9853
1267.01	164.251
1271.3	120.266
1275.59	195.924
1279.88	10.332
1284.17	110.977
1288.45	282.09
1292.73	65.0088
1297.01	94.7324
1301.28	54.2764
1305.55	175.099
1309.82	271.725
1314.09	181.774
1318.35	259.608
1322.61	196.36
1326.87	120.048
1331.13	79.7939
1335.38	140.443
1339.63	173.77
1343.88	24.2168
1348.12	77.5811
1352.37	104.668
1356.61	67.9443
1360.85	95.3096
1365.08	85.2031
1369.31	82.9912
1373.54	264.601
1377.77	25.3838
1381.99	210.37
1386.22	183.4
1390.43	156.059
1394.65	294.687
1398.87	203.275
1403.08	338.287
1407.29	386.517
1411.49	361.559
1415.69	324.699
1419.89	305.11
1424.09	218.751
1428.29	346.88
1432.48	244.622
1436.67	170.15
1440.86	170.76
1445.04	60.7051
1449.23	61.4648
1453.4	287.746
1457.58	343.284
1461.76	430.18
1465.93	392.261
1470.1	454.225
1474.26	85.4062
1478.43	27.8467
1482.59	25.5986
1486.75	5.53223
1490.9	124.797
1495.06	15.4844
1499.21	104.59
1503.35	225.605
1507.5	83.6064
1511.64	307.321
1515.78	207.694
1519.92	288.997
1524.05	123.394
1528.18	324.12
1532.31	286.023
1536.44	154.616
1540.56	226.399
1544.69	195.982
1548.8	68.5527
1552.92	54.123
1557.03	205.103
1561.14	162.889
1565.25	228.86
1569.36	232.193
