Measurement: Raman, 514 nm, ccw, Raman Data Processed
Mineral: Elbaite
Rruff sample: R050119
Ideal chemistry: Na(Al_1.5_Li_1.5_)Al_6_(Si_6_O_18_)(BO_3_)_3_(OH)_3_OH
Locality: Cruziero mine, San Jose, Minas Gerais, Brazil
Source: Carlos and Paulo Vasconcelos
Description: Red fragment
Measured chemistry: (Na_0.90_Ca_0.10_)(Al_0.56_Li_0.38_Mn_0.06_)_3_Al_6_(BO_3_)_3_(Si_0.89_B_0.11_)_6_O_18_(OH)_4_
Pin_id: L00105
Orientation: Laser parallel to c* (0 0 1). Fiducial mark perpendicular to laser is parallel to b [0 1 0]
Raman shift (cm-1)	intensity
91.284	0
95.465	18.283
99.644	232.337
103.82	388.66
107.995	879.25
112.168	2033.54
116.339	2181.09
120.508	2214.47
124.675	2382.22
128.84	2432.04
133.003	2375.25
137.164	2194.19
141.323	1752.11
145.48	1320.49
149.635	1115.35
153.788	1027.38
157.939	757.2
162.088	435.232
166.235	251.815
170.38	137.2
174.523	51.595
178.664	4.779
182.803	91.509
186.94	71.599
191.076	54.759
195.209	465.938
199.34	710.187
203.47	800.488
207.597	1036.86
211.722	1349.76
215.846	2194.95
219.967	3550.3
224.087	4215.7
228.204	3531.34
232.32	2667.07
236.434	2472.88
240.545	2388.78
244.655	2381.56
248.763	1980.84
252.869	1357.01
256.973	793.501
261.075	411.266
265.175	311.356
269.273	452.555
273.369	334.428
277.463	176.734
281.556	219.289
285.646	81.966
289.734	214.698
293.821	92.554
297.905	220.115
301.988	218.57
306.069	97.563
310.147	243.309
314.224	344.115
318.299	504.872
322.372	795.526
326.443	1296.12
330.512	1646.62
334.579	1687.03
338.645	1497.39
342.708	1466.22
346.769	1286.64
350.829	1416.86
354.887	1597.01
358.942	2076.46
362.996	2473.9
367.048	3360.91
371.098	4208
375.146	5815.21
379.192	7002.56
383.236	5660.03
387.279	3867.56
391.319	2585.12
395.358	2232.72
399.394	2110.34
403.429	2417.99
407.462	2625.65
411.493	2463.33
415.522	2011.02
419.549	1278.71
423.575	696.407
427.598	464.071
431.619	301.68
435.639	499.218
439.657	586.676
443.673	744.047
447.687	1041.48
451.699	799.469
455.709	706.419
459.717	710.189
463.724	663.828
467.728	637.839
471.731	701.542
475.732	730.592
479.731	651.699
483.728	543.081
487.723	661.346
491.716	688.237
495.708	656.215
499.697	723.902
503.685	1021.94
507.671	1240.02
511.655	1426.7
515.637	1563.52
519.617	1560.28
523.596	1228.45
527.572	1316.05
531.547	1546.91
535.52	2007.55
539.491	2345.1
543.46	2493.84
547.427	2520.83
551.393	2227.15
555.356	2213.33
559.318	1789.34
563.278	1655.19
567.236	1370.85
571.192	1166.33
575.147	871.62
579.099	556.712
583.05	541.602
586.999	346.293
590.946	350.799
594.891	385.107
598.834	339.233
602.776	213.163
606.715	216.875
610.653	60.361
614.589	36.347
618.523	47.063
622.456	188.872
626.386	37.11
630.315	87.992
634.242	21.98
638.167	42.739
642.09	166.994
646.012	150.422
649.931	81.494
653.849	83.934
657.765	141.64
661.679	110.375
665.592	258.648
669.502	290.833
673.411	445.206
677.318	250.867
681.223	316.012
685.126	138.243
689.028	48.119
692.927	73.021
696.825	270.15
700.721	247.748
704.616	564.599
708.508	791.137
712.399	1076.17
716.288	1819.88
720.175	3273.12
724.06	5675.95
727.944	9348.38
731.825	11160.4
735.705	9202.01
739.584	6243.38
743.46	4036.28
747.334	2888.66
751.207	2220.19
755.078	1883.86
758.947	1664.1
762.815	1513.64
766.68	1022.51
770.544	666.39
774.406	309.719
778.267	161.85
782.125	156.926
785.982	30.183
789.837	47.571
793.69	89.919
797.542	60.316
801.391	262.705
805.239	225.742
809.085	67.459
812.93	19.089
816.772	19.335
820.613	30.314
824.452	69.876
828.29	59.634
832.125	21.711
835.959	144.521
839.791	191.481
843.621	213.784
847.45	159.792
851.277	123.129
855.102	16.618
858.925	111.88
862.746	236.974
866.566	281.741
870.384	426.294
874.2	370.756
878.015	425.082
881.828	469.123
885.639	342.884
889.448	296.44
893.256	109.709
897.061	92.8
900.865	185.578
904.668	31.935
908.468	260.282
912.267	252.243
916.064	163.951
919.86	135.439
923.653	316.667
927.445	187.416
931.236	657.445
935.024	615.62
938.811	823.722
942.596	921.61
946.379	998.578
950.161	1015.91
953.94	1224.44
957.719	1093.77
961.495	1260.69
965.27	1002.1
969.043	901.064
972.814	1189.73
976.583	1442.92
980.351	1341.33
984.117	1540.77
987.882	1354.18
991.644	1208.28
995.405	1214.03
999.165	1200.23
1002.92	1441.39
1006.68	1338.2
1010.43	1372.46
1014.18	1390.43
1017.93	1713.29
1021.68	1828.6
1025.43	2246.06
1029.18	2376.73
1032.92	2766.54
1036.66	2382.14
1040.4	2671.47
1044.14	2899.56
1047.88	3216.78
1051.62	3854.21
1055.35	4722.62
1059.08	5587.35
1062.81	6754.37
1066.54	7690.28
1070.27	8284.24
1073.99	7121.02
1077.72	5555.35
1081.44	4070.24
1085.16	2794.85
1088.88	2038.8
1092.59	1604.76
1096.31	949.115
1100.02	943.295
1103.73	1036.85
1107.44	930.906
1111.15	763.975
1114.86	657.918
1118.57	521.602
1122.27	705.197
1125.97	519.01
1129.67	573.213
1133.37	507.1
1137.07	729.756
1140.76	352.697
1144.45	115.564
1148.15	127.447
1151.84	99.248
1155.53	221.164
1159.21	122.627
1162.9	354.797
1166.58	96.168
1170.26	176.504
1173.94	5.381
1177.62	83.996
1181.3	12.283
1184.97	100.123
1188.65	237.301
1192.32	305.592
1195.99	34.52
1199.66	111.469
1203.33	92.451
1206.99	22.637
1210.65	62.672
1214.32	201.689
1217.98	215.391
1221.64	318.455
1225.29	261.549
1228.95	277.945
1232.6	320.986
1236.26	51.852
1239.91	240.924
1243.56	365.51
1247.2	426.459
1250.85	507.24
1254.49	387.83
1258.13	318.02
1261.78	327.484
1265.41	246.457
1269.05	254.227
1272.69	461.039
1276.32	628.93
1279.95	634.57
1283.59	631.008
1287.21	478.91
1290.84	428.906
1294.47	127.246
1298.09	66.629
1301.72	54.654
1305.34	0.094
1308.96	7.025
1312.58	491.045
1316.19	465.498
1319.81	499.387
1323.42	381.994
1327.03	262.029
1330.64	219.141
1334.25	7.551
1337.86	195.014
1341.46	364.914
1345.07	391.285
1348.67	470.09
1352.27	476.42
1355.87	473.877
1359.46	392.188
1363.06	305.008
1366.65	127.979
1370.25	31.301
1373.84	175.854
1377.43	431.559
1381.02	367.607
1384.6	0
