Measurement: Raman, 514 nm, ccw, Raman Data Processed
Mineral: Elbaite
Rruff sample: R050260
Ideal chemistry: Na(Al_1.5_Li_1.5_)Al_6_(Si_6_O_18_)(BO_3_)_3_(OH)_3_OH
Locality: Minas Gerais, Brazil
Source: Marcus Origlieri
Description: Greenish-gray prismatic single crystal
Measured chemistry: (Na_0.76_[box]_0.17_Ca_0.07_)_Σ=1_(Al_1.67_Li_0.97_Mn_0.36_)_Σ=3_Al_6.00_(B_1.00_O_3_)_3_Si_6.00_O_18_((OH)_3.40_F_0.60_)_Σ=4_; B assumed by stoichiometry; OH estimated by charge balance
Pin_id: L01964
Orientation: Laser parallel to a* (1 0 0). Fiducial mark perpendicular to laser is parallel to -c [0 0 -1]
Raman shift (cm-1)	intensity
118.134	0
123.058	264.407
127.979	266.725
132.898	95.4375
137.814	25.27
142.728	33.2417
147.639	338.315
152.549	1099.94
157.455	1543.68
162.359	1123.04
167.261	700.842
172.161	304.596
177.058	58.689
181.952	178.477
186.845	863.16
191.734	1742.11
196.622	3199.09
201.507	5130.26
206.389	8163.21
211.269	14035.5
216.147	21929.5
221.022	33106.3
225.895	38289.7
230.765	28776.5
235.633	22397.5
240.498	20455.4
245.361	20987.3
250.222	20631
255.08	18470.7
259.936	16737.2
264.789	14053.3
269.64	12242.3
274.488	9991.24
279.334	7139.2
284.178	4349.35
289.019	2631.85
293.857	1122.64
298.693	613.217
303.527	817.352
308.358	1471.87
313.187	2531.78
318.013	3661.35
322.837	2750.24
327.659	2200.99
332.478	2468.86
337.294	3215.44
342.108	4101.08
346.92	5393.14
351.729	7087.71
356.535	10119.8
361.34	17292.3
366.141	27942.3
370.94	43290.5
375.737	54299.9
380.531	35894.6
385.323	21079.3
390.113	15130.2
394.9	13659.2
399.684	14478.4
404.466	16269.7
409.245	16951.1
414.022	14127.6
418.797	9265.79
423.569	5131.7
428.338	2654.28
433.105	1544.59
437.87	873.389
442.632	479.593
447.391	197.167
452.149	18.9268
456.903	140.021
461.655	197.081
466.405	137.405
471.152	201.002
475.897	145.064
480.639	20.3179
485.378	395.908
490.116	965.255
494.85	1877.71
499.582	2591.27
504.312	3359.89
509.039	3814.57
513.764	4000.36
518.486	3519.28
523.206	2576.32
527.923	1778.71
532.638	1361.77
537.35	888.719
542.059	543.604
546.766	285.347
551.471	97.8457
556.173	18.4189
560.873	105.379
565.57	125.239
570.264	365.074
574.957	484.711
579.646	767.119
584.333	828.207
589.018	1021.92
593.7	953.977
598.379	942.109
603.056	844.778
607.73	1062.58
612.402	1349.77
617.072	1835.19
621.739	2957.18
626.403	5610.19
631.065	9472.08
635.724	13347.5
640.381	13017.4
645.035	10586.1
649.687	8846.87
654.336	7745.23
658.983	6766.91
663.627	5135.62
668.268	3925.66
672.907	2783.04
677.544	2486.51
682.178	2913.29
686.809	4052.16
691.438	7003.39
696.065	11987.9
700.688	18548
705.31	24167.6
709.929	22793.8
714.545	14682.4
719.158	8022.93
723.77	4530.37
728.378	3204.3
732.984	2840.66
737.588	2882.28
742.189	3563
746.787	4470.57
751.383	5424.68
755.976	4447.64
760.567	2589.42
765.155	1342.42
769.741	770.438
774.324	467.816
778.904	211.46
783.482	208.397
788.058	115.578
792.631	95.8472
797.201	128.14
801.769	31.3296
806.334	76.1211
810.897	205.923
815.457	150.505
820.014	114.872
824.569	90.9805
829.122	7.39648
833.671	61.3257
838.219	63.2402
842.763	100.498
847.306	185.618
851.845	113.775
856.382	247.986
860.917	264.38
865.448	312.868
869.978	314.837
874.505	241.917
879.029	289.208
883.55	300.731
888.069	251.477
892.586	290.427
897.1	238.572
901.611	296.999
906.12	344.676
910.626	320.63
915.129	296.895
919.63	476.162
924.129	406.014
928.625	632.945
933.118	848.931
937.609	1042.56
942.097	1218.07
946.582	1560.15
951.065	2050.52
955.546	2693.2
960.023	3290.87
964.499	3867.75
968.971	4074.02
973.441	4094.89
977.909	3898.8
982.374	3737.11
986.836	3648.93
991.295	3756.16
995.753	3805.03
1000.21	3901.01
1004.66	3855.97
1009.11	3990.24
1013.55	3862
1018	4030.93
1022.44	4004.42
1026.88	3977.64
1031.32	3789.53
1035.75	3793.52
1040.18	3635.72
1044.61	3690.62
1049.04	3940.19
1053.46	4429.06
1057.88	5203.33
1062.3	5784.23
1066.71	6290.56
1071.13	6687.24
1075.54	7314.59
1079.94	8594.19
1084.35	9811.5
1088.75	9933.43
1093.15	8372.49
1097.55	6110.24
1101.94	4519.5
1106.34	3527.2
1110.73	2563.63
1115.11	2031.98
1119.5	1658.19
1123.88	1445.9
1128.26	1100.56
1132.63	852.999
1137.01	754.322
1141.38	530.968
1145.75	418.713
1150.12	243.543
1154.48	121.459
1158.84	50.4648
1163.2	78.5249
1167.55	3.45019
1171.91	72.6118
1176.26	37.3086
1180.61	10.7104
1184.95	15.4375
1189.29	9.08935
1193.63	2.58984
1197.97	26.9409
1202.31	29.3726
1206.64	52.5259
1210.97	4.39941
1215.29	8.87598
1219.62	119.388
1223.94	19.3506
1228.26	21.8247
1232.57	8.11914
1236.89	8.4917
1241.2	67.8589
1245.51	24.9746
1249.81	20.894
1254.12	33.3579
1258.42	80.1011
1262.72	66.3877
1267.01	67.4771
1271.3	164.397
1275.59	85.1519
1279.88	87.7417
1284.17	205.166
1288.45	50.4233
1292.73	67.77
1297.01	178.591
1301.28	80.4028
1305.55	118.255
1309.82	44.6445
1314.09	45.1768
1318.35	147.185
1322.61	183.252
1326.87	86.6773
1331.13	65.5859
1335.38	118.995
1339.63	43.8486
1343.88	119.364
1348.12	124.043
1352.37	34.6313
1356.61	163.288
1360.85	151.165
1365.08	66.4932
1369.31	137.418
1373.54	105.318
1377.77	289.727
1381.99	487.701
1386.22	544.418
1390.43	544.464
1394.65	772.394
1398.87	681.117
1403.08	627.869
1407.29	554.665
1411.49	520.519
1415.69	451.451
1419.89	441.513
1424.09	426.735
1428.29	309.126
1432.48	285.731
1436.67	330.637
1440.86	322.237
1445.04	228.703
1449.23	288.426
1453.4	273.32
1457.58	220.467
1461.76	69.9717
1465.93	35.0986
1470.1	125.968
1474.26	104.231
1478.43	119.294
1482.59	13.5347
1486.75	137.577
1490.9	55.8184
1495.06	98.2798
1499.21	104.981
1503.35	216.922
1507.5	143.073
1511.64	251.329
1515.78	256.963
1519.92	323.215
1524.05	266.03
1528.18	312.395
1532.31	239.36
1536.44	220.022
1540.56	169.517
1544.69	76.0815
1548.8	39.9722
1552.92	139.491
1557.03	98.1738
1561.14	8.10596
1565.25	103.168
1569.36	132.779
