Measurement: Raman, 514 nm, ccw, Raman Data Processed
Mineral: Elbaite
Rruff sample: R060631
Ideal chemistry: Na(Al_1.5_Li_1.5_)Al_6_(Si_6_O_18_)(BO_3_)_3_(OH)_3_OH
Locality: unknown
Source: Gemological Institute of America
Description: Pink polished fragment
Measured chemistry: (Na_0.55_Ca_0.34_[box]_0.11_)(Li_1.53_Al_1.30_Mn_0.14_Fe^2+^_0.03_)Al_6.00_(BO_3_)_3_[Si_6.00_O_18_]((OH)_0.82_F_0.18_)_4_
Pin_id: L01625
Orientation: Laser parallel to a* (1 0 0). Fiducial mark perpendicular to laser is parallel to c [0 0 1]
Raman shift (cm-1)	intensity
113.208	0
118.134	223.015
123.058	338.619
127.979	41.4448
132.898	61.9238
137.814	173.968
142.728	587.4
147.639	1175.06
152.549	1273.37
157.455	776.089
162.359	456.65
167.261	183.575
172.161	166.121
177.058	430.643
181.952	998.052
186.845	2157.48
191.734	3893.08
196.622	6369.55
201.507	9487.36
206.389	14203.8
211.269	22790.1
216.147	33474.8
221.022	35555.1
225.895	27927.5
230.765	23445.5
235.633	23064.3
240.498	23509
245.361	21442.5
250.222	16967.8
255.08	13851.9
259.936	11959
264.789	10502.1
269.64	8740.61
274.488	6692.17
279.334	4246.03
284.178	2253.68
289.019	1079.14
293.857	921.686
298.693	1199.05
303.527	2163.93
308.358	3857.89
313.187	4452.31
318.013	3433.68
322.837	2881.8
327.659	2972.98
332.478	3063.53
337.294	3552.45
342.108	4469.65
346.92	5924.37
351.729	8462.6
356.535	13693.3
361.34	24718.3
366.141	44253.6
370.94	56399.1
375.737	41725.6
380.531	25184.1
385.323	17692.7
390.113	15651.4
394.9	17179
399.684	19908.7
404.466	20444.4
409.245	16768.6
414.022	10543.2
418.797	5724.56
423.569	3155.97
428.338	1713.25
433.105	884.415
437.87	307.943
442.632	5.83203
447.391	110.084
452.149	214.73
456.903	141.012
461.655	203.625
466.405	154.056
471.152	283.328
475.897	328.06
480.639	162.241
485.378	569.825
490.116	1383.52
494.85	2385.31
499.582	3611.19
504.312	4871.12
509.039	5407.11
513.764	5165.15
518.486	4039.21
523.206	2841.34
527.923	2239.92
532.638	1869.26
537.35	1487.64
542.059	833.021
546.766	691.349
551.471	441.602
556.173	382.476
560.873	435.791
565.57	425.375
570.264	548.215
574.957	759.089
579.646	1018.84
584.333	1033.86
589.018	1213.9
593.7	1238.79
598.379	1072.18
603.056	1074.58
607.73	1249.51
612.402	1517.76
617.072	2229.26
621.739	3713.91
626.403	6771.78
631.065	10820.4
635.724	12117.6
640.381	9992.48
645.035	7953.97
649.687	7008.04
654.336	5716.64
658.983	4369.8
663.627	3254.23
668.268	2215.16
672.907	2028.87
677.544	2164.04
682.178	2931.48
686.809	4467.43
691.438	7697.49
696.065	12941.2
700.688	20225.7
705.31	24350.5
709.929	20372.5
714.545	12724.7
719.158	7683.76
723.77	5337.66
728.378	4702.87
732.984	5010.21
737.588	5635.81
742.189	6204.71
746.787	5874.47
751.383	4356.26
755.976	2815.08
760.567	1651.74
765.155	859.99
769.741	515.471
774.324	469.144
778.904	336.136
783.482	314.325
788.058	264.734
792.631	182.342
797.201	78.1211
801.769	78.1436
806.334	153.407
810.897	161.211
815.457	134.063
820.014	207.859
824.569	115.605
829.122	161.08
833.671	71.9321
838.219	31.7007
842.763	62.3047
847.306	42.2978
851.845	81.5439
856.382	205.615
860.917	213.636
865.448	368.682
869.978	431.797
874.505	447.984
879.029	410.24
883.55	438.565
888.069	314.956
892.586	368.399
897.1	392.886
901.611	402.44
906.12	411.089
910.626	402.9
915.129	593.844
919.63	544.974
924.129	640.416
928.625	874.18
933.118	1003
937.609	1148.17
942.097	1553.98
946.582	2028.04
951.065	2518.74
955.546	3119.65
960.023	3943.2
964.499	4393.69
968.971	4637
973.441	4567.31
977.909	4261.82
982.374	4112.2
986.836	4122.11
991.295	4139.24
995.753	4202.06
1000.21	3942.78
1004.66	3719.73
1009.11	3596.79
1013.55	3597.72
1018	3461.05
1022.44	3464.31
1026.88	3250.01
1031.32	2949.13
1035.75	2723.38
1040.18	2748.87
1044.61	2762.86
1049.04	3068.3
1053.46	3514.91
1057.88	4158.36
1062.3	4856.29
1066.71	5932.23
1071.13	7074.35
1075.54	8286.48
1079.94	9828.72
1084.35	10721.3
1088.75	10683.9
1093.15	9198.57
1097.55	7783.07
1101.94	6164.31
1106.34	4685.29
1110.73	3564.64
1115.11	2895.48
1119.5	2497.18
1123.88	2094.82
1128.26	1571.64
1132.63	1176.74
1137.01	948.841
1141.38	656.012
1145.75	416.255
1150.12	323.565
1154.48	165.937
1158.84	48.2026
1163.2	53.8613
1167.55	104.371
1171.91	25.1738
1176.26	41.8066
1180.61	84.4531
1184.95	28.6548
1189.29	121.48
1193.63	37.0464
1197.97	37.8149
1202.31	19.9468
1206.64	21.3223
1210.97	45.0112
1215.29	1.80127
1219.62	24.602
1223.94	4.39697
1228.26	124.51
1232.57	43.2168
1236.89	14.7261
1241.2	18.082
1245.51	15.3091
1249.81	37.334
1254.12	68.1558
1258.42	68.8931
1262.72	122.319
1267.01	128.532
1271.3	173.534
1275.59	233.323
1279.88	189.897
1284.17	149.253
1288.45	149.272
1292.73	225.082
1297.01	103.577
1301.28	190.518
1305.55	116.036
1309.82	115.061
1314.09	59.4658
1318.35	109.158
1322.61	160.138
1326.87	48.709
1331.13	136.292
1335.38	65.3648
1339.63	10.6626
1343.88	3.86865
1348.12	100.901
1352.37	110.55
1356.61	37.2978
1360.85	218.795
1365.08	32.5347
1369.31	219.792
1373.54	125.175
1377.77	215.292
1381.99	324.291
1386.22	503.079
1390.43	613.67
1394.65	576.328
1398.87	573.99
1403.08	585.649
1407.29	514.316
1411.49	419.032
1415.69	428.82
1419.89	301.707
1424.09	346.735
1428.29	323.51
1432.48	258.801
1436.67	188.6
1440.86	336.515
1445.04	275.214
1449.23	326.758
1453.4	194.958
1457.58	235.588
1461.76	256.389
1465.93	176.78
1470.1	215.297
1474.26	208.319
1478.43	9.78955
1482.59	106.677
1486.75	97.7485
1490.9	55.0317
1495.06	84.5576
1499.21	44.3369
1503.35	228.346
1507.5	206.537
1511.64	348.91
1515.78	288.861
1519.92	222.564
1524.05	406.114
1528.18	325.111
1532.31	141.54
1536.44	129.762
1540.56	246.966
1544.69	153.438
1548.8	16.5547
1552.92	236.941
1557.03	171.416
1561.14	166.997
1565.25	134.598
1569.36	76.5107
