Measurement: Raman, 514 nm, ccw, Raman Data Processed
Mineral: Elbaite
Rruff sample: R060003
Ideal chemistry: Na(Al_1.5_Li_1.5_)Al_6_(Si_6_O_18_)(BO_3_)_3_(OH)_3_OH
Locality: Mount Begbie, Revelstoke, British Columbia, Canada
Source: Bob Downs
Description: Pink crystal associated with trilithionite, R060004
Measured chemistry: (Na_0.58_[box]_0.42_)(Al_1.69_Li_1.27_Mn_0.04_)Al_6_(BO_3_)_3_[Si_6_O_18_](OH)_4_
Pin_id: M00450
Orientation: Laser parallel to -c* (0 0 -1). Fiducial mark perpendicular to laser is parallel to -a [-1 0 0]
Raman shift (cm-1)	intensity
167.261	0
172.161	184.536
177.058	54.9082
181.952	47.0137
186.845	460.785
191.734	927.674
196.622	1315.05
201.507	1685.39
206.389	1753.33
211.269	3151.34
216.147	5879.28
221.022	9257.73
225.895	7798.43
230.765	5115.82
235.633	4175.66
240.498	4162.72
245.361	4018.39
250.222	3014.27
255.08	1690.09
259.936	1956.89
264.789	1746.4
269.64	2238.61
274.488	2336.49
279.334	1905.88
284.178	1607.72
289.019	787.939
293.857	72.5078
298.693	314.738
303.527	104.353
308.358	1131.65
313.187	1419.08
318.013	1641.82
322.837	2583.93
327.659	3920.73
332.478	4097.04
337.294	3156.23
342.108	2523.24
346.92	2291.18
351.729	2759.34
356.535	4142.28
361.34	6083.73
366.141	8764.58
370.94	12033.7
375.737	14578.1
380.531	12803.7
385.323	8564.12
390.113	5745.61
394.9	5122.1
399.684	5468.59
404.466	5932.07
409.245	5630.56
414.022	4161.93
418.797	1977.14
423.569	658.121
428.338	84.1894
433.105	271.137
437.87	372.305
442.632	905.152
447.391	1323.21
452.149	1269.95
456.903	1048.8
461.655	654.736
466.405	499.535
471.152	520.115
475.897	411.897
480.639	359.779
485.378	502.344
490.116	787.775
494.85	888.428
499.582	1570.85
504.312	2083.01
509.039	3121.01
513.764	4007.01
518.486	4556.98
523.206	4194.58
527.923	3993.31
532.638	5089.87
537.35	6148.46
542.059	6730.45
546.766	6626.5
551.471	6423.96
556.173	5332.36
560.873	3968.4
565.57	2885.07
570.264	1951.44
574.957	1293.03
579.646	1103.09
584.333	591.656
589.018	368.711
593.7	503.932
598.379	296.272
603.056	43.6641
607.73	54.0371
612.402	139.9
617.072	242.277
621.739	279.941
626.403	135.322
631.065	22.2773
635.724	92.8652
640.381	285.731
645.035	208.654
649.687	403.834
654.336	413.428
658.983	129.678
663.627	538.383
668.268	491.543
672.907	475.891
677.544	364.992
682.178	353.549
686.809	234.463
691.438	277.684
696.065	648.541
700.688	1116.58
705.31	1687.47
709.929	2759.61
714.545	4682.8
719.158	8580
723.77	15514.1
728.378	24079.4
732.984	22674.7
737.588	14466.7
742.189	8809.25
746.787	6097.84
751.383	4791.53
755.976	3843.88
760.567	3239.55
765.155	2141.92
769.741	1251.92
774.324	734.053
778.904	459.822
783.482	549.18
788.058	203.824
792.631	518.287
797.201	502.815
801.769	651.094
806.334	689.398
810.897	0.708984
815.457	86.832
820.014	243.93
824.569	2.36523
829.122	116.621
833.671	31.7051
838.219	185.068
842.763	202.199
847.306	60.1973
851.845	431.371
856.382	286.217
860.917	506.473
865.448	677.943
869.978	976.65
874.505	1127.62
879.029	1036.87
883.55	739.441
888.069	662.574
892.586	519.9
897.1	252.812
901.611	148.328
906.12	79.8613
910.626	1.14258
915.129	105.894
919.63	159.969
924.129	227.736
928.625	567.035
933.118	946.518
937.609	974.561
942.097	1014.4
946.582	1064.8
951.065	1299.58
955.546	1446.59
960.023	1388.17
964.499	1457.38
968.971	1593.66
973.441	1608.28
977.909	1750.63
982.374	2019.91
986.836	2067.15
991.295	2078.42
995.753	1943.49
1000.21	1564.69
1004.66	2037.82
1009.11	1982.88
1013.55	2003.87
1018	2398.01
1022.44	3247.97
1026.88	3635.69
1031.32	3969.2
1035.75	4442.15
1040.18	4853.58
1044.61	5508.73
1049.04	6654.73
1053.46	8391.71
1057.88	10917.6
1062.3	13666.3
1066.71	16377.5
1071.13	15966.5
1075.54	12572.3
1079.94	8888.27
1084.35	5654.47
1088.75	3684.59
1093.15	2662.13
1097.55	2027.26
1101.94	1702.69
1106.34	1471.3
1110.73	1107.74
1115.11	1123.28
1119.5	1114.02
1123.88	1000.91
1128.26	867.199
1132.63	416.375
1137.01	406.902
1141.38	485.047
1145.75	245.606
1150.12	218.848
1154.48	47.1602
1158.84	300.391
1163.2	7.63672
1167.55	134.188
1171.91	223.75
1176.26	194.812
1180.61	58.3945
1184.95	17.3203
1189.29	134.938
1193.63	309.324
1197.97	67.2148
1202.31	100.398
1206.64	248.039
1210.97	204.801
1215.29	210.059
1219.62	68.1367
1223.94	188.504
1228.26	241.512
1232.57	202.332
1236.89	211.793
1241.2	207.758
1245.51	232.152
1249.81	200.769
1254.12	289.805
1258.42	325.43
1262.72	217.625
1267.01	249.41
1271.3	240.809
1275.59	319.816
1279.88	200.254
1284.17	190.25
1288.45	220.449
1292.73	497.754
1297.01	496.387
1301.28	283.824
1305.55	371.613
1309.82	555.481
1314.09	196.723
1318.35	182.227
1322.61	197.055
1326.87	272.328
1331.13	380.539
1335.38	361.25
1339.63	379.195
1343.88	250.32
1348.12	133.965
1352.37	178.988
1356.61	516.684
1360.85	1.08594
1365.08	21.5625
1369.31	227.828
1373.54	29.9766
1377.77	325.5
1381.99	380.906
1386.22	301.519
1390.43	146.984
1394.65	356.969
1398.87	558.094
1403.08	174.641
1407.29	317.926
1411.49	513.996
1415.69	813.066
1419.89	761.039
1424.09	482.613
1428.29	376.766
1432.48	445.438
1436.67	387.113
1440.86	311.203
1445.04	242.68
1449.23	464.281
1453.4	531.574
1457.58	849.699
1461.76	1128.2
1465.93	1040.19
1470.1	821.465
1474.26	421.269
1478.43	272.981
1482.59	177.094
1486.75	237.359
1490.9	105.625
1495.06	220.039
1499.21	105.922
1503.35	178.066
1507.5	607.969
1511.64	388.117
1515.78	624.406
1519.92	460.644
1524.05	195.93
1528.18	512.25
1532.31	393.258
1536.44	36.8203
1540.56	289.398
1544.69	86.6602
1548.8	17.7031
1552.92	358.387
1557.03	111.992
1561.14	31.7383
1565.25	171.398
1569.36	189.769
