Measurement: Raman, 514 nm, ccw, Raman Data Processed
Mineral: Elbaite
Rruff sample: R050260
Ideal chemistry: Na(Al_1.5_Li_1.5_)Al_6_(Si_6_O_18_)(BO_3_)_3_(OH)_3_OH
Locality: Minas Gerais, Brazil
Source: Marcus Origlieri
Description: Greenish-gray prismatic single crystal
Measured chemistry: (Na_0.76_[box]_0.17_Ca_0.07_)_Σ=1_(Al_1.67_Li_0.97_Mn_0.36_)_Σ=3_Al_6.00_(B_1.00_O_3_)_3_Si_6.00_O_18_((OH)_3.40_F_0.60_)_Σ=4_; B assumed by stoichiometry; OH estimated by charge balance
Pin_id: L01093
Orientation: Laser parallel to c* (0 0 1). Fiducial mark perpendicular to laser is parallel to -a [-1 0 0]
Raman shift (cm-1)	intensity
118.134	0
123.058	635.3
127.979	1060.82
132.898	1676.21
137.814	884.35
142.728	132.299
147.639	574.805
152.549	1474.51
157.455	1336.46
162.359	868.35
167.261	761.889
172.161	297.658
177.058	285.25
181.952	34.5586
186.845	721.961
191.734	1533.42
196.622	2165.91
201.507	3210.56
206.389	3636.05
211.269	6215.92
216.147	12094.8
221.022	17886.9
225.895	16911.1
230.765	11682.5
235.633	8774.49
240.498	8060.07
245.361	6846.12
250.222	4573.65
255.08	2688.61
259.936	3392.98
264.789	1127.08
269.64	1207.04
274.488	1577.69
279.334	1455.12
284.178	937.266
289.019	438.17
293.857	282.514
298.693	348.648
303.527	293.285
308.358	955.754
313.187	1633.63
318.013	2758.8
322.837	4270.06
327.659	6244.43
332.478	7137.03
337.294	7144.93
342.108	6769.78
346.92	6570.18
351.729	6335.48
356.535	7253.9
361.34	9661.07
366.141	14072.2
370.94	21467.2
375.737	29506.1
380.531	25611.9
385.323	16219.4
390.113	10383.6
394.9	7960.55
399.684	7220.19
404.466	7391.24
409.245	7784.38
414.022	6182.21
418.797	3620.94
423.569	1822.43
428.338	951.666
433.105	743.606
437.87	1323.95
442.632	1312.07
447.391	1416.8
452.149	1157.47
456.903	1260.69
461.655	1455.63
466.405	2201.4
471.152	2440.72
475.897	2576.15
480.639	2059.16
485.378	2346.52
490.116	2256.93
494.85	2335.45
499.582	3195.79
504.312	3425.91
509.039	3750.82
513.764	3663.5
518.486	3291.84
523.206	2878.72
527.923	3294.08
532.638	4108.87
537.35	4737.3
542.059	5298.79
546.766	5637.42
551.471	5590.33
556.173	4766.51
560.873	3808.25
565.57	2844.77
570.264	2032
574.957	1609.88
579.646	1466.36
584.333	925.668
589.018	851.727
593.7	607.166
598.379	28.9004
603.056	86.2305
607.73	183.861
612.402	224.883
617.072	193.072
621.739	382.91
626.403	50.627
631.065	554.031
635.724	659.674
640.381	1196.09
645.035	811.312
649.687	521.043
654.336	638.938
658.983	949.547
663.627	796.484
668.268	698.861
672.907	345.631
677.544	262.734
682.178	29.6758
686.809	37.2168
691.438	40.0293
696.065	751.879
700.688	1672.88
705.31	3151
709.929	5787.21
714.545	10129.5
719.158	18905.8
723.77	31373.1
728.378	39865.4
732.984	33550.7
737.588	20139.9
742.189	11460.5
746.787	7792.32
751.383	6367.08
755.976	5969.06
760.567	5000.9
765.155	3552.74
769.741	2133.7
774.324	1196.11
778.904	475.356
783.482	412.068
788.058	464.185
792.631	346.697
797.201	950.049
801.769	1206.34
806.334	1024.57
810.897	826.869
815.457	439.223
820.014	367.691
824.569	644.496
829.122	1145.62
833.671	2233.99
838.219	2463.16
842.763	2163.55
847.306	1547.18
851.845	1212.06
856.382	1325.19
860.917	1183.62
865.448	995.332
869.978	711.359
874.505	634.719
879.029	460.5
883.55	48.9512
888.069	129.441
892.586	246.305
897.1	189.293
901.611	7.60156
906.12	26.8242
910.626	170.371
915.129	5.10547
919.63	347.838
924.129	515.303
928.625	929.578
933.118	1188.86
937.609	1778.85
942.097	2029.7
946.582	2322.4
951.065	2373.68
955.546	2727.45
960.023	2848.35
964.499	2917.24
968.971	3329.31
973.441	3415.12
977.909	3612.68
982.374	3525.01
986.836	3466.12
991.295	3135.01
995.753	3100.71
1000.21	3209.3
1004.66	3183.54
1009.11	3721.7
1013.55	4271.41
1018	5398.28
1022.44	6037.33
1026.88	6522.4
1031.32	7110.89
1035.75	8240.22
1040.18	10100.6
1044.61	12713.8
1049.04	16634.1
1053.46	22394
1057.88	28522.4
1062.3	32493
1066.71	29785.3
1071.13	22787.2
1075.54	15249.3
1079.94	10089.2
1084.35	6593.63
1088.75	4634.44
1093.15	3635.63
1097.55	2923.5
1101.94	2509.24
1106.34	2202.85
1110.73	1930.35
1115.11	1669.55
1119.5	1962.04
1123.88	1697.19
1128.26	1372.24
1132.63	1200.17
1137.01	879.008
1141.38	934.74
1145.75	588.406
1150.12	480.057
1154.48	216.709
1158.84	139.428
1163.2	137.488
1167.55	302.85
1171.91	93.0723
1176.26	108.334
1180.61	248.147
1184.95	168.217
1189.29	146.152
1193.63	93.3106
1197.97	19.9043
1202.31	139.166
1206.64	6.85156
1210.97	76.1348
1215.29	49.084
1219.62	56.2148
1223.94	154.225
1228.26	84.2168
1232.57	55.2227
1236.89	197.277
1241.2	178.352
1245.51	464.416
1249.81	171.422
1254.12	73.1348
1258.42	257.301
1262.72	257.174
1267.01	249.012
1271.3	252.822
1275.59	212.609
1279.88	398.373
1284.17	438.107
1288.45	455.408
1292.73	546.129
1297.01	435.853
1301.28	279.273
1305.55	483.26
1309.82	355.502
1314.09	251.625
1318.35	378.803
1322.61	435.367
1326.87	392.078
1331.13	506.85
1335.38	632.82
1339.63	396.586
1343.88	530.496
1348.12	449.565
1352.37	389.596
1356.61	468.912
1360.85	414.269
1365.08	548.336
1369.31	590.269
1373.54	761.356
1377.77	1080.31
1381.99	1366.85
1386.22	1985.61
1390.43	2127.61
1394.65	2302.86
1398.87	2144.38
1403.08	1833.03
1407.29	1526.5
1411.49	1160.67
1415.69	1114.96
1419.89	841.486
1424.09	938.572
1428.29	783.666
1432.48	737.141
1436.67	782.375
1440.86	849.439
1445.04	436.967
1449.23	701.543
1453.4	624.352
1457.58	841.398
1461.76	651.434
1465.93	492.822
1470.1	283.225
1474.26	192.685
1478.43	82.4746
1482.59	77.8223
1486.75	140.596
1490.9	288.885
1495.06	322.789
1499.21	79.3926
1503.35	73.7363
1507.5	133.84
1511.64	289.484
1515.78	195.066
1519.92	737.506
1524.05	388.861
1528.18	604.623
1532.31	454.143
1536.44	236.852
1540.56	252.648
1544.69	125.422
1548.8	67.0938
1552.92	275.488
1557.03	355.457
1561.14	201.793
1565.25	5.84375
1569.36	185.703
