Measurement: Raman, 514 nm, ccw, Raman Data Processed
Mineral: Elbaite
Rruff sample: R060631
Ideal chemistry: Na(Al_1.5_Li_1.5_)Al_6_(Si_6_O_18_)(BO_3_)_3_(OH)_3_OH
Locality: unknown
Source: Gemological Institute of America
Description: Pink polished fragment
Measured chemistry: (Na_0.55_Ca_0.34_[box]_0.11_)(Li_1.53_Al_1.30_Mn_0.14_Fe^2+^_0.03_)Al_6.00_(BO_3_)_3_[Si_6.00_O_18_]((OH)_0.82_F_0.18_)_4_
Pin_id: L01625
Orientation: Laser parallel to a* (1 0 0). Fiducial mark perpendicular to laser is parallel to c [0 0 1]
Raman shift (cm-1)	intensity
113.208	0
118.134	71.4023
123.058	386.78
127.979	684.916
132.898	1122.39
137.814	1420.31
142.728	1159.03
147.639	1576.21
152.549	1357.91
157.455	384.124
162.359	32.5166
167.261	77.2324
172.161	450.883
177.058	584.891
181.952	503.427
186.845	750.341
191.734	2370.64
196.622	4334.69
201.507	6739.66
206.389	8589.07
211.269	13791.6
216.147	21729.4
221.022	26605.3
225.895	22301.7
230.765	17875.8
235.633	16890.3
240.498	17039.2
245.361	15366.3
250.222	12429.7
255.08	9696.27
259.936	8633.22
264.789	7422.99
269.64	6818.25
274.488	6111.93
279.334	4982.22
284.178	3808.14
289.019	2621.91
293.857	1449.38
298.693	1181.14
303.527	1749.85
308.358	2544.61
313.187	3807.88
318.013	3951.69
322.837	4570.64
327.659	4894.68
332.478	5245.11
337.294	5980.1
342.108	7061.5
346.92	7880.61
351.729	8693.4
356.535	11044.8
361.34	17342.7
366.141	30228
370.94	43729.6
375.737	38533.4
380.531	23980.3
385.323	15538.3
390.113	12070.5
394.9	11944.8
399.684	13759.3
404.466	14706.9
409.245	12634.4
414.022	8185.88
418.797	3932.09
423.569	1716.96
428.338	750.43
433.105	383.416
437.87	45.8652
442.632	178.66
447.391	115.262
452.149	61.4102
456.903	195.213
461.655	242.18
466.405	279.685
471.152	297.154
475.897	242.812
480.639	212.957
485.378	757.535
490.116	1466.19
494.85	2209.9
499.582	3119.64
504.312	4156.4
509.039	4662.16
513.764	4511.89
518.486	3902.62
523.206	2832.73
527.923	2409.96
532.638	2283.76
537.35	2346.06
542.059	1960.69
546.766	1481.73
551.471	1203.14
556.173	906.482
560.873	634.654
565.57	422.555
570.264	360.16
574.957	410.438
579.646	477.33
584.333	581.846
589.018	661.828
593.7	512.723
598.379	459.174
603.056	621.771
607.73	458.371
612.402	445.547
617.072	663.811
621.739	1747.63
626.403	3532.67
631.065	6363.36
635.724	7871.68
640.381	6815.58
645.035	5028.98
649.687	4052.74
654.336	3106.12
658.983	2493.83
663.627	1640.67
668.268	1253.87
672.907	1163.61
677.544	989.561
682.178	1240.45
686.809	2496.02
691.438	4506.31
696.065	8268.46
700.688	14424.1
705.31	19907.1
709.929	19409.3
714.545	13540.4
719.158	8329.85
723.77	5554.43
728.378	4601.46
732.984	4932.99
737.588	6214.33
742.189	7655.64
746.787	8383.98
751.383	8082.06
755.976	5885.94
760.567	4434.71
765.155	3389.16
769.741	2629.74
774.324	2398.29
778.904	1730.08
783.482	1106.46
788.058	570.453
792.631	394.945
797.201	36.8438
801.769	186.955
806.334	264.012
810.897	177.518
815.457	375.307
820.014	287.295
824.569	148.742
829.122	155.887
833.671	282.559
838.219	345.9
842.763	281.992
847.306	300.805
851.845	312.346
856.382	587.656
860.917	682.814
865.448	1066.85
869.978	817.769
874.505	926.572
879.029	749.254
883.55	506.809
888.069	334.211
892.586	353.381
897.1	172.309
901.611	23.9199
906.12	18.1309
910.626	159.123
915.129	162.994
919.63	533.76
924.129	523.664
928.625	1114.64
933.118	1230.73
937.609	1533.92
942.097	1633.64
946.582	2516.86
951.065	2348.36
955.546	2956.16
960.023	3796.2
964.499	4801.64
968.971	5343.61
973.441	5474.3
977.909	5363.88
982.374	5242.98
986.836	5207.25
991.295	5197.92
995.753	5158.71
1000.21	5435.15
1004.66	5303.37
1009.11	5583.32
1013.55	5956.02
1018	5926.48
1022.44	5834.65
1026.88	5802.26
1031.32	5628.26
1035.75	5765.93
1040.18	6415.02
1044.61	7604.96
1049.04	9095.16
1053.46	10812
1057.88	11720.1
1062.3	11626.1
1066.71	11232
1071.13	11088.6
1075.54	11049.3
1079.94	10955.6
1084.35	11514.6
1088.75	11137.5
1093.15	9575.34
1097.55	8052.06
1101.94	6572.36
1106.34	5176.11
1110.73	4017.72
1115.11	3295.79
1119.5	2914.16
1123.88	2170.24
1128.26	1770.57
1132.63	1501.61
1137.01	1088.32
1141.38	982.682
1145.75	516.943
1150.12	532.445
1154.48	177.859
1158.84	173.981
1163.2	123.791
1167.55	23.2969
1171.91	131.371
1176.26	2.24219
1180.61	24.5762
1184.95	24.5156
1189.29	81.4316
1193.63	137.582
1197.97	98.8164
1202.31	217.275
1206.64	9.14648
1210.97	148.94
1215.29	163.117
1219.62	138.688
1223.94	156.49
1228.26	19.457
1232.57	56.959
1236.89	265.81
1241.2	181.971
1245.51	157.754
1249.81	173.344
1254.12	142.592
1258.42	243.242
1262.72	400.336
1267.01	500.897
1271.3	304.924
1275.59	571.428
1279.88	490.406
1284.17	646.859
1288.45	508.315
1292.73	638.229
1297.01	555.519
1301.28	617.994
1305.55	550.328
1309.82	528.783
1314.09	831.494
1318.35	647.844
1322.61	524.521
1326.87	452.883
1331.13	656.529
1335.38	532.777
1339.63	538.604
1343.88	623.91
1348.12	374.141
1352.37	573.012
1356.61	536.586
1360.85	558.463
1365.08	592.373
1369.31	729.338
1373.54	528.531
1377.77	568.617
1381.99	1070.31
1386.22	1203.08
1390.43	1358.58
1394.65	1526.89
1398.87	1490.38
1403.08	1278.71
1407.29	955.519
1411.49	874.141
1415.69	872.756
1419.89	726.43
1424.09	636.188
1428.29	497.168
1432.48	731.609
1436.67	781.703
1440.86	560.896
1445.04	560.09
1449.23	660.707
1453.4	659.842
1457.58	751.971
1461.76	559.4
1465.93	303.33
1470.1	312.256
1474.26	128.588
1478.43	256.367
1482.59	215.455
1486.75	14.9102
1490.9	186.096
1495.06	20.3105
1499.21	151.971
1503.35	135.008
1507.5	271.709
1511.64	394.172
1515.78	468.664
1519.92	438.096
1524.05	524.221
1528.18	452.615
1532.31	296.361
1536.44	298.215
1540.56	311.381
1544.69	381.488
1548.8	268.49
1552.92	245.414
1557.03	129.185
1561.14	179.137
1565.25	283.324
1569.36	26.3008
