Measurement: Raman, 514 nm, ccw, Raman Data Processed
Mineral: Enstatite
Rruff sample: R060744
Ideal chemistry: MgSiO_3_
Locality: Orissa, India
Source: Herb Obodda
Description: Brown transparent fragment
Measured chemistry: (Mg_0.85_Fe^2+^_0.13_Fe^3+^_0.01_Mn_0.01_)_Σ=1_(Si_0.99_Al_0.01_)_Σ=1_O_3_; trace amounts of Ca; Fe^2+^ and Fe^3+^ splitted by charge balance
Pin_id: L01935
Orientation: Laser parallel to -a* (-1 0 0). Fiducial mark perpendicular to laser is parallel to -b [0 -1 0]
Raman shift (cm-1)	intensity
113.208	0
118.134	3225.2
123.058	15741.5
127.979	36808.4
132.898	19688.8
137.814	6532.76
142.728	2294.45
147.639	366.427
152.549	92.0644
157.455	152.676
162.359	118.48
167.261	371.242
172.161	411.461
177.058	485.081
181.952	711.004
186.845	1220.74
191.734	1265.23
196.622	1150.01
201.507	968.227
206.389	193.588
211.269	126.944
216.147	107.573
221.022	485.832
225.895	1879.67
230.765	4792.56
235.633	4409.82
240.498	1309.48
245.361	35.6299
250.222	162.975
255.08	130.453
259.936	41.3738
264.789	186.746
269.64	369.435
274.488	134.602
279.334	49.3227
284.178	318.502
289.019	894.809
293.857	1517.99
298.693	1487.6
303.527	1343.13
308.358	1607.24
313.187	2628.16
318.013	4462.58
322.837	8845.72
327.659	18282.2
332.478	37732.6
337.294	56356.4
342.108	43737.6
346.92	22457.6
351.729	12237.3
356.535	7478.7
361.34	5202.45
366.141	3959.5
370.94	3546.62
375.737	3339.24
380.531	3401.38
385.323	4536.1
390.113	7212
394.9	10481.3
399.684	11378
404.466	9910.41
409.245	8220.85
414.022	6643.43
418.797	5421.46
423.569	4236.36
428.338	4835.95
433.105	7744.11
437.87	9486.14
442.632	5008.5
447.391	2242.56
452.149	1388.48
456.903	956.023
461.655	857.214
466.405	618.078
471.152	376.65
475.897	102.026
480.639	16.2795
485.378	20.5806
490.116	15.5657
494.85	101.656
499.582	146.37
504.312	101.411
509.039	78.9302
513.764	441.527
518.486	808.585
523.206	1055.02
527.923	1123.78
532.638	2032.94
537.35	2190.32
542.059	1440.42
546.766	1218.76
551.471	749.86
556.173	356.333
560.873	186.166
565.57	167.716
570.264	174.062
574.957	205.785
579.646	184.718
584.333	200.868
589.018	196.24
593.7	130.836
598.379	199.658
603.056	174.232
607.73	104.003
612.402	292.533
617.072	369.298
621.739	653.868
626.403	921.328
631.065	1257.44
635.724	1962.67
640.381	3185.16
645.035	5908.24
649.687	12144
654.336	25322.8
658.983	39519
663.627	31805.4
668.268	23327.4
672.907	29427.5
677.544	46307.1
682.178	49640.1
686.809	28622.8
691.438	13268
696.065	6890.04
700.688	4174.87
705.31	2792.43
709.929	1894.96
714.545	1394.44
719.158	1030.89
723.77	874.28
728.378	738.621
732.984	634.905
737.588	564.129
742.189	549.287
746.787	477.377
751.383	480.395
755.976	195.337
760.567	118.205
765.155	81.9951
769.741	33.2847
774.324	27.2791
778.904	13.0684
783.482	6.26807
788.058	18.5642
792.631	102.543
797.201	11.3545
801.769	42.8567
806.334	34.0081
810.897	30.6902
815.457	22.7393
820.014	11.957
824.569	3.61499
829.122	0.400391
833.671	67.6904
838.219	138.64
842.763	288.523
847.306	712.367
851.845	1763.18
856.382	3020.97
860.917	2909.76
865.448	2166.53
869.978	1363.3
874.505	823.082
879.029	498.877
883.55	340.931
888.069	341.123
892.586	279.418
897.1	199.338
901.611	255.603
906.12	179.591
910.626	188.4
915.129	141.272
919.63	321.026
924.129	525.855
928.625	642.882
933.118	995
937.609	1081.78
942.097	1032.91
946.582	946.159
951.065	713.691
955.546	534.342
960.023	498.488
964.499	398.31
968.971	342.679
973.441	338.295
977.909	476.463
982.374	888.994
986.836	1530.95
991.295	2815.24
995.753	5393.87
1000.21	9021.79
1004.66	13530
1009.11	15619.5
1013.55	15354.2
1018	14966.2
1022.44	13591.5
1026.88	11631.1
1031.32	8936.87
1035.75	5808.94
1040.18	3607.32
1044.61	2258.03
1049.04	1476.03
1053.46	1063.36
1057.88	741.746
1062.3	559.73
1066.71	515.367
1071.13	404.029
1075.54	295.227
1079.94	340.71
1084.35	197.667
1088.75	323.04
1093.15	313.033
1097.55	333.743
1101.94	311.286
1106.34	348.417
1110.73	336.682
1115.11	464.97
1119.5	767.708
1123.88	918.505
1128.26	397.101
1132.63	377.928
1137.01	220.845
1141.38	273.433
1145.75	211.125
1150.12	145.718
1154.48	145.405
1158.84	149.77
1163.2	209.241
1167.55	163.419
1171.91	167.519
1176.26	98.5078
1180.61	113.373
1184.95	24.1033
1189.29	32.6892
1193.63	32.0862
1197.97	28.8015
1202.31	5.42944
1206.64	21.5183
1210.97	31.8164
1215.29	43.9678
1219.62	7.13354
1223.94	40.2395
1228.26	26.7529
1232.57	17.4854
1236.89	72.6558
1241.2	7.52344
1245.51	25.2493
1249.81	47.4119
1254.12	4.27759
1258.42	91.5478
1262.72	23.04
1267.01	126.212
1271.3	121.119
1275.59	122.825
1279.88	98.1392
1284.17	203.155
1288.45	128.848
1292.73	146.307
1297.01	201.384
1301.28	240.152
1305.55	213.61
1309.82	175.747
1314.09	141.57
1318.35	216.38
1322.61	122.987
1326.87	175.101
1331.13	72
1335.38	114.934
1339.63	137.236
1343.88	138.591
1348.12	115.46
1352.37	131.655
1356.61	77.4221
1360.85	157.824
1365.08	204.185
1369.31	163.012
1373.54	192.439
1377.77	120.46
1381.99	135.678
1386.22	129.686
1390.43	141.691
1394.65	48.9834
1398.87	82.3137
1403.08	126.915
1407.29	67.0496
1411.49	78.2422
1415.69	50.3892
1419.89	158.572
1424.09	175.602
1428.29	64.0898
1432.48	137.379
1436.67	149.612
1440.86	241.641
1445.04	225.349
1449.23	221.182
1453.4	206.658
1457.58	354.312
1461.76	258.616
1465.93	239.357
1470.1	163.391
1474.26	183.798
1478.43	111.549
1482.59	182.519
1486.75	138.309
1490.9	131.843
1495.06	33.4685
1499.21	157.246
1503.35	50.1228
1507.5	61.1877
1511.64	72.5496
1515.78	66.3301
1519.92	59.4575
1524.05	62.8823
1528.18	142.556
1532.31	73.5481
1536.44	92.3494
1540.56	98.5229
1544.69	72.616
1548.8	90.1477
1552.92	97.1838
1557.03	76.5019
1561.14	24.3308
1565.25	30.5303
1569.36	15.6401
