Measurement: Raman, 514 nm, ccw, Raman Data Processed
Mineral: Enstatite
Rruff sample: R070550
Ideal chemistry: MgSiO_3_
Locality: Tanzania
Source: www.multicolour.com
Description: Brown, translucent, vitreous crystal fragment
Measured chemistry: (Mg_0.90_Fe_0.10_)_Î£=1_Si_1.00_O_3_
Pin_id: L01735
Orientation: Laser parallel to -b* (0 -1 0). Fiducial mark perpendicular to laser is parallel to c [0 0 1]
Raman shift (cm-1)	intensity
115.372	0
120.336	6.18604
125.296	166.975
130.253	314.257
135.207	407.138
140.158	373.56
145.106	405.74
150.051	373.653
154.993	306.548
159.931	169.327
164.867	94.3005
169.8	71.9963
174.729	20.0012
179.655	1.12695
184.579	16.29
189.499	180.197
194.416	360.555
199.331	480.303
204.242	707.321
209.15	610.698
214.055	443.998
218.957	506.999
223.856	985.69
228.752	2065.05
233.645	3626.27
238.535	5081.89
243.422	1890.98
248.306	653.849
253.187	704.08
258.065	873.653
262.94	737.255
267.812	885.583
272.681	1325.92
277.547	1296.12
282.41	436.7
287.27	221.204
292.127	533.821
296.981	889.561
301.832	1012.04
306.68	654.743
311.526	977.976
316.368	1666.69
321.207	2926.98
326.043	3524.34
330.877	5193.25
335.707	7838.48
340.535	11294
345.359	9483.74
350.181	4224.83
355	2058.04
359.815	1090.22
364.628	752.016
369.438	659.244
374.245	771.501
379.049	1080.79
383.851	1045.21
388.649	685.733
393.444	464.342
398.237	456.031
403.026	305.794
407.813	138.641
412.597	244.738
417.378	167.078
422.156	31.6162
426.931	70.6763
431.703	35.9536
436.473	13.4334
441.239	10.8543
446.003	23.165
450.764	57.511
455.522	178.923
460.277	199.39
465.029	212.903
469.779	350.452
474.525	238.03
479.269	77.6257
484.01	9.23438
488.748	30.2031
493.484	35.1831
498.216	67.6997
502.946	4.99854
507.672	13.3733
512.396	41.5947
517.118	153.716
521.836	204.868
526.551	386.06
531.264	517.28
535.974	952.556
540.681	1302.01
545.386	811.473
550.087	540.892
554.786	459.247
559.482	343.534
564.175	348.747
568.866	353.393
573.553	404.144
578.238	454.139
582.921	368.717
587.6	298.158
592.277	277.906
596.95	267.149
601.622	325.163
606.29	366.666
610.956	315.083
615.618	323.416
620.279	475.655
624.936	587.401
629.591	753.831
634.243	897.64
638.892	1203.5
643.538	1801.19
648.182	2866.03
652.823	5689.27
657.462	10714
662.097	16000.8
666.73	14211.7
671.36	10384.2
675.988	13318.4
680.613	20673.5
685.235	24907.6
689.854	15931.5
694.471	7032.38
699.085	3378.14
703.697	1842.83
708.305	1251.72
712.911	856.278
717.515	649.613
722.115	382.468
726.713	315.068
731.309	303.584
735.902	139.019
740.492	120.375
745.079	65.6558
749.664	138.865
754.246	109.007
758.825	116.084
763.402	11.1011
767.976	5.91382
772.548	42.0242
777.117	5.02368
781.683	21.0671
786.247	36.2546
790.808	2.33057
795.366	13.7529
799.922	9.96143
804.475	19.1213
809.026	25.9123
813.574	47.2539
818.119	36.0283
822.662	13.2393
827.202	16.4653
831.74	16.7241
836.275	3.97998
840.807	15.6396
845.337	56.7407
849.864	161.184
854.389	256.474
858.911	280.275
863.431	216.935
867.948	122.678
872.462	62.5112
876.974	75.4429
881.483	109.485
885.99	82.6367
890.494	74.2353
894.996	188.323
899.495	80.1802
903.991	101.411
908.485	249.597
912.977	273.887
917.466	382.657
921.952	550.892
926.436	943.586
930.917	1794.52
935.396	2641.3
939.872	2650.11
944.346	1777.86
948.817	1056.73
953.286	869.865
957.752	627.418
962.216	616.351
966.677	653.551
971.136	803.044
975.592	961.54
980.045	1202.7
984.497	1773.13
988.945	2727.84
993.392	4615.87
997.835	8946.15
1002.28	19664.7
1006.72	40090.4
1011.15	51415
1015.59	29756.2
1020.02	15521.7
1024.45	11186.8
1028.87	9837.69
1033.3	7801.83
1037.72	5058.22
1042.14	3196.43
1046.55	1951.57
1050.97	1297.09
1055.38	826.126
1059.79	626.582
1064.2	478.432
1068.6	368.478
1073	252.935
1077.4	308.734
1081.8	259.834
1086.19	107.175
1090.59	220.935
1094.97	170.964
1099.36	44.8691
1103.75	150.17
1108.13	134.826
1112.51	165.513
1116.89	187.319
1121.26	162.066
1125.64	126.207
1130.01	159.804
1134.38	213.496
1138.74	108.121
1143.11	134.57
1147.47	74.0068
1151.83	27.5625
1156.18	27.9292
1160.54	21.3023
1164.89	87.6543
1169.23	11.0308
1173.58	84.2163
1177.93	46.4805
1182.27	59.5894
1186.61	8.62109
1190.95	57.5454
1195.28	76.2324
1199.61	29.4653
1203.94	8.39404
1208.27	22.9868
1212.6	43.7285
1216.92	77.4409
1221.24	33.0435
1225.56	55.3726
1229.88	44.3696
1234.19	54.9922
1238.5	29.5547
1242.81	33.5864
1247.12	3.55322
1251.42	1.75098
1255.72	110.716
1260.02	77.0283
1264.32	102.17
1268.62	79.3384
1272.91	101.558
1277.2	147.197
1281.49	137.085
1285.78	100.503
1290.06	181.244
1294.34	248.214
1298.62	236.708
1302.9	62.6919
1307.17	206.162
1311.44	204.477
1315.71	120.256
1319.98	155.776
1324.25	154.894
1328.51	109.154
1332.77	85.7886
1337.03	192.532
1341.29	106.465
1345.54	72.5239
1349.79	135.546
1354.04	90.1021
1358.29	160.353
1362.54	65.9414
1366.78	110.893
1371.02	198.082
1375.26	53.875
1379.49	114.336
1383.73	135.402
1387.96	67.6123
1392.19	67.7241
1396.42	67.9028
1400.64	196.254
1404.86	50.6626
1409.09	58.9863
1413.3	140.958
1417.52	49.9629
1421.73	95.9585
1425.94	62.9399
1430.15	18.9058
1434.36	80.1348
1438.57	129.385
1442.77	194.429
1446.97	354.824
1451.17	215.535
1455.37	245.275
1459.56	258.642
1463.75	225.416
1467.94	156.445
1472.13	95.6758
1476.31	131.031
1480.5	117.166
1484.68	251.685
1488.86	171.154
1493.03	24.6992
1497.21	103.347
1501.38	85.2124
1505.55	51.727
1509.72	124.694
1513.88	135.475
1518.05	81.5532
1522.21	40.9268
1526.37	157.763
1530.53	135.517
1534.68	80.9273
1538.84	160.166
1542.99	201.735
1547.13	188.216
1551.28	134.534
1555.42	119.634
1559.57	164.463
1563.71	0
