Measurement: Raman, 514 nm, ccw, Raman Data Processed
Mineral: Enstatite
Rruff sample: R070418
Ideal chemistry: MgSiO_3_
Locality: India
Source: Michael Scott
Description: Brown translucent fragments
Measured chemistry: (Mg_0.86_Fe_0.14_)_Î£=1_Si_1.00_O_3_; trace amounts of Al, Ca, Mn
Pin_id: L01848
Orientation: Laser parallel to a* (1 0 0). Fiducial mark perpendicular to laser is parallel to b [0 1 0]
Raman shift (cm-1)	intensity
115.372	0
120.336	971.006
125.296	5940.4
130.253	12161
135.207	4238.29
140.158	1841.81
145.106	1006.9
150.051	850.241
154.993	191.431
159.931	1.46436
164.867	1586.42
169.8	518.759
174.729	38.2778
179.655	299.001
184.579	906.376
189.499	2587.54
194.416	2158.67
199.331	1670.35
204.242	927.82
209.15	77.9673
214.055	65.1079
218.957	641.585
223.856	2587.13
228.752	6542.84
233.645	14212.7
238.535	12344.5
243.422	4342.3
248.306	1196.89
253.187	197.237
258.065	513.345
262.94	115.555
267.812	156.94
272.681	190.522
277.547	137.102
282.41	78.7017
287.27	511.318
292.127	1576.17
296.981	3121.97
301.832	2896.65
306.68	3073.08
311.526	3653.63
316.368	5752.21
321.207	7203.98
326.043	8847.21
330.877	16544.9
335.707	33167.1
340.535	47553
345.359	30428.4
350.181	15239.4
355	9594.03
359.815	6989.81
364.628	5135
369.438	5391.8
374.245	7141.51
379.049	8372.1
383.851	7483.53
388.649	9585.77
393.444	15129.8
398.237	20091.7
403.026	18720
407.813	15085.6
412.597	11676.8
417.378	9098.27
422.156	6300.39
426.931	3307.04
431.703	2542.11
436.473	3586.33
441.239	3744.25
446.003	1653.86
450.764	857.168
455.522	753.188
460.277	1117.05
465.029	1020.33
469.779	424.439
474.525	348.699
479.269	45.3433
484.01	3.3833
488.748	108.313
493.484	129.506
498.216	95.0869
502.946	83.1357
507.672	684.859
512.396	2062.2
517.118	4607.11
521.836	6197.45
526.551	5221.89
531.264	3870.23
535.974	5019.37
540.681	5208.3
545.386	4687.04
550.087	4418.65
554.786	2429.05
559.482	1011.38
564.175	673.434
568.866	736.757
573.553	611.931
578.238	651.855
582.921	347.522
587.6	378.932
592.277	359.079
596.95	175.026
601.622	126.571
606.29	66.874
610.956	19.2305
615.618	190.155
620.279	502.067
624.936	1061.57
629.591	1119.13
634.243	903.442
638.892	1498.31
643.538	2697.78
648.182	4807.84
652.823	9495.97
657.462	18774.6
662.097	26144.4
666.73	18119.7
671.36	14101.4
675.988	18793.7
680.613	28954.6
685.235	27700
689.854	14284
694.471	6490.59
699.085	3353.71
703.697	2127.36
708.305	1150.89
712.911	828.752
717.515	657.428
722.115	1535.17
726.713	440.44
731.309	594.255
735.902	896.612
740.492	1118.31
745.079	1471.65
749.664	2260.38
754.246	1585.58
758.825	497.845
763.402	213.947
767.976	44.8955
772.548	34.9785
777.117	268.228
781.683	229.992
786.247	195.727
790.808	123.348
795.366	46.7861
799.922	18.5332
804.475	6.04785
809.026	123.065
813.574	74.957
818.119	66.6543
822.662	149.182
827.202	103.56
831.74	201.815
836.275	236.976
840.807	533.062
845.337	743.097
849.864	1355.1
854.389	2600.09
858.911	3689.09
863.431	3198.13
867.948	2026.21
872.462	1225.37
876.974	924.625
881.483	856.247
885.99	745.671
890.494	981.626
894.996	1226.8
899.495	1324.16
903.991	1215.56
908.485	996.01
912.977	874.205
917.466	1301.77
921.952	2391.39
926.436	4192.53
930.917	4793.73
935.396	4818.5
939.872	4512.22
944.346	3482.75
948.817	2369.3
953.286	1552.68
957.752	1109.81
962.216	907.796
966.677	755.755
971.136	621.566
975.592	601.684
980.045	1031.97
984.497	1668.96
988.945	2996.33
993.392	5525.33
997.835	10678
1002.28	19116.2
1006.72	29219
1011.15	32255.5
1015.59	30881.1
1020.02	32222.1
1024.45	32272.1
1028.87	30333
1033.3	24547.8
1037.72	16564
1042.14	10755.9
1046.55	6903.87
1050.97	4658.19
1055.38	3422.47
1059.79	2412.57
1064.2	1482.81
1068.6	979.834
1073	846.981
1077.4	675.141
1081.8	880.006
1086.19	706.915
1090.59	647.489
1094.97	448.6
1099.36	498.269
1103.75	295.808
1108.13	489.317
1112.51	309.107
1116.89	391.595
1121.26	350.157
1125.64	404.778
1130.01	343.474
1134.38	149.223
1138.74	177.006
1143.11	70.8027
1147.47	57.5557
1151.83	47.7705
1156.18	36.6973
1160.54	74.0469
1164.89	71.2881
1169.23	81.3848
1173.58	67.3525
1177.93	147.166
1182.27	58.207
1186.61	16.9346
1190.95	39.1065
1195.28	14.2412
1199.61	73.5
1203.94	36.7627
1208.27	76.2363
1212.6	19.0771
1216.92	47.2422
1221.24	39.585
1225.56	49.4922
1229.88	20.2529
1234.19	57.1631
1238.5	110.544
1242.81	175.476
1247.12	351.965
1251.42	241.01
1255.72	298.655
1260.02	371.915
1264.32	541.013
1268.62	651.128
1272.91	720.059
1277.2	715.044
1281.49	621.846
1285.78	475.718
1290.06	737.811
1294.34	812.157
1298.62	576.328
1302.9	756.054
1307.17	854.317
1311.44	1048.58
1315.71	911.518
1319.98	775.454
1324.25	762.133
1328.51	386.05
1332.77	264.272
1337.03	234.819
1341.29	290.089
1345.54	207.493
1349.79	216.685
1354.04	248.516
1358.29	110.571
1362.54	149.975
1366.78	139.96
1371.02	357.44
1375.26	137.251
1379.49	276.239
1383.73	429.111
1387.96	319.695
1392.19	262.431
1396.42	221.929
1400.64	129.451
1404.86	258.962
1409.09	266.486
1413.3	286.769
1417.52	171.695
1421.73	269.475
1425.94	259.05
1430.15	365.568
1434.36	670.893
1438.57	1049.03
1442.77	1403.52
1446.97	1445.36
1451.17	1758.15
1455.37	1732.49
1459.56	1533.4
1463.75	1345.65
1467.94	724.301
1472.13	728.019
1476.31	636.594
1480.5	561.085
1484.68	425.66
1488.86	320.376
1493.03	33.3018
1497.21	14.4961
1501.38	97.0469
1505.55	28.7861
1509.72	145.173
1513.88	221.752
1518.05	5.24121
1522.21	139.238
1526.37	146.367
1530.53	82.3096
1534.68	181.987
1538.84	208.856
1542.99	109.839
1547.13	242.014
1551.28	158.163
1555.42	149.637
1559.57	181.637
1563.71	0
