Measurement: Raman, 514 nm, ccw, Raman Data Processed
Mineral: Enstatite
Rruff sample: R070418
Ideal chemistry: MgSiO_3_
Locality: India
Source: Michael Scott
Description: Brown translucent fragments
Measured chemistry: (Mg_0.86_Fe_0.14_)_Î£=1_Si_1.00_O_3_; trace amounts of Al, Ca, Mn
Pin_id: L00897
Orientation: Laser parallel to b* (0 1 0). Fiducial mark perpendicular to laser is parallel to c [0 0 1]
Raman shift (cm-1)	intensity
41.8	0
46.809	36.7136
51.816	90.8125
56.819	203.929
61.819	217.838
66.816	443.686
71.81	448.884
76.8	330.003
81.788	140.01
86.772	26.5092
91.754	123.392
96.732	71.7081
101.707	533.194
106.679	1422.33
111.648	1236.71
116.613	2227.31
121.576	5043.01
126.535	9500.96
131.492	9554.35
136.445	6168.63
141.395	5576.89
146.343	5224.01
151.287	4045.71
156.228	2914.26
161.166	2379.66
166.1	2241.87
171.032	2019.88
175.961	1852.67
180.887	1927.19
185.809	2127.43
190.729	2278.19
195.645	2194.73
200.559	1977.88
205.469	1684.51
210.376	1472.12
215.281	1542.11
220.182	1914.32
225.08	3177.22
229.976	5573.31
234.868	7904.04
239.757	5086.45
244.643	2025.9
249.527	1207.97
254.407	1048.11
259.284	1222.2
264.158	875.161
269.029	1220.95
273.898	1207.51
278.763	829.813
283.625	743.843
288.485	1272.58
293.341	1842.05
298.194	2027.23
303.045	1974.08
307.892	1778.56
312.736	2148.63
317.578	2944.29
322.417	4498.55
327.252	7570.35
332.085	14100.7
336.914	23050.2
341.741	23795.6
346.565	14442.5
351.386	7536.44
356.204	4952.09
361.019	3367.53
365.831	2645.3
370.64	2823.61
375.447	3608.29
380.25	3811.42
385.05	3181.28
389.848	3451.98
394.643	4261.05
399.434	4872.28
404.223	4793.64
409.009	4545.1
413.792	4221.61
418.573	2983.16
423.35	1691.69
428.124	1060.2
432.896	1437.63
437.665	2228.96
442.431	1731.14
447.194	689.155
451.954	476.957
456.711	550.519
461.465	576.611
466.217	356.632
470.966	244.155
475.712	18.8823
480.455	47.6313
485.195	47.3975
489.932	185.593
494.667	232.53
499.399	309.609
504.128	185.059
508.854	80.6226
513.577	596.601
518.297	1094.3
523.015	1004.61
527.73	1011.54
532.442	1408.92
537.151	2084.59
541.858	1838.51
546.561	1446.57
551.262	1026.8
555.96	574.16
560.656	441.579
565.348	619.021
570.038	821.46
574.725	1052.87
579.409	797.233
584.091	508.518
588.769	475.705
593.445	385.772
598.119	161.699
602.789	109.376
607.457	205.688
612.122	170.65
616.784	280.263
621.443	428.821
626.1	668.987
630.754	1003.08
635.405	1164.19
640.054	1845.27
644.7	3388
649.343	6455.56
653.983	13030.1
658.621	23018.5
663.256	25166.9
667.888	18213.5
672.518	18020.3
677.144	27141.4
681.769	37093.7
686.39	29403.2
691.009	14524
695.625	6812.25
700.238	3839.34
704.849	2260.87
709.457	1650.52
714.062	1192.61
718.665	957.367
723.265	746.796
727.863	599.899
732.457	639.677
737.049	472.782
741.639	550.734
746.225	529.268
750.81	595.422
755.391	330.696
759.97	189.733
764.546	68.6699
769.12	34.3091
773.69	42.165
778.259	35.9155
782.824	53.563
787.387	130.051
791.948	42.5093
796.506	87.8852
801.061	58.0723
805.613	5.84033
810.163	64.7207
814.711	116.32
819.255	157.136
823.797	65.1904
828.337	38.7642
832.874	10.501
837.408	156.71
841.94	255.879
846.469	444.025
850.996	1192.17
855.52	2234.33
860.041	2449.51
864.56	1901.75
869.077	1219.04
873.59	714.415
878.101	502.949
882.61	379.662
887.116	403.594
891.62	434.697
896.121	497.941
900.619	427.574
905.115	310.066
909.608	400.897
914.099	402.405
918.587	776.394
923.073	1372.65
927.556	2241.57
932.037	3256.69
936.515	3717.62
940.991	3425.34
945.464	2654.19
949.934	1770.63
954.403	1364.62
958.868	1322.34
963.331	1064.2
967.792	1044.85
972.25	1003.94
976.705	1418.61
981.158	1871.85
985.609	2743.75
990.057	4971.15
994.503	9309.99
998.946	18634.3
1003.39	36494
1007.83	55302.2
1012.26	45135.8
1016.69	27580.8
1021.12	19765.3
1025.55	15711.5
1029.98	12824
1034.4	9260.71
1038.82	6334.85
1043.24	4118.47
1047.66	2787.83
1052.07	1816.79
1056.48	1417.58
1060.89	856.659
1065.3	801.948
1069.7	556.74
1074.1	346.197
1078.5	348.129
1082.9	215.377
1087.29	308.753
1091.68	209.008
1096.07	141.185
1100.46	193.629
1104.84	300.693
1109.23	180.77
1113.61	265.908
1117.98	241.424
1122.36	213.456
1126.73	194.488
1131.1	186.969
1135.47	182.773
1139.83	170.522
1144.19	62.294
1148.56	75.0889
1152.91	19.4131
1157.27	12.7148
1161.62	97.1865
1165.97	114.495
1170.32	128.281
1174.67	100.78
1179.01	16.4443
1183.35	131.785
1187.69	23.0752
1192.03	105.205
1196.36	43.6455
1200.7	19.0781
1205.03	17.8232
1209.35	119.792
1213.68	43.3145
1218	36.8955
1222.32	32.9775
1226.64	56.3223
1230.95	65.6416
1235.27	69.6738
1239.58	48.998
1243.89	27.208
1248.19	7.58887
1252.5	84.7891
1256.8	78.207
1261.1	101.964
1265.4	42.1143
1269.69	186.583
1273.98	107.294
1278.27	93.335
1282.56	210.469
1286.85	168.998
1291.13	130.414
1295.41	275.909
1299.69	256.826
1303.97	270.469
1308.24	252.09
1312.51	264.474
1316.78	167.651
1321.05	168.065
1325.31	72.7588
1329.58	237.534
1333.84	236.258
1338.1	122.883
1342.35	184.08
1346.61	288.789
1350.86	146.482
1355.11	199.685
1359.35	218.221
1363.6	165.38
1367.84	336.743
1372.08	101.778
1376.32	322.903
1380.55	119.124
1384.79	202.892
1389.02	76.2295
1393.25	112.695
1397.47	135.04
1401.7	188.392
1405.92	172.85
1410.14	87.2676
1414.36	176.886
1418.57	180.035
1422.79	136.948
1427	145.592
1431.21	218.788
1435.41	179.352
1439.62	100.004
1443.82	248.022
1448.02	182.401
1452.22	180.423
1456.41	202.102
1460.61	67.6103
1464.8	196.703
1468.99	50.3252
1473.17	249.335
1477.36	178.485
1481.54	79.7666
1485.72	215.386
1489.9	51.21
1494.08	164.59
1498.25	171.269
1502.42	34.4375
1506.59	74.0156
1510.76	62.249
1514.93	73.0439
1519.09	185.389
1523.25	158.302
1527.41	10.8838
1531.57	94.3467
1535.72	160.63
1539.87	36.1357
1544.02	214.242
1548.17	76.7178
1552.32	66.4912
1556.46	145.451
1560.6	93.8662
