Measurement: Raman, 514 nm, ccw, Raman Data Processed
Mineral: Enstatite
Rruff sample: R050644
Ideal chemistry: MgSiO_3_
Locality: Morogoro, Tanzania
Source: Jibamitra Ganguly
Description: Light brown crystal fragment
Measured chemistry: (Mg_0.90_Fe_0.10_)SiO_3_
Pin_id: L01041
Orientation: Laser parallel to -a* (-1 0 0). Fiducial mark perpendicular to laser is parallel to -b [0 -1 0]
Raman shift (cm-1)	intensity
113.208	0
118.134	730.947
123.058	4539.1
127.979	14529.2
132.898	10629.2
137.814	5736.68
142.728	3692.58
147.639	1886.15
152.549	706.109
157.455	300.69
162.359	64.6992
167.261	15.8887
172.161	36.4785
177.058	116.707
181.952	108.91
186.845	387.156
191.734	712.82
196.622	733.438
201.507	806.576
206.389	338.781
211.269	55.2695
216.147	92.1719
221.022	145.932
225.895	801.262
230.765	1889.17
235.633	2691.3
240.498	1006.78
245.361	152.225
250.222	61.8965
255.08	52.6855
259.936	60.2656
264.789	3.8125
269.64	81.9551
274.488	35.7852
279.334	49.4609
284.178	16.6465
289.019	266.039
293.857	495.184
298.693	562.697
303.527	323.934
308.358	359.297
313.187	653.148
318.013	1197.45
322.837	2528.97
327.659	5991.11
332.478	13307.8
337.294	23289.6
342.108	19281.5
346.92	9298.27
351.729	4436.19
356.535	2681.15
361.34	2006.6
366.141	1512.61
370.94	1425.56
375.737	1610.59
380.531	1456.67
385.323	1783.81
390.113	3013.03
394.9	4486.52
399.684	5066.84
404.466	4579.77
409.245	4385.51
414.022	4084.73
418.797	3444.62
423.569	2093.89
428.338	1624.69
433.105	2286.67
437.87	3843.26
442.632	3067.32
447.391	1240.3
452.149	604.947
456.903	323.955
461.655	435.096
466.405	80.4375
471.152	183.174
475.897	300.902
480.639	23.5957
485.378	22.2871
490.116	196.955
494.85	50.7695
499.582	102.244
504.312	214.69
509.039	59.6172
513.764	362.871
518.486	526.346
523.206	450.131
527.923	568.055
532.638	884.098
537.35	675.488
542.059	681.664
546.766	548.203
551.471	332.318
556.173	387.715
560.873	130.272
565.57	253.982
570.264	235.699
574.957	123.416
579.646	57.1562
584.333	235.656
589.018	145.236
593.7	188.906
598.379	106.662
603.056	176.492
607.73	195.394
612.402	97.3809
617.072	362.162
621.739	579.295
626.403	797.215
631.065	1204.64
635.724	1270.75
640.381	1694.27
645.035	2627.72
649.687	4466.05
654.336	9121.31
658.983	15173.9
663.627	13603.8
668.268	9451.86
672.907	10114.6
677.544	15630.6
682.178	20159.5
686.809	13769.2
691.438	6361.21
696.065	3068.72
700.688	2018.4
705.31	1378.38
709.929	921.365
714.545	787.711
719.158	581.055
723.77	422.961
728.378	715.824
732.984	653.582
737.588	287.232
742.189	339.772
746.787	348.119
751.383	400.203
755.976	57.6523
760.567	416.391
765.155	96.6914
769.741	134.93
774.324	230.43
778.904	155.555
783.482	102.711
788.058	1.19922
792.631	91.9688
797.201	6.26562
801.769	5.91016
806.334	207.648
810.897	96.9531
815.457	124.164
820.014	6.93359
824.569	1.10547
829.122	160.246
833.671	281.328
838.219	210.867
842.763	211.758
847.306	804.707
851.845	1367.6
856.382	1643.56
860.917	1254.43
865.448	822.184
869.978	238.816
874.505	187.336
879.029	209.742
883.55	343.082
888.069	168.375
892.586	71.5117
897.1	70.4453
901.611	54.3711
906.12	18.1172
910.626	313.102
915.129	72.7344
919.63	118.117
924.129	259.031
928.625	555.019
933.118	486.641
937.609	493.098
942.097	356.047
946.582	112.562
951.065	416.711
955.546	66.6328
960.023	256.539
964.499	231.016
968.971	98.8672
973.441	139.621
977.909	399.164
982.374	484.641
986.836	601.199
991.295	837.379
995.753	1267.38
1000.21	2285.52
1004.66	3626.75
1009.11	5208.95
1013.55	5019.57
1018	4944.33
1022.44	5558.02
1026.88	5943.86
1031.32	5091.53
1035.75	3725.25
1040.18	2237.5
1044.61	1283.98
1049.04	713.414
1053.46	692.82
1057.88	645.988
1062.3	638.934
1066.71	149.086
1071.13	566.367
1075.54	418.805
1079.94	404
1084.35	519.18
1088.75	487.496
1093.15	227.758
1097.55	411.191
1101.94	195.258
1106.34	266.914
1110.73	289.164
1115.11	320.887
1119.5	597.215
1123.88	387.441
1128.26	259.902
1132.63	483.766
1137.01	347.512
1141.38	136.902
1145.75	398.047
1150.12	606.137
1154.48	206.059
1158.84	149.391
1163.2	375.062
1167.55	316.328
1171.91	92.8906
1176.26	154.047
1180.61	415.523
1184.95	181.234
1189.29	65.4297
1193.63	161.223
1197.97	117.621
1202.31	128.324
1206.64	327.023
1210.97	60.5234
1215.29	230.219
1219.62	18.0156
1223.94	12.5547
1228.26	93.9648
1232.57	33.2578
1236.89	200.664
1241.2	181.254
1245.51	233.688
1249.81	111.184
1254.12	131.918
1258.42	64.793
1262.72	198.562
1267.01	121.457
1271.3	196.805
1275.59	152.688
1279.88	188.902
1284.17	22.4297
1288.45	129.367
1292.73	285.008
1297.01	86.3633
1301.28	148.875
1305.55	197.504
1309.82	336.539
1314.09	14.625
1318.35	402.84
1322.61	179.07
1326.87	365.969
1331.13	326.25
1335.38	229.312
1339.63	204.629
1343.88	231.031
1348.12	606.785
1352.37	452.012
1356.61	179.59
1360.85	489.68
1365.08	455.098
1369.31	372.891
1373.54	337.848
1377.77	516.82
1381.99	260.867
1386.22	93.6836
1390.43	357.32
1394.65	99.5898
1398.87	360.254
1403.08	231.09
1407.29	246.754
1411.49	169.012
1415.69	307.144
1419.89	387.617
1424.09	421.316
1428.29	128.402
1432.48	274.449
1436.67	459.191
1440.86	664.617
1445.04	396.578
1449.23	854.59
1453.4	502.793
1457.58	476.894
1461.76	487.625
1465.93	299.777
1470.1	469.539
1474.26	319.879
1478.43	674.551
1482.59	888.121
1486.75	297.793
1490.9	454.133
1495.06	345.715
1499.21	434.883
1503.35	476.508
1507.5	500.531
1511.64	583.84
1515.78	354.269
1519.92	447.078
1524.05	539.359
1528.18	171.863
1532.31	308.844
1536.44	244.57
1540.56	46.293
1544.69	371.562
1548.8	184.133
1552.92	546.961
1557.03	354.031
1561.14	75.4766
1565.25	599.707
1569.36	42.7695
