Measurement: Raman, 514 nm, ccw, Raman Data Processed
Mineral: Enstatite
Rruff sample: R060744
Ideal chemistry: MgSiO_3_
Locality: Orissa, India
Source: Herb Obodda
Description: Brown transparent fragment
Measured chemistry: (Mg_0.85_Fe^2+^_0.13_Fe^3+^_0.01_Mn_0.01_)_Σ=1_(Si_0.99_Al_0.01_)_Σ=1_O_3_; trace amounts of Ca; Fe^2+^ and Fe^3+^ splitted by charge balance
Pin_id: L01523
Orientation: Laser parallel to c* (0 0 1). Fiducial mark perpendicular to laser is parallel to -a [-1 0 0]
Raman shift (cm-1)	intensity
113.208	0
118.134	0.269287
123.058	101.659
127.979	219.462
132.898	388.086
137.814	915.115
142.728	1196.04
147.639	886.603
152.549	368.417
157.455	105.335
162.359	90.6262
167.261	67.0659
172.161	24.5867
177.058	34.3307
181.952	4.09717
186.845	80.9746
191.734	156.519
196.622	300.473
201.507	511.127
206.389	411.466
211.269	496.116
216.147	628.633
221.022	1132.75
225.895	2269.73
230.765	4552.16
235.633	4897.68
240.498	1912.36
245.361	864.382
250.222	813.533
255.08	800.809
259.936	874.41
264.789	1173.39
269.64	1584.96
274.488	1204.93
279.334	461.89
284.178	452.059
289.019	828.412
293.857	1275.51
298.693	1096.88
303.527	920.082
308.358	1492.13
313.187	2679.13
318.013	3703.31
322.837	3915.53
327.659	5560.44
332.478	8856.91
337.294	12315.7
342.108	9605.32
346.92	4738.22
351.729	2503.25
356.535	1609.82
361.34	1118.82
366.141	1191.54
370.94	1324.42
375.737	1730.4
380.531	1470.46
385.323	880.595
390.113	648.779
394.9	563.019
399.684	437.315
404.466	392.67
409.245	320.123
414.022	208.671
418.797	88.3064
423.569	30.0071
428.338	17.2956
433.105	55.282
437.87	16.8189
442.632	65.3757
447.391	113.988
452.149	210.67
456.903	181.417
461.655	277.245
466.405	417.599
471.152	304.322
475.897	96.471
480.639	54.6548
485.378	41.8381
490.116	23.9099
494.85	50.294
499.582	6.86279
504.312	70.3386
509.039	106.342
513.764	259.367
518.486	286.551
523.206	493.862
527.923	662.348
532.638	1304.99
537.35	1535.8
542.059	954.724
546.766	677.7
551.471	542.69
556.173	421.698
560.873	378.747
565.57	340.985
570.264	511.067
574.957	445.179
579.646	395.226
584.333	299.094
589.018	302.127
593.7	311.152
598.379	217.163
603.056	248.159
607.73	354.136
612.402	326.755
617.072	479.016
621.739	548.126
626.403	848.537
631.065	1054.87
635.724	1320.23
640.381	1984.73
645.035	3444.17
649.687	6175.01
654.336	12334.9
658.983	19028.4
663.627	16053.2
668.268	12559.3
672.907	16587.3
677.544	26351.2
682.178	29456.2
686.809	16989
691.438	7756.43
696.065	3823.57
700.688	2259.03
705.31	1484.07
709.929	1087.24
714.545	778.441
719.158	676.609
723.77	439.201
728.378	343.822
732.984	313.83
737.588	278.772
742.189	225.653
746.787	200.472
751.383	164.232
755.976	99.9368
760.567	24.5955
765.155	17.2248
769.741	35.1025
774.324	29.5938
778.904	22.7319
783.482	18.7837
788.058	11.2651
792.631	28.396
797.201	31.6436
801.769	29.582
806.334	70.1111
810.897	10.9551
815.457	18.8682
820.014	15.4329
824.569	46.189
829.122	16.1758
833.671	1.41992
838.219	22.0139
842.763	39.553
847.306	41.1631
851.845	188.823
856.382	217.538
860.917	186.313
865.448	174.156
869.978	103.073
874.505	72.0708
879.029	51.1555
883.55	74.332
888.069	41.6072
892.586	55.9861
897.1	110.468
901.611	126.997
906.12	199.856
910.626	252.955
915.129	387.869
919.63	483.981
924.129	860.44
928.625	1587.88
933.118	2528.32
937.609	2821.36
942.097	2423.09
946.582	1686.3
951.065	1220
955.546	998.207
960.023	897.415
964.499	909.722
968.971	940.914
973.441	1235.46
977.909	1563.3
982.374	2140.4
986.836	3441.78
991.295	6125.45
995.753	12031.4
1000.21	24887.6
1004.66	47968.1
1009.11	55551.9
1013.55	31380.8
1018	17114.1
1022.44	11437.5
1026.88	8726.23
1031.32	6716.12
1035.75	4675.65
1040.18	3312.97
1044.61	2193.18
1049.04	1590.23
1053.46	1161.86
1057.88	844.097
1062.3	603.174
1066.71	492.608
1071.13	462.86
1075.54	356.378
1079.94	291.776
1084.35	298.918
1088.75	217.996
1093.15	202.868
1097.55	242.608
1101.94	151.716
1106.34	234.418
1110.73	179.608
1115.11	233.148
1119.5	296.799
1123.88	358.822
1128.26	164.501
1132.63	142.419
1137.01	113.764
1141.38	133.364
1145.75	61.5237
1150.12	95.7437
1154.48	38.5745
1158.84	74.074
1163.2	20.6081
1167.55	67.5203
1171.91	46.3611
1176.26	35.9817
1180.61	30.4311
1184.95	105.17
1189.29	39.6868
1193.63	19.8684
1197.97	4.71069
1202.31	45.1228
1206.64	53.2812
1210.97	21.4002
1215.29	2.71435
1219.62	51.6731
1223.94	61.1921
1228.26	21.4705
1232.57	27.3103
1236.89	20.8166
1241.2	46.4341
1245.51	0.088623
1249.81	77.896
1254.12	24.969
1258.42	113.692
1262.72	36.9895
1267.01	95.2444
1271.3	38.0635
1275.59	29.373
1279.88	91.3726
1284.17	58.053
1288.45	87.4443
1292.73	98.9407
1297.01	130.91
1301.28	150.459
1305.55	215.112
1309.82	169.988
1314.09	53.7932
1318.35	97.061
1322.61	97.4221
1326.87	125.749
1331.13	53.8259
1335.38	170.648
1339.63	107.046
1343.88	6.51587
1348.12	189.944
1352.37	169.967
1356.61	81.5713
1360.85	106.294
1365.08	139.495
1369.31	94.4265
1373.54	118.95
1377.77	82.7214
1381.99	123.218
1386.22	115.56
1390.43	58.1453
1394.65	83.6042
1398.87	143.156
1403.08	61.9595
1407.29	85.3367
1411.49	59.5063
1415.69	92.8533
1419.89	71.2195
1424.09	74.5027
1428.29	99.813
1432.48	94.0266
1436.67	118.436
1440.86	159.372
1445.04	123.684
1449.23	34.3955
1453.4	115.545
1457.58	89.5979
1461.76	59.5547
1465.93	93.6882
1470.1	81.4097
1474.26	92.7158
1478.43	47.0454
1482.59	171.669
1486.75	67.9004
1490.9	99.8135
1495.06	64.7964
1499.21	39.2293
1503.35	53.9138
1507.5	58.0977
1511.64	52.3635
1515.78	75.7104
1519.92	4.69653
1524.05	100.142
1528.18	63.2197
1532.31	49.5654
1536.44	101.135
1540.56	35.3179
1544.69	33.8486
1548.8	49.063
1552.92	67.0737
1557.03	24.4971
1561.14	131.606
1565.25	61.4292
1569.36	0.126953
