Measurement: Raman, 514 nm, ccw, Raman Data Processed
Mineral: Enstatite
Rruff sample: R070550
Ideal chemistry: MgSiO_3_
Locality: Tanzania
Source: www.multicolour.com
Description: Brown, translucent, vitreous crystal fragment
Measured chemistry: (Mg_0.90_Fe_0.10_)_Î£=1_Si_1.00_O_3_
Pin_id: L01735
Orientation: Laser parallel to -b* (0 -1 0). Fiducial mark perpendicular to laser is parallel to c [0 0 1]
Raman shift (cm-1)	intensity
112.889	0
117.854	948.534
122.816	7885.23
127.775	15325.5
132.73	25478.9
137.683	10669.6
142.633	2526.97
147.579	900.769
152.522	539.386
157.462	415.881
162.4	140.736
167.334	22.5459
172.265	2.56006
177.193	27.4702
182.117	182.816
187.039	638.296
191.958	1172.4
196.874	1260.62
201.787	1478.07
206.696	1196.93
211.603	241.353
216.506	97.2353
221.407	73.6411
226.304	924.614
231.199	2114.42
236.091	4140.74
240.979	3547.27
245.864	606.918
250.747	63.5791
255.626	89.3555
260.503	2.89893
265.376	168.197
270.247	39.4355
275.114	0.393066
279.979	163.122
284.84	152.757
289.699	188.487
294.554	626.685
299.407	1035.7
304.257	976.033
309.103	880.456
313.947	1136.43
318.788	2236.3
323.626	4192.86
328.461	9336.64
333.292	21209
338.121	37291.3
342.947	47812.3
347.771	30286.7
352.591	13239
357.408	7158.09
362.222	4487.64
367.034	3324.41
371.842	2684.71
376.648	2422.08
381.45	2622.26
386.25	3195.09
391.047	4781.71
395.841	7363.01
400.632	9834.89
405.42	9683.27
410.205	8723.08
414.988	8535.27
419.767	7637.04
424.544	5625.89
429.318	3690.99
434.089	4221.52
438.857	6327.49
443.622	7968.08
448.384	4161.29
453.143	1826.14
457.9	1129.64
462.654	916.82
467.405	705.617
472.153	531.32
476.898	275.658
481.64	61.772
486.38	83.6245
491.116	33.8677
495.85	35.0591
500.581	95.0508
505.309	10.876
510.035	38.6743
514.757	149.291
519.477	501.26
524.194	820.238
528.908	925.471
533.62	1060.8
538.328	1584.36
543.034	1392.59
547.737	1015.4
552.437	990.598
557.134	613.422
561.829	279.572
566.521	217.005
571.21	133.297
575.896	197.332
580.58	190.414
585.261	134.477
589.939	273.525
594.614	239.566
599.286	309.605
603.956	304.647
608.623	202.699
613.287	331.763
617.949	551.845
622.608	793.68
627.264	1070.12
631.917	1204.6
636.568	1356.67
641.215	2243.12
645.861	3914.85
650.503	7172.71
655.143	14537.8
659.78	25999.4
664.414	32096.1
669.046	22844.6
673.674	19651.8
678.301	27998.8
682.924	39138.8
687.545	36847
692.163	18639.3
696.778	8327.18
701.391	4431.04
706.001	2630.88
710.609	1891.69
715.213	1322.45
719.815	836.157
724.415	660.819
729.011	494.435
733.606	409.005
738.197	241.531
742.786	304.016
747.372	162.459
751.955	251.864
756.536	79.2324
761.114	15.4268
765.69	7.88086
770.262	109.289
774.833	5.11914
779.4	30.1982
783.965	110.311
788.528	30.6943
793.087	28.2881
797.645	39.8662
802.199	103.233
806.751	43.0205
811.3	91.1103
815.847	17.6973
820.391	0.482422
824.933	19.3467
829.471	156.788
834.008	78.8867
838.541	263.015
843.073	468.178
847.601	1028.38
852.127	2429.64
856.65	3638.95
861.171	3016.33
865.69	1809.78
870.205	1015.3
874.718	500.913
879.229	312.61
883.737	288.403
888.242	134.297
892.745	140.298
897.246	180.964
901.743	180.12
906.239	90.5147
910.731	133.273
915.221	253.614
919.709	158.596
924.194	318.344
928.677	743.414
933.157	877.862
937.634	948.947
942.109	748.93
946.582	472.019
951.052	325.915
955.519	280.649
959.984	273.754
964.447	72.1914
968.906	100.387
973.364	73.8555
977.819	179.622
982.271	276.756
986.721	524.216
991.169	1052.04
995.614	2032.21
1000.06	3919.63
1004.5	6397.32
1008.93	9254.3
1013.37	10261.5
1017.8	10306
1022.23	11477.8
1026.66	12031.8
1031.09	11327
1035.51	8515.57
1039.93	5066.36
1044.35	3002.48
1048.76	1585.83
1053.17	1001.7
1057.58	668.273
1061.99	547.547
1066.4	338.906
1070.8	284.198
1075.2	282.295
1079.6	213.472
1084	224.341
1088.39	277.438
1092.78	120.916
1097.17	265.873
1101.56	305.459
1105.94	232.637
1110.32	330.932
1114.7	473.182
1119.08	395.304
1123.45	403.216
1127.82	229.27
1132.19	265.974
1136.56	315.688
1140.92	204.962
1145.29	219.782
1149.65	223.517
1154	9.30566
1158.36	19.0059
1162.71	188.676
1167.06	146.308
1171.41	79.374
1175.76	261.831
1180.1	104.367
1184.44	56.7588
1188.78	66.0518
1193.11	78.8232
1197.45	57.8672
1201.78	118.188
1206.11	99.2559
1210.43	34.9277
1214.76	160.487
1219.08	49.7842
1223.4	17.3213
1227.72	3.11133
1232.03	24.5605
1236.35	21.8047
1240.66	97.7363
1244.96	187.274
1249.27	77.4658
1253.57	59.3691
1257.88	206.901
1262.17	37.2598
1266.47	233.442
1270.76	120.657
1275.06	125.445
1279.35	81.0449
1283.63	165.453
1287.92	309.707
1292.2	278.776
1296.48	228.636
1300.76	288.295
1305.04	335.749
1309.31	392.982
1313.58	311.012
1317.85	394.535
1322.12	330.423
1326.38	198.557
1330.64	111.846
1334.9	112.639
1339.16	187.576
1343.41	81.0098
1347.67	191.342
1351.92	91.0557
1356.17	154.885
1360.41	86.1846
1364.66	210.892
1368.9	88.9414
1373.14	194.278
1377.38	44.2783
1381.61	213.322
1385.84	207.365
1390.08	251.953
1394.3	76.5606
1398.53	106.43
1402.75	231.324
1406.97	159.217
1411.19	211.231
1415.41	61.8828
1419.63	235.478
1423.84	119.815
1428.05	245.106
1432.26	236.295
1436.46	434.918
1440.67	346.469
1444.87	646.849
1449.07	692.565
1453.27	773.157
1457.46	664.763
1461.66	526.812
1465.85	473.075
1470.04	466.718
1474.22	349.786
1478.41	395.08
1482.59	443.996
1486.77	424.324
1490.95	262.674
1495.12	253.143
1499.3	224.893
1503.47	105.018
1507.63	172.624
1511.8	181.807
1515.97	32.4658
1520.13	72.7588
1524.29	115.52
1528.45	160.974
1532.61	144.82
1536.76	233.188
1540.91	98.5176
1545.06	181.8
1549.21	162.713
1553.35	202.741
1557.5	314.671
1561.64	48.1377
