Measurement: Raman, 514 nm, ccw, Raman Data Processed
Mineral: Enstatite
Rruff sample: R060630
Ideal chemistry: MgSiO_3_
Locality: unknown
Source: Gemological Institute of America
Description: Tan colored fragment
Measured chemistry: (Mg_0.89_Fe_0.07_Al_0.04_)_Σ=1_(Si_0.96_Al_0.04_)_Σ=1_O_3_
Pin_id: L00984
Orientation: Laser parallel to a* (1 0 0). Fiducial mark perpendicular to laser is parallel to -b [0 -1 0]
Raman shift (cm-1)	intensity
118.134	0
123.058	299.92
127.979	127.811
132.898	1765.53
137.814	4638.79
142.728	5902.93
147.639	3916.84
152.549	3161.41
157.455	1778.49
162.359	1457.44
167.261	1331.25
172.161	1151.06
177.058	402.914
181.952	98.1211
186.845	782.535
191.734	2041.52
196.622	3219.84
201.507	3534.95
206.389	2724.45
211.269	1809.55
216.147	1478.06
221.022	2075.8
225.895	3745.72
230.765	8172.78
235.633	14581.5
240.498	11692.9
245.361	5350.9
250.222	1964.39
255.08	394.4
259.936	385.457
264.789	236.859
269.64	347.131
274.488	123.602
279.334	36.9141
284.178	360.926
289.019	966.797
293.857	1667.1
298.693	2221.61
303.527	1894.12
308.358	1757.06
313.187	2354.5
318.013	3082.69
322.837	4022.26
327.659	5345.58
332.478	8121.14
337.294	12310.4
342.108	19143.3
346.92	23535.6
351.729	23105
356.535	18108.7
361.34	13541.4
366.141	10362.1
370.94	7931.88
375.737	7549.18
380.531	7320.47
385.323	7511.28
390.113	7348.09
394.9	8028.89
399.684	9291.67
404.466	9023.41
409.245	8827.83
414.022	10021.2
418.797	10020.7
423.569	7546.22
428.338	3306.18
433.105	1511.24
437.87	1447.27
442.632	2891.25
447.391	3030.17
452.149	1801.01
456.903	880.59
461.655	471.459
466.405	460.525
471.152	178.873
475.897	269.44
480.639	64.0371
485.378	133.391
490.116	110.596
494.85	11.5625
499.582	93.2168
504.312	462.623
509.039	936.361
513.764	2134.34
518.486	2824.63
523.206	2726.39
527.923	2516.58
532.638	3119.81
537.35	2958.23
542.059	2099.43
546.766	2068.17
551.471	1760.63
556.173	1166.86
560.873	847.676
565.57	648.387
570.264	1496.44
574.957	2469.81
579.646	2054.44
584.333	1245.31
589.018	507.391
593.7	57.6504
598.379	54.9863
603.056	147.957
607.73	56.6348
612.402	64.9785
617.072	15.8379
621.739	235.481
626.403	678.894
631.065	1486.28
635.724	2500.45
640.381	3369.02
645.035	4307.29
649.687	7435.2
654.336	12039.5
658.983	17090.7
663.627	16944
668.268	13858.9
672.907	14180.5
677.544	20466.6
682.178	33002.6
686.809	38366.2
691.438	29322.7
696.065	15616.6
700.688	8622.84
705.31	5831.48
709.929	4126.47
714.545	3011.4
719.158	2487.47
723.77	2106.48
728.378	1764.81
732.984	1851.47
737.588	1614.05
742.189	1573.56
746.787	2156.71
751.383	2684.11
755.976	1876.42
760.567	1065.26
765.155	609.82
769.741	406.887
774.324	96.4434
778.904	208.428
783.482	228.316
788.058	100.023
792.631	202.217
797.201	64.3906
801.769	78.7051
806.334	115.789
810.897	19.3887
815.457	98.5312
820.014	212.758
824.569	304.613
829.122	507.191
833.671	970.529
838.219	1586.65
842.763	2405.58
847.306	2669.35
851.845	2472.97
856.382	1856.48
860.917	1247.89
865.448	1280.4
869.978	934.545
874.505	863.896
879.029	762.541
883.55	792.432
888.069	792.189
892.586	1022.59
897.1	1151.56
901.611	1119.91
906.12	1345.58
910.626	1663.84
915.129	2289.82
919.63	2811.23
924.129	3534.02
928.625	4803.15
933.118	5954.75
937.609	5641.75
942.097	5074.07
946.582	4506.78
951.065	3739.17
955.546	3418.06
960.023	2300.56
964.499	1340.65
968.971	997.365
973.441	1009.72
977.909	1303.05
982.374	2126.72
986.836	3764
991.295	6787.91
995.753	11877.5
1000.21	19202.6
1004.66	27441.4
1009.11	33028.8
1013.55	31729.8
1018	27191.3
1022.44	24288.3
1026.88	23065.8
1031.32	22790.2
1035.75	20647.7
1040.18	16003.4
1044.61	11815.4
1049.04	8072.77
1053.46	5994.76
1057.88	4417.26
1062.3	3062.77
1066.71	2269.91
1071.13	1192.16
1075.54	1158.93
1079.94	732.85
1084.35	671.225
1088.75	453.334
1093.15	279.426
1097.55	155.699
1101.94	162.787
1106.34	299.535
1110.73	102.834
1115.11	478.68
1119.5	684.906
1123.88	617.932
1128.26	312.049
1132.63	160.76
1137.01	178.951
1141.38	46.3691
1145.75	178.44
1150.12	158.078
1154.48	76.6348
1158.84	261.346
1163.2	87.6074
1167.55	50.2598
1171.91	215.084
1176.26	80.3574
1180.61	125.193
1184.95	172.803
1189.29	97.5234
1193.63	95.9648
1197.97	233.213
1202.31	115.781
1206.64	169.959
1210.97	90.1094
1215.29	198.299
1219.62	336.287
1223.94	76.8965
1228.26	215.244
1232.57	179.773
1236.89	211.41
1241.2	142.797
1245.51	326.703
1249.81	61.6992
1254.12	332.801
1258.42	431.055
1262.72	221.461
1267.01	297.043
1271.3	409.035
1275.59	256.699
1279.88	446.004
1284.17	352.18
1288.45	345.684
1292.73	231.672
1297.01	239
1301.28	81.6523
1305.55	342.027
1309.82	977.273
1314.09	449.992
1318.35	129.473
1322.61	478.492
1326.87	460.949
1331.13	432.773
1335.38	434.973
1339.63	528.684
1343.88	481.109
1348.12	585.391
1352.37	316.082
1356.61	360.144
1360.85	358.777
1365.08	447.875
1369.31	302.297
1373.54	300.93
1377.77	469.269
1381.99	203.551
1386.22	335.836
1390.43	112.66
1394.65	466.797
1398.87	544.438
1403.08	557.969
1407.29	464.977
1411.49	155.797
1415.69	215.789
1419.89	331.176
1424.09	273.699
1428.29	484.398
1432.48	125.117
1436.67	576.824
1440.86	79.8203
1445.04	168.918
1449.23	276.246
1453.4	237.742
1457.58	210.473
1461.76	174.941
1465.93	256.484
1470.1	335.262
1474.26	171.281
1478.43	243.684
1482.59	179.461
1486.75	14.4297
1490.9	704.051
1495.06	91.9375
1499.21	187.644
1503.35	132.348
1507.5	113.519
1511.64	63.0938
1515.78	58.4453
1519.92	365.68
1524.05	103.695
1528.18	248.32
1532.31	263.016
1536.44	311.414
1540.56	117.043
1544.69	241.488
1548.8	216.207
1552.92	389.906
1557.03	204.926
1561.14	133.172
1565.25	253.336
1569.36	189.129
