Measurement: Raman, 514 nm, ccw, Raman Data Processed
Mineral: Enstatite
Rruff sample: R070550
Ideal chemistry: MgSiO_3_
Locality: Tanzania
Source: www.multicolour.com
Description: Brown, translucent, vitreous crystal fragment
Measured chemistry: (Mg_0.90_Fe_0.10_)_Î£=1_Si_1.00_O_3_
Pin_id: L01679
Orientation: Laser parallel to c* (0 0 1). Fiducial mark perpendicular to laser is parallel to a [1 0 0]
Raman shift (cm-1)	intensity
112.889	0
117.854	116.654
122.816	95.4788
127.775	119.107
132.73	228.361
137.683	301.553
142.633	323.149
147.579	616.499
152.522	656.064
157.462	653.136
162.4	479.541
167.334	229.786
172.265	85.3911
177.193	143.153
182.117	880.115
187.039	2701.89
191.958	4407.67
196.874	3455.96
201.787	1889.35
206.696	932.528
211.603	538.643
216.506	584.03
221.407	827.685
226.304	1783.6
231.199	4138.73
236.091	6958.19
240.979	4659.15
245.864	1174.16
250.747	185.008
255.626	130.663
260.503	20.8298
265.376	22.2021
270.247	406.674
275.114	692.336
279.979	393.079
284.84	40.5647
289.699	283.559
294.554	1020.46
299.407	1610.46
304.257	1059.37
309.103	891.967
313.947	2050.48
318.788	3841.86
323.626	4380.07
328.461	5408.05
333.292	10117.8
338.121	17379.2
342.947	17623.4
347.771	9943.14
352.591	4462.31
357.408	2382.26
362.222	1635.95
367.034	1546.84
371.842	2070.41
376.648	3498.45
381.45	5137.95
386.25	4920.85
391.047	5111.12
395.841	6452.75
400.632	6494.73
405.42	5587.07
410.205	5305.42
414.988	5387.98
419.767	3638.09
424.544	1690.7
429.318	457.798
434.089	13.6636
438.857	100.811
443.622	10.0066
448.384	230.963
453.143	692.273
457.9	600.913
462.654	265.865
467.405	145.237
472.153	240.874
476.898	260.248
481.64	361.08
486.38	386.336
491.116	63.875
495.85	211.443
500.581	109.721
505.309	45.1086
510.035	639.991
514.757	1691.56
519.477	2575.88
524.194	2930.83
528.908	2329.14
533.62	1901.81
538.328	2296.7
543.034	1899.83
547.737	1516.04
552.437	1374.31
557.134	937.611
561.829	925.915
566.521	1507.2
571.21	2856.46
575.896	4484.03
580.58	3421.45
585.261	1702.19
589.939	1163.54
594.614	854.456
599.286	419.309
603.956	113.045
608.623	54.6311
613.287	60.0176
617.949	55.1499
622.608	185.149
627.264	308.008
631.917	484.971
636.568	723.753
641.215	1075.57
645.861	2005.11
650.503	3828.22
655.143	8065.27
659.78	14672
664.414	15837.7
669.046	11107
673.674	10567.1
678.301	16360.9
682.924	23286.3
687.545	18905.8
692.163	9168.24
696.778	4189.48
701.391	2147.39
706.001	1348.98
710.609	900.252
715.213	661.199
719.815	542.914
724.415	590.518
729.011	464.863
733.606	349.883
738.197	191.579
742.786	204.954
747.372	354.16
751.955	287.887
756.536	91.5349
761.114	43.654
765.69	31.5794
770.262	40.3037
774.833	50.5022
779.4	9.7417
783.965	24.1179
788.528	79.1736
793.087	38.0425
797.645	25.5811
802.199	54.8103
806.751	42.8347
811.3	23.554
815.847	39.8025
820.391	13.4578
824.933	93.5178
829.471	76.3799
834.008	37.0603
838.541	101.606
843.073	176.032
847.601	317.351
852.127	688.579
856.65	869.729
861.171	660.811
865.69	395.838
870.205	246.822
874.718	296.779
879.229	202.723
883.737	281.693
888.242	497.719
892.745	511.801
897.246	446.345
901.743	360.315
906.239	353.459
910.731	513.863
915.221	757.335
919.709	1424.37
924.194	2472.67
928.677	3259.13
933.157	3901.2
937.634	4083.86
942.109	3068.57
946.582	1864.01
951.052	1228.65
955.519	985.297
959.984	854.336
964.447	847.573
968.906	908.103
973.364	1025.14
977.819	1251.58
982.271	1845.39
986.721	2515.68
991.169	4002.39
995.614	7153.49
1000.06	14162
1004.5	30768
1008.93	51914.3
1013.37	42682.1
1017.8	25864.2
1022.23	21659.7
1026.66	21966.6
1031.09	20621.8
1035.51	16205.2
1039.93	11719.6
1044.35	7686.85
1048.76	4482.11
1053.17	2935.38
1057.58	1972.99
1061.99	1418.65
1066.4	998.806
1070.8	614.227
1075.2	464.755
1079.6	347.515
1084	300.775
1088.39	231.05
1092.78	175.709
1097.17	152.684
1101.56	199.268
1105.94	128.909
1110.32	215.971
1114.7	127.667
1119.08	109.877
1123.45	127.145
1127.82	162.977
1132.19	200.539
1136.56	138.823
1140.92	115.117
1145.29	90.7681
1149.65	91.2822
1154	49.3367
1158.36	53.5647
1162.71	4.23193
1167.06	32.127
1171.41	27.7073
1175.76	3.18066
1180.1	14.1785
1184.44	14.2656
1188.78	68.3125
1193.11	14.5471
1197.45	44.0361
1201.78	24.939
1206.11	53.3833
1210.43	39.2856
1214.76	12.6509
1219.08	14.5923
1223.4	5.93774
1227.72	10.0464
1232.03	36.2866
1236.35	13.043
1240.66	53.3499
1244.96	3.23999
1249.27	25.6184
1253.57	113.46
1257.88	33.8928
1262.17	29.1064
1266.47	105.363
1270.76	53.3967
1275.06	81.0596
1279.35	65.2703
1283.63	159.078
1287.92	174.56
1292.2	95.6062
1296.48	106.707
1300.76	113.202
1305.04	138.291
1309.31	200.592
1313.58	106.687
1317.85	156.652
1322.12	138.49
1326.38	130.947
1330.64	140.267
1334.9	167.205
1339.16	116.861
1343.41	99.3184
1347.67	118.645
1351.92	148.913
1356.17	121.651
1360.41	98.9236
1364.66	122.487
1368.9	197.108
1373.14	69.5398
1377.38	138.892
1381.61	131.019
1385.84	130.199
1390.08	109.235
1394.3	110.449
1398.53	120.688
1402.75	89.1873
1406.97	133.256
1411.19	85.1567
1415.41	86.2837
1419.63	64.0242
1423.84	146.624
1428.05	107.206
1432.26	103.027
1436.46	168.923
1440.67	116.464
1444.87	139.264
1449.07	101.783
1453.27	65.3603
1457.46	151.231
1461.66	51.529
1465.85	79.165
1470.04	146.808
1474.22	106.816
1478.41	102.894
1482.59	121.21
1486.77	121.567
1490.95	81.9944
1495.12	77.2398
1499.3	60.5955
1503.47	89.2319
1507.63	27.898
1511.8	45.3018
1515.97	116.6
1520.13	55.3935
1524.29	50.4961
1528.45	97.9468
1532.61	91.8823
1536.76	17.1191
1540.91	87.417
1545.06	17.2571
1549.21	47.511
1553.35	139.709
1557.5	79.2944
1561.64	32.4548
