Measurement: Raman, 514 nm, ccw, Raman Data Processed
Mineral: Enstatite
Rruff sample: R060744
Ideal chemistry: MgSiO_3_
Locality: Orissa, India
Source: Herb Obodda
Description: Brown transparent fragment
Measured chemistry: (Mg_0.85_Fe^2+^_0.13_Fe^3+^_0.01_Mn_0.01_)_Σ=1_(Si_0.99_Al_0.01_)_Σ=1_O_3_; trace amounts of Ca; Fe^2+^ and Fe^3+^ splitted by charge balance
Pin_id: L01523
Orientation: Laser parallel to c* (0 0 1). Fiducial mark perpendicular to laser is parallel to -a [-1 0 0]
Raman shift (cm-1)	intensity
113.208	0
118.134	6.73901
123.058	207.03
127.979	513.074
132.898	701.116
137.814	1709.13
142.728	2460.37
147.639	1433.74
152.549	658.168
157.455	300.462
162.359	240.845
167.261	90.8552
172.161	55.846
177.058	103.76
181.952	686.773
186.845	1423.88
191.734	1534.86
196.622	1042.47
201.507	720.958
206.389	136.358
211.269	261.721
216.147	535.99
221.022	1169.92
225.895	2901.82
230.765	5502.74
235.633	5846.57
240.498	2372.92
245.361	490.905
250.222	135.462
255.08	72.5754
259.936	117.583
264.789	177.195
269.64	522.582
274.488	367.541
279.334	123.664
284.178	92.7988
289.019	592.767
293.857	1087.12
298.693	956.854
303.527	955.865
308.358	1574.61
313.187	2950.03
318.013	3704.03
322.837	4503.7
327.659	7136.01
332.478	12304.9
337.294	17252.2
342.108	13250
346.92	6914.18
351.729	3647.93
356.535	2433.5
361.34	1812.2
366.141	1935.2
370.94	2799.57
375.737	3775.3
380.531	4320.36
385.323	4254.7
390.113	4879.29
394.9	5817.14
399.684	5343.22
404.466	4528.54
409.245	3986.26
414.022	2928.39
418.797	1574.87
423.569	553.702
428.338	137.848
433.105	138.292
437.87	24.0247
442.632	10.0164
447.391	142.249
452.149	244.72
456.903	154.414
461.655	208.897
466.405	60.4678
471.152	160.337
475.897	104.898
480.639	228.609
485.378	10.4678
490.116	205.405
494.85	134.108
499.582	111.775
504.312	62.0195
509.039	851.053
513.764	1842.46
518.486	2306.22
523.206	2043.22
527.923	1618.34
532.638	2047.59
537.35	2323.02
542.059	1705.5
546.766	1517.01
551.471	1102.57
556.173	827.131
560.873	944.67
565.57	1565.16
570.264	2366.58
574.957	2385.92
579.646	1349.17
584.333	736.799
589.018	558.826
593.7	290.728
598.379	128.495
603.056	38.0964
607.73	65.4492
612.402	155.609
617.072	218.59
621.739	320.476
626.403	577.106
631.065	823.656
635.724	1110.73
640.381	1737.61
645.035	3176.64
649.687	5951.1
654.336	11643.9
658.983	17776.2
663.627	15109.9
668.268	11580.8
672.907	14935.5
677.544	23408.7
682.178	25263.6
686.809	15049.8
691.438	6881.98
696.065	3527.43
700.688	1979.37
705.31	1355.67
709.929	1000.65
714.545	836.318
719.158	619.669
723.77	599.717
728.378	596.455
732.984	466.882
737.588	448
742.189	475.226
746.787	502.1
751.383	420.176
755.976	238.102
760.567	25.262
765.155	11.1182
769.741	19.3049
774.324	40.5684
778.904	40.8684
783.482	8.61646
788.058	67.1401
792.631	9.53369
797.201	8.69727
801.769	49.572
806.334	83.4937
810.897	31.938
815.457	51.9038
820.014	13.6357
824.569	33.1045
829.122	34.6826
833.671	23.665
838.219	95.1787
842.763	29.9087
847.306	186.546
851.845	387.106
856.382	651.605
860.917	525.136
865.448	417.462
869.978	232.853
874.505	181.234
879.029	125.641
883.55	188.1
888.069	286.597
892.586	364.134
897.1	306.889
901.611	326.306
906.12	316.354
910.626	367.182
915.129	695.239
919.63	1153.6
924.129	1828.56
928.625	2674.64
933.118	3442.75
937.609	3695.66
942.097	3012.28
946.582	2000.84
951.065	1516.24
955.546	1153.92
960.023	995.555
964.499	919.679
968.971	1064.05
973.441	1157.82
977.909	1497.61
982.374	2254.92
986.836	3563.66
991.295	6221.75
995.753	12041.3
1000.21	24670.3
1004.66	45456.7
1009.11	51458.3
1013.55	33473.4
1018	22331.8
1022.44	17945.4
1026.88	15525.4
1031.32	12705.8
1035.75	9435.57
1040.18	6580.79
1044.61	4373.62
1049.04	2851.77
1053.46	2028.64
1057.88	1434.25
1062.3	1068.65
1066.71	764.967
1071.13	592.948
1075.54	473.379
1079.94	320.002
1084.35	419.332
1088.75	235.914
1093.15	123.628
1097.55	230.731
1101.94	107.192
1106.34	211.227
1110.73	104.109
1115.11	153.566
1119.5	214.814
1123.88	233.317
1128.26	80.936
1132.63	4.62402
1137.01	90.6953
1141.38	94.3599
1145.75	120.362
1150.12	70.7988
1154.48	87.8823
1158.84	43.7734
1163.2	48.2017
1167.55	34.0215
1171.91	7.51807
1176.26	34.2637
1180.61	7.73779
1184.95	29.4175
1189.29	4.02979
1193.63	56.8145
1197.97	8.4707
1202.31	59.3145
1206.64	48.1773
1210.97	20.8892
1215.29	16.416
1219.62	44.5098
1223.94	14.1226
1228.26	28.6782
1232.57	35.041
1236.89	63.8935
1241.2	38.8267
1245.51	97.9463
1249.81	41.1357
1254.12	47.8779
1258.42	40.9385
1262.72	46.5942
1267.01	59.7705
1271.3	139.542
1275.59	133.936
1279.88	176.965
1284.17	128.705
1288.45	200.145
1292.73	226.062
1297.01	209.697
1301.28	269.803
1305.55	252.418
1309.82	174.222
1314.09	298.948
1318.35	207.854
1322.61	104.203
1326.87	281.055
1331.13	176.273
1335.38	230.422
1339.63	188.239
1343.88	260.565
1348.12	252.361
1352.37	210.95
1356.61	171.237
1360.85	320.132
1365.08	338.576
1369.31	261.225
1373.54	208.225
1377.77	181.267
1381.99	204.542
1386.22	264.818
1390.43	213.258
1394.65	223.428
1398.87	145.166
1403.08	164.833
1407.29	223.92
1411.49	165.622
1415.69	195.177
1419.89	191.301
1424.09	114.409
1428.29	223.267
1432.48	217.704
1436.67	286.81
1440.86	293.921
1445.04	208.987
1449.23	215.183
1453.4	276.318
1457.58	171.715
1461.76	301.262
1465.93	83.0762
1470.1	198.93
1474.26	151.212
1478.43	179.703
1482.59	69.6196
1486.75	65.6343
1490.9	14.5601
1495.06	31.3984
1499.21	65.2549
1503.35	58.1958
1507.5	100.313
1511.64	135.735
1515.78	19.501
1519.92	270.558
1524.05	133.908
1528.18	91.23
1532.31	18.6665
1536.44	42.8989
1540.56	98.2769
1544.69	90.6816
1548.8	146.156
1552.92	41.7202
1557.03	226.876
1561.14	50.6699
1565.25	1.396
1569.36	84.4009
