Measurement: Raman, 514 nm, ccw, Raman Data Processed
Mineral: Enstatite
Rruff sample: R060630
Ideal chemistry: MgSiO_3_
Locality: unknown
Source: Gemological Institute of America
Description: Tan colored fragment
Measured chemistry: (Mg_0.89_Fe_0.07_Al_0.04_)_Σ=1_(Si_0.96_Al_0.04_)_Σ=1_O_3_
Pin_id: L01844
Orientation: Laser parallel to -b* (0 -1 0). Fiducial mark perpendicular to laser is parallel to c [0 0 1]
Raman shift (cm-1)	intensity
118.134	0
123.058	133.395
127.979	246.619
132.898	1708.29
137.814	4197.47
142.728	5400.59
147.639	3762.58
152.549	3413.61
157.455	2150.9
162.359	878.95
167.261	510.228
172.161	206.003
177.058	65.5352
181.952	74.1182
186.845	12.3892
191.734	190.773
196.622	587.391
201.507	1128.05
206.389	1500.41
211.269	1467.38
216.147	1013.79
221.022	1265.36
225.895	2315.75
230.765	4321.21
235.633	7552.87
240.498	6860.83
245.361	2635.64
250.222	838.967
255.08	244.735
259.936	335.948
264.789	8.76758
269.64	158.78
274.488	415.764
279.334	601.294
284.178	693.948
289.019	914.005
293.857	1127.07
298.693	1346.28
303.527	1103.67
308.358	1066.79
313.187	1814.57
318.013	2648.58
322.837	3930.76
327.659	5218.35
332.478	6619.48
337.294	9159.7
342.108	13100
346.92	16105.1
351.729	15600.2
356.535	11747.1
361.34	8509.55
366.141	6012.18
370.94	4503.53
375.737	3934.27
380.531	3780.38
385.323	3563.94
390.113	2947.53
394.9	3146.54
399.684	3422.82
404.466	3510.39
409.245	3618.21
414.022	4027.2
418.797	4030.32
423.569	2922.59
428.338	1534.02
433.105	893.655
437.87	1448.51
442.632	2224.65
447.391	2481.12
452.149	1578.92
456.903	900.025
461.655	685.453
466.405	328.344
471.152	82.207
475.897	67.8066
480.639	43.2295
485.378	146.322
490.116	166.756
494.85	107.645
499.582	29.502
504.312	55.2549
509.039	54.2539
513.764	305.45
518.486	469.444
523.206	624.093
527.923	801.356
532.638	1122.21
537.35	1696.57
542.059	1176.21
546.766	882.178
551.471	682.317
556.173	569.59
560.873	289.985
565.57	314.499
570.264	585.123
574.957	649.851
579.646	582.673
584.333	469.579
589.018	307.56
593.7	216.608
598.379	284.671
603.056	185.856
607.73	247.037
612.402	347.232
617.072	514.424
621.739	711.055
626.403	1332.98
631.065	2243.2
635.724	3148.87
640.381	4036.89
645.035	5045.49
649.687	7854.98
654.336	12578.9
658.983	17262.3
663.627	17515.8
668.268	14902.4
672.907	16072.2
677.544	23551
682.178	36837.9
686.809	42752.9
691.438	30654
696.065	16790
700.688	9294.73
705.31	5796.26
709.929	3779.57
714.545	2886.66
719.158	2111.53
723.77	1831.18
728.378	1398.6
732.984	1340.8
737.588	1277.77
742.189	1110.52
746.787	991.049
751.383	777.351
755.976	516.434
760.567	512.365
765.155	234.302
769.741	127.301
774.324	97.4883
778.904	6.11133
783.482	109.233
788.058	122.862
792.631	152.856
797.201	72.1914
801.769	6.61231
806.334	52.0117
810.897	3.58594
815.457	140.481
820.014	88.9814
824.569	126.087
829.122	523.057
833.671	606.934
838.219	1268.73
842.763	1985.44
847.306	2376.1
851.845	2430.71
856.382	1930.28
860.917	1552.82
865.448	1298.34
869.978	1090.86
874.505	940.387
879.029	834.928
883.55	861.569
888.069	691.406
892.586	916.454
897.1	1018.81
901.611	924.288
906.12	1056.84
910.626	1345.49
915.129	1440.4
919.63	1657.86
924.129	2364.44
928.625	3052.53
933.118	3723.49
937.609	3954.9
942.097	3922.67
946.582	3740.82
951.065	3427.49
955.546	2924.26
960.023	2224.44
964.499	1585.68
968.971	1448.95
973.441	1409.54
977.909	1926.66
982.374	3209.06
986.836	5642.8
991.295	10285.9
995.753	17862.2
1000.21	28202.3
1004.66	39523.6
1009.11	45802.9
1013.55	40095
1018	27571.4
1022.44	19106.3
1026.88	15000.6
1031.32	12905.2
1035.75	10917.2
1040.18	7743.4
1044.61	5487.08
1049.04	3449.44
1053.46	2594.17
1057.88	1688.17
1062.3	1153.61
1066.71	919.188
1071.13	397.991
1075.54	325.55
1079.94	197.181
1084.35	85.3467
1088.75	210.785
1093.15	27.9512
1097.55	153.755
1101.94	101.922
1106.34	119.178
1110.73	24.7773
1115.11	79.8428
1119.5	125.319
1123.88	146.814
1128.26	3.04199
1132.63	156.247
1137.01	114.512
1141.38	19.5264
1145.75	40.6103
1150.12	67.2285
1154.48	56.3906
1158.84	2.33301
1163.2	53.2822
1167.55	166.737
1171.91	5.26172
1176.26	37.748
1180.61	42.8799
1184.95	179.588
1189.29	166.416
1193.63	59.6475
1197.97	32.1875
1202.31	86.8203
1206.64	36.9941
1210.97	103.353
1215.29	98.8359
1219.62	256.256
1223.94	34.0312
1228.26	267.685
1232.57	111.033
1236.89	181.444
1241.2	284.009
1245.51	234.159
1249.81	213.101
1254.12	232.935
1258.42	393.016
1262.72	345.597
1267.01	337.5
1271.3	384.023
1275.59	436.133
1279.88	450.305
1284.17	235.643
1288.45	318.062
1292.73	481.969
1297.01	136.381
1301.28	309.209
1305.55	313.016
1309.82	500.82
1314.09	403.227
1318.35	330.627
1322.61	400.461
1326.87	245.051
1331.13	353.143
1335.38	287.562
1339.63	153.522
1343.88	248.039
1348.12	217.272
1352.37	280.654
1356.61	225.492
1360.85	190.783
1365.08	90.9805
1369.31	159.58
1373.54	330.023
1377.77	117.822
1381.99	279.291
1386.22	281.572
1390.43	71.5019
1394.65	128.188
1398.87	24.8105
1403.08	314.838
1407.29	42.4238
1411.49	195.293
1415.69	199.918
1419.89	155.283
1424.09	113.578
1428.29	141.592
1432.48	315.957
1436.67	91.9492
1440.86	227.481
1445.04	319.652
1449.23	340.754
1453.4	306.582
1457.58	322.059
1461.76	264.562
1465.93	148.602
1470.1	171.588
1474.26	190.975
1478.43	172.353
1482.59	109.594
1486.75	148.734
1490.9	55.1406
1495.06	177.935
1499.21	171.953
1503.35	246.543
1507.5	138.065
1511.64	112.772
1515.78	297.022
1519.92	165.768
1524.05	31.9199
1528.18	174.066
1532.31	144.654
1536.44	94.4394
1540.56	106.066
1544.69	315.262
1548.8	154.992
1552.92	229.639
1557.03	188.275
1561.14	210.008
1565.25	148.836
1569.36	166.178
