Measurement: Raman, 514 nm, ccw, Raman Data Processed
Mineral: Enstatite
Rruff sample: R040094
Ideal chemistry: MgSiO_3_
Locality: unknown
Source: University of Arizona Mineral Museum
Description: Dark green massive, associated with anthophyllite
Measured chemistry: (Mg_0.84_Fe_0.15_)(Si_0.99_Al_0.01_)O_3_; = Enstatite :  [box](Mg_0.83_Fe_0.14_Na_0.01_Ca_0.01_)_7_(Si_0.99_Al_0.01_)_8_O_22_(OH)_2_ = Anthophyllite
Pin_id: M00257
Orientation: Laser parallel to b* (0 1 0). Fiducial mark perpendicular to laser is parallel to -c [0 0 -1]
Raman shift (cm-1)	intensity
74.776	0
78.982	104.884
83.185	1031.41
87.385	55.578
91.584	35.087
95.78	312.746
99.974	459.59
104.166	939.914
108.355	2231.55
112.543	1548.53
116.728	1232.26
120.911	1121.19
125.091	1916.92
129.27	3492.09
133.446	3962.91
137.62	2789.53
141.791	3001
145.961	3058.45
150.128	2164.82
154.293	1233.99
158.456	611.85
162.617	425.798
166.775	254.81
170.931	164.829
175.085	87.315
179.237	141.822
183.386	184.99
187.534	410.751
191.679	791.905
195.822	1242.44
199.963	571.539
204.101	330.755
208.237	252.295
212.372	149.869
216.504	100.751
220.633	158.732
224.761	348.812
228.886	804.982
233.009	1700.24
237.13	2532.57
241.249	1246.3
245.366	325.875
249.48	26.745
253.593	27.545
257.703	51.336
261.811	35.639
265.916	33.491
270.02	74.812
274.121	263.536
278.221	121.611
282.318	122.025
286.413	67.493
290.505	123.229
294.596	298.17
298.684	383.296
302.771	423.596
306.855	370.058
310.937	430.668
315.016	660.414
319.094	1126.93
323.17	1493.65
327.243	1752.33
331.314	2785.34
335.383	5005.98
339.45	8182.49
343.515	8234.91
347.578	5167.99
351.638	2889.3
355.696	1958.63
359.753	1607.02
363.807	1224.44
367.859	989.901
371.908	1017.37
375.956	1242.84
380.002	1514.29
384.045	1262.72
388.086	1014.13
392.126	1042.52
396.163	1270.88
400.198	1433.22
404.23	1324.54
408.261	1303.91
412.29	1347.33
416.316	1237.79
420.341	887.275
424.363	544.626
428.383	336.797
432.401	368.279
436.417	551.744
440.431	803.205
444.443	545.865
448.452	282.914
452.46	178.791
456.465	213.084
460.468	238.364
464.47	253.641
468.469	163.927
472.466	144.217
476.461	82.532
480.454	32.175
484.445	80.047
488.433	33.206
492.42	94.665
496.405	95.578
500.387	36.015
504.367	1.134
508.346	73.989
512.322	180.726
516.296	303.761
520.268	385.944
524.238	443.421
528.206	388.812
532.172	484.197
536.136	772.298
540.098	989.39
544.057	727.378
548.015	496.262
551.97	491.041
555.924	322.713
559.875	250.277
563.825	222.733
567.772	183.078
571.718	323.309
575.661	370.426
579.602	360.426
583.541	257.31
587.478	218.976
591.413	188.729
595.346	162.257
599.277	168.661
603.206	135.992
607.133	119.307
611.058	172.522
614.981	240.779
618.902	283.375
622.82	410.818
626.737	463.689
630.652	631.272
634.564	780.204
638.475	1065.81
642.384	1270.43
646.29	1668.78
650.195	2526.35
654.097	4482.71
657.998	8007.88
661.896	10794.5
665.793	9075.46
669.687	7389.41
673.58	8112.6
677.47	11275.7
681.359	15579.8
685.245	15322.6
689.13	9805.37
693.012	5225.98
696.893	2944.48
700.771	1815.88
704.647	1252.18
708.522	881.368
712.394	699.459
716.265	516.45
720.133	420.344
724	376.141
727.864	324.844
731.727	299.454
735.587	229.972
739.446	248.401
743.302	205.743
747.157	160.999
751.009	236.173
754.86	200.246
758.708	139.262
762.555	76.155
766.399	53.021
770.242	40.187
774.083	53.427
777.921	6.877
781.758	14.851
785.593	57.791
789.426	100.962
793.257	48.369
797.085	51.921
800.912	24.604
804.737	21.624
808.56	27.051
812.381	23.605
816.2	27.896
820.017	28.406
823.833	34.864
827.646	23.284
831.457	18.322
835.266	46.032
839.074	71.328
842.879	88.62
846.682	148.896
850.484	351.158
854.283	721.411
858.081	968.656
861.877	960.895
865.67	680.154
869.462	409.415
873.252	266.681
877.04	172.957
880.826	235.241
884.61	211.87
888.392	237.847
892.172	176.189
895.951	187.586
899.727	230.031
903.501	287.546
907.274	255.137
911.044	312.81
914.813	359.561
918.58	421.319
922.345	668.559
926.108	1036.38
929.869	1374.36
933.628	1776.06
937.385	1866.63
941.14	1633.79
944.893	1237.27
948.645	1064.54
952.394	868.724
956.142	727.63
959.888	634.411
963.631	588.456
967.373	640.965
971.113	654.705
974.851	718.054
978.588	936.091
982.322	1189.46
986.054	1595.3
989.785	2289.61
993.513	3771.96
997.24	6704.43
1000.97	11976
1004.69	21987.6
1008.41	27809.3
1012.13	19162.6
1015.85	11994.5
1019.56	8616.54
1023.27	6958.94
1026.99	5871.1
1030.7	4715.44
1034.4	3765.88
1038.11	2861.32
1041.81	2089.26
1045.52	1636.49
1049.22	1400.93
1052.91	1171.25
1056.61	871.453
1060.31	731.411
1064	550.553
1067.69	434.653
1071.38	440.536
1075.07	430.491
1078.75	350.506
1082.44	340.675
1086.12	345.514
1089.8	265.874
1093.48	259.124
1097.15	271.947
1100.83	303.772
1104.5	272.585
1108.17	202.81
1111.84	227.934
1115.51	173.131
1119.17	175.694
1122.83	144.839
1126.5	140.905
1130.15	145.117
1133.81	163.824
1137.47	128.036
1141.12	143.787
1144.78	15.14
1148.43	37.471
1152.07	57.886
1155.72	65.997
1159.37	39.136
1163.01	121.204
1166.65	8.741
1170.29	75.792
1173.93	14.973
1177.56	11.118
1181.2	11.908
1184.83	2.875
1188.46	19.718
1192.09	54.419
1195.71	30.4
1199.34	30.492
1202.96	26.691
1206.58	62.565
1210.2	24.894
1213.82	75.857
1217.44	42.312
1221.05	23.376
1224.66	8.186
1228.27	29.792
1231.88	46.77
1235.49	95.69
1239.09	76.802
1242.7	21.385
1246.3	23.759
1249.9	127.013
1253.49	91.976
1257.09	42.818
1260.68	32.433
1264.28	41.842
1267.87	20.189
1271.46	49.408
1275.04	64.374
1278.63	68.221
1282.21	131.74
1285.79	199.062
1289.37	110.208
1292.95	60.183
1296.53	567.114
1300.1	85.774
1303.68	4.274
1307.25	36.859
1310.82	108.772
1314.38	160.408
1317.95	119.979
1321.51	152.357
1325.08	143.573
1328.63	76.653
1332.19	106.174
1335.75	77.579
1339.31	71.36
1342.86	82.186
1346.41	72.26
1349.96	182.045
1353.51	241.499
1357.05	338.656
1360.6	243.475
1364.14	161.559
1367.68	102.024
1371.22	10.199
1374.76	11.763
1378.3	158.8
1381.83	229.497
1385.36	170.678
1388.89	207.184
1392.42	119.982
1395.95	153.438
1399.47	102.437
1402.99	113.875
1406.52	30.952
1410.04	20.073
1413.56	117.741
1417.07	125.915
1420.59	158.529
1424.1	191.073
1427.61	183.792
1431.12	296.259
1434.63	223.651
1438.13	140.014
1441.64	118.792
1445.14	63.485
1448.64	45.502
1452.14	172.314
1455.64	126.091
1459.13	165.913
1462.63	134.747
1466.12	262.487
1469.61	232.203
1473.1	200.819
1476.59	280.802
1480.07	205.573
1483.56	150.862
1487.04	76.554
1490.52	51.302
1494	5.509
1497.47	17.322
1500.95	101.874
1504.42	155.236
1507.89	167.457
1511.36	264.322
1514.83	318.595
