Measurement: Raman, 514 nm, ccw, Raman Data Processed
Mineral: Enstatite
Rruff sample: R070418
Ideal chemistry: MgSiO_3_
Locality: India
Source: Michael Scott
Description: Brown translucent fragments
Measured chemistry: (Mg_0.86_Fe_0.14_)_Î£=1_Si_1.00_O_3_; trace amounts of Al, Ca, Mn
Pin_id: L01297
Orientation: Laser parallel to c* (0 0 1). Fiducial mark perpendicular to laser is parallel to a [1 0 0]
Raman shift (cm-1)	intensity
41.8	0
46.809	10.8283
51.816	20.74
56.819	40.5309
61.819	26.1257
66.816	81.1365
71.81	85.6578
76.8	68.8901
81.788	35.7835
86.772	6.79007
91.754	29.038
96.732	28.1899
101.707	15.6633
106.679	191.529
111.648	202.438
116.613	309.365
121.576	330.173
126.535	403.664
131.492	548.698
136.445	600.192
141.395	785.021
146.343	830.865
151.287	622.27
156.228	432.326
161.166	397.027
166.1	297.419
171.032	256.68
175.961	224.594
180.887	228.348
185.809	293.153
190.729	323.692
195.645	368.168
200.559	543.436
205.469	670.487
210.376	712.434
215.281	776.253
220.182	1009.63
225.08	1578.53
229.976	3090.96
234.868	5807.76
239.757	3235.28
244.643	1086.32
249.527	882.231
254.407	957.229
259.284	948.65
264.158	928.477
269.029	1434.7
273.898	1760.3
278.763	740.27
283.625	440.365
288.485	568.659
293.341	1028.48
298.194	1231.44
303.045	878.197
307.892	1017.29
312.736	1832.7
317.578	3349.43
322.417	3571.45
327.252	4188.75
332.085	6321.34
336.914	10531.2
341.741	11450.3
346.565	6132.91
351.386	2981.65
356.204	1691.79
361.019	1212.04
365.831	946.461
370.64	1001.91
375.447	1272.94
380.25	1515.23
385.05	956.843
389.848	584.811
394.643	419.063
399.434	371.533
404.223	252.212
409.009	204.093
413.792	173.168
418.573	99.4291
423.35	7.86926
428.124	29.5276
432.896	37.8387
437.665	10.8765
442.431	7.64697
447.194	78.551
451.954	140.588
456.711	170.752
461.465	215.035
466.217	349.43
470.966	370.932
475.712	186.533
480.455	45.2261
485.195	14.9933
489.932	11.2009
494.667	43.5894
499.399	38.3499
504.128	42.4292
508.854	22.7599
513.577	64.7647
518.297	162.438
523.015	252.292
527.73	419.346
532.442	830.509
537.151	1560.79
541.858	1047.16
546.561	675.555
551.262	541.939
555.96	368.315
560.656	317.437
565.348	245.055
570.038	334.766
574.725	355.006
579.409	323.845
584.091	290.54
588.769	243.733
593.445	245.884
598.119	230.988
602.789	264.042
607.457	330.041
612.122	289.981
616.784	416.861
621.443	507.675
626.1	657.286
630.754	854.611
635.405	1074.26
640.054	1545.16
644.7	2372.62
649.343	4030.83
653.983	8172.74
658.621	15425.9
663.256	17587
667.888	12123.6
672.518	12306.9
677.144	19686.1
681.769	28740.3
686.39	22299.2
691.009	10221.9
695.625	4860.29
700.238	2611.39
704.849	1648.82
709.457	1131.16
714.062	786.448
718.665	573.71
723.265	442.91
727.863	330.019
732.457	282.039
737.049	238.97
741.639	167.816
746.225	148.578
750.81	105.26
755.391	90.8646
759.97	28.394
764.546	47.8547
769.12	9.27576
773.69	10.7672
778.259	14.6602
782.824	3.84729
787.387	20.7289
791.948	10.4979
796.506	74.5604
801.061	18.023
805.613	29.79
810.163	12.7803
814.711	20.9886
819.255	1.36487
823.797	21.2466
828.337	44.8611
832.874	17.5308
837.408	27.0523
841.94	28.6604
846.469	68.3003
850.996	95.9792
855.52	161.703
860.041	167.477
864.56	143.308
869.077	75.2003
873.59	42.1613
878.101	51.1964
882.61	39.3119
887.116	89.5134
891.62	135.807
896.121	86.1382
900.619	121.632
905.115	133.092
909.608	209.852
914.099	268.057
918.587	370.845
923.073	626.957
927.556	1156.81
932.037	1882.62
936.515	2608.16
940.991	2383.2
945.464	1832.41
949.934	1247.55
954.403	990.416
958.868	812.61
963.331	734.232
967.792	780.482
972.25	974.54
976.705	1223.84
981.158	1668.45
985.609	2515.35
990.057	4212.49
994.503	7849.87
998.946	16307.5
1003.39	34212.3
1007.83	55286.3
1012.26	39093.6
1016.69	19449
1021.12	12219.7
1025.55	8937.63
1029.98	7022.73
1034.4	5042.05
1038.82	3476.59
1043.24	2345.34
1047.66	1546.36
1052.07	1112.71
1056.48	773.549
1060.89	581.2
1065.3	423.133
1069.7	358.828
1074.1	248.45
1078.5	229.918
1082.9	183.184
1087.29	127.212
1091.68	109.622
1096.07	132.478
1100.46	149.443
1104.84	145.492
1109.23	72.1309
1113.61	110.565
1117.98	152.683
1122.36	152.054
1126.73	116.486
1131.1	125.978
1135.47	130.436
1139.83	56.0953
1144.19	57.7022
1148.56	54.0602
1152.91	65.4841
1157.27	44.8279
1161.62	44.0444
1165.97	23.1926
1170.32	21.2956
1174.67	27.3457
1179.01	11.0503
1183.35	14.271
1187.69	16.901
1192.03	35.1921
1196.36	18.8883
1200.7	20.8661
1205.03	25.1338
1209.35	24.7582
1213.68	31.4783
1218	9.80469
1222.32	24.3512
1226.64	44.179
1230.95	19.6165
1235.27	18.1655
1239.58	6.63452
1243.89	2.04187
1248.19	16.0787
1252.5	35.521
1256.8	48.7745
1261.1	72.8462
1265.4	63.7468
1269.69	91.4658
1273.98	103.034
1278.27	59.3733
1282.56	116.585
1286.85	125.737
1291.13	104.522
1295.41	113.13
1299.69	99.5569
1303.97	83.8124
1308.24	90.8682
1312.51	150.739
1316.78	95.4108
1321.05	114.921
1325.31	83.45
1329.58	100.246
1333.84	74.0845
1338.1	50.465
1342.35	79.182
1346.61	78.9995
1350.86	85.6339
1355.11	128.472
1359.35	80.9423
1363.6	105.83
1367.84	65.9016
1372.08	81.8484
1376.32	109.157
1380.55	89.9469
1384.79	75.3441
1389.02	82.7028
1393.25	62.7782
1397.47	68.0433
1401.7	57.969
1405.92	62.8969
1410.14	66.0987
1414.36	95.106
1418.57	71.5938
1422.79	73.7366
1427	90.6333
1431.21	51.4569
1435.41	41.2347
1439.62	79.4346
1443.82	117.418
1448.02	120.636
1452.22	66.9598
1456.41	96.4175
1460.61	89.9751
1464.8	85.2845
1468.99	106.561
1473.17	93.0468
1477.36	55.5487
1481.54	73.0049
1485.72	104.415
1489.9	26.4985
1494.08	73.9675
1498.25	25.2459
1502.42	54.0029
1506.59	24.7479
1510.76	46.6995
1514.93	12.1696
1519.09	49.0934
1523.25	44.464
1527.41	30.0008
1531.57	83.7797
1535.72	79.5828
1539.87	36.7484
1544.02	76.6653
1548.17	45.7008
1552.32	38.8369
1556.46	26.1714
1560.6	54.0515
