Measurement: Raman, 514 nm, ccw, Raman Data Processed
Mineral: Enstatite
Rruff sample: R060744
Ideal chemistry: MgSiO_3_
Locality: Orissa, India
Source: Herb Obodda
Description: Brown transparent fragment
Measured chemistry: (Mg_0.85_Fe^2+^_0.13_Fe^3+^_0.01_Mn_0.01_)_Σ=1_(Si_0.99_Al_0.01_)_Σ=1_O_3_; trace amounts of Ca; Fe^2+^ and Fe^3+^ splitted by charge balance
Pin_id: L01127
Orientation: Laser parallel to -b* (0 -1 0). Fiducial mark perpendicular to laser is parallel to -c [0 0 -1]
Raman shift (cm-1)	intensity
113.208	0
118.134	3939.9
123.058	17108
127.979	37102.2
132.898	20405.2
137.814	7013.08
142.728	2735.95
147.639	507.532
152.549	223.277
157.455	267.582
162.359	78.2483
167.261	256.884
172.161	281.393
177.058	287.821
181.952	804.381
186.845	1549.17
191.734	1407.28
196.622	1490.71
201.507	1393.81
206.389	522.833
211.269	134.006
216.147	203.979
221.022	666.913
225.895	2088.7
230.765	4710.66
235.633	4520.18
240.498	1405.15
245.361	23.2771
250.222	287.75
255.08	281.789
259.936	86.1512
264.789	165.046
269.64	222.516
274.488	90.97
279.334	432.168
284.178	475.246
289.019	711.103
293.857	1403.54
298.693	1383.74
303.527	1234.56
308.358	1537.48
313.187	2583.77
318.013	4760.36
322.837	9532.8
327.659	20152.4
332.478	40057.2
337.294	57857.9
342.108	45175
346.92	23472.8
351.729	12903.2
356.535	7832.19
361.34	5469.64
366.141	4251.76
370.94	3878.86
375.737	3726.78
380.531	3869.93
385.323	5091.37
390.113	8102.19
394.9	11318.1
399.684	12139.6
404.466	10611.5
409.245	8768.6
414.022	6934.86
418.797	5441.74
423.569	4391.81
428.338	5026.9
433.105	8078.78
437.87	9743.31
442.632	5161.16
447.391	2162.12
452.149	1243.72
456.903	891.835
461.655	624.832
466.405	451.46
471.152	202.808
475.897	6.97084
480.639	15.1505
485.378	57.3768
490.116	35.1664
494.85	40.3684
499.582	74.1626
504.312	26.8687
509.039	103.047
513.764	111.819
518.486	670.115
523.206	925.871
527.923	1172.92
532.638	1974.56
537.35	2090.32
542.059	1429.98
546.766	1196.19
551.471	744.987
556.173	342.889
560.873	4.14728
565.57	122.836
570.264	118.677
574.957	80.156
579.646	101.917
584.333	164.83
589.018	149.908
593.7	257.144
598.379	141.502
603.056	189.983
607.73	49.5805
612.402	223.94
617.072	294.307
621.739	572.67
626.403	781.986
631.065	1125.95
635.724	1936.44
640.381	3465.23
645.035	6339.19
649.687	12996.9
654.336	27281.4
658.983	41438.1
663.627	33900.1
668.268	25194.8
672.907	31986.3
677.544	48324.5
682.178	51279.4
686.809	30293.8
691.438	14150.5
696.065	7099.31
700.688	4221.06
705.31	2688.6
709.929	1972.79
714.545	1401.06
719.158	1155.18
723.77	866.138
728.378	659.938
732.984	523.575
737.588	328.027
742.189	495.156
746.787	323.231
751.383	218.661
755.976	47.1029
760.567	29.7596
765.155	64.6697
769.741	27.9244
774.324	92.4794
778.904	8.30421
783.482	18.552
788.058	9.59195
792.631	54.5646
797.201	29.6004
801.769	1.89889
806.334	30.3533
810.897	53.8622
815.457	24.3706
820.014	39.5403
824.569	3.66234
829.122	14.8315
833.671	72.4222
838.219	171.407
842.763	330.286
847.306	894.088
851.845	2215.83
856.382	3335.51
860.917	3640.97
865.448	2534.77
869.978	1503.37
874.505	853.963
879.029	643.564
883.55	367.186
888.069	260.855
892.586	168.568
897.1	151.144
901.611	214.456
906.12	135.943
910.626	64.8064
915.129	147.112
919.63	436.518
924.129	660.622
928.625	927.419
933.118	1231.07
937.609	1326.77
942.097	1283.11
946.582	922.905
951.065	696.83
955.546	515.55
960.023	327.768
964.499	320.456
968.971	298.118
973.441	240.373
977.909	459.869
982.374	798.672
986.836	1470.65
991.295	3058.02
995.753	5878.77
1000.21	10044.1
1004.66	15103.7
1009.11	17536.7
1013.55	17014
1018	16386.7
1022.44	14816.1
1026.88	12633.4
1031.32	9485.58
1035.75	6223.84
1040.18	3704.81
1044.61	2139.99
1049.04	1363
1053.46	933.015
1057.88	519.902
1062.3	385.052
1066.71	178.593
1071.13	146.77
1075.54	117.505
1079.94	24.5342
1084.35	7.64453
1088.75	97.398
1093.15	198.599
1097.55	182.439
1101.94	221.231
1106.34	288.042
1110.73	221.222
1115.11	295.101
1119.5	216.454
1123.88	250.995
1128.26	238.171
1132.63	297.182
1137.01	312.163
1141.38	251.72
1145.75	174.786
1150.12	28.7036
1154.48	205.854
1158.84	55.4587
1163.2	193.086
1167.55	77.6894
1171.91	139.942
1176.26	29.8868
1180.61	144.095
1184.95	10.3001
1189.29	66.6704
1193.63	34.3641
1197.97	31.2686
1202.31	2.90662
1206.64	19.7843
1210.97	39.0011
1215.29	349.911
1219.62	1.3781
1223.94	21.3167
1228.26	67.1873
1232.57	104.582
1236.89	16.9254
1241.2	3.54481
1245.51	14.0395
1249.81	130.696
1254.12	67.8438
1258.42	35.4606
1262.72	139.655
1267.01	72.603
1271.3	93.6291
1275.59	82.3602
1279.88	140.361
1284.17	71.4834
1288.45	50.9153
1292.73	254.952
1297.01	275.171
1301.28	340.641
1305.55	178.31
1309.82	152.446
1314.09	243.59
1318.35	215.999
1322.61	249.872
1326.87	217.893
1331.13	287.457
1335.38	240.658
1339.63	316.689
1343.88	204.514
1348.12	143.813
1352.37	212.757
1356.61	251.485
1360.85	123.32
1365.08	208.97
1369.31	164.556
1373.54	238.075
1377.77	160.006
1381.99	226.162
1386.22	10.6887
1390.43	164.404
1394.65	159.607
1398.87	9.2794
1403.08	134.442
1407.29	13.0949
1411.49	41.7903
1415.69	36.7723
1419.89	41.2736
1424.09	108.015
1428.29	96.4487
1432.48	45.883
1436.67	152.873
1440.86	81.1411
1445.04	249.067
1449.23	118.413
1453.4	107.496
1457.58	305.949
1461.76	146.415
1465.93	187.761
1470.1	410.764
1474.26	255.904
1478.43	75.3692
1482.59	261.945
1486.75	355.2
1490.9	267.747
1495.06	2.8819
1499.21	392.026
1503.35	184.85
1507.5	112.852
1511.64	116.199
1515.78	353.396
1519.92	208.49
1524.05	60.3281
1528.18	181.293
1532.31	112.183
1536.44	96.2145
1540.56	287.543
1544.69	15.2386
1548.8	254.957
1552.92	273.796
1557.03	177.22
1561.14	135.942
1565.25	168.144
1569.36	0.061328
