Measurement: Raman, 514 nm, ccw, Raman Data Processed
Mineral: Enstatite
Rruff sample: R070418
Ideal chemistry: MgSiO_3_
Locality: India
Source: Michael Scott
Description: Brown translucent fragments
Measured chemistry: (Mg_0.86_Fe_0.14_)_Î£=1_Si_1.00_O_3_; trace amounts of Al, Ca, Mn
Pin_id: L01848
Orientation: Laser parallel to a* (1 0 0). Fiducial mark perpendicular to laser is parallel to b [0 1 0]
Raman shift (cm-1)	intensity
112.889	0
117.854	173.387
122.816	134.292
127.775	208.349
132.73	276.225
137.683	593.369
142.633	1493.82
147.579	2236.14
152.522	1895.25
157.462	1155.54
162.4	1033.43
167.334	1409.2
172.265	782.43
177.193	752.712
182.117	1119.3
187.039	2691.07
191.958	4402.38
196.874	2469.6
201.787	1764.43
206.696	703.85
211.603	461.807
216.506	404.185
221.407	835.951
226.304	1978.34
231.199	4920.69
236.091	10846.4
240.979	4773.02
245.864	1190.16
250.747	478.811
255.626	120.959
260.503	111.639
265.376	127.18
270.247	199.853
275.114	118.865
279.979	0.186523
284.84	401.784
289.699	1099.59
294.554	2662.38
299.407	3675.98
304.257	2757.11
309.103	3194.66
313.947	5468.63
318.788	9133.04
323.626	8521.49
328.461	10617.8
333.292	19932.8
338.121	38501.4
342.947	41158.6
347.771	21802.4
352.591	11181.4
357.408	6838.74
362.222	5156.06
367.034	4749.95
371.842	5490.17
376.648	7476.68
381.45	8681.45
386.25	9519.45
391.047	14509.7
395.841	22849.1
400.632	26213.7
405.42	21818.5
410.205	16191
414.988	11914.5
419.767	8210.42
424.544	5091.84
429.318	2637.28
434.089	1636.95
438.857	1338.82
443.622	682.862
448.384	241.072
453.143	256.435
457.9	151.936
462.654	274.321
467.405	72.6406
472.153	33.6719
476.898	55.1221
481.64	62.2764
486.38	7.58545
491.116	70.6279
495.85	97.4517
500.581	25.1939
505.309	245.757
510.035	695.274
514.757	2054.63
519.477	4787.5
524.194	7500.73
528.908	5733.16
533.62	4906.64
538.328	6485.15
543.034	4928.64
547.737	5399.1
552.437	4489.62
557.134	2209.58
561.829	1280.03
566.521	999.579
571.21	1192.04
575.896	1365.38
580.58	959.577
585.261	588.626
589.939	531.515
594.614	404.233
599.286	55.771
603.956	112.092
608.623	22.564
613.287	102.126
617.949	143.818
622.608	490.157
627.264	653.973
631.917	589.611
636.568	738.026
641.215	1202.76
645.861	2344.54
650.503	4184.81
655.143	8540.19
659.78	16025
664.414	16421
669.046	9984.88
673.674	9299.18
678.301	13686.9
682.924	19447.2
687.545	13527.4
692.163	6280.88
696.778	2967
701.391	1617.71
706.001	1067
710.609	749.866
715.213	364.474
719.815	329.361
724.415	325.995
729.011	207.225
733.606	277.056
738.197	343.955
742.786	284.788
747.372	375.577
751.955	461.935
756.536	315.611
761.114	80.5942
765.69	40.3169
770.262	24.7734
774.833	171.985
779.4	64.3008
783.965	153.317
788.528	158.487
793.087	170.465
797.645	32.5688
802.199	5.58057
806.751	44.9292
811.3	85.1123
815.847	82.0483
820.391	30.1645
824.933	78.4463
829.471	88.9477
834.008	209.371
838.541	193.74
843.073	538.075
847.601	719.396
852.127	1416.72
856.65	2441.07
861.171	4222.47
865.69	1924.93
870.205	1181.46
874.718	737.106
879.229	687.883
883.737	482.894
888.242	551.24
892.745	723.907
897.246	626.561
901.743	745.203
906.239	743.095
910.731	713.114
915.221	1259.52
919.709	2113.88
924.194	4334.08
928.677	6168.9
933.157	6387.02
937.634	6602.24
942.109	5493.79
946.582	3799.46
951.052	2607.34
955.519	1580.07
959.984	1341.31
964.447	1088.53
968.906	870.482
973.364	828.22
977.819	1054.55
982.271	1536.47
986.721	2627.97
991.169	4187.06
995.614	8179.73
1000.06	15218
1004.5	26422.8
1008.93	38205.2
1013.37	35868.2
1017.8	35317.9
1022.23	37005.9
1026.66	36672.9
1031.09	33882.2
1035.51	25159
1039.93	17074.2
1044.35	10954.2
1048.76	7070.75
1053.17	5014.88
1057.58	3356.4
1061.99	2182.26
1066.4	1333.48
1070.8	921.718
1075.2	770.392
1079.6	648.123
1084	714.611
1088.39	480.706
1092.78	363.294
1097.17	132.816
1101.56	212.699
1105.94	417.239
1110.32	269.808
1114.7	251.645
1119.08	296.01
1123.45	137.863
1127.82	218.42
1132.19	175.031
1136.56	73.709
1140.92	14.4355
1145.29	128.144
1149.65	3.26953
1154	6.88477
1158.36	10.3496
1162.71	151.502
1167.06	50.5967
1171.41	102.54
1175.76	16.2861
1180.1	62.1504
1184.44	84.0137
1188.78	63.8994
1193.11	10.6699
1197.45	69.5391
1201.78	20.9209
1206.11	1.60352
1210.43	77.624
1214.76	49.8018
1219.08	51.3398
1223.4	97.4707
1227.72	61.6533
1232.03	22.876
1236.35	98.8691
1240.66	201.243
1244.96	143.258
1249.27	227.917
1253.57	163.226
1257.88	249.164
1262.17	453.744
1266.47	382.944
1270.76	474.758
1275.06	458.164
1279.35	436.438
1283.63	237.136
1287.92	330.139
1292.2	575.178
1296.48	500.66
1300.76	514.947
1305.04	532.864
1309.31	668.198
1313.58	560.818
1317.85	651.173
1322.12	491.772
1326.38	390.902
1330.64	261.782
1334.9	298.525
1339.16	230.412
1343.41	84.6025
1347.67	244.024
1351.92	137.33
1356.17	158.585
1360.41	95.6797
1364.66	177.84
1368.9	155.644
1373.14	276.049
1377.38	264.462
1381.61	235.847
1385.84	340.826
1390.08	186.903
1394.3	199.553
1398.53	225.24
1402.75	163.51
1406.97	194.719
1411.19	136.691
1415.41	228.415
1419.63	227.975
1423.84	101.282
1428.05	117.876
1432.26	408.998
1436.46	418.12
1440.67	696.915
1444.87	885.857
1449.07	1115.07
1453.27	1019.06
1457.46	1087.2
1461.66	765.332
1465.85	497.182
1470.04	365.088
1474.22	424.851
1478.41	425.542
1482.59	408.239
1486.77	192.394
1490.95	140.167
1495.12	35.0889
1499.3	25.2188
1503.47	215.88
1507.63	18.8896
1511.8	22.0693
1515.97	6.125
1520.13	1.62305
1524.29	99.5449
1528.45	181.113
1532.61	206.786
1536.76	137.628
1540.91	180.142
1545.06	86.3115
1549.21	3.08691
1553.35	170.337
1557.5	93.3486
1561.64	103.391
