Measurement: Raman, 514 nm, ccw, Raman Data Processed
Mineral: Enstatite
Rruff sample: R070418
Ideal chemistry: MgSiO_3_
Locality: India
Source: Michael Scott
Description: Brown translucent fragments
Measured chemistry: (Mg_0.86_Fe_0.14_)_Î£=1_Si_1.00_O_3_; trace amounts of Al, Ca, Mn
Pin_id: L01297
Orientation: Laser parallel to c* (0 0 1). Fiducial mark perpendicular to laser is parallel to a [1 0 0]
Raman shift (cm-1)	intensity
41.8	0
46.809	17.845
51.816	42.9533
56.819	100.997
61.819	100.139
66.816	192.617
71.81	226.364
76.8	153.671
81.788	94.1066
86.772	4.45569
91.754	40.3763
96.732	63.1181
101.707	13.1503
106.679	291.467
111.648	246.886
116.613	380.43
121.576	396.955
126.535	484.021
131.492	648.29
136.445	780.518
141.395	1140.38
146.343	1379.27
151.287	1324.29
156.228	1100.76
161.166	1136.68
166.1	948.052
171.032	772.935
175.961	794.422
180.887	1404.35
185.809	2653.7
190.729	3798.61
195.645	2845.03
200.559	1759.79
205.469	1209.84
210.376	1053.66
215.281	1104.2
220.182	1510.51
225.08	2457.44
229.976	4458.3
234.868	7576.11
239.757	4801.02
244.643	1386.8
249.527	553.322
254.407	356.59
259.284	227.211
264.158	198.278
269.029	437.646
273.898	727.004
278.763	350.34
283.625	294.648
288.485	453.924
293.341	1229.24
298.194	1598.54
303.045	1297.15
307.892	1335.28
312.736	2593.32
317.578	4263.27
322.417	4521.17
327.252	5902.13
332.085	9816.1
336.914	17155.1
341.741	18526
346.565	10607.8
351.386	5168.34
356.204	3081.7
361.019	2262.58
365.831	2283.59
370.64	2734.65
375.447	4009.58
380.25	5395.41
385.05	5628.26
389.848	6038.17
394.643	7680.05
399.434	8180.73
404.223	7012.17
409.009	6052.36
413.792	5181.28
418.573	3091.91
423.35	1521.24
428.124	447.243
432.896	19.9053
437.665	27.7971
442.431	7.97974
447.194	39.3516
451.954	318.251
456.711	243.713
461.465	68.0071
466.217	96.8877
470.966	162.849
475.712	131.744
480.455	344.471
485.195	366.799
489.932	2.58325
494.667	200.33
499.399	164.853
504.128	30.8987
508.854	533.311
513.577	1686.13
518.297	2688.52
523.015	2936.43
527.73	2401.8
532.442	1988.48
537.151	2584.39
541.858	2066.45
546.561	1906.63
551.262	1690.9
555.96	1131.25
560.656	1087.65
565.348	1725.07
570.038	2977.5
574.725	3872.96
579.409	2730.78
584.091	1352.38
588.769	827.345
593.445	579.53
598.119	177.614
602.789	62.564
607.457	14.8433
612.122	19.2068
616.784	34.7096
621.443	148.63
626.1	307.47
630.754	480.974
635.405	718.305
640.054	1113.44
644.7	1882.92
649.343	3734.93
653.983	7727.72
658.621	14274.6
663.256	16016.4
667.888	11084.7
672.518	11096.4
677.144	16940.5
681.769	23716.7
686.39	18261.4
691.009	8697.8
695.625	4017.7
700.238	2234.18
704.849	1401.91
709.457	983.934
714.062	711.133
718.665	614.943
723.265	609.395
727.863	580.448
732.457	458.081
737.049	369.291
741.639	349.085
746.225	381.602
750.81	342.235
755.391	227.998
759.97	63.4
764.546	65.2058
769.12	33.536
773.69	2.83655
778.259	39.3467
782.824	39.3641
787.387	64.2656
791.948	49.1696
796.506	81.9403
801.061	25.6382
805.613	43.0054
810.163	7.11328
814.711	40.8739
819.255	46.377
823.797	38.6547
828.337	38.2349
832.874	28.5978
837.408	92.2993
841.94	106.844
846.469	160.247
850.996	371.526
855.52	690.697
860.041	786.773
864.56	590.77
869.077	355.703
873.59	310.588
878.101	237.456
882.61	238.462
887.116	242.646
891.62	369.051
896.121	304.225
900.619	360.784
905.115	356.941
909.608	500.923
914.099	620.323
918.587	1059.92
923.073	1899.18
927.556	2904.13
932.037	3430.98
936.515	4083.53
940.991	3535.06
945.464	2522.16
949.934	1757.29
954.403	1234.97
958.868	985.151
963.331	943.69
967.792	877.767
972.25	965.29
976.705	1223.23
981.158	1744.62
985.609	2686.43
990.057	4459.61
994.503	8710.2
998.946	17177.2
1003.39	34135.5
1007.83	51735.3
1012.26	41104.4
1016.69	26743.9
1021.12	21725
1025.55	19500.2
1029.98	17314.8
1034.4	13555.9
1038.82	9862.36
1043.24	6800.4
1047.66	4218.08
1052.07	2922.84
1056.48	1941.74
1060.89	1402.5
1065.3	1032.89
1069.7	707.736
1074.1	483.668
1078.5	367.275
1082.9	252.16
1087.29	176.435
1091.68	149.196
1096.07	170.225
1100.46	177.217
1104.84	162.7
1109.23	173.398
1113.61	132.127
1117.98	147.429
1122.36	171.712
1126.73	74.4453
1131.1	137.263
1135.47	99.7675
1139.83	60.9701
1144.19	53.4576
1148.56	5.61585
1152.91	54.3159
1157.27	61.2817
1161.62	42.238
1165.97	11.1798
1170.32	12.03
1174.67	19.8505
1179.01	16.5543
1183.35	14.0537
1187.69	22.391
1192.03	16.3341
1196.36	43.5523
1200.7	66.0557
1205.03	31.1312
1209.35	35.6497
1213.68	3.99341
1218	6.28113
1222.32	22.5561
1226.64	21.6736
1230.95	12.5442
1235.27	8.78332
1239.58	58.6435
1243.89	12.72
1248.19	50.0872
1252.5	50.7866
1256.8	101.103
1261.1	40.1121
1265.4	144.781
1269.69	94.104
1273.98	108.097
1278.27	131.917
1282.56	132.985
1286.85	188.063
1291.13	115.832
1295.41	181.152
1299.69	133.293
1303.97	169.117
1308.24	136.247
1312.51	112.052
1316.78	140.388
1321.05	158.153
1325.31	185.364
1329.58	162.657
1333.84	76.6339
1338.1	127.572
1342.35	124.556
1346.61	75.7828
1350.86	181.113
1355.11	141.386
1359.35	115.43
1363.6	177.048
1367.84	105.302
1372.08	112.327
1376.32	144.825
1380.55	88.2728
1384.79	112.999
1389.02	107.72
1393.25	92.4252
1397.47	72.5388
1401.7	114.099
1405.92	82.152
1410.14	103.456
1414.36	75.8728
1418.57	129.66
1422.79	81.5966
1427	79.241
1431.21	101.7
1435.41	108.44
1439.62	77.3801
1443.82	121.634
1448.02	84.2793
1452.22	187.14
1456.41	132.875
1460.61	100.063
1464.8	86.8518
1468.99	85.9487
1473.17	73.165
1477.36	127.792
1481.54	95.7336
1485.72	137.027
1489.9	34.2978
1494.08	53.5637
1498.25	101.866
1502.42	18.252
1506.59	2.8396
1510.76	16.2759
1514.93	19.8677
1519.09	66.1846
1523.25	55.665
1527.41	45.3552
1531.57	16.269
1535.72	46.0789
1539.87	54.2341
1544.02	11.323
1548.17	14.4214
1552.32	44.3843
1556.46	51.3679
1560.6	49.5569
