Measurement: Raman, 514 nm, ccw, Raman Data Processed
Mineral: Enstatite
Rruff sample: R060630
Ideal chemistry: MgSiO_3_
Locality: unknown
Source: Gemological Institute of America
Description: Tan colored fragment
Measured chemistry: (Mg_0.89_Fe_0.07_Al_0.04_)_Σ=1_(Si_0.96_Al_0.04_)_Σ=1_O_3_
Pin_id: L00984
Orientation: Laser parallel to a* (1 0 0). Fiducial mark perpendicular to laser is parallel to -b [0 -1 0]
Raman shift (cm-1)	intensity
118.134	0
123.058	153.65
127.979	32.1348
132.898	157.709
137.814	491.847
142.728	829.121
147.639	1272.84
152.549	1684.72
157.455	1437.05
162.359	1309.02
167.261	819.715
172.161	566.575
177.058	527.106
181.952	833.284
186.845	1763.03
191.734	3009.14
196.622	3806.05
201.507	3298.44
206.389	1807.67
211.269	1218.03
216.147	1236.42
221.022	1970.3
225.895	3872.95
230.765	7713.72
235.633	11064.1
240.498	7268.95
245.361	2835.38
250.222	1033.32
255.08	192.768
259.936	609.701
264.789	172.319
269.64	218.163
274.488	87.4883
279.334	280.733
284.178	723.804
289.019	1419.17
293.857	2204.48
298.693	2360.53
303.527	1672.06
308.358	1419.83
313.187	1976.79
318.013	3090.73
322.837	4541.29
327.659	6365.67
332.478	9062.19
337.294	12867.3
342.108	17571.2
346.92	19823.8
351.729	17556.4
356.535	13348.1
361.34	9268.83
366.141	6875.59
370.94	5806.33
375.737	5327.01
380.531	6233.63
385.323	6710.18
390.113	7202.64
394.9	8159.02
399.684	8687.29
404.466	8223.44
409.245	7747.79
414.022	7979.73
418.797	7133.52
423.569	4738.02
428.338	2165.58
433.105	638.143
437.87	104.688
442.632	61.1211
447.391	98.4609
452.149	239.855
456.903	108.833
461.655	209.287
466.405	7.70703
471.152	78.9502
475.897	146.194
480.639	175.337
485.378	84.2275
490.116	83.875
494.85	54.3779
499.582	103.031
504.312	532.898
509.039	1006.81
513.764	1874.02
518.486	2483.2
523.206	2547.41
527.923	2888.82
532.638	3375.63
537.35	3028.34
542.059	1974.8
546.766	1615.49
551.471	1393.95
556.173	1338.23
560.873	1090.26
565.57	1704.77
570.264	3190.63
574.957	4100.82
579.646	3055.31
584.333	1350.05
589.018	921.062
593.7	403.302
598.379	101.739
603.056	130.277
607.73	15.0078
612.402	20.0791
617.072	239.383
621.739	391.665
626.403	761.4
631.065	1510.19
635.724	2580.12
640.381	3399.7
645.035	4607.77
649.687	7586.96
654.336	11746.9
658.983	14319.7
663.627	13369.1
668.268	11403.9
672.907	13432.3
677.544	20882.1
682.178	30156.1
686.809	30072.5
691.438	19142.6
696.065	10431.3
700.688	6196.48
705.31	3954.26
709.929	2737.59
714.545	2297.45
719.158	1905.86
723.77	1806.82
728.378	1573.31
732.984	1261.32
737.588	858.842
742.189	829.627
746.787	702.938
751.383	642.393
755.976	514.875
760.567	143.094
765.155	115.863
769.741	40.127
774.324	105.369
778.904	2.58008
783.482	54.7051
788.058	83.4141
792.631	58.6426
797.201	100.922
801.769	65.5859
806.334	195.06
810.897	67.8262
815.457	73.7832
820.014	324.285
824.569	401.51
829.122	606.482
833.671	594.227
838.219	1377.76
842.763	1331.11
847.306	1371.3
851.845	858.338
856.382	420.256
860.917	547.068
865.448	505.805
869.978	420.477
874.505	292.109
879.029	547.812
883.55	767.045
888.069	746.592
892.586	809.268
897.1	917.865
901.611	1320.41
906.12	1349.18
910.626	1843.94
915.129	2282.76
919.63	3037.11
924.129	4115.64
928.625	5929.15
933.118	6943.12
937.609	6093.12
942.097	5279.97
946.582	4666.22
951.065	4163.9
955.546	3282.64
960.023	2306.07
964.499	1662.25
968.971	1375.25
973.441	1474.86
977.909	2031.11
982.374	3155.04
986.836	5617.55
991.295	10235.6
995.753	17376.4
1000.21	27465.8
1004.66	37746.7
1009.11	41591.2
1013.55	37160.5
1018	30372.4
1022.44	26234.5
1026.88	25083.1
1031.32	24725.6
1035.75	21324.9
1040.18	16224.8
1044.61	12005.3
1049.04	8622.17
1053.46	5995.59
1057.88	4259.31
1062.3	3071.41
1066.71	2019.68
1071.13	1390.01
1075.54	912.133
1079.94	665.773
1084.35	499.176
1088.75	240.242
1093.15	230.348
1097.55	295.412
1101.94	296.848
1106.34	231.898
1110.73	268.635
1115.11	105.041
1119.5	580.695
1123.88	330.568
1128.26	81.375
1132.63	63.0273
1137.01	156.334
1141.38	13.0156
1145.75	1.11328
1150.12	31.3301
1154.48	4.62891
1158.84	68.9922
1163.2	48.2793
1167.55	48.5469
1171.91	1.74805
1176.26	54.1855
1180.61	147.133
1184.95	52.1309
1189.29	17.2305
1193.63	78.5762
1197.97	138.356
1202.31	54.1445
1206.64	46.3457
1210.97	110.379
1215.29	137.481
1219.62	11.5332
1223.94	65.4121
1228.26	116.535
1232.57	168.478
1236.89	170.684
1241.2	62.0156
1245.51	161.785
1249.81	200.775
1254.12	248.023
1258.42	282.469
1262.72	122.283
1267.01	250.449
1271.3	253.769
1275.59	349.461
1279.88	265.383
1284.17	427.857
1288.45	380.043
1292.73	256.707
1297.01	397.283
1301.28	387.508
1305.55	525.354
1309.82	352.859
1314.09	261.766
1318.35	180.383
1322.61	292.945
1326.87	482.508
1331.13	198.725
1335.38	344.242
1339.63	297.301
1343.88	310.348
1348.12	384.44
1352.37	415.828
1356.61	448.522
1360.85	385.35
1365.08	280.076
1369.31	380.443
1373.54	389.766
1377.77	227.461
1381.99	257.443
1386.22	252.606
1390.43	340.381
1394.65	272.068
1398.87	344.685
1403.08	191.883
1407.29	375.035
1411.49	233.326
1415.69	250.652
1419.89	137.121
1424.09	344.6
1428.29	118.859
1432.48	328.471
1436.67	142.228
1440.86	360.812
1445.04	135.398
1449.23	209.68
1453.4	254.713
1457.58	116.144
1461.76	413.312
1465.93	197.174
1470.1	306.514
1474.26	421.91
1478.43	129.408
1482.59	99.9356
1486.75	190.463
1490.9	278.131
1495.06	99.9277
1499.21	163.93
1503.35	193.627
1507.5	97.4844
1511.64	78.9981
1515.78	221.545
1519.92	311.928
1524.05	272.219
1528.18	101.744
1532.31	290.727
1536.44	174.43
1540.56	205.869
1544.69	10.7402
1548.8	24.4941
1552.92	135.232
1557.03	45.627
1561.14	98.3066
1565.25	104.652
1569.36	33.1914
