Measurement: Raman, 514 nm, ccw, Raman Data Processed
Mineral: Enstatite
Rruff sample: R040094
Ideal chemistry: MgSiO_3_
Locality: unknown
Source: University of Arizona Mineral Museum
Description: Dark green massive, associated with anthophyllite
Measured chemistry: (Mg_0.84_Fe_0.15_)(Si_0.99_Al_0.01_)O_3_; = Enstatite :  [box](Mg_0.83_Fe_0.14_Na_0.01_Ca_0.01_)_7_(Si_0.99_Al_0.01_)_8_O_22_(OH)_2_ = Anthophyllite
Pin_id: M00323
Orientation: Laser parallel to a* (1 0 0). Fiducial mark perpendicular to laser is parallel to -b [0 -1 0]
Raman shift (cm-1)	intensity
138.345	0
142.488	163.992
146.629	663.758
150.768	904.592
154.905	790.827
159.04	423.777
163.174	143.953
167.306	175.359
171.436	80.93
175.564	112.716
179.69	168.105
183.814	181.17
187.937	601.545
192.057	1926.94
196.176	2161.36
200.293	1463.39
204.408	903.726
208.521	862.778
212.633	725.275
216.742	558.576
220.85	567.014
224.956	821.667
229.06	1228.1
233.162	2742.67
237.263	5719.65
241.361	5717.31
245.458	2605
249.553	849.531
253.646	362.68
257.737	138.959
261.827	4.847
265.914	13.571
270	108.902
274.084	204.064
278.166	63.111
282.246	68.232
286.325	142.955
290.402	483.936
294.477	1045.4
298.55	1918.02
302.621	2286.62
306.69	1941.99
310.758	2026.36
314.824	3103.99
318.888	5430.7
322.95	6498.98
327.01	5903.66
331.069	6725.7
335.126	11305.5
339.181	20480.5
343.234	27890.6
347.285	22857.9
351.335	13635
355.383	8010.66
359.429	5555.08
363.473	4456.35
367.515	4037.43
371.556	3991.71
375.595	4701.68
379.632	5892.5
383.667	6285.16
387.7	6531.22
391.732	8300.33
395.762	12640.4
399.79	17060.1
403.816	17779.4
407.841	15238.4
411.864	12376.2
415.884	9856.44
419.904	7466.3
423.921	5445.1
427.937	3802.81
431.951	2422.26
435.963	1677.64
439.973	1277.59
443.981	1006.17
447.988	548.773
451.993	380.738
455.996	339.103
459.998	327.3
463.998	291.071
467.996	221.824
471.992	189.027
475.986	113.644
479.979	8.652
483.97	34.54
487.959	59.24
491.946	4.536
495.932	24.117
499.916	85.217
503.898	199.809
507.878	255.943
511.857	600.646
515.834	1231.95
519.809	2447.86
523.782	4272.41
527.754	5044.62
531.723	3739.56
535.692	3464.3
539.658	4487.88
543.623	3877.34
547.585	3381.65
551.547	3836.76
555.506	2905.66
559.464	1690.35
563.42	1071.81
567.374	906.064
571.326	755.112
575.277	900.019
579.226	674.907
583.173	558.9
587.119	302.126
591.063	312.738
595.005	225.959
598.945	121.756
602.884	48.84
606.821	53.993
610.756	14.525
614.689	56.955
618.621	17.062
622.551	9.719
626.479	72.211
630.406	158.979
634.331	235.8
638.254	404.234
642.175	595.522
646.095	1006.87
650.013	1739.98
653.929	2952.45
657.844	5466.78
661.757	9576.5
665.668	10757.8
669.577	7911.12
673.485	6624.5
677.391	7377.73
681.296	10000.8
685.198	12433.7
689.099	9806.52
692.998	5558.16
696.896	2980.67
700.792	1697.03
704.686	1151.26
708.578	866.359
712.469	602.322
716.358	509.156
720.246	393.865
724.131	308.45
728.015	365.914
731.898	354.261
735.778	317.491
739.657	300.604
743.535	317.597
747.41	373.469
751.284	451.167
755.156	509.774
759.027	397.323
762.896	205.698
766.763	87.838
770.628	14.394
774.492	20.017
778.354	52.746
782.215	48.605
786.073	44.101
789.93	10.116
793.786	151.379
797.64	42.224
801.492	66.43
805.342	32.95
809.191	46.421
813.038	57.768
816.884	72.105
820.727	55.424
824.569	57.708
828.41	56.201
832.249	48.156
836.086	62.33
839.921	89.476
843.755	95.6
847.587	281.067
851.418	446.794
855.247	934.874
859.074	1327.95
862.899	1519.02
866.723	1206.09
870.545	835.173
874.366	572.265
878.185	453.371
882.002	338.498
885.818	274.654
889.632	300.838
893.444	355.056
897.255	431.314
901.064	499.646
904.872	487.118
908.677	530.697
912.482	577.375
916.284	738.177
920.085	1105.9
923.884	1967.85
927.682	3442.4
931.478	4522.35
935.272	4530.71
939.065	4728.9
942.856	4605.08
946.646	3885.97
950.433	2944.67
954.22	2084.64
958.004	1575.93
961.787	1270.73
965.569	1152.24
969.348	975.911
973.126	917.649
976.903	921.603
980.678	1015.81
984.451	1249.17
988.223	1755.7
991.993	2513.38
995.761	3899.22
999.528	6271.22
1003.29	9842.38
1007.06	15323.7
1010.82	22625.2
1014.58	23966.9
1018.34	23178.7
1022.1	23800.7
1025.85	24592.9
1029.6	23985.2
1033.36	22938.1
1037.11	19470.8
1040.86	14923.8
1044.6	10796.8
1048.35	7620.39
1052.09	5647.14
1055.84	4179.87
1059.58	3251.83
1063.32	2332.24
1067.06	1743.37
1070.79	1357.89
1074.53	1057.68
1078.26	924.876
1081.99	732.919
1085.72	673.784
1089.45	657.556
1093.18	812.114
1096.9	1033.48
1100.62	1094.38
1104.35	895.352
1108.07	567.379
1111.79	430.26
1115.5	380.625
1119.22	309.856
1122.93	286.201
1126.64	247.671
1130.36	274.53
1134.07	218.609
1137.77	211.391
1141.48	195.468
1145.18	130.084
1148.89	148.552
1152.59	67.068
1156.29	105.995
1159.99	111.34
1163.68	26.65
1167.38	52.786
1171.07	70.337
1174.77	29.083
1178.45	55.296
1182.14	56.865
1185.83	67.84
1189.52	13.878
1193.2	11.168
1196.88	46.992
1200.57	70.367
1204.24	8.547
1207.92	12.465
1211.6	11.526
1215.28	38.005
1218.95	1.088
1222.62	10.204
1226.29	31.839
1229.96	16.656
1233.63	61.774
1237.29	39.049
1240.95	48.301
1244.62	37.589
1248.28	16.921
1251.94	52.394
1255.6	60.444
1259.25	11.736
1262.91	36.973
1266.56	13.579
1270.21	44.656
1273.86	29.698
1277.51	80.535
1281.16	354.13
1284.8	122.495
1288.45	159.63
1292.09	81.604
1295.73	42.268
1299.37	113.682
1303.01	131.865
1306.64	70.826
1310.28	80.568
1313.91	90.085
1317.55	65.369
1321.17	91.44
1324.8	81.296
1328.43	70.566
1332.06	68.997
1335.68	59.055
1339.3	51.756
1342.92	84.07
1346.54	123.612
1350.16	172.412
1353.78	99.983
1357.39	84.222
1361.01	86.209
1364.62	93.389
1368.23	127.677
1371.84	77.985
1375.45	138.874
1379.05	62.252
1382.66	168.101
1386.26	172.447
1389.86	212.054
1393.46	253.609
1397.06	90.009
1400.65	101.647
1404.25	57.352
1407.85	121.371
1411.44	91.236
1415.03	95.105
1418.62	96.461
1422.2	80.08
1425.79	133.54
1429.38	161.432
1432.96	63.843
1436.54	117.05
1440.12	68.808
1443.7	44.307
1447.28	89.515
1450.85	149.674
1454.43	47.846
1458	113.987
1461.57	146.628
1465.14	147.785
1468.71	97.618
1472.28	121.105
1475.84	111.722
1479.41	77.301
1482.97	12.946
1486.53	70.175
1490.09	54.823
1493.65	61.75
1497.2	98.953
1500.76	100.388
1504.31	98.266
1507.87	76.779
1511.42	0.01
1514.97	66.108
1518.51	90.471
1522.06	15.547
1525.6	27.704
1529.15	0
