Measurement: Raman, 514 nm, ccw, Raman Data Processed
Mineral: Enstatite
Rruff sample: R040094
Ideal chemistry: MgSiO_3_
Locality: unknown
Source: University of Arizona Mineral Museum
Description: Dark green massive, associated with anthophyllite
Measured chemistry: (Mg_0.84_Fe_0.15_)(Si_0.99_Al_0.01_)O_3_; = Enstatite :  [box](Mg_0.83_Fe_0.14_Na_0.01_Ca_0.01_)_7_(Si_0.99_Al_0.01_)_8_O_22_(OH)_2_ = Anthophyllite
Pin_id: M00323
Orientation: Laser parallel to a* (1 0 0). Fiducial mark perpendicular to laser is parallel to -b [0 -1 0]
Raman shift (cm-1)	intensity
123.138	0
127.288	2321.08
131.436	11837.9
135.582	16355.9
139.726	6579.09
143.868	2758.33
148.008	1094
152.147	200.244
156.284	29.538
160.418	64.417
164.551	151.815
168.683	80.034
172.812	42.881
176.939	69.636
181.065	103.576
185.188	152.7
189.31	401.557
193.43	814.049
197.549	906.095
201.665	673.838
205.779	701.574
209.892	434.503
214.003	229.204
218.112	155.852
222.219	155.148
226.324	330.173
230.428	705.601
234.529	1844.22
238.629	3132.14
242.727	1691.26
246.823	474.29
250.917	36.812
255.01	31.707
259.101	63.044
263.189	74.435
267.276	127.348
271.362	10.414
275.445	142.916
279.526	31.07
283.606	120.599
287.684	68.196
291.76	156.376
295.834	526.626
299.907	848.501
303.978	748.215
308.046	705.466
312.113	793.674
316.179	1002.42
320.242	1469.12
324.304	2365.79
328.363	3646.45
332.421	6360.24
336.478	12495.4
340.532	23120.8
344.585	25605.8
348.635	16519
352.684	9190.35
356.731	5903.4
360.777	4357.27
364.82	3301.91
368.862	2685.3
372.902	2344.15
376.94	2126.1
380.977	2006.92
385.012	1996.78
389.044	2217.48
393.075	2889.29
397.105	4067.8
401.132	5201.67
405.158	5348.13
409.182	5018.38
413.204	4435.33
417.224	3713.28
421.243	3231.78
425.26	2618.21
429.275	2090.06
433.288	2162.51
437.3	3296.87
441.309	5124.41
445.317	3782.97
449.323	1689.87
453.328	929.083
457.331	716.658
461.331	549.014
465.33	516.291
469.328	427.73
473.323	291.17
477.317	193.911
481.309	51.159
485.3	5.004
489.288	19.274
493.275	9.344
497.26	28.24
501.243	54.095
505.225	8.23
509.205	67.434
513.183	109.891
517.159	256.189
521.133	488.385
525.106	644.467
529.077	540.451
533.046	581.905
537.014	925.332
540.98	1176.38
544.944	778.557
548.906	738.818
552.867	551.093
556.825	309.304
560.783	183.422
564.738	148.454
568.692	96.424
572.643	170.463
576.594	150.806
580.542	181.641
584.489	142.962
588.434	197.656
592.377	206.544
596.318	169.645
600.258	189.963
604.196	99.698
608.132	88.809
612.067	97.384
616	82.383
619.931	105.56
623.861	174.862
627.788	334.048
631.714	808.728
635.639	615.17
639.561	837.487
643.482	1352.04
647.401	1977.05
651.319	3370.27
655.234	6133.5
659.148	12026.6
663.061	18212.8
666.971	15467
670.88	11202.9
674.787	11223.9
678.693	15571.8
682.597	23274.9
686.499	24248.2
690.399	15521.1
694.298	8264
698.195	4486.94
702.09	2884.88
705.984	1967.83
709.876	1454.79
713.766	1054.75
717.654	865.722
721.541	671.698
725.426	515.54
729.31	422.352
733.191	391.344
737.071	331.333
740.95	325.312
744.827	336.274
748.702	310.217
752.575	421.137
756.447	311.032
760.316	160.897
764.185	103.591
768.051	35.489
771.916	39.229
775.78	34.125
779.641	16.616
783.501	26.232
787.359	86.018
791.216	49.077
795.071	1.689
798.924	5.644
802.775	3.859
806.625	8.249
810.474	29.525
814.32	4.722
818.165	37.233
822.008	36.386
825.85	42.682
829.69	30.213
833.528	20.038
837.364	62.211
841.199	59.339
845.033	98.421
848.864	248.467
852.694	474.476
856.523	967.449
860.349	1397.39
864.174	1434.29
867.998	1141.16
871.819	779.993
875.639	526.794
879.458	331.563
883.274	198.304
887.09	183.013
890.903	163.691
894.715	186.35
898.525	213.985
902.334	195.607
906.14	233.239
909.946	169.88
913.749	168.507
917.551	154.188
921.352	272.814
925.15	261.104
928.947	366.938
932.743	470.896
936.537	633.582
940.329	728.226
944.119	747.614
947.908	704.284
951.696	681.168
955.481	544.107
959.265	478.096
963.048	394.653
966.829	349.311
970.608	306.229
974.385	245.068
978.161	289.511
981.936	339.277
985.708	425.921
989.479	666.144
993.249	964.151
997.017	1666.56
1000.78	2782.23
1004.55	4291.47
1008.31	6221.98
1012.07	7545.52
1015.83	7456.09
1019.59	7316.71
1023.35	7297.37
1027.1	6674.06
1030.86	6135.79
1034.61	5047.57
1038.36	3757.4
1042.11	2600.29
1045.85	1883.17
1049.6	1308.36
1053.34	976.789
1057.08	789.621
1060.82	639.685
1064.56	513.821
1068.3	474.518
1072.04	468.055
1075.77	368.522
1079.5	340.349
1083.23	403.658
1086.96	667.887
1090.69	963.746
1094.42	861.593
1098.14	759.564
1101.87	770.116
1105.59	437
1109.31	349.143
1113.03	259.367
1116.74	281.805
1120.46	171.807
1124.17	178.401
1127.88	228.657
1131.59	239.639
1135.3	203.885
1139.01	154.813
1142.71	162.078
1146.42	193.642
1150.12	158.947
1153.82	70.107
1157.52	142.312
1161.22	93.336
1164.92	79.224
1168.61	149.694
1172.3	144.84
1175.99	109.795
1179.68	103.48
1183.37	92.101
1187.06	82.644
1190.75	16.84
1194.43	5.357
1198.11	19.072
1201.79	25.161
1205.47	72.625
1209.15	2.562
1212.83	43.587
1216.5	27.208
1220.17	6.138
1223.84	36.337
1227.51	0.783
1231.18	33.247
1234.85	15.966
1238.51	41.41
1242.18	41.169
1245.84	15.786
1249.5	10.333
1253.16	61.383
1256.82	29.727
1260.47	39.604
1264.12	39.372
1267.78	47.898
1271.43	24.272
1275.08	28.518
1278.73	41.513
1282.37	7.638
1286.02	65.01
1289.66	23.459
1293.3	66.737
1296.94	73.85
1300.58	50.797
1304.22	82.573
1307.86	109.192
1311.49	65.656
1315.12	48.941
1318.76	41.349
1322.38	64.322
1326.01	17.137
1329.64	36.778
1333.27	101.263
1336.89	116.613
1340.51	41.605
1344.13	68.332
1347.75	45.339
1351.37	35.152
1354.98	12.339
1358.6	57.137
1362.21	56.264
1365.82	105.4
1369.43	88.315
1373.04	144.969
1376.65	134.799
1380.25	2.887
1383.86	46.558
1387.46	57.483
1391.06	28.526
1394.66	74.162
1398.26	38.97
1401.85	80.525
1405.45	106.181
1409.04	46.965
1412.63	33.815
1416.22	58.264
1419.81	22.838
1423.4	69.839
1426.99	50.086
1430.57	23.109
1434.15	102.954
1437.73	87.284
1441.32	55.151
1444.89	124.215
1448.47	90.912
1452.05	103.158
1455.62	74.152
1459.19	9.358
1462.76	33.866
1466.33	90.138
1469.9	75.459
1473.47	31.924
1477.03	81.238
1480.6	322.424
1484.16	118.627
1487.72	116.7
1491.28	121.033
1494.83	76.51
1498.39	78.295
1501.94	10.598
1505.5	73.958
1509.05	79.517
1512.6	66.55
1516.15	45.376
1519.69	2.069
1523.24	180.977
1526.79	101.251
