Measurement: Raman, 514 nm, ccw, Raman Data Processed
Mineral: Enstatite
Rruff sample: R070418
Ideal chemistry: MgSiO_3_
Locality: India
Source: Michael Scott
Description: Brown translucent fragments
Measured chemistry: (Mg_0.86_Fe_0.14_)_Î£=1_Si_1.00_O_3_; trace amounts of Al, Ca, Mn
Pin_id: L00897
Orientation: Laser parallel to b* (0 1 0). Fiducial mark perpendicular to laser is parallel to c [0 0 1]
Raman shift (cm-1)	intensity
41.8	0
46.809	17.5604
51.816	38.772
56.819	67.5813
61.819	90.3683
66.816	145.982
71.81	171.216
76.8	121.022
81.788	58.3497
86.772	0.920929
91.754	30.1134
96.732	43.6288
101.707	16.3798
106.679	215.936
111.648	282.208
116.613	430.182
121.576	477.695
126.535	587.375
131.492	761.915
136.445	844.111
141.395	1056.67
146.343	1148.16
151.287	1018.47
156.228	852.781
161.166	717.095
166.1	707.446
171.032	565.6
175.961	575.472
180.887	681.213
185.809	920.78
190.729	1229.37
195.645	1209.53
200.559	1036.03
205.469	962.712
210.376	916.605
215.281	1056.8
220.182	1377.62
225.08	2131.8
229.976	3813.3
234.868	6000.98
239.757	4603.39
244.643	1701.96
249.527	1094.42
254.407	963.678
259.284	941.619
264.158	873.213
269.029	1255.44
273.898	1404.27
278.763	844.708
283.625	510.736
288.485	675.755
293.341	1137.7
298.194	1353.03
303.045	1070.73
307.892	974.814
312.736	1564.2
317.578	2651.08
322.417	3445.42
327.252	4713.2
332.085	7465.43
336.914	11995.1
341.741	13654.1
346.565	8390.62
351.386	4114.72
356.204	2355.07
361.019	1602.75
365.831	1352.52
370.64	1259.3
375.447	1612.53
380.25	2079.25
385.05	1934.55
389.848	1585.46
394.643	1557.9
399.434	1418.73
404.223	1168.95
409.009	998.546
413.792	1094.5
418.573	676.814
423.35	258.467
428.124	13.4509
432.896	47.3218
437.665	74.1841
442.431	37.3147
447.194	40.4153
451.954	216.371
456.711	244.591
461.465	183.07
466.217	202.8
470.966	239.773
475.712	177.978
480.455	80.4092
485.195	104.072
489.932	16.9497
494.667	59.8435
499.399	105.997
504.128	41.7075
508.854	123.455
513.577	374.897
518.297	783.673
523.015	812.745
527.73	831.12
532.442	1137.71
537.151	1791.48
541.858	1425.42
546.561	935.491
551.262	780.668
555.96	555.927
560.656	507.243
565.348	682.612
570.038	1054.03
574.725	1363.26
579.409	1124.51
584.091	567.207
588.769	460.927
593.445	352.288
598.119	185.897
602.789	145.542
607.457	180.173
612.122	182.825
616.784	266.477
621.443	419.801
626.1	466.549
630.754	680.614
635.405	877.639
640.054	1338.52
644.7	2203.3
649.343	4015.74
653.983	8099.69
658.621	14803.4
663.256	17833.7
667.888	13018.1
672.518	12578.4
677.144	18986.7
681.769	26793.6
686.39	23132
691.009	11331
695.625	5253.59
700.238	2721.34
704.849	1710.26
709.457	1131.51
714.062	815.7
718.665	651.006
723.265	429.456
727.863	477.944
732.457	337.311
737.049	274.547
741.639	215.652
746.225	180.625
750.81	199.468
755.391	112.18
759.97	88.7554
764.546	28.822
769.12	5.74072
773.69	43.8633
778.259	8.02954
782.824	0.249268
787.387	72.8074
791.948	52.8535
796.506	16.3833
801.061	20.3052
805.613	15.6585
810.163	32.2556
814.711	57.0947
819.255	24.1748
823.797	7.38818
828.337	39.2676
832.874	1.85522
837.408	20.3928
841.94	54.877
846.469	83.3247
850.996	60.7568
855.52	210.179
860.041	168.59
864.56	143.997
869.077	99.404
873.59	115.82
878.101	119.251
882.61	161.706
887.116	144.193
891.62	127.719
896.121	212.612
900.619	185.151
905.115	217.849
909.608	226.758
914.099	398.853
918.587	589.846
923.073	849.285
927.556	1354.4
932.037	2173.11
936.515	3025.86
940.991	2865.21
945.464	2104.53
949.934	1496.64
954.403	1192.85
958.868	1029.67
963.331	901.433
967.792	965.263
972.25	947.215
976.705	1206.19
981.158	1755
985.609	2649.08
990.057	4184.42
994.503	7813
998.946	15963.8
1003.39	33232.9
1007.83	52859.3
1012.26	43406.9
1016.69	23554.8
1021.12	15243.9
1025.55	11848.2
1029.98	9381.08
1034.4	7327.13
1038.82	5198.57
1043.24	3411.12
1047.66	2271.41
1052.07	1558.06
1056.48	1177.65
1060.89	843.214
1065.3	544.689
1069.7	493.429
1074.1	400.371
1078.5	302.305
1082.9	192.583
1087.29	177.509
1091.68	154.57
1096.07	163.734
1100.46	112.72
1104.84	180.642
1109.23	147.688
1113.61	177.061
1117.98	212.12
1122.36	224.04
1126.73	166.335
1131.1	140.419
1135.47	120.91
1139.83	16.3562
1144.19	50.6189
1148.56	52.6457
1152.91	60.4836
1157.27	119.512
1161.62	51.0059
1165.97	40.7034
1170.32	43.97
1174.67	11.9582
1179.01	8.10645
1183.35	48.6072
1187.69	0.83374
1192.03	99.4561
1196.36	22.719
1200.7	52.7505
1205.03	56.6279
1209.35	7.58106
1213.68	35.2344
1218	7.42481
1222.32	30.0552
1226.64	8.81323
1230.95	92.8716
1235.27	68.0601
1239.58	31.8355
1243.89	44.2546
1248.19	60.344
1252.5	45.148
1256.8	6.68164
1261.1	17.9043
1265.4	56.825
1269.69	95.4736
1273.98	68.9351
1278.27	78.9534
1282.56	117.635
1286.85	127.044
1291.13	106.931
1295.41	136.589
1299.69	93.9536
1303.97	161.877
1308.24	197.743
1312.51	186.64
1316.78	162.145
1321.05	81.824
1325.31	146.093
1329.58	104.291
1333.84	86.697
1338.1	106.154
1342.35	143.802
1346.61	80.1655
1350.86	115.935
1355.11	95.8247
1359.35	92.0237
1363.6	109.557
1367.84	142.628
1372.08	93.5754
1376.32	129.711
1380.55	145.715
1384.79	127.295
1389.02	59.5352
1393.25	67.4329
1397.47	13.7566
1401.7	60.8848
1405.92	91.6008
1410.14	77.2041
1414.36	126.88
1418.57	67.5178
1422.79	72.9202
1427	52.3669
1431.21	98.9512
1435.41	14.8999
1439.62	104.952
1443.82	150.354
1448.02	81.7012
1452.22	115.835
1456.41	88.6992
1460.61	71.1367
1464.8	92.6646
1468.99	122.494
1473.17	110.405
1477.36	138.342
1481.54	76.0933
1485.72	149.176
1489.9	86.4346
1494.08	111.811
1498.25	68.2602
1502.42	77.3125
1506.59	30.9893
1510.76	128.019
1514.93	116.329
1519.09	71.8857
1523.25	162.715
1527.41	13.542
1531.57	84.0488
1535.72	22.8818
1539.87	105.326
1544.02	100.641
1548.17	69.5708
1552.32	52.6875
1556.46	128.653
1560.6	23.1328
