Measurement: Raman, 514 nm, ccw, Raman Data Processed
Mineral: Enstatite
Rruff sample: R050644
Ideal chemistry: MgSiO_3_
Locality: Morogoro, Tanzania
Source: Jibamitra Ganguly
Description: Light brown crystal fragment
Measured chemistry: (Mg_0.90_Fe_0.10_)SiO_3_
Pin_id: L01052
Orientation: Laser parallel to b* (0 1 0). Fiducial mark perpendicular to laser is parallel to c [0 0 1]
Raman shift (cm-1)	intensity
113.208	0
118.134	35.8638
123.058	20.9619
127.979	114.116
132.898	198.349
137.814	393.572
142.728	246.704
147.639	374.289
152.549	255.909
157.455	169.058
162.359	5.25391
167.261	98.3823
172.161	24.0727
177.058	14.6821
181.952	61.207
186.845	151.788
191.734	334.247
196.622	492.362
201.507	721.523
206.389	551.245
211.269	486.62
216.147	549.142
221.022	896.439
225.895	2277.81
230.765	3696.71
235.633	3865.78
240.498	3205.54
245.361	962.395
250.222	725.337
255.08	782.359
259.936	921.983
264.789	1002.39
269.64	1242.61
274.488	1317.19
279.334	983.091
284.178	314.507
289.019	581.899
293.857	937.778
298.693	1010.12
303.527	886.386
308.358	907.861
313.187	1620.56
318.013	2621.28
322.837	3619.23
327.659	5046.21
332.478	7929.6
337.294	10026.1
342.108	9966.72
346.92	5895.05
351.729	2699.89
356.535	1556.68
361.34	1027
366.141	781.375
370.94	874.546
375.737	1096.78
380.531	1137.07
385.323	766.397
390.113	603.753
394.9	595.141
399.684	462.563
404.466	335.021
409.245	255.544
414.022	292.137
418.797	212.791
423.569	136.5
428.338	55.2402
433.105	36.6543
437.87	5.229
442.632	12.7764
447.391	135.797
452.149	194.866
456.903	340.981
461.655	357.136
466.405	216.424
471.152	352.856
475.897	252.326
480.639	131.826
485.378	102.635
490.116	62.3921
494.85	0.424316
499.582	0.103516
504.312	39.6489
509.039	77.2993
513.764	143.982
518.486	269.716
523.206	358.018
527.923	536.616
532.638	947.733
537.35	1138.03
542.059	1102.44
546.766	609.904
551.471	495.396
556.173	363.909
560.873	349.429
565.57	336.473
570.264	381.299
574.957	407.829
579.646	343.762
584.333	338.525
589.018	339.062
593.7	291.609
598.379	452.168
603.056	283.734
607.73	273.78
612.402	408.355
617.072	497.113
621.739	825.475
626.403	1089.82
631.065	976.67
635.724	1300.35
640.381	1763.71
645.035	2878.68
649.687	5405.59
654.336	10041.2
658.983	14304.3
663.627	14858
668.268	11415.6
672.907	12774.4
677.544	19178.8
682.178	23110.5
686.809	18583.1
691.438	9055.94
696.065	3929.85
700.688	2143.32
705.31	1389.78
709.929	812.227
714.545	694.915
719.158	406.705
723.77	388.553
728.378	288.397
732.984	247.232
737.588	188.06
742.189	114.884
746.787	130.701
751.383	114.504
755.976	33.4136
760.567	72.1977
765.155	113.902
769.741	66.2681
774.324	29.582
778.904	39.4165
783.482	15.2075
788.058	112.728
792.631	39.7466
797.201	88.2944
801.769	28.8667
806.334	61.0674
810.897	140.15
815.457	40.4268
820.014	75.9951
824.569	8.47168
829.122	30.8613
833.671	46.8047
838.219	93.585
842.763	222.492
847.306	204.53
851.845	313.704
856.382	386.019
860.917	568.476
865.448	354.083
869.978	148.848
874.505	141.774
879.029	242.87
883.55	264.667
888.069	130.117
892.586	205.572
897.1	232.627
901.611	240.167
906.12	244.744
910.626	315.597
915.129	320.126
919.63	547.036
924.129	995.009
928.625	1632.27
933.118	2416.26
937.609	2698.94
942.097	2021.32
946.582	1285.52
951.065	864.816
955.546	740.864
960.023	707.129
964.499	763.773
968.971	766.987
973.441	917.662
977.909	1089.66
982.374	1557.96
986.836	2396.58
991.295	4066.59
995.753	7945.91
1000.21	16829.5
1004.66	35385.5
1009.11	47499.8
1013.55	35988.3
1018	18212.1
1022.44	12331.3
1026.88	10447.9
1031.32	8375.14
1035.75	5845.92
1040.18	3761.44
1044.61	2159.47
1049.04	1528.16
1053.46	1052.09
1057.88	746.166
1062.3	589.806
1066.71	270.206
1071.13	349.869
1075.54	324.976
1079.94	362.191
1084.35	359.166
1088.75	171.052
1093.15	115.133
1097.55	82.8154
1101.94	197.678
1106.34	125.905
1110.73	60.4502
1115.11	209.149
1119.5	179.112
1123.88	317.034
1128.26	122.195
1132.63	107.32
1137.01	63.1289
1141.38	78.9443
1145.75	17.7568
1150.12	79.5879
1154.48	76.3994
1158.84	49.1826
1163.2	27.8906
1167.55	39.5918
1171.91	68.0352
1176.26	50.3408
1180.61	17.5303
1184.95	16.2441
1189.29	30.1621
1193.63	83.1572
1197.97	3.70508
1202.31	88.1436
1206.64	15.3281
1210.97	48.2236
1215.29	32.2861
1219.62	34.6065
1223.94	74.5625
1228.26	25.2646
1232.57	84.1641
1236.89	161.177
1241.2	148.435
1245.51	80.291
1249.81	97.501
1254.12	107.366
1258.42	37.0234
1262.72	269.424
1267.01	310.596
1271.3	180.554
1275.59	248.043
1279.88	222.565
1284.17	260.933
1288.45	271.841
1292.73	298.549
1297.01	230.804
1301.28	355.111
1305.55	373.47
1309.82	410.881
1314.09	257.34
1318.35	402.434
1322.61	284.624
1326.87	252.865
1331.13	301.916
1335.38	122.754
1339.63	149.307
1343.88	144.082
1348.12	82.4219
1352.37	183.141
1356.61	56.4648
1360.85	62.1055
1365.08	185.084
1369.31	148.084
1373.54	111.268
1377.77	110.568
1381.99	83.5186
1386.22	121.776
1390.43	237.911
1394.65	266.669
1398.87	161.457
1403.08	196.047
1407.29	124.537
1411.49	38.9375
1415.69	0.507813
1419.89	127.198
1424.09	243.965
1428.29	1.23731
1432.48	196.519
1436.67	471.809
1440.86	461.693
1445.04	521.803
1449.23	594.894
1453.4	566.198
1457.58	608.499
1461.76	486.72
1465.93	366.68
1470.1	393.599
1474.26	295.953
1478.43	430.522
1482.59	256.174
1486.75	291.894
1490.9	68.8984
1495.06	110.809
1499.21	19.3643
1503.35	90.6787
1507.5	7.33301
1511.64	155.704
1515.78	101.81
1519.92	125.118
1524.05	85.4248
1528.18	165.894
1532.31	74.5469
1536.44	225.96
1540.56	95.5147
1544.69	238.471
1548.8	166.221
1552.92	151.268
1557.03	50.7578
1561.14	36.499
1565.25	57.2969
1569.36	32.2695
