Measurement: Raman, 514 nm, ccw, Raman Data Processed
Mineral: Enstatite
Rruff sample: R040094
Ideal chemistry: MgSiO_3_
Locality: unknown
Source: University of Arizona Mineral Museum
Description: Dark green massive, associated with anthophyllite
Measured chemistry: (Mg_0.84_Fe_0.15_)(Si_0.99_Al_0.01_)O_3_; = Enstatite :  [box](Mg_0.83_Fe_0.14_Na_0.01_Ca_0.01_)_7_(Si_0.99_Al_0.01_)_8_O_22_(OH)_2_ = Anthophyllite
Pin_id: M00384
Orientation: Laser parallel to c* (0 0 1). Fiducial mark perpendicular to laser is parallel to a [1 0 0]
Raman shift (cm-1)	intensity
73.374	0
77.58	12.45
81.784	760.576
85.985	308.308
90.185	37.104
94.382	230.813
98.576	276.664
102.769	384.5
106.959	497.864
111.147	565.555
115.333	696.803
119.517	726.935
123.698	669.346
127.877	573.454
132.054	664.29
136.229	616.268
140.401	951.488
144.571	1182.94
148.739	1193.52
152.905	1062.14
157.069	887.679
161.23	724.42
165.389	718.273
169.546	784.384
173.701	927.501
177.853	718.926
182.003	911.779
186.152	1609.86
190.297	2536.57
194.441	2368.09
198.583	1876.98
202.722	1911.95
206.859	1727.77
210.994	1409.09
215.126	1089.78
219.257	1014.83
223.385	1094.22
227.511	1542.95
231.635	2807
235.757	4168.35
239.877	2835.92
243.994	1165.02
248.109	618.506
252.222	515.429
256.333	355.48
260.442	285.151
264.548	255.811
268.652	179.593
272.754	51.497
276.854	91.319
280.952	42.77
285.048	6.164
289.141	173.54
293.233	658.359
297.322	1199.6
301.409	1129.27
305.494	895.579
309.576	994.792
313.657	1811.07
317.735	2889.94
321.811	3245.62
325.885	3140.87
329.957	4007.28
334.027	7237.84
338.095	13237.1
342.16	16454.1
346.224	11751
350.285	6610.2
354.344	4038.53
358.401	3008.03
362.456	2374.67
366.508	2165.44
370.559	2434.32
374.607	3166.3
378.653	3944.37
382.698	4029.53
386.74	4278.76
390.779	5771.08
394.817	8485.45
398.853	10303.9
402.886	9912.4
406.918	8341.08
410.947	6687.91
414.974	5240.89
418.999	3884.99
423.022	3252.22
427.043	2798.54
431.062	1922.94
435.079	1226.46
439.093	827.575
443.106	476.461
447.116	267.544
451.124	74.121
455.13	178.992
459.134	19.563
463.136	74.208
467.136	18.441
471.134	48.545
475.129	55.919
479.123	104.524
483.115	20.485
487.104	19.471
491.091	21.509
495.077	40.237
499.06	82.861
503.041	140.411
507.02	244.915
510.997	485.394
514.972	937.847
518.944	1816.22
522.915	2836.49
526.884	3064.69
530.85	2382.8
534.815	2584.79
538.777	3079.67
542.738	2478.43
546.696	2413.06
550.652	2295.57
554.606	1421.95
558.559	822.186
562.509	576.286
566.457	539.035
570.403	565.049
574.347	604.7
578.288	558.193
582.228	434.521
586.166	251.682
590.102	271.67
594.035	96.487
597.967	97.171
601.897	52.78
605.824	43.18
609.75	2.271
613.673	14.366
617.595	14.491
621.514	82.407
625.432	50.567
629.347	144.531
633.26	189.427
637.172	271.718
641.081	542.864
644.988	728.011
648.894	1224.32
652.797	2297.67
656.698	4297.74
660.597	6966.54
664.494	7053.33
668.389	6284.89
672.283	7749.91
676.174	8710.91
680.063	9211.21
683.95	8493.45
687.835	5510.26
691.718	3197.88
695.599	1867.23
699.478	1168.45
703.356	838.278
707.231	619.981
711.104	452.462
714.975	391.733
718.844	379.793
722.711	308.643
726.576	276.285
730.439	303.721
734.3	289.954
738.16	228.987
742.017	227.108
745.872	217.459
749.725	342.783
753.576	325.836
757.426	398.873
761.273	339.595
765.118	218.608
768.961	42.568
772.803	89.013
776.642	17.156
780.48	5.867
784.315	10.499
788.148	30.024
791.98	78.778
795.809	73.804
799.637	17.257
803.463	5.939
807.286	9.248
811.108	0.719
814.927	41.819
818.745	14.877
822.561	56.379
826.375	67.704
830.187	118.929
833.997	40.936
837.805	38.061
841.611	23.982
845.415	226.834
849.217	322.626
853.017	533.361
856.815	843.044
860.612	880.681
864.406	738.275
868.199	522.839
871.989	319.391
875.778	311.944
879.564	121.474
883.349	225.002
887.132	355.553
890.913	293.103
894.691	296.707
898.468	286.381
902.243	351.125
906.017	302.997
909.788	505.007
913.557	674.109
917.324	1030.58
921.09	1656.14
924.853	2548.97
928.615	2982.13
932.375	2945.57
936.133	2952.22
939.888	2742.97
943.642	2115.71
947.394	1648.74
951.145	1266.79
954.893	1001.56
958.639	863.133
962.384	838.708
966.126	589.459
969.867	668.974
973.606	731.256
977.342	908.78
981.077	1084.18
984.81	1544.1
988.541	2018.13
992.271	2988.42
995.998	4556.89
999.724	7252.52
1003.45	11097.3
1007.17	15392.1
1010.89	15287.1
1014.61	14102.6
1018.32	14379.2
1022.04	14416.7
1025.75	14312.2
1029.46	13857.8
1033.17	11817.5
1036.88	9393.31
1040.58	7291.47
1044.28	4944.29
1047.98	3543.29
1051.68	2740.45
1055.38	2214.15
1059.08	1662.66
1062.77	1237.65
1066.46	1055.42
1070.15	792.264
1073.84	480.157
1077.53	571.498
1081.21	614.245
1084.89	712.294
1088.57	816.726
1092.25	956.352
1095.93	1150.08
1099.6	685.151
1103.28	371.371
1106.95	328.669
1110.62	369.052
1114.28	309.982
1117.95	413.487
1121.61	229.996
1125.28	230.566
1128.94	88.906
1132.59	70.661
1136.25	113.007
1139.9	176.436
1143.56	174.444
1147.21	124.22
1150.86	78.203
1154.51	6.005
1158.15	15.765
1161.8	57.902
1165.44	86.938
1169.08	61.233
1172.71	164.972
1176.35	83.595
1179.99	9.368
1183.62	31.991
1187.25	49.589
1190.88	29.355
1194.51	10.266
1198.13	156.611
1201.76	96.227
1205.38	4.67
1209	14.017
1212.62	12.826
1216.23	12.418
1219.85	1.499
1223.46	1.474
1227.07	101.489
1230.68	28.342
1234.29	115.155
1237.89	57.911
1241.5	24.622
1245.1	23.281
1248.7	30.861
1252.3	33.369
1255.89	116.807
1259.49	214.071
1263.08	157.16
1266.67	124.171
1270.26	43.04
1273.85	50.771
1277.43	64.657
1281.02	1.25
1284.6	13.035
1288.18	181.198
1291.76	180.238
1295.34	204.194
1298.91	192.027
1302.48	124.766
1306.06	95.943
1309.63	27.928
1313.19	11.259
1316.76	157.516
1320.33	135.685
1323.89	135.772
1327.45	259.782
1331.01	191.546
1334.57	204.791
1338.12	133.81
1341.67	86.326
1345.23	68.663
1348.78	90.152
1352.33	69.712
1355.87	232.28
1359.42	265.919
1362.96	277.128
1366.5	223.305
1370.04	189.652
1373.58	111.291
1377.12	66.884
1380.65	228.104
1384.18	143.153
1387.71	173.201
1391.24	187.226
1394.77	333.868
1398.3	436.018
1401.82	367.042
1405.34	297.609
1408.86	243.935
1412.38	166.925
1415.9	37.239
1419.41	41.105
1422.93	98.368
1426.44	172.231
1429.95	170.374
1433.46	254.981
1436.97	434.758
1440.47	285.51
1443.97	332.974
1447.47	324.54
1450.97	345.692
1454.47	183.669
1457.97	55.568
1461.46	76.97
1464.96	132.63
1468.45	170.97
1471.94	179.646
1475.42	202.539
1478.91	298.688
1482.39	334.393
1485.88	328.796
1489.36	230.967
1492.84	215.046
1496.32	180.155
1499.79	154.663
1503.26	13.019
1506.74	36.814
1510.21	3.489
1513.68	56.857
