Measurement: Raman, 514 nm, ccw, Raman Data Processed
Mineral: Enstatite
Rruff sample: R070550
Ideal chemistry: MgSiO_3_
Locality: Tanzania
Source: www.multicolour.com
Description: Brown, translucent, vitreous crystal fragment
Measured chemistry: (Mg_0.90_Fe_0.10_)_Î£=1_Si_1.00_O_3_
Pin_id: L01656
Orientation: Laser parallel to a* (1 0 0). Fiducial mark perpendicular to laser is parallel to -b [0 -1 0]
Raman shift (cm-1)	intensity
112.889	0
117.854	1023.21
122.816	8045.85
127.775	21678.5
132.73	27664.5
137.683	8746.74
142.633	2441.42
147.579	984.448
152.522	639.75
157.462	272.188
162.4	168.397
167.334	204.11
172.265	15.0151
177.193	38.8418
182.117	190.002
187.039	851.716
191.958	1396.88
196.874	1574.15
201.787	1980.02
206.696	954.581
211.603	28.6265
216.506	135.571
221.407	229.924
226.304	1518.07
231.199	3744.22
236.091	7186.37
240.979	4340.07
245.864	884.352
250.747	59.8042
255.626	202.457
260.503	29.8838
265.376	170.288
270.247	65.8291
275.114	53.1709
279.979	61.5142
284.84	79.7319
289.699	352.328
294.554	944.765
299.407	1580.44
304.257	1381.78
309.103	1365.65
313.947	1654.73
318.788	2711.28
323.626	5321.98
328.461	11620
333.292	26315.4
338.121	48712.1
342.947	55451.5
347.771	31275.8
352.591	14576.5
357.408	8239.19
362.222	5457.43
367.034	3911.88
371.842	3449.87
376.648	3545.55
381.45	3664.92
386.25	3962.95
391.047	5787.67
395.841	9373.02
400.632	11850
405.42	11265.5
410.205	10184.6
414.988	9834.04
419.767	8694.15
424.544	6108.75
429.318	4064.43
434.089	4838.2
438.857	7836.31
443.622	8721.94
448.384	4072.14
453.143	1634.92
457.9	1182.32
462.654	1056.4
467.405	738.186
472.153	653.679
476.898	322.911
481.64	180.942
486.38	38.1738
491.116	2.83984
495.85	3.02148
500.581	83.7578
505.309	105.285
510.035	97.8203
514.757	505.957
519.477	994.811
524.194	1434.84
528.908	1308.66
533.62	1436.86
538.328	2240.45
543.034	1945.97
547.737	1629.42
552.437	1211.89
557.134	656.809
561.829	238.617
566.521	222.962
571.21	146.241
575.896	428.163
580.58	223.132
585.261	236.15
589.939	237.219
594.614	185.347
599.286	1727.54
603.956	152.793
608.623	146.117
613.287	226.514
617.949	291.984
622.608	474.529
627.264	676.354
631.917	1097.55
636.568	1609.89
641.215	2455.85
645.861	4329.53
650.503	8553.5
655.143	18220.7
659.78	33531.6
664.414	38642.5
669.046	26134.7
673.674	23803.9
678.301	34779
682.924	49820.6
687.545	42401.8
692.163	20655
696.778	9513.6
701.391	5008.08
706.001	3209.47
710.609	2224.74
715.213	1458.9
719.815	1154.93
724.415	864.832
729.011	748.602
733.606	587.24
738.197	756.744
742.786	664.114
747.372	778.347
751.955	802.325
756.536	383.401
761.114	202.22
765.69	23.9248
770.262	18.7031
774.833	18.4004
779.4	48.7602
783.965	23.2441
788.528	26.709
793.087	20.1128
797.645	0.887695
802.199	90.769
806.751	38.2368
811.3	115.559
815.847	13.7319
820.391	122.503
824.933	10.1065
829.471	57.1714
834.008	113.72
838.541	143.887
843.073	456.978
847.601	1016
852.127	2453.96
856.65	4026.88
861.171	3288.76
865.69	1850.61
870.205	946.441
874.718	441.265
879.229	386.087
883.737	212.917
888.242	155.764
892.745	235.634
897.246	294.537
901.743	230.471
906.239	52.4956
910.731	140.106
915.221	151.414
919.709	426.453
924.194	659.38
928.677	1134.11
933.157	1349.37
937.634	1405.85
942.109	1128.65
946.582	843.794
951.052	445.685
955.519	231.31
959.984	299.4
964.447	353.003
968.906	349.536
973.364	319.35
977.819	462.534
982.271	588.119
986.721	980.072
991.169	1710.42
995.614	3079.51
1000.06	5775.39
1004.5	10081.9
1008.93	15040.7
1013.37	15983.8
1017.8	15087.2
1022.23	15520.9
1026.66	15922.8
1031.09	14852
1035.51	10587.5
1039.93	6581.17
1044.35	3755.53
1048.76	2328.99
1053.17	1570.85
1057.58	1139.98
1061.99	875.969
1066.4	752.079
1070.8	483.2
1075.2	368.84
1079.6	446.484
1084	310.065
1088.39	280.111
1092.78	305.693
1097.17	335.392
1101.56	333.699
1105.94	213.619
1110.32	409.004
1114.7	287.826
1119.08	520.416
1123.45	705.161
1127.82	311.824
1132.19	406.312
1136.56	254.54
1140.92	582.724
1145.29	221.444
1149.65	293.27
1154	149.671
1158.36	253.105
1162.71	236.099
1167.06	253.514
1171.41	191.762
1175.76	166.827
1180.1	121.695
1184.44	94.3608
1188.78	86.5996
1193.11	21.3594
1197.45	38.7783
1201.78	82.4995
1206.11	7.47119
1210.43	32.3227
1214.76	7.55029
1219.08	98.9477
1223.4	1.55664
1227.72	72.4648
1232.03	37.0718
1236.35	9.85791
1240.66	19.8818
1244.96	42.6118
1249.27	0.564453
1253.57	65.7515
1257.88	52.8735
1262.17	43.9204
1266.47	67.5454
1270.76	74.5044
1275.06	161.886
1279.35	182.161
1283.63	128.773
1287.92	165.935
1292.2	265.655
1296.48	271.945
1300.76	206.805
1305.04	217.233
1309.31	204.231
1313.58	174.805
1317.85	216.899
1322.12	158.932
1326.38	260.082
1330.64	110.894
1334.9	117.823
1339.16	238.551
1343.41	134.885
1347.67	252.67
1351.92	157.465
1356.17	180.891
1360.41	210.69
1364.66	85.5801
1368.9	232.613
1373.14	202.055
1377.38	324.322
1381.61	0.610352
1385.84	43.2754
1390.08	228.305
1394.3	128.197
1398.53	115.188
1402.75	108.75
1406.97	120.591
1411.19	93.2734
1415.41	82.5576
1419.63	90.499
1423.84	205.485
1428.05	143.161
1432.26	149.678
1436.46	165.18
1440.67	239.834
1444.87	115.4
1449.07	203.842
1453.27	239.196
1457.46	378.914
1461.66	201.885
1465.85	209.114
1470.04	196.864
1474.22	149.277
1478.41	37.6191
1482.59	171.012
1486.77	125.223
1490.95	243.652
1495.12	197.098
1499.3	54.5889
1503.47	5.82422
1507.63	26.8076
1511.8	73.6387
1515.97	137.452
1520.13	19.626
1524.29	19.2266
1528.45	38.5732
1532.61	5.78125
1536.76	27.7559
1540.91	143.282
1545.06	30.4785
1549.21	121.256
1553.35	298.719
1557.5	106.528
1561.64	74.9385
