Measurement: Raman, 514 nm, ccw, Raman Data Processed
Mineral: Enstatite
Rruff sample: R070550
Ideal chemistry: MgSiO_3_
Locality: Tanzania
Source: www.multicolour.com
Description: Brown, translucent, vitreous crystal fragment
Measured chemistry: (Mg_0.90_Fe_0.10_)_Î£=1_Si_1.00_O_3_
Pin_id: L01679
Orientation: Laser parallel to c* (0 0 1). Fiducial mark perpendicular to laser is parallel to a [1 0 0]
Raman shift (cm-1)	intensity
112.889	0
117.854	47.7107
122.816	45.6242
127.775	48.7057
132.73	248.111
137.683	688.685
142.633	1443.43
147.579	2260.36
152.522	2321.04
157.462	1304.08
162.4	881.38
167.334	843.949
172.265	744.497
177.193	849.765
182.117	1792.05
187.039	3369.33
191.958	5922.22
196.874	3334.26
201.787	1943.62
206.696	1069.47
211.603	437.767
216.506	426.418
221.407	780.35
226.304	2339.62
231.199	6001.2
236.091	11835.5
240.979	6040.89
245.864	1271.97
250.747	269.713
255.626	47.1054
260.503	152.613
265.376	253.191
270.247	211.453
275.114	41.7075
279.979	257.58
284.84	588.837
289.699	1561.19
294.554	3551.49
299.407	5654.58
304.257	4294.2
309.103	4204.29
313.947	7210.88
318.788	12490
323.626	12314.6
328.461	13470.8
333.292	26218.6
338.121	48986.9
342.947	55013.5
347.771	28516.1
352.591	13336.3
357.408	7998.75
362.222	5886.26
367.034	5300.23
371.842	6616.67
376.648	9339.53
381.45	11948.8
386.25	11431.4
391.047	16909.4
395.841	27368.7
400.632	32537.4
405.42	26219.4
410.205	21337.1
414.988	18584.5
419.767	14892.4
424.544	8992.37
429.318	4250.74
434.089	2267.49
438.857	1662.62
443.622	1281.09
448.384	610.9
453.143	563.036
457.9	553.486
462.654	286.238
467.405	226.731
472.153	207.44
476.898	1.43555
481.64	61.6728
486.38	56.3977
491.116	72.5254
495.85	72.1245
500.581	15.2654
505.309	162.044
510.035	762.293
514.757	2192.05
519.477	5187.35
524.194	8934.23
528.908	7994.61
533.62	6229.38
538.328	7947.51
543.034	6232.85
547.737	5743.34
552.437	5434.18
557.134	2686.74
561.829	1358.8
566.521	1008.91
571.21	945.026
575.896	956.138
580.58	943.227
585.261	507.28
589.939	389.28
594.614	266.215
599.286	146.069
603.956	53.8297
608.623	31.3973
613.287	20.6163
617.949	22.0726
622.608	137.969
627.264	263.073
631.917	491.261
636.568	646.789
641.215	1245.3
645.861	2282.62
650.503	4614.31
655.143	9939.94
659.78	18748
664.414	20524.8
669.046	12424
673.674	10575.6
678.301	14876.1
682.924	21016.7
687.545	16920.7
692.163	7838.56
696.778	3522.04
701.391	2021.12
706.001	1176.79
710.609	834.064
715.213	577.928
719.815	422.384
724.415	377.434
729.011	301.079
733.606	265.322
738.197	242.164
742.786	229.494
747.372	210.591
751.955	295.76
756.536	215.358
761.114	151.202
765.69	27.2595
770.262	8.771
774.833	55.1897
779.4	17.4983
783.965	38.5863
788.528	58.5795
793.087	68.5449
797.645	105.562
802.199	28.7059
806.751	74.7496
811.3	21.5632
815.847	26.9724
820.391	45.1974
824.933	0.69043
829.471	89.8771
834.008	174.492
838.541	229.992
843.073	518.4
847.601	1156.74
852.127	2421.03
856.65	3525.29
861.171	2518.54
865.69	1391.81
870.205	783.116
874.718	457.473
879.229	364.905
883.737	267.496
888.242	402.316
892.745	378.429
897.246	487.734
901.743	497.425
906.239	580.69
910.731	896.59
915.221	1672.6
919.709	3639.24
924.194	7422.73
928.677	9210.08
933.157	8028.53
937.634	7128.79
942.109	5061.29
946.582	3120.99
951.052	1786.44
955.519	1206.54
959.984	971.265
964.447	752.444
968.906	787.321
973.364	882.895
977.819	1174.18
982.271	1500.21
986.721	2348.95
991.169	3655.38
995.614	6560.47
1000.06	12039.2
1004.5	21680.5
1008.93	34772.4
1013.37	36770.9
1017.8	37835.1
1022.23	45999.8
1026.66	54140.1
1031.09	55236
1035.51	43021.5
1039.93	28149.7
1044.35	16707.7
1048.76	9909.61
1053.17	6395.88
1057.58	4240.91
1061.99	2704.84
1066.4	1745.25
1070.8	1186.75
1075.2	862.776
1079.6	642.33
1084	523.842
1088.39	370.728
1092.78	276.328
1097.17	250.095
1101.56	219.247
1105.94	222.856
1110.32	167.92
1114.7	164.047
1119.08	176.94
1123.45	158.152
1127.82	183.543
1132.19	206.646
1136.56	200.036
1140.92	174.169
1145.29	127.91
1149.65	69.816
1154	65.8494
1158.36	26.1078
1162.71	3.16553
1167.06	28.276
1171.41	43.2788
1175.76	13.2316
1180.1	9.10803
1184.44	44.8719
1188.78	18.1338
1193.11	27.131
1197.45	24.1965
1201.78	22.853
1206.11	58.0016
1210.43	49.9192
1214.76	48.2792
1219.08	37.5085
1223.4	16.4813
1227.72	1.74609
1232.03	35.3828
1236.35	16.399
1240.66	26.2432
1244.96	0.61792
1249.27	29.3784
1253.57	53.7914
1257.88	74.6856
1262.17	92.1039
1266.47	134.696
1270.76	95.6409
1275.06	136.763
1279.35	175.435
1283.63	169.67
1287.92	206.49
1292.2	166.876
1296.48	198.811
1300.76	199.342
1305.04	226.432
1309.31	270.074
1313.58	235.731
1317.85	206.571
1322.12	248.91
1326.38	217.603
1330.64	175.547
1334.9	195.999
1339.16	155.956
1343.41	205.778
1347.67	218.96
1351.92	171.056
1356.17	159.039
1360.41	194.879
1364.66	213.149
1368.9	260.07
1373.14	175.066
1377.38	188.194
1381.61	173.92
1385.84	136.727
1390.08	187.255
1394.3	170.485
1398.53	134.012
1402.75	158.762
1406.97	189.109
1411.19	149.19
1415.41	193.213
1419.63	110.404
1423.84	173.016
1428.05	130.613
1432.26	151.559
1436.46	149.211
1440.67	208.249
1444.87	118.819
1449.07	166.298
1453.27	171.986
1457.46	137.926
1461.66	146.538
1465.85	161.562
1470.04	154.094
1474.22	95.019
1478.41	143.085
1482.59	70.1003
1486.77	90.0979
1490.95	80.0239
1495.12	115.867
1499.3	50.7163
1503.47	83.6904
1507.63	55.9657
1511.8	69.6254
1515.97	32.6094
1520.13	8.18176
1524.29	78.197
1528.45	69.8084
1532.61	19.7752
1536.76	55.2173
1540.91	8.453
1545.06	0.820801
1549.21	81.3529
1553.35	119.603
1557.5	59.5625
1561.64	25.7015
