Measurement: Raman, 514 nm, ccw, Raman Data Processed
Mineral: Enstatite
Rruff sample: R060630
Ideal chemistry: MgSiO_3_
Locality: unknown
Source: Gemological Institute of America
Description: Tan colored fragment
Measured chemistry: (Mg_0.89_Fe_0.07_Al_0.04_)_Σ=1_(Si_0.96_Al_0.04_)_Σ=1_O_3_
Pin_id: L01005
Orientation: Laser parallel to c* (0 0 1). Fiducial mark perpendicular to laser is parallel to a [1 0 0]
Raman shift (cm-1)	intensity
118.134	0
123.058	437.836
127.979	48.0684
132.898	220.536
137.814	531.373
142.728	588.561
147.639	968.817
152.549	1548.49
157.455	1205.63
162.359	1278.57
167.261	1236.25
172.161	795.513
177.058	526.987
181.952	672.047
186.845	1322.89
191.734	2321.02
196.622	3884.73
201.507	4525.8
206.389	2897.68
211.269	1760.48
216.147	1222.23
221.022	1374.87
225.895	2131.54
230.765	3693.55
235.633	5863.37
240.498	7178.87
245.361	3995.08
250.222	1375.93
255.08	455.41
259.936	1049.49
264.789	105.595
269.64	290.765
274.488	92.8311
279.334	174.457
284.178	560.514
289.019	1069.57
293.857	1293.33
298.693	1503.62
303.527	1456.28
308.358	1452.02
313.187	2116.82
318.013	3275.71
322.837	4850.87
327.659	5589.77
332.478	6358.41
337.294	8005.36
342.108	10265.7
346.92	12667.7
351.729	13224.8
356.535	10671.9
361.34	7707.69
366.141	5729.99
370.94	4524.33
375.737	4273.67
380.531	5092
385.323	6319.31
390.113	6794.58
394.9	6829.81
399.684	7531.95
404.466	7645.01
409.245	7368.62
414.022	7297.65
418.797	7263.6
423.569	5805.86
428.338	3137.15
433.105	1124.43
437.87	469.652
442.632	203.801
447.391	150.84
452.149	300.75
456.903	407.715
461.655	354.297
466.405	11.3906
471.152	35.5996
475.897	17.1289
480.639	127.92
485.378	148.59
490.116	215.85
494.85	134.986
499.582	45.1074
504.312	209.291
509.039	716.174
513.764	1210.01
518.486	2128.16
523.206	2292.47
527.923	2227.8
532.638	2391.02
537.35	2334.91
542.059	1787.12
546.766	1379.62
551.471	1252.43
556.173	1099.97
560.873	1077.23
565.57	1285.68
570.264	1893.2
574.957	3118.79
579.646	3448.4
584.333	2030.99
589.018	822.547
593.7	471.023
598.379	206.391
603.056	114.391
607.73	177.016
612.402	3.77148
617.072	22.3418
621.739	0.027344
626.403	404.769
631.065	894.967
635.724	1519.47
640.381	2110.36
645.035	2646.8
649.687	3970.39
654.336	6615.68
658.983	9080.09
663.627	9713.51
668.268	8378.35
672.907	8593.84
677.544	12151.5
682.178	18034.8
686.809	21974.4
691.438	17581.1
696.065	10228.1
700.688	5364.18
705.31	3447.43
709.929	2482.81
714.545	1743.32
719.158	1528.96
723.77	1273.73
728.378	1258.62
732.984	1141.62
737.588	983.533
742.189	795.426
746.787	580.033
751.383	731.201
755.976	579.086
760.567	426.25
765.155	270.732
769.741	300.58
774.324	17.3828
778.904	50.4258
783.482	75.5859
788.058	68.7266
792.631	229.932
797.201	195.498
801.769	53.1934
806.334	249.541
810.897	18.6797
815.457	157.231
820.014	207.57
824.569	305.398
829.122	609.312
833.671	671.688
838.219	866.201
842.763	1321.83
847.306	1455.13
851.845	1294.59
856.382	1051.76
860.917	717.668
865.448	500.336
869.978	488.799
874.505	337.08
879.029	383.262
883.55	506.815
888.069	619.146
892.586	816.953
897.1	894.051
901.611	864.123
906.12	1090.55
910.626	1214.62
915.129	1697.47
919.63	2347.17
924.129	3145.45
928.625	4456.93
933.118	5340.41
937.609	4946.73
942.097	4565.45
946.582	3634.38
951.065	3247.24
955.546	2708.06
960.023	2137.36
964.499	1459.23
968.971	1093.8
973.441	1236.19
977.909	1505.22
982.374	2323.86
986.836	4122.11
991.295	7270.99
995.753	12196.5
1000.21	19447.7
1004.66	27318.7
1009.11	32892.2
1013.55	32230.2
1018	26652.7
1022.44	22364.2
1026.88	20952.1
1031.32	20751
1035.75	19206.8
1040.18	15448.5
1044.61	11307.7
1049.04	8363.7
1053.46	5975.12
1057.88	4378.33
1062.3	2849.95
1066.71	2026.74
1071.13	1517.28
1075.54	1194.64
1079.94	579.467
1084.35	483.918
1088.75	481.225
1093.15	357.379
1097.55	333.514
1101.94	265.66
1106.34	250.457
1110.73	397.676
1115.11	401.332
1119.5	526.789
1123.88	753.4
1128.26	313.147
1132.63	135.469
1137.01	224.922
1141.38	108.873
1145.75	18.9531
1150.12	117.566
1154.48	57.4297
1158.84	137.996
1163.2	119.707
1167.55	16.1895
1171.91	122.988
1176.26	93.7461
1180.61	156.322
1184.95	187.773
1189.29	71.4961
1193.63	68.918
1197.97	25.9316
1202.31	30.2402
1206.64	68.4121
1210.97	141.494
1215.29	14.8613
1219.62	62.8398
1223.94	154.734
1228.26	91.6445
1232.57	78.9551
1236.89	237.772
1241.2	123.926
1245.51	86.5254
1249.81	59.5547
1254.12	51.9629
1258.42	103.731
1262.72	391.81
1267.01	454.18
1271.3	43.0977
1275.59	133.383
1279.88	398.565
1284.17	447.674
1288.45	290.137
1292.73	53.3887
1297.01	188.518
1301.28	97.0938
1305.55	108.848
1309.82	162.4
1314.09	267.566
1318.35	360.369
1322.61	486.609
1326.87	414.836
1331.13	474.096
1335.38	226.85
1339.63	354.408
1343.88	387.371
1348.12	343.475
1352.37	386.647
1356.61	308.594
1360.85	233.793
1365.08	471.191
1369.31	255.199
1373.54	215.828
1377.77	243.746
1381.99	348.777
1386.22	195.078
1390.43	262.305
1394.65	75.4688
1398.87	281.19
1403.08	296.568
1407.29	349.67
1411.49	375.832
1415.69	100.988
1419.89	142.981
1424.09	208.197
1428.29	225.285
1432.48	164.211
1436.67	101.147
1440.86	232.047
1445.04	235.596
1449.23	145.414
1453.4	207.691
1457.58	216.863
1461.76	171.084
1465.93	234.277
1470.1	321.045
1474.26	211.932
1478.43	132.848
1482.59	54.9922
1486.75	302.264
1490.9	188.596
1495.06	3.17383
1499.21	441.371
1503.35	337.193
1507.5	72.0859
1511.64	218.609
1515.78	87.7344
1519.92	145.83
1524.05	259.074
1528.18	66.2266
1532.31	332.938
1536.44	215.945
1540.56	368.967
1544.69	306.426
1548.8	241.725
1552.92	717.246
1557.03	419.107
1561.14	217.449
1565.25	453.344
1569.36	196.641
