Measurement: Raman, 514 nm, ccw, Raman Data Processed
Mineral: Enstatite
Rruff sample: R050644
Ideal chemistry: MgSiO_3_
Locality: Morogoro, Tanzania
Source: Jibamitra Ganguly
Description: Light brown crystal fragment
Measured chemistry: (Mg_0.90_Fe_0.10_)SiO_3_
Pin_id: L01052
Orientation: Laser parallel to b* (0 1 0). Fiducial mark perpendicular to laser is parallel to c [0 0 1]
Raman shift (cm-1)	intensity
113.208	0
118.134	93.4678
123.058	1742.07
127.979	3269.87
132.898	3240.62
137.814	2250.41
142.728	1621.52
147.639	1617.85
152.549	1133.52
157.455	617.957
162.359	188.625
167.261	99.1709
172.161	77.8506
177.058	25.918
181.952	59.8838
186.845	22.9883
191.734	492.685
196.622	432.115
201.507	525.838
206.389	284.309
211.269	203.188
216.147	261.287
221.022	503.174
225.895	1650.84
230.765	2703.72
235.633	2744.05
240.498	1988.39
245.361	577.863
250.222	430.506
255.08	343.256
259.936	684.559
264.789	492.746
269.64	739.242
274.488	673.275
279.334	510.176
284.178	333.984
289.019	375.74
293.857	859.434
298.693	1013.73
303.527	939.394
308.358	1039.88
313.187	1282.16
318.013	1937.22
322.837	2989.01
327.659	4793.48
332.478	8710.53
337.294	11530.7
342.108	10872.6
346.92	6926.66
351.729	3632.03
356.535	2224.72
361.34	1451.68
366.141	1132
370.94	1306.8
375.737	1625.09
380.531	1558.18
385.323	1202.21
390.113	1565.16
394.9	1901
399.684	2021.74
404.466	1878.34
409.245	1782.77
414.022	1912.92
418.797	1355.78
423.569	829.986
428.338	511.225
433.105	602.797
437.87	880.031
442.632	709.076
447.391	619.389
452.149	257.935
456.903	341.297
461.655	292.838
466.405	325.545
471.152	289.688
475.897	102.721
480.639	59.2422
485.378	120.613
490.116	67.9102
494.85	214.934
499.582	498.799
504.312	146.221
509.039	38.1367
513.764	267.938
518.486	302.603
523.206	473.037
527.923	689.152
532.638	783.988
537.35	887.512
542.059	927.631
546.766	514.357
551.471	552.66
556.173	248.527
560.873	335.92
565.57	241.834
570.264	322.248
574.957	317.182
579.646	354.648
584.333	287.635
589.018	293.127
593.7	225.19
598.379	384.041
603.056	328.867
607.73	407.019
612.402	202.295
617.072	569.193
621.739	717.979
626.403	845.498
631.065	988.402
635.724	1254.7
640.381	1722.4
645.035	2951.87
649.687	5199.79
654.336	9861.93
658.983	13450.3
663.627	12841.4
668.268	9890.84
672.907	11091.8
677.544	16915.6
682.178	19490.1
686.809	15079.7
691.438	7482.85
696.065	3561.04
700.688	1763.23
705.31	1263.45
709.929	704.49
714.545	584.174
719.158	443.506
723.77	481.244
728.378	264.213
732.984	295.975
737.588	300.961
742.189	91.7695
746.787	70.1094
751.383	76.9414
755.976	16.0449
760.567	95.4668
765.155	113.738
769.741	16.4824
774.324	109.42
778.904	0.136719
783.482	92.6777
788.058	33.2676
792.631	109.644
797.201	54.5156
801.769	81.0352
806.334	47.1367
810.897	50.6523
815.457	8.77734
820.014	47.5879
824.569	253.09
829.122	190.334
833.671	396.334
838.219	212.182
842.763	491.857
847.306	967.363
851.845	1647.83
856.382	2082.89
860.917	1455.94
865.448	1017.89
869.978	398.752
874.505	400.234
879.029	264.201
883.55	408.375
888.069	148.371
892.586	200.697
897.1	155.106
901.611	3.44922
906.12	415.609
910.626	226.91
915.129	209.572
919.63	295.113
924.129	1128.82
928.625	1876.24
933.118	2218.59
937.609	2043.16
942.097	1410.07
946.582	773.646
951.065	693.203
955.546	492.441
960.023	340.619
964.499	467.639
968.971	193.057
973.441	517.982
977.909	752.451
982.374	1144.13
986.836	1673.12
991.295	3096.9
995.753	5773.43
1000.21	12452.9
1004.66	25605.7
1009.11	32175.8
1013.55	24438.5
1018	13724
1022.44	10495
1026.88	9175.18
1031.32	7563.76
1035.75	5258.6
1040.18	3117.65
1044.61	1853.37
1049.04	1026.78
1053.46	1189.48
1057.88	613.424
1062.3	329.297
1066.71	423.625
1071.13	315.453
1075.54	119.721
1079.94	378.096
1084.35	400.861
1088.75	435.512
1093.15	324.875
1097.55	383.887
1101.94	110.41
1106.34	6.99219
1110.73	308.012
1115.11	132.219
1119.5	624.769
1123.88	378.883
1128.26	314.598
1132.63	168.019
1137.01	158.129
1141.38	97.1094
1145.75	248.051
1150.12	154.973
1154.48	31.1016
1158.84	182.203
1163.2	21.9336
1167.55	224.582
1171.91	160.312
1176.26	121.059
1180.61	12.5
1184.95	255.449
1189.29	217.043
1193.63	94.3008
1197.97	139.191
1202.31	82.6719
1206.64	230.633
1210.97	142.828
1215.29	286.535
1219.62	153.254
1223.94	141.57
1228.26	290.394
1232.57	49.3867
1236.89	81.5938
1241.2	160.176
1245.51	252.227
1249.81	446.023
1254.12	216.231
1258.42	265.094
1262.72	423.879
1267.01	554.066
1271.3	411.762
1275.59	306.035
1279.88	239.152
1284.17	286.238
1288.45	85.8164
1292.73	230.184
1297.01	246.84
1301.28	481.418
1305.55	462.254
1309.82	242.902
1314.09	658.965
1318.35	681.969
1322.61	520.852
1326.87	187.852
1331.13	397.82
1335.38	372.543
1339.63	34.7812
1343.88	337.301
1348.12	266.141
1352.37	399.168
1356.61	83.8906
1360.85	313.945
1365.08	292.426
1369.31	237.348
1373.54	290.906
1377.77	306.82
1381.99	319.047
1386.22	192.539
1390.43	418.164
1394.65	272.766
1398.87	1.73438
1403.08	118.965
1407.29	47.332
1411.49	397.938
1415.69	296.203
1419.89	300.809
1424.09	186.223
1428.29	295.512
1432.48	489.879
1436.67	766.824
1440.86	1102.64
1445.04	1116.89
1449.23	1262.32
1453.4	1115.72
1457.58	1420.46
1461.76	981.059
1465.93	801.93
1470.1	698.461
1474.26	324.027
1478.43	619.231
1482.59	685.746
1486.75	404.5
1490.9	417.574
1495.06	442.152
1499.21	374.027
1503.35	339.242
1507.5	234.731
1511.64	304.418
1515.78	303.078
1519.92	157.863
1524.05	314.785
1528.18	260.867
1532.31	39.3203
1536.44	337.348
1540.56	182.723
1544.69	107.707
1548.8	9.13672
1552.92	304.008
1557.03	60.2773
1561.14	275.746
1565.25	319.555
1569.36	64.0469
