Measurement: Raman, 514 nm, ccw, Raman Data Processed
Mineral: Enstatite
Rruff sample: R040094
Ideal chemistry: MgSiO_3_
Locality: unknown
Source: University of Arizona Mineral Museum
Description: Dark green massive, associated with anthophyllite
Measured chemistry: (Mg_0.84_Fe_0.15_)(Si_0.99_Al_0.01_)O_3_; = Enstatite :  [box](Mg_0.83_Fe_0.14_Na_0.01_Ca_0.01_)_7_(Si_0.99_Al_0.01_)_8_O_22_(OH)_2_ = Anthophyllite
Pin_id: M00384
Orientation: Laser parallel to c* (0 0 1). Fiducial mark perpendicular to laser is parallel to a [1 0 0]
Raman shift (cm-1)	intensity
53.716	0
57.933	48.317
62.147	61.958
66.359	88.768
70.569	26.328
74.776	4.656
78.982	66.18
83.185	632.299
87.385	145.294
91.584	136.886
95.78	268.89
99.974	323.13
104.166	392.362
108.355	601.421
112.543	530.238
116.728	528.769
120.911	491.957
125.091	556.757
129.27	500.188
133.446	575.264
137.62	626.921
141.791	727.923
145.961	713.079
150.128	643.238
154.293	471.566
158.456	406.148
162.617	361.04
166.775	282.311
170.931	219.982
175.085	200.933
179.237	201.133
183.386	266.577
187.534	349.262
191.679	507.213
195.822	737.608
199.963	531.691
204.101	454.4
208.237	424.325
212.372	428.39
216.504	454.592
220.633	506.34
224.761	727.651
228.886	1136.43
233.009	2151.41
237.13	2872.49
241.249	1582.22
245.366	642.705
249.48	444.103
253.593	471.79
257.703	477.741
261.811	418.937
265.916	439.474
270.02	615.007
274.121	885.862
278.221	540.282
282.318	235.439
286.413	230.53
290.505	310.039
294.596	515.696
298.684	662.491
302.771	551.416
306.855	535.465
310.937	627.637
315.016	1000.93
319.094	1637.35
323.17	1813.96
327.243	1819.6
331.314	2346.01
335.383	3697.78
339.45	5595.15
343.515	5676.49
347.578	3582.21
351.638	1955.82
355.696	1263.3
359.753	864.659
363.807	673.072
367.859	579.535
371.908	599.042
375.956	706.591
380.002	863.179
384.045	771.808
388.086	526.5
392.126	403.265
396.163	290.11
400.198	221.036
404.23	141.066
408.261	150.196
412.29	139.388
416.316	161.638
420.341	93.94
424.363	61.29
428.383	38.32
432.401	10.936
436.417	26.457
440.431	20.837
444.443	19.808
448.452	16.538
452.46	41.911
456.465	96.315
460.468	92.754
464.47	95.242
468.469	177.772
472.466	150.342
476.461	51.001
480.454	23.734
484.445	9.517
488.433	4.317
492.42	36.901
496.405	31.264
500.387	34.814
504.367	49.573
508.346	6.565
512.322	8.349
516.296	22.26
520.268	154.156
524.238	201.035
528.206	170.899
532.172	335.748
536.136	654.571
540.098	853.367
544.057	510.134
548.015	348.869
551.97	293.571
555.924	174.238
559.875	144.867
563.825	224.457
567.772	150.004
571.718	244.508
575.661	290.965
579.602	301.375
583.541	229.736
587.478	150.464
591.413	144.024
595.346	176.465
599.277	121.213
603.206	106.619
607.133	163.912
611.058	227.394
614.981	199.677
618.902	220.136
622.82	289.056
626.737	321.118
630.652	477.897
634.564	563.131
638.475	714.771
642.384	931.803
646.29	1391.21
650.195	2105.52
654.097	3753.86
657.998	6875.31
661.896	9332.31
665.793	7677.92
669.687	5995.36
673.58	6645.15
677.47	9978
681.359	14470.2
685.245	14183
689.13	8664.63
693.012	4543.26
696.893	2489.77
700.771	1535.21
704.647	1043.59
708.522	783.899
712.394	628.14
716.265	490.315
720.133	350.424
724	259.467
727.864	268.444
731.727	234.358
735.587	215.208
739.446	185.997
743.302	100.733
747.157	65.43
751.009	128.08
754.86	94.704
758.708	50.297
762.555	49.839
766.399	8.321
770.242	30.719
774.083	16.957
777.921	26.217
781.758	6.683
785.593	58.732
789.426	49.994
793.257	12.554
797.085	6.022
800.912	1.727
804.737	0.532
808.56	11.368
812.381	22.803
816.2	41.011
820.017	87.245
823.833	11.577
827.646	23.532
831.457	6.388
835.266	39.653
839.074	16.647
842.879	13.609
846.682	28.548
850.484	59.468
854.283	56.37
858.081	83.258
861.877	127.131
865.67	151.992
869.462	39.842
873.252	26.682
877.04	68.525
880.826	116.37
884.61	104.232
888.392	121.104
892.172	139.007
895.951	83.942
899.727	132.885
903.501	174.864
907.274	210.919
911.044	197.017
914.813	296.943
918.58	361.261
922.345	435.488
926.108	703.386
929.869	996.326
933.628	1404.31
937.385	1600.38
941.14	1526.77
944.893	1221.75
948.645	1006.89
952.394	766.668
956.142	676.261
959.888	618.546
963.631	598.225
967.373	590.754
971.113	662.97
974.851	801.822
978.588	929.556
982.322	1156.02
986.054	1622.88
989.785	2439.72
993.513	3836.68
997.24	6995.66
1000.97	12925.7
1004.69	24055.9
1008.41	30686.1
1012.13	20666.3
1015.85	11686.6
1019.56	7836.92
1023.27	5855.27
1026.99	4875.8
1030.7	3878.77
1034.4	3095.26
1038.11	2294.89
1041.81	1754.26
1045.52	1408.91
1049.22	1113.81
1052.91	948.972
1056.61	714.388
1060.31	555.559
1064	442.465
1067.69	417.344
1071.38	409.736
1075.07	379.63
1078.75	264.323
1082.44	248.541
1086.12	223.227
1089.8	188.493
1093.48	217.63
1097.15	181.462
1100.83	279.093
1104.5	231.258
1108.17	105.94
1111.84	92.446
1115.51	125.14
1119.17	97.751
1122.83	115.44
1126.5	104.273
1130.15	149.093
1133.81	160.005
1137.47	52.745
1141.12	120.87
1144.78	1.55
1148.43	1.814
1152.07	63.385
1155.72	128.952
1159.37	75.633
1163.01	118.33
1166.65	55.218
1170.29	20.152
1173.93	18.297
1177.56	31.287
1181.2	1.884
1184.83	8.598
1188.46	38.241
1192.09	17.429
1195.71	5.364
1199.34	52.419
1202.96	33.613
1206.58	75.949
1210.2	23.601
1213.82	73.042
1217.44	63.44
1221.05	42.893
1224.66	60.158
1228.27	14.671
1231.88	15.405
1235.49	37.559
1239.09	2.359
1242.7	52.247
1246.3	104.056
1249.9	151.838
1253.49	81.707
1257.09	53.363
1260.68	38.949
1264.28	42.462
1267.87	22.952
1271.46	30.321
1275.04	103.624
1278.63	112.84
1282.21	103.107
1285.79	148.241
1289.37	78.225
1292.95	12.906
1296.53	66.963
1300.1	26.803
1303.68	21.544
1307.25	17.231
1310.82	170.878
1314.38	154.346
1317.95	146.855
1321.51	72.882
1325.08	204.734
1328.63	119.905
1332.19	67.02
1335.75	20.222
1339.31	68.735
1342.86	63.55
1346.41	132.193
1349.96	186.261
1353.51	123.433
1357.05	182.595
1360.6	154.603
1364.14	76.277
1367.68	62.92
1371.22	37.553
1374.76	54.39
1378.3	148.969
1381.83	154.082
1385.36	235.347
1388.89	192.336
1392.42	274.212
1395.95	179.851
1399.47	94.976
1402.99	29.959
1406.52	15.199
1410.04	65.61
1413.56	83.535
1417.07	86.669
1420.59	145.712
1424.1	178.642
1427.61	170.613
1431.12	457.445
1434.63	135.687
1438.13	102.101
1441.64	125.383
1445.14	27.912
1448.64	18.52
1452.14	103.189
1455.64	92.858
1459.13	190.155
1462.63	222.93
1466.12	240.778
1469.61	230.964
1473.1	218.835
1476.59	243.492
1480.07	82.135
1483.56	67.211
1487.04	34.493
1490.52	13.2
1494	38.365
1497.47	5.906
1500.95	89.997
1504.42	188.186
1507.89	158.377
1511.36	212.238
1514.83	166.986
1518.3	0
