Measurement: Raman, 514 nm, ccw, Raman Data Processed
Mineral: Enstatite
Rruff sample: R040094
Ideal chemistry: MgSiO_3_
Locality: unknown
Source: University of Arizona Mineral Museum
Description: Dark green massive, associated with anthophyllite
Measured chemistry: (Mg_0.84_Fe_0.15_)(Si_0.99_Al_0.01_)O_3_; = Enstatite :  [box](Mg_0.83_Fe_0.14_Na_0.01_Ca_0.01_)_7_(Si_0.99_Al_0.01_)_8_O_22_(OH)_2_ = Anthophyllite
Pin_id: M00257
Orientation: Laser parallel to b* (0 1 0). Fiducial mark perpendicular to laser is parallel to -c [0 0 -1]
Raman shift (cm-1)	intensity
71.972	0
76.178	1.66
80.383	715.279
84.585	2414.1
88.785	168.707
92.983	309.347
97.178	467.836
101.372	810.36
105.563	1327.1
109.751	1326.18
113.938	1295.47
118.122	1893.05
122.304	2710.29
126.484	6843.89
130.662	13780
134.837	11456.8
139.011	5357.53
143.181	3347.27
147.35	2360.04
151.517	1651.74
155.681	1311.25
159.843	1096.72
164.003	1046.21
168.161	887.943
172.316	845.715
176.469	918.148
180.62	971.234
184.769	1016.39
188.916	1085.59
193.06	1256.37
197.202	1219.72
201.342	1083.02
205.48	931.745
209.616	587.713
213.749	352.57
217.88	303.692
222.009	432.031
226.136	593.582
230.261	1027.33
234.383	1966.27
238.504	2266.01
242.622	875.426
246.738	260.654
250.851	131.91
254.963	6.505
259.072	26.848
263.179	6.648
267.284	44.862
271.387	0.323
275.488	45.995
279.587	179.252
283.683	93.295
287.777	5.171
291.869	148.199
295.959	332.81
300.047	471.652
304.132	381.711
308.216	308.975
312.297	397.429
316.376	573.059
320.453	1002.06
324.528	1765.88
328.6	3349.09
332.671	6690.5
336.739	12846
340.805	19060
344.869	16596.8
348.931	9584.14
352.991	5330.05
357.049	3518.3
361.104	2575.65
365.158	1903.11
369.209	1467.64
373.258	1314.23
377.305	1418.86
381.35	1459.53
385.392	1380.24
389.433	1673.97
393.472	2410.73
397.508	3471.51
401.542	3951.32
405.574	3692.29
409.604	3389.41
413.632	3042.62
417.658	2646.93
421.682	2130.76
425.703	1680.18
429.723	1497.64
433.74	1846.79
437.755	2867.12
441.768	3531.6
445.779	2089.62
449.788	1053.77
453.795	572.303
457.8	389.875
461.802	352.463
465.803	384.063
469.801	233.705
473.798	132.385
477.792	37.133
481.784	2.94
485.774	36.263
489.762	71.873
493.748	35.879
497.732	8.183
501.714	23.78
505.694	12.738
509.671	33.942
513.647	89.809
517.62	295.541
521.592	453.247
525.561	519.916
529.528	430.538
533.494	620.109
537.457	1074.63
541.418	933.093
545.377	630.501
549.334	565.851
553.289	482.142
557.241	253.371
561.192	170.538
565.141	148.64
569.088	138.673
573.032	175.25
576.975	214.522
580.915	145.339
584.854	197.083
588.79	202.747
592.724	203.336
596.657	161.851
600.587	151.361
604.515	167.998
608.442	104.71
612.366	222.404
616.288	147.501
620.208	199.439
624.126	268.162
628.042	479.216
631.956	595.539
635.868	738.92
639.778	904.896
643.686	1372.51
647.592	2226.51
651.496	3747.75
655.398	6619.2
659.298	11870
663.196	14511.3
667.091	11217.6
670.985	9389.81
674.877	10678.1
678.767	15028
682.655	19716.1
686.54	16954
690.424	9541.92
694.306	5101.66
698.186	2976.32
702.063	1952.89
705.939	1482.39
709.813	1059.8
713.685	736.127
717.554	534.376
721.422	561.545
725.288	362.636
729.152	336.647
733.014	299.583
736.873	286.443
740.731	186.229
744.587	242.944
748.441	308.588
752.293	228.164
756.143	121.672
759.991	82.114
763.837	49.361
767.681	157.665
771.523	89.874
775.363	13.995
779.201	43.001
783.037	49.175
786.871	38.438
790.703	57.855
794.533	33.995
798.361	9.02
802.188	9.019
806.012	43.851
809.834	26.221
813.654	31.25
817.473	0.742
821.289	48.797
825.104	23.008
828.916	27.243
832.727	51.419
836.536	50.043
840.342	10.633
844.147	118.191
847.95	280.723
851.751	665.23
855.55	1179.73
859.347	1340.21
863.142	1148.67
866.935	780.126
870.726	564.57
874.515	429.001
878.302	345.423
882.088	169.857
885.871	39.33
889.652	114.82
893.432	153.359
897.21	238.963
900.985	209.597
904.759	157.312
908.531	158.082
912.301	172.89
916.069	299.737
919.835	356.651
923.599	510.049
927.361	576.095
931.122	704.499
934.88	757.382
938.637	748.167
942.391	859.633
946.144	750.324
949.895	493.133
953.644	396.616
957.391	391.39
961.136	312.383
964.879	306.956
968.62	397.909
972.359	413.345
976.097	345.022
979.833	411.735
983.566	556.185
987.298	725.72
991.028	1083.35
994.756	1994.15
998.482	3113.09
1002.21	4802.07
1005.93	6938.15
1009.65	7664.42
1013.37	6810.62
1017.08	6617.48
1020.8	6103.75
1024.51	5560.15
1028.22	4747.73
1031.93	3951.81
1035.64	2924.07
1039.35	2382.49
1043.05	1747.32
1046.75	1166.36
1050.45	808.612
1054.15	583.777
1057.84	511.012
1061.54	457.989
1065.23	407.56
1068.92	415.438
1072.61	413.389
1076.3	315.141
1079.98	248.535
1083.66	207.016
1087.35	281.427
1091.02	345.919
1094.7	189.301
1098.38	332.007
1102.05	299.156
1105.72	248.337
1109.39	112.558
1113.06	92.294
1116.73	172.021
1120.39	212.893
1124.06	251.906
1127.72	184.01
1131.38	187.047
1135.03	118.681
1138.69	87.149
1142.34	104.789
1145.99	165.782
1149.64	224.286
1153.29	241.51
1156.94	163.177
1160.58	15.734
1164.22	78.735
1167.86	53.63
1171.5	98.053
1175.14	1.976
1178.78	138.146
1182.41	186.166
1186.04	117.882
1189.67	32.404
1193.3	27.266
1196.92	109.172
1200.55	19.063
1204.17	17.356
1207.79	79.658
1211.41	151.866
1215.03	64.838
1218.64	80.85
1222.26	25.723
1225.87	68.574
1229.48	31.754
1233.08	56.284
1236.69	106.542
1240.3	212.651
1243.9	87.294
1247.5	143.111
1251.1	76.813
1254.69	69.596
1258.29	53.004
1261.88	75.166
1265.47	54.314
1269.07	67.226
1272.65	161.868
1276.24	212.311
1279.82	167.688
1283.41	32.801
1286.99	50.322
1290.57	108.331
1294.14	109.862
1297.72	90.204
1301.29	242.259
1304.87	247.153
1308.44	208.548
1312.01	101.296
1315.57	144.808
1319.14	79.737
1322.7	1.286
1326.26	39.104
1329.82	23.256
1333.38	119.673
1336.94	221.312
1340.49	325.216
1344.04	320.948
1347.59	180.314
1351.14	145.16
1354.69	149.835
1358.24	5.955
1361.78	60.355
1365.32	178.352
1368.86	98.709
1372.4	100.246
1375.94	219.709
1379.47	350.026
1383.01	314.217
1386.54	189.773
1390.07	101.4
1393.6	40.485
1397.12	146.492
1400.65	89.131
1404.17	60.573
1407.69	213.984
1411.21	323.9
1414.73	191.229
1418.24	334.878
1421.76	335.549
1425.27	298.666
1428.78	185.511
1432.29	181.25
1435.8	110.558
1439.3	73.986
1442.81	255.672
1446.31	326.297
1449.81	461.378
1453.31	392.892
1456.8	470.08
1460.3	502.012
1463.79	453.798
1467.28	253.603
1470.77	273.343
1474.26	145.725
1477.75	90.341
1481.23	118.389
1484.72	236.98
1488.2	237.403
1491.68	363.725
1495.16	414.11
1498.63	519.834
1502.11	489.397
1505.58	230.122
1509.05	286.361
1512.52	186.534
1515.99	0
