Measurement: Raman, 514 nm, ccw, Raman Data Processed
Mineral: Enstatite
Rruff sample: R050644
Ideal chemistry: MgSiO_3_
Locality: Morogoro, Tanzania
Source: Jibamitra Ganguly
Description: Light brown crystal fragment
Measured chemistry: (Mg_0.90_Fe_0.10_)SiO_3_
Pin_id: L01041
Orientation: Laser parallel to -a* (-1 0 0). Fiducial mark perpendicular to laser is parallel to -b [0 -1 0]
Raman shift (cm-1)	intensity
113.208	0
118.134	272.833
123.058	1259.6
127.979	3843.05
132.898	3337.83
137.814	3543.05
142.728	3533.92
147.639	2261.17
152.549	935.123
157.455	714.208
162.359	721.207
167.261	257.043
172.161	67.3652
177.058	106.569
181.952	118.022
186.845	690.668
191.734	1045.46
196.622	926.693
201.507	528.266
206.389	133.471
211.269	128.332
216.147	235.703
221.022	610.535
225.895	1603.82
230.765	3776.59
235.633	3953.27
240.498	2156.66
245.361	649.023
250.222	223.967
255.08	72.5547
259.936	60.8379
264.789	124.906
269.64	16.7344
274.488	26.0215
279.334	109.893
284.178	113.436
289.019	131.17
293.857	648.791
298.693	754.217
303.527	840.156
308.358	655.623
313.187	964.479
318.013	1223.75
322.837	1764.83
327.659	3237.94
332.478	6992.75
337.294	11755.8
342.108	9618.5
346.92	4836.93
351.729	2551.01
356.535	1822.5
361.34	1439.89
366.141	1283.21
370.94	1721.99
375.737	2128.98
380.531	2131.14
385.323	1929.44
390.113	3049.85
394.9	4287.38
399.684	4265.79
404.466	3624.19
409.245	3352.79
414.022	3148.74
418.797	2454.44
423.569	1309.43
428.338	622.322
433.105	684.312
437.87	1098.38
442.632	665.514
447.391	548.984
452.149	154.31
456.903	345.715
461.655	175.041
466.405	44.9551
471.152	227.221
475.897	70.3594
480.639	83.3652
485.378	75.1211
490.116	19.4609
494.85	21.3789
499.582	141.742
504.312	108.057
509.039	493.504
513.764	1264.05
518.486	1713.81
523.206	1769.56
527.923	884.301
532.638	1288.98
537.35	1354.55
542.059	1146.38
546.766	1253.06
551.471	956.123
556.173	539.373
560.873	486.654
565.57	236.965
570.264	554.119
574.957	456.08
579.646	390.822
584.333	91.3555
589.018	113.58
593.7	240.299
598.379	174.641
603.056	42.3516
607.73	308.543
612.402	276.322
617.072	84.4512
621.739	254.783
626.403	590.221
631.065	791.293
635.724	756.244
640.381	1114.32
645.035	1291.15
649.687	2365.99
654.336	4444.02
658.983	6859.11
663.627	6307.57
668.268	4251
672.907	4411.79
677.544	6959.78
682.178	8677.57
686.809	5838.66
691.438	2872.6
696.065	1295.38
700.688	899.881
705.31	766.438
709.929	612.932
714.545	666.295
719.158	627.293
723.77	331.766
728.378	506.918
732.984	495.154
737.588	555.121
742.189	661.879
746.787	864.637
751.383	849.551
755.976	223.473
760.567	77.9531
765.155	146.15
769.741	49.5137
774.324	106.273
778.904	114.846
783.482	50.4473
788.058	136.006
792.631	38.0742
797.201	63.9824
801.769	28.6035
806.334	123.707
810.897	79.4648
815.457	38.1445
820.014	93.5156
824.569	6.51172
829.122	295.168
833.671	180.652
838.219	311.963
842.763	251.027
847.306	477.91
851.845	689.609
856.382	922.125
860.917	731.43
865.448	416.699
869.978	448.004
874.505	198.234
879.029	219.504
883.55	6.19531
888.069	114.227
892.586	323.543
897.1	198.992
901.611	59.4922
906.12	95.4336
910.626	75.6133
915.129	563.031
919.63	712.684
924.129	1004.72
928.625	1433.08
933.118	1019.07
937.609	990.809
942.097	622.981
946.582	595.812
951.065	408.438
955.546	217.062
960.023	329.535
964.499	182.156
968.971	5.78516
973.441	324.883
977.909	289.981
982.374	462.504
986.836	838.914
991.295	1033.3
995.753	1839.1
1000.21	2743.48
1004.66	5130.62
1009.11	7333.8
1013.55	7118.93
1018	6995.77
1022.44	8117.73
1026.88	9109.25
1031.32	8488.65
1035.75	6295.71
1040.18	3691.02
1044.61	2507.56
1049.04	1737.86
1053.46	1152.39
1057.88	772.438
1062.3	860.434
1066.71	418.934
1071.13	212.898
1075.54	507.918
1079.94	629.176
1084.35	654.512
1088.75	454.297
1093.15	121.09
1097.55	465.738
1101.94	257.688
1106.34	104.125
1110.73	206.082
1115.11	141.906
1119.5	192.668
1123.88	329.824
1128.26	88.8945
1132.63	275.289
1137.01	360.223
1141.38	221.852
1145.75	151.449
1150.12	275.402
1154.48	77.3867
1158.84	270.285
1163.2	92.8789
1167.55	6.57422
1171.91	730.016
1176.26	196.422
1180.61	181
1184.95	248.445
1189.29	436.269
1193.63	219.434
1197.97	222.723
1202.31	59.1562
1206.64	125.523
1210.97	116.336
1215.29	262.641
1219.62	284.66
1223.94	168.004
1228.26	339.785
1232.57	181.777
1236.89	183.953
1241.2	223.191
1245.51	250.07
1249.81	282.508
1254.12	164.922
1258.42	121.523
1262.72	420.641
1267.01	246.848
1271.3	184.082
1275.59	148.273
1279.88	384.184
1284.17	390.094
1288.45	96.1367
1292.73	64.3125
1297.01	295.973
1301.28	218.961
1305.55	149.469
1309.82	594.867
1314.09	282.273
1318.35	409.316
1322.61	233.816
1326.87	537.625
1331.13	495.445
1335.38	274.672
1339.63	169.023
1343.88	178.086
1348.12	203.172
1352.37	25.2539
1356.61	163.621
1360.85	255.473
1365.08	261.84
1369.31	356.406
1373.54	264.484
1377.77	236.269
1381.99	495.109
1386.22	234.984
1390.43	331.762
1394.65	19.0977
1398.87	390.637
1403.08	362.656
1407.29	220.519
1411.49	7.57031
1415.69	137.758
1419.89	386.606
1424.09	368.828
1428.29	315.691
1432.48	634.59
1436.67	524.91
1440.86	270.871
1445.04	489.402
1449.23	523.441
1453.4	325.742
1457.58	510.746
1461.76	373.414
1465.93	451.109
1470.1	271.816
1474.26	485.055
1478.43	206.059
1482.59	547.297
1486.75	200.527
1490.9	400.57
1495.06	316.789
1499.21	176.484
1503.35	342.633
1507.5	456.012
1511.64	313.555
1515.78	79.5977
1519.92	455.43
1524.05	382.766
1528.18	402.738
1532.31	341.953
1536.44	370.457
1540.56	305.422
1544.69	364.32
1548.8	365.547
1552.92	121.836
1557.03	204.117
1561.14	88.3594
1565.25	125.004
1569.36	8.625
