Measurement: Raman, 514 nm, ccw, Raman Data Processed
Mineral: Enstatite
Rruff sample: R070418
Ideal chemistry: MgSiO_3_
Locality: India
Source: Michael Scott
Description: Brown translucent fragments
Measured chemistry: (Mg_0.86_Fe_0.14_)_Î£=1_Si_1.00_O_3_; trace amounts of Al, Ca, Mn
Pin_id: L00897
Orientation: Laser parallel to b* (0 1 0). Fiducial mark perpendicular to laser is parallel to c [0 0 1]
Raman shift (cm-1)	intensity
41.8	0
46.809	48.0462
51.816	109.727
56.819	228.334
61.819	252.901
66.816	504.792
71.81	464.307
76.8	410.202
81.788	185.425
86.772	38.457
91.754	105.37
96.732	56.4791
101.707	380.86
106.679	1260.67
111.648	2104.96
116.613	5538.72
121.576	15528.9
126.535	31993.5
131.492	27432.7
136.445	12742.7
141.395	7464.61
146.343	5340.68
151.287	4314.91
156.228	3978.46
161.166	3840.02
166.1	3564.56
171.032	3468.67
175.961	3334.8
180.887	3476.82
185.809	3430.02
190.729	3427.25
195.645	3297.33
200.559	3023.59
205.469	2272.66
210.376	1755.14
215.281	1538.9
220.182	1780.48
225.08	2832.94
229.976	4743.35
234.868	6351.42
239.757	3365.58
244.643	1275.69
249.527	827.204
254.407	662.95
259.284	871.746
264.158	853.527
269.029	864.233
273.898	578.813
278.763	378.236
283.625	401.485
288.485	840.553
293.341	1359.45
298.194	1549.17
303.045	1319.66
307.892	1368.89
312.736	2022.81
317.578	3468.39
322.417	6882.6
327.252	14456.4
332.085	30795.7
336.914	50696.8
341.741	49720.9
346.565	28244.2
351.386	14782.9
356.204	8665.77
361.019	5409.71
365.831	3878.85
370.64	3248.06
375.447	2899.59
380.25	2981.81
385.05	3812.98
389.848	5920.07
394.643	9188.61
399.434	11089.4
404.223	10554.4
409.009	8922.63
413.792	7338
418.573	5931.5
423.35	4438.1
428.124	4250.08
432.896	6408.77
437.665	9405.46
442.431	6754.11
447.194	2872.81
451.954	1399.28
456.711	1011.62
461.465	688.195
466.217	631.312
470.966	312.039
475.712	75.4966
480.455	24.3818
485.195	69.8359
489.932	217.23
494.667	267.972
499.399	212.483
504.128	268.014
508.854	185.84
513.577	22.5928
518.297	441.646
523.015	842.488
527.73	1131.03
532.442	1565.16
537.151	2262.72
541.858	1660.77
546.561	1269.47
551.262	1003.48
555.96	533.714
560.656	205.177
565.348	253.809
570.038	271.579
574.725	234.461
579.409	279.445
584.091	184.506
588.769	210.618
593.445	292.764
598.119	349.928
602.789	313.054
607.457	212.117
612.122	264.109
616.784	431.048
621.443	572.656
626.1	794.396
630.754	1142.51
635.405	1807.56
640.054	2824.05
644.7	5037.77
649.343	9848.38
653.983	20661.5
658.621	36069.3
663.256	36669
667.888	25767.5
672.518	26470.2
677.144	40244.9
681.769	51420
686.39	37702.6
691.009	18584.7
695.625	8874.65
700.238	5231.44
704.849	3387.1
709.457	2151.3
714.062	1657.67
718.665	1243.9
723.265	977.992
727.863	733.828
732.457	629.635
737.049	602.304
741.639	374.739
746.225	465.681
750.81	351.961
755.391	104.122
759.97	90.2061
764.546	0.847656
769.12	92.3799
773.69	113.768
778.259	84.6543
782.824	86.1611
787.387	51.3506
791.948	104.262
796.506	24.2881
801.061	36.8603
805.613	82.3252
810.163	56.9111
814.711	73.4189
819.255	149.456
823.797	147.801
828.337	26.0234
832.874	179.207
837.408	55.3682
841.94	395.562
846.469	713.805
850.996	1650.11
855.52	3002.48
860.041	3494.94
864.56	2697.49
869.077	1662.16
873.59	1029.94
878.101	589.867
882.61	406.967
887.116	209.224
891.62	255.644
896.121	196.15
900.619	191.547
905.115	113.494
909.608	129.428
914.099	145.226
918.587	318.267
923.073	525.537
927.556	799.204
932.037	1198.3
936.515	1251.81
940.991	1256.08
945.464	1093.94
949.934	764.531
954.403	556.663
958.868	552.249
963.331	386.338
967.792	313.971
972.25	409.166
976.705	463.943
981.158	703.221
985.609	1113.01
990.057	2143.24
994.503	4338.3
998.946	7459.03
1003.39	11825.7
1007.83	15704.8
1012.26	15877.3
1016.69	15667.2
1021.12	14863.5
1025.55	13221.1
1029.98	10768.1
1034.4	7247.4
1038.82	4658.18
1043.24	2804.33
1047.66	1744.85
1052.07	1220.24
1056.48	735.877
1060.89	653.761
1065.3	552.587
1069.7	375.872
1074.1	227.034
1078.5	130.633
1082.9	125.534
1087.29	176.019
1091.68	238.291
1096.07	167.57
1100.46	230.573
1104.84	267.283
1109.23	175.106
1113.61	296.01
1117.98	359.457
1122.36	401.688
1126.73	445.859
1131.1	326.714
1135.47	242.457
1139.83	166.409
1144.19	344.798
1148.56	162.909
1152.91	121.52
1157.27	277.626
1161.62	227.836
1165.97	151.674
1170.32	182.845
1174.67	186.092
1179.01	146.832
1183.35	159.76
1187.69	82.835
1192.03	46.7197
1196.36	85.5361
1200.7	12.2432
1205.03	23.0205
1209.35	6.65137
1213.68	194.098
1218	52.2197
1222.32	37.3828
1226.64	56.5615
1230.95	42.1924
1235.27	32.6113
1239.58	42.0137
1243.89	69.4228
1248.19	128.233
1252.5	70.25
1256.8	57.4307
1261.1	2.8457
1265.4	159.32
1269.69	126.231
1273.98	211.398
1278.27	132.848
1282.56	143.618
1286.85	323.716
1291.13	216.215
1295.41	193.152
1299.69	355.516
1303.97	306.655
1308.24	224.753
1312.51	238.024
1316.78	395.731
1321.05	297.088
1325.31	246.042
1329.58	174.232
1333.84	190.825
1338.1	138.394
1342.35	247.332
1346.61	279.004
1350.86	223.18
1355.11	389.512
1359.35	211.115
1363.6	243.625
1367.84	232.043
1372.08	230.069
1376.32	257.442
1380.55	225.864
1384.79	351.214
1389.02	181.222
1393.25	164.777
1397.47	66.2227
1401.7	109.29
1405.92	191.179
1410.14	225.957
1414.36	523.2
1418.57	321.496
1422.79	395.803
1427	385.519
1431.21	101.345
1435.41	269.404
1439.62	245.576
1443.82	206.422
1448.02	303.254
1452.22	238.757
1456.41	282.095
1460.61	289.231
1464.8	239.955
1468.99	218.868
1473.17	226.047
1477.36	256.602
1481.54	398.127
1485.72	260.25
1489.9	263.543
1494.08	223.867
1498.25	209.513
1502.42	176.566
1506.59	76.1689
1510.76	14.9463
1514.93	143.637
1519.09	116.778
1523.25	200.379
1527.41	185.398
1531.57	178.069
1535.72	50.623
1539.87	76.0488
1544.02	85.0967
1548.17	330.34
1552.32	8.36035
1556.46	119.501
1560.6	223.616
