Measurement: Raman, 514 nm, ccw, Raman Data Processed
Mineral: Enstatite
Rruff sample: R060630
Ideal chemistry: MgSiO_3_
Locality: unknown
Source: Gemological Institute of America
Description: Tan colored fragment
Measured chemistry: (Mg_0.89_Fe_0.07_Al_0.04_)_Σ=1_(Si_0.96_Al_0.04_)_Σ=1_O_3_
Pin_id: L01005
Orientation: Laser parallel to c* (0 0 1). Fiducial mark perpendicular to laser is parallel to a [1 0 0]
Raman shift (cm-1)	intensity
118.134	0
123.058	393.492
127.979	113.091
132.898	209.18
137.814	727.315
142.728	1310.35
147.639	2187.69
152.549	2583.42
157.455	2125.44
162.359	1478.23
167.261	1225.18
172.161	866.423
177.058	760.365
181.952	1153.93
186.845	2213.7
191.734	3407.56
196.622	4367.49
201.507	3477.68
206.389	1833.53
211.269	837.129
216.147	613.408
221.022	1148.33
225.895	2759.96
230.765	6012.24
235.633	8358.91
240.498	7823.91
245.361	3445.14
250.222	872.583
255.08	42.209
259.936	85.1777
264.789	423.927
269.64	380.815
274.488	86.2852
279.334	653.599
284.178	1522.94
289.019	2528.7
293.857	3623.5
298.693	4185.15
303.527	3704.35
308.358	3789.74
313.187	5947.61
318.013	8990.31
322.837	11238.3
327.659	12290.4
332.478	14136.2
337.294	18995.7
342.108	24802.7
346.92	28819.4
351.729	27870.4
356.535	20742.4
361.34	14982.7
366.141	11124.4
370.94	9411.56
375.737	10190.1
380.531	12720.9
385.323	15405
390.113	17600.5
394.9	18541.2
399.684	19595.2
404.466	19689.6
409.245	19193.3
414.022	19693.5
418.797	19656.4
423.569	15124
428.338	7849.01
433.105	3737.27
437.87	2034.76
442.632	1548.43
447.391	1239.27
452.149	761.737
456.903	776.906
461.655	795.482
466.405	943.838
471.152	511.376
475.897	327.18
480.639	53.0225
485.378	43.2666
490.116	47.29
494.85	175.079
499.582	214.869
504.312	630.913
509.039	1614.23
513.764	3059.06
518.486	4095.23
523.206	4683.47
527.923	4892.8
532.638	4757.14
537.35	4615.15
542.059	3866.52
546.766	3478.36
551.471	3596.86
556.173	2849.73
560.873	1836.34
565.57	1198.6
570.264	1078.89
574.957	1091.68
579.646	858.436
584.333	587.099
589.018	41.6279
593.7	115.736
598.379	162.918
603.056	197.365
607.73	209.017
612.402	49.4062
617.072	98.2031
621.739	24.9883
626.403	496.757
631.065	954.47
635.724	1787.54
640.381	2688.49
645.035	3563.89
649.687	5940.2
654.336	9608.13
658.983	12318.8
663.627	12276.3
668.268	10327
672.907	10709.1
677.544	14574
682.178	19992.5
686.809	20835
691.438	15196.3
696.065	8810.58
700.688	5266.73
705.31	3557.73
709.929	2602.59
714.545	2193.31
719.158	1756.86
723.77	1454.26
728.378	1419.17
732.984	1243.08
737.588	1338.41
742.189	779.087
746.787	712.4
751.383	676.444
755.976	598.556
760.567	251.365
765.155	144.397
769.741	287.435
774.324	62.5918
778.904	52.5381
783.482	145.293
788.058	129.478
792.631	92.3311
797.201	69.5644
801.769	75.4131
806.334	163.414
810.897	16.7109
815.457	138.928
820.014	136.422
824.569	496.358
829.122	1042.78
833.671	1487.72
838.219	2343.24
842.763	3055.36
847.306	3220.13
851.845	2336.59
856.382	1622.78
860.917	918.738
865.448	400.518
869.978	310.356
874.505	325.409
879.029	349.339
883.55	500.2
888.069	615.442
892.586	1053.89
897.1	1091.46
901.611	1327.04
906.12	1630.48
910.626	2173.97
915.129	2788.74
919.63	4698.82
924.129	7528.44
928.625	10397.6
933.118	11579.5
937.609	9817.94
942.097	7848.4
946.582	6025.47
951.065	5223.13
955.546	3863.22
960.023	2889.35
964.499	1814.55
968.971	1157.02
973.441	1105.53
977.909	1345.94
982.374	2305.36
986.836	3848.76
991.295	6571.1
995.753	11205.7
1000.21	18111.6
1004.66	26259.7
1009.11	33516.7
1013.55	36006.9
1018	36339
1022.44	37321.5
1026.88	39778.1
1031.32	40872.8
1035.75	37535.9
1040.18	29282.5
1044.61	20817.8
1049.04	14544.8
1053.46	10478.1
1057.88	7050.09
1062.3	4625.71
1066.71	3051.1
1071.13	1962.84
1075.54	1478.74
1079.94	1001.47
1084.35	578.717
1088.75	602.723
1093.15	499.635
1097.55	252.019
1101.94	402.398
1106.34	247.184
1110.73	152.279
1115.11	486.727
1119.5	259.508
1123.88	328.297
1128.26	495.391
1132.63	214.223
1137.01	153.609
1141.38	68.8848
1145.75	51.4023
1150.12	43.7871
1154.48	49.7559
1158.84	82.5176
1163.2	181.977
1167.55	67.8633
1171.91	218.764
1176.26	25.0918
1180.61	23.7734
1184.95	62.1738
1189.29	21.4121
1193.63	133.633
1197.97	40.6191
1202.31	52.3262
1206.64	90.3262
1210.97	8.44141
1215.29	4.93164
1219.62	53.4824
1223.94	27.7812
1228.26	53.8711
1232.57	142.273
1236.89	92.6543
1241.2	20.373
1245.51	262.287
1249.81	260.516
1254.12	70.959
1258.42	87.9824
1262.72	71.6856
1267.01	134.451
1271.3	256.254
1275.59	56.5996
1279.88	148.951
1284.17	211.697
1288.45	202.557
1292.73	167.75
1297.01	234.121
1301.28	427.879
1305.55	324.201
1309.82	365.519
1314.09	352.334
1318.35	319.478
1322.61	427.812
1326.87	326.498
1331.13	418.019
1335.38	316.287
1339.63	299.06
1343.88	525.91
1348.12	393.051
1352.37	455.725
1356.61	402.141
1360.85	382.635
1365.08	546.24
1369.31	376.631
1373.54	418.666
1377.77	267.383
1381.99	467.102
1386.22	398.586
1390.43	253.117
1394.65	215.197
1398.87	336.322
1403.08	235.99
1407.29	320.24
1411.49	336.205
1415.69	283.299
1419.89	277.732
1424.09	265.508
1428.29	343.072
1432.48	327.4
1436.67	117.852
1440.86	271.885
1445.04	364.949
1449.23	160.25
1453.4	327.674
1457.58	103.707
1461.76	393.553
1465.93	219.246
1470.1	318.205
1474.26	367.932
1478.43	89.5156
1482.59	338.44
1486.75	192.861
1490.9	380.664
1495.06	34.3379
1499.21	133.711
1503.35	283.082
1507.5	104.137
1511.64	191.219
1515.78	204.691
1519.92	6.98633
1524.05	273.807
1528.18	124.17
1532.31	12.375
1536.44	127.846
1540.56	295.777
1544.69	170.484
1548.8	148.275
1552.92	419.576
1557.03	168.428
1561.14	243.674
1565.25	10.3672
1569.36	171.828
