Measurement: Raman, 514 nm, ccw, Raman Data Processed
Mineral: Enstatite
Rruff sample: R050644
Ideal chemistry: MgSiO_3_
Locality: Morogoro, Tanzania
Source: Jibamitra Ganguly
Description: Light brown crystal fragment
Measured chemistry: (Mg_0.90_Fe_0.10_)SiO_3_
Pin_id: L00720
Orientation: Laser parallel to c* (0 0 1). Fiducial mark perpendicular to laser is parallel to -a [-1 0 0]
Raman shift (cm-1)	intensity
51.431	0
56.387	63.5285
61.341	6.42392
66.292	13.5305
71.241	1256.59
76.187	7852.92
81.131	6014.35
86.072	1276.11
91.012	598.036
95.948	349.879
100.883	260.312
105.815	889.624
110.744	466.808
115.671	478.385
120.596	425.499
125.519	415.279
130.439	610.764
135.356	880.464
140.271	1729.18
145.184	2543.22
150.094	2828.72
155.002	2225.03
159.908	1425.99
164.811	1211.12
169.711	1066.5
174.61	1144.53
179.505	2039.17
184.399	3785.26
189.29	5367.76
194.178	4850.74
199.064	2734.62
203.948	1476.4
208.829	753.514
213.708	483.233
218.585	699.159
223.459	2084.17
228.33	5996
233.199	10182.4
238.066	7986.28
242.93	2667.45
247.792	491.85
252.651	54.3904
257.508	3.85644
262.363	204.753
267.215	244.046
272.064	27.0635
276.912	215.627
281.756	511.172
286.598	1480.57
291.438	3335.81
296.276	5028.87
301.111	4884.73
305.943	4491.65
310.773	7160.32
315.601	11455.8
320.426	12728
325.248	14302.1
330.068	25560.1
334.886	45387.3
339.701	52185.1
344.514	38366.8
349.324	18243
354.132	9531.52
358.938	6509.88
363.741	5637.1
368.541	6675.01
373.339	9289.57
378.135	11466.8
382.928	12479.6
387.718	16629
392.506	25815
397.292	31750.5
402.075	29301.4
406.856	23598.4
411.634	20276.2
416.41	17001.8
421.183	11456.5
425.954	5937.19
430.722	2854.41
435.488	1873.09
440.251	1359.24
445.012	887.831
449.77	644.853
454.526	611.311
459.28	352.521
464.03	229.154
468.779	200.978
473.525	61.3113
478.268	113.279
483.009	90.7063
487.747	127.836
492.483	59.6379
497.217	34.6145
501.948	172.584
506.676	644.327
511.402	1876.62
516.125	4698.55
520.846	8059.12
525.565	8519.27
530.281	7494.76
534.994	7504.55
539.705	7066.59
544.413	6306.77
549.119	5593.14
553.822	3759.19
558.523	1742.74
563.222	1104.38
567.917	1002
572.611	1021.58
577.302	961.106
581.99	631.562
586.676	420.93
591.359	317.193
596.04	161.333
600.718	62.3254
605.394	31.0925
610.067	64.5215
614.737	127.129
619.406	158.559
624.071	303.857
628.734	491.625
633.395	620.167
638.053	1132.69
642.708	2115.82
647.361	4294.05
652.012	9157.88
656.66	17526.7
661.305	20751.9
665.948	15665.3
670.588	11487.3
675.226	14467.3
679.861	19950.1
684.494	18754.1
689.124	10832.5
693.752	4794.52
698.377	2338.06
702.999	1411.13
707.619	962.755
712.237	728.914
716.852	718.614
721.464	359.853
726.074	329.637
730.681	286.965
735.286	250.843
739.888	168.15
744.488	194.821
749.085	151.125
753.68	136.803
758.272	13.46
762.861	8.36108
767.448	35.7468
772.033	52.2634
776.614	82.5369
781.194	25.8479
785.77	61.1311
790.345	99.5154
794.916	68.1467
799.485	112.034
804.052	2.31445
808.616	49.5737
813.177	30.7754
817.736	2.48291
822.292	33.5505
826.846	131.404
831.397	165.101
835.945	253.667
840.491	516.124
845.035	1180.49
849.576	2528.81
854.114	3675.08
858.65	3029.34
863.183	1756.61
867.713	941.912
872.241	552.268
876.767	378.71
881.29	314.294
885.81	355.075
890.328	456.519
894.843	472.072
899.356	506.485
903.866	599.25
908.373	899.377
912.878	1614.68
917.38	3381.96
921.88	7104.01
926.377	9596.44
930.872	9149.45
935.364	7588.7
939.853	5832.78
944.34	3571.75
948.824	2158.4
953.306	1343.34
957.785	933.345
962.261	825.193
966.735	739.847
971.207	825.207
975.675	1030.31
980.141	1428.19
984.605	2110.93
989.066	3381.33
993.524	5853.55
997.98	10467.4
1002.43	19371
1006.88	31857.2
1011.33	37521.1
1015.78	38662.7
1020.22	45692.8
1024.66	55919.7
1029.1	60563.2
1033.53	51472.7
1037.97	35480.7
1042.4	21619.6
1046.82	12697.5
1051.25	7821.78
1055.67	5011.85
1060.09	3226.47
1064.51	2135.52
1068.92	1408.18
1073.33	1007.55
1077.74	769.143
1082.15	537.342
1086.55	404.346
1090.95	292.504
1095.35	296.453
1099.75	320.007
1104.14	213.054
1108.53	197.767
1112.92	174.265
1117.31	215.467
1121.69	184.097
1126.07	236.784
1130.45	197.89
1134.82	220.787
1139.19	157.862
1143.57	140.073
1147.93	37.3596
1152.3	60.7119
1156.66	81.9807
1161.02	26.7622
1165.38	101.337
1169.73	83.4009
1174.08	25.408
1178.43	11.3292
1182.78	76.3147
1187.12	19.0652
1191.46	29.6715
1195.8	54.6101
1200.14	69.1738
1204.47	55.3191
1208.8	22.3148
1213.13	43.9105
1217.46	21.4731
1221.78	35.0227
1226.1	1.58581
1230.42	34.1239
1234.73	3.73914
1239.04	25.2631
1243.35	22.5072
1247.66	31.4855
1251.97	97.7517
1256.27	101.43
1260.57	83.6034
1264.86	84.2933
1269.16	148.486
1273.45	145.201
1277.74	196.442
1282.03	175.508
1286.31	223.503
1290.59	302.954
1294.87	304.283
1299.14	275.154
1303.42	264.54
1307.69	280.439
1311.95	244.524
1316.22	224.756
1320.48	288.882
1324.74	237.834
1329	198.204
1333.26	242.015
1337.51	266.318
1341.76	160.368
1346	166.77
1350.25	166.828
1354.49	165.093
1358.73	175.389
1362.96	223.66
1367.2	167.75
1371.43	192.563
1375.66	213.905
1379.88	183.494
1384.11	196.002
1388.33	165.47
1392.54	166.675
1396.76	211.103
1400.97	191.695
1405.18	114.293
1409.39	172.271
1413.59	159.389
1417.8	146.496
1421.99	141.153
1426.19	115.12
1430.38	136.934
1434.58	144.577
1438.77	126.782
1442.95	197.26
1447.13	116.968
1451.32	159.539
1455.49	177.376
1459.67	121.409
1463.84	45.5844
1468.01	75.2958
1472.18	154.349
1476.35	147.98
1480.51	126.836
1484.67	155.686
1488.83	111.526
1492.98	118.338
1497.13	75.1365
1501.28	43.9194
1505.43	73.7956
1509.57	37.8367
1513.71	53.2537
1517.85	21.0703
1521.99	65.3144
1526.12	35.823
1530.25	46.5776
1534.38	35.6665
1538.5	44.2227
1542.62	44.0461
1546.74	74.3643
1550.86	84.957
1554.98	84.4514
1559.09	39.8706
1563.2	33.3127
1567.31	80.2322
