Measurement: Raman, 514 nm, ccw, Raman Data Processed
Mineral: Enstatite
Rruff sample: R040094
Ideal chemistry: MgSiO_3_
Locality: unknown
Source: University of Arizona Mineral Museum
Description: Dark green massive, associated with anthophyllite
Measured chemistry: (Mg_0.84_Fe_0.15_)(Si_0.99_Al_0.01_)O_3_; = Enstatite :  [box](Mg_0.83_Fe_0.14_Na_0.01_Ca_0.01_)_7_(Si_0.99_Al_0.01_)_8_O_22_(OH)_2_ = Anthophyllite
Pin_id: M00323
Orientation: Laser parallel to a* (1 0 0). Fiducial mark perpendicular to laser is parallel to -b [0 -1 0]
Raman shift (cm-1)	intensity
124.522	0
128.671	1099.84
132.818	4241.11
136.963	3690.81
141.107	1279.28
145.248	441.17
149.388	101.625
153.526	4.56
157.662	4.743
161.796	299.695
165.929	313.283
170.059	401.429
174.188	142.255
178.315	7.731
182.44	62.548
186.563	2.987
190.684	293.099
194.803	561.346
198.921	474.636
203.037	390.33
207.15	404.897
211.262	322.732
215.373	111.416
219.481	150.004
223.588	460.482
227.692	977.145
231.795	1955.84
235.896	3961.69
239.995	4530.81
244.093	2578.08
248.188	1063.34
252.282	380.289
256.374	78.741
260.464	29.715
264.552	6.21
268.638	13.462
272.723	60.868
276.806	16.795
280.887	42.625
284.966	22.524
289.043	141.972
293.118	327.988
297.192	696.364
301.264	935.208
305.334	895.688
309.402	1024.56
313.469	951.388
317.533	1163.97
321.596	1514.96
325.657	1806.28
329.716	2330.65
333.774	4017.78
337.829	7751.76
341.883	12111.5
345.935	11228.9
349.985	6823.64
354.034	4225.52
358.08	3165.79
362.125	2514.7
366.168	2008.34
370.209	1705.91
374.249	1877.6
378.286	2363.85
382.322	2411.69
386.356	2051.95
390.388	2134.84
394.419	2948.37
398.447	3944.55
402.474	4476.4
406.499	4169.93
410.523	3606.19
414.544	3065.89
418.564	2855.89
422.582	2414.33
426.598	1608.14
430.613	1051.85
434.625	1034.75
438.636	1476.16
442.646	1708.32
446.653	1134.38
450.658	567.835
454.662	356.541
458.664	368.617
462.665	445.802
466.663	503.535
470.66	310.335
474.655	200.622
478.648	152.32
482.64	62.658
486.629	63.724
490.617	1.589
494.603	55.688
498.588	58.587
502.571	8.202
506.552	72.679
510.531	253.141
514.508	588.479
518.484	1333.63
522.458	1697.61
526.43	1416.49
530.4	989.267
534.369	832.972
538.336	1214.66
542.301	1376.36
546.265	1427.03
550.226	1340.58
554.186	886.979
558.145	474.396
562.101	306.333
566.056	195.293
570.009	169.109
573.96	188.805
577.91	169.464
581.858	161.194
585.804	636.17
589.748	144.296
593.691	101.707
597.632	87.411
601.571	46.347
605.508	18.516
609.444	1.644
613.378	15.545
617.311	58.79
621.241	34.081
625.17	7.821
629.097	119.908
633.023	150.488
636.946	320.457
640.868	359.724
644.789	564.689
648.707	1048.21
652.624	1756.51
656.539	3320.74
660.453	5990.91
664.364	7839.17
668.274	5985.52
672.183	4496.26
676.089	4952.03
679.994	7214.81
683.898	10097.9
687.799	9260.15
691.699	5359.24
695.597	2842.25
699.493	1660.19
703.388	987.061
707.281	726.863
711.172	596.597
715.062	406.265
718.95	326.868
722.836	321.358
726.721	251.702
730.604	259.095
734.485	279.231
738.364	449.026
742.242	510.261
746.118	530.199
749.993	817.444
753.866	1070.78
757.737	627.474
761.606	261.41
765.474	73.774
769.34	29.298
773.204	7.524
777.067	12.46
780.928	19.742
784.787	0.452
788.645	2.726
792.501	7.856
796.355	66.757
800.208	22.293
804.059	19.264
807.908	50.203
811.756	54.138
815.602	49.066
819.446	6.016
823.289	33.841
827.13	16.601
830.969	9.714
834.807	2.126
838.643	10.891
842.477	27.846
846.31	52.279
850.141	155.679
853.971	290.052
857.798	658.397
861.624	767.716
865.449	733.013
869.272	536.288
873.093	342.543
876.912	263.78
880.73	163.002
884.546	153.21
888.361	218.407
892.174	174.625
895.985	268.853
899.795	379.083
903.603	363.345
907.409	237.645
911.214	199.967
915.017	268.333
918.818	292.714
922.618	402.802
926.416	684.966
930.213	954.241
934.008	1169.19
937.801	1167.01
941.593	1151.43
945.383	1080.33
949.171	868.23
952.958	608.032
956.743	497.388
960.526	409.551
964.308	345.741
968.089	282.588
971.867	333.879
975.644	218.863
979.42	296.955
983.193	382.168
986.966	539.705
990.736	686.991
994.505	1055.62
998.272	1799.38
1002.04	2965.2
1005.8	4495.07
1009.57	6446
1013.33	7393.99
1017.09	7224.1
1020.84	7239.07
1024.6	7534.4
1028.35	7394.63
1032.11	6869.93
1035.86	5819.28
1039.61	4392.37
1043.36	3117.27
1047.1	2278.96
1050.85	1625.29
1054.59	1285.5
1058.33	1060.74
1062.07	825.28
1065.81	644.42
1069.55	436.925
1073.28	392.218
1077.02	336.687
1080.75	318.947
1084.48	352.922
1088.21	256.29
1091.93	357.446
1095.66	403.036
1099.38	411.793
1103.11	395.634
1106.83	254.394
1110.55	207.41
1114.26	212.362
1117.98	161.27
1121.69	71.525
1125.41	131.48
1129.12	154.717
1132.83	104.9
1136.54	113.042
1140.24	112.756
1143.95	128.921
1147.65	34.294
1151.36	73.177
1155.06	59.04
1158.76	54.156
1162.45	5.562
1166.15	62.375
1169.84	43.625
1173.53	30.125
1177.22	8.682
1180.91	41.359
1184.6	32.203
1188.29	31.148
1191.97	31.116
1195.66	13.477
1199.34	46.165
1203.02	10.534
1206.7	6.556
1210.37	0.523
1214.05	12.538
1217.72	9.224
1221.4	11.282
1225.07	17.691
1228.74	9.64
1232.4	12.304
1236.07	1.182
1239.73	33.121
1243.4	30.861
1247.06	4.542
1250.72	54.918
1254.38	22.272
1258.03	43.467
1261.69	43.531
1265.34	41.492
1268.99	18.652
1272.65	16.931
1276.3	36.774
1279.94	44.213
1283.59	80.507
1287.23	26.677
1290.88	89.692
1294.52	22.58
1298.16	47.306
1301.8	64.012
1305.43	22.468
1309.07	10.728
1312.7	42.918
1316.33	49.976
1319.96	47.91
1323.59	38.719
1327.22	74.407
1330.85	31.978
1334.47	69.123
1338.1	2.631
1341.72	15.028
1345.34	23.172
1348.96	28.49
1352.57	93.358
1356.19	89.242
1359.8	77.789
1363.41	107.523
1367.03	73.716
1370.63	47.066
1374.24	61.363
1377.85	30.623
1381.45	22.455
1385.06	47.239
1388.66	89.987
1392.26	86.17
1395.86	92.107
1399.46	48.534
1403.05	72.486
1406.65	49.443
1410.24	65.531
1413.83	53.677
1417.42	25.893
1421.01	32.208
1424.6	74.722
1428.18	71.526
1431.77	122.22
1435.35	79.745
1438.93	81.8
1442.51	19.073
1446.09	24.659
1449.66	22.446
1453.24	25.502
1456.81	55.51
1460.38	101.536
1463.95	105.6
1467.52	93.632
1471.09	130.556
1474.65	102.028
1478.22	76.915
1481.78	28.988
1485.34	90.21
1488.9	17.682
1492.46	20.015
1496.02	94.89
1499.58	31.961
1503.13	52.313
1506.68	73.178
1510.23	37.306
1513.78	88.88
1517.33	74.45
1520.88	50.042
1524.42	33.605
