Measurement: Raman, 514 nm, ccw, Raman Data Processed
Mineral: Enstatite
Rruff sample: R050644
Ideal chemistry: MgSiO_3_
Locality: Morogoro, Tanzania
Source: Jibamitra Ganguly
Description: Light brown crystal fragment
Measured chemistry: (Mg_0.90_Fe_0.10_)SiO_3_
Pin_id: L01041
Orientation: Laser parallel to -a* (-1 0 0). Fiducial mark perpendicular to laser is parallel to -b [0 -1 0]
Raman shift (cm-1)	intensity
113.208	0
118.134	212.731
123.058	149.478
127.979	564.521
132.898	1730.07
137.814	4105.38
142.728	4305.05
147.639	2395.68
152.549	1402.62
157.455	847.556
162.359	593.901
167.261	381.302
172.161	374.766
177.058	513.3
181.952	909.596
186.845	1873.75
191.734	2005.33
196.622	1238.48
201.507	730.928
206.389	341.199
211.269	298.258
216.147	231.305
221.022	654.094
225.895	1535.55
230.765	3439.55
235.633	3626.89
240.498	1420.34
245.361	388.57
250.222	154.529
255.08	35.1738
259.936	17.4902
264.789	177.316
269.64	147.701
274.488	25.9805
279.334	161.26
284.178	170.435
289.019	550.156
293.857	1555.18
298.693	1174.31
303.527	991.34
308.358	1263.41
313.187	2500.07
318.013	3731.92
322.837	3316.1
327.659	5353.25
332.478	11247.2
337.294	17775.7
342.108	13560.5
346.92	6665.69
351.729	3438.14
356.535	1933.44
361.34	1810.07
366.141	1747.7
370.94	2459.64
375.737	3652.86
380.531	3827.31
385.323	4277.98
390.113	6593.85
394.9	9586.91
399.684	9083.88
404.466	7181.3
409.245	6209.69
414.022	5409.24
418.797	4035.67
423.569	1896.46
428.338	870.725
433.105	556.225
437.87	337.92
442.632	353.791
447.391	321.707
452.149	288.42
456.903	184.111
461.655	91.6992
466.405	178.451
471.152	132.287
475.897	54.8887
480.639	135.764
485.378	14.3379
490.116	177.223
494.85	58.0254
499.582	100.629
504.312	403.143
509.039	608.686
513.764	1246.24
518.486	2464.2
523.206	3190.18
527.923	2118.16
532.638	2284.11
537.35	2455.18
542.059	1885.16
546.766	1830.19
551.471	1503.33
556.173	877.572
560.873	183.818
565.57	394.894
570.264	556.783
574.957	797.477
579.646	447.947
584.333	396.19
589.018	46.1777
593.7	21.3711
598.379	82.8691
603.056	26.2695
607.73	27.5391
612.402	162.09
617.072	89.709
621.739	112.623
626.403	590.275
631.065	678.682
635.724	887.904
640.381	1217.47
645.035	1430.8
649.687	2469.86
654.336	4786.44
658.983	7451.81
663.627	5993.97
668.268	3914.05
672.907	4304.1
677.544	6584.5
682.178	7535.41
686.809	4983.68
691.438	2043.47
696.065	1059.69
700.688	609.873
705.31	707.586
709.929	576.947
714.545	682.434
719.158	490.275
723.77	446.934
728.378	455.162
732.984	578.115
737.588	486.965
742.189	337.842
746.787	449.981
751.383	314.961
755.976	17.1504
760.567	348.631
765.155	227.295
769.741	213.42
774.324	180.918
778.904	236.176
783.482	382.06
788.058	56.4863
792.631	233.566
797.201	51.1992
801.769	56.625
806.334	9.66797
810.897	252.258
815.457	27.3359
820.014	106.828
824.569	95.4023
829.122	299.348
833.671	292.113
838.219	158.644
842.763	448.082
847.306	683.531
851.845	1165.7
856.382	1237.18
860.917	526.418
865.448	493.613
869.978	469.797
874.505	38.0156
879.029	22.293
883.55	78.7266
888.069	329.242
892.586	264.441
897.1	39.9336
901.611	348.531
906.12	68.6484
910.626	532.356
915.129	825.004
919.63	1561.26
924.129	2818.61
928.625	2721.94
933.118	2686.82
937.609	2240.19
942.097	1397.96
946.582	917.785
951.065	507.035
955.546	317.473
960.023	446.473
964.499	463.707
968.971	158.41
973.441	471.859
977.909	552.797
982.374	800.852
986.836	1707.46
991.295	1744.98
995.753	2497.93
1000.21	4983.09
1004.66	9016.94
1009.11	12595.7
1013.55	12066.1
1018	12852.1
1022.44	15244.2
1026.88	17645.2
1031.32	16436.6
1035.75	11954
1040.18	7276.96
1044.61	4408.48
1049.04	2709.11
1053.46	2059.66
1057.88	1522.55
1062.3	761.231
1066.71	742.555
1071.13	462.301
1075.54	425.231
1079.94	654.598
1084.35	929.402
1088.75	422.156
1093.15	291.324
1097.55	350.188
1101.94	243.391
1106.34	178.457
1110.73	182.496
1115.11	20.8711
1119.5	43.3438
1123.88	165.684
1128.26	60.3516
1132.63	142.344
1137.01	2.93359
1141.38	291.703
1145.75	155.672
1150.12	298.891
1154.48	26.8867
1158.84	21.3867
1163.2	136.555
1167.55	55.668
1171.91	15.1016
1176.26	4.67969
1180.61	64.9102
1184.95	55.8164
1189.29	132.051
1193.63	25.832
1197.97	63.5
1202.31	183.031
1206.64	55
1210.97	10.8086
1215.29	177.078
1219.62	10.0469
1223.94	221.129
1228.26	135.606
1232.57	74.3164
1236.89	315.492
1241.2	108.625
1245.51	18.0547
1249.81	70.1289
1254.12	162.91
1258.42	25.8086
1262.72	436.277
1267.01	111.008
1271.3	110.609
1275.59	196.277
1279.88	324.863
1284.17	12.9648
1288.45	244.988
1292.73	266.031
1297.01	133.098
1301.28	150.352
1305.55	192.527
1309.82	44.7852
1314.09	146.453
1318.35	499.164
1322.61	430.84
1326.87	344.574
1331.13	183.91
1335.38	539.031
1339.63	288.684
1343.88	245.293
1348.12	293.641
1352.37	177.555
1356.61	393.039
1360.85	587.891
1365.08	62.6289
1369.31	483.016
1373.54	175.164
1377.77	241.574
1381.99	522.629
1386.22	166.246
1390.43	510.332
1394.65	56.3359
1398.87	571.578
1403.08	266.914
1407.29	53.9727
1411.49	216.371
1415.69	107.312
1419.89	481.402
1424.09	390.723
1428.29	356.977
1432.48	326.606
1436.67	720.633
1440.86	555.457
1445.04	230.797
1449.23	615.141
1453.4	436.977
1457.58	756.481
1461.76	480.43
1465.93	315.156
1470.1	494.734
1474.26	386.828
1478.43	521.938
1482.59	370.922
1486.75	397.016
1490.9	316.336
1495.06	177.621
1499.21	357.344
1503.35	266.629
1507.5	212.363
1511.64	360.609
1515.78	206.656
1519.92	310.617
1524.05	436.875
1528.18	457.09
1532.31	358.856
1536.44	165.238
1540.56	114.559
1544.69	349.332
1548.8	312.051
1552.92	433.727
1557.03	509.918
1561.14	336.695
1565.25	507.688
1569.36	171.492
