Measurement: Raman, 514 nm, ccw, Raman Data Processed
Mineral: Enstatite
Rruff sample: R060744
Ideal chemistry: MgSiO_3_
Locality: Orissa, India
Source: Herb Obodda
Description: Brown transparent fragment
Measured chemistry: (Mg_0.85_Fe^2+^_0.13_Fe^3+^_0.01_Mn_0.01_)_Σ=1_(Si_0.99_Al_0.01_)_Σ=1_O_3_; trace amounts of Ca; Fe^2+^ and Fe^3+^ splitted by charge balance
Pin_id: L01127
Orientation: Laser parallel to -b* (0 -1 0). Fiducial mark perpendicular to laser is parallel to -c [0 0 -1]
Raman shift (cm-1)	intensity
113.208	0
118.134	845.973
123.058	4267.63
127.979	8261.2
132.898	4734.32
137.814	2801.09
142.728	2717.21
147.639	2012.71
152.549	849.866
157.455	138.476
162.359	116.102
167.261	39.0947
172.161	85.0918
177.058	65.3428
181.952	36.1309
186.845	78.6973
191.734	34.459
196.622	77.8467
201.507	17.0732
206.389	140.741
211.269	64.2295
216.147	51.0527
221.022	494.526
225.895	1532.9
230.765	3236.28
235.633	2864.54
240.498	915.337
245.361	185.126
250.222	61.1592
255.08	12.2607
259.936	140.935
264.789	211.638
269.64	395.149
274.488	249.832
279.334	133.947
284.178	218.167
289.019	704.142
293.857	889.747
298.693	941.137
303.527	847.876
308.358	1135.99
313.187	1758.25
318.013	2595.77
322.837	4094.89
327.659	7638.86
332.478	13954.8
337.294	19093.5
342.108	14278.9
346.92	7544.4
351.729	4286.59
356.535	2825.18
361.34	2126.63
366.141	1716.44
370.94	2121.97
375.737	2323.09
380.531	2224.51
385.323	1792.22
390.113	2666.2
394.9	3468.56
399.684	3735.53
404.466	3412.31
409.245	2975.46
414.022	2298.57
418.797	1440.69
423.569	945.312
428.338	1112.93
433.105	1938.18
437.87	2041.56
442.632	1050.14
447.391	534.916
452.149	518.91
456.903	408.153
461.655	293.798
466.405	280.989
471.152	259.912
475.897	39.0254
480.639	212.657
485.378	128.392
490.116	34.2529
494.85	73.8496
499.582	47.8818
504.312	4.44531
509.039	132.695
513.764	207.07
518.486	416.008
523.206	469.363
527.923	788.131
532.638	1419.39
537.35	1411.27
542.059	999.664
546.766	963.568
551.471	607.008
556.173	300.977
560.873	439.494
565.57	426.598
570.264	418.318
574.957	275.674
579.646	447.684
584.333	365.373
589.018	241.772
593.7	131.908
598.379	284.576
603.056	337.59
607.73	375.916
612.402	473.777
617.072	363.281
621.739	557.229
626.403	858.594
631.065	1056.53
635.724	1408.31
640.381	2104.52
645.035	3463.61
649.687	7014.22
654.336	13527.3
658.983	19610.2
663.627	16050.3
668.268	12741.2
672.907	16803.6
677.544	25273.3
682.178	26516.3
686.809	15470.3
691.438	7154.77
696.065	3667.23
700.688	2300.41
705.31	1384.94
709.929	1211.04
714.545	807.744
719.158	703.076
723.77	677.064
728.378	561.734
732.984	395.107
737.588	408.213
742.189	261.082
746.787	321.742
751.383	206.238
755.976	146.816
760.567	59.1582
765.155	18.7207
769.741	145.137
774.324	46.2324
778.904	51.1211
783.482	56.5645
788.058	44.1855
792.631	35.1367
797.201	26.2676
801.769	111.133
806.334	88.7617
810.897	120.213
815.457	73.6484
820.014	256.152
824.569	20.2695
829.122	182.775
833.671	127.207
838.219	94.2012
842.763	293.295
847.306	392.525
851.845	1314.92
856.382	1953.43
860.917	1853.06
865.448	1394.81
869.978	796.678
874.505	491.668
879.029	451.807
883.55	252.209
888.069	368.885
892.586	229.666
897.1	259.547
901.611	289.648
906.12	155.494
910.626	221.33
915.129	526.375
919.63	615.119
924.129	1146.24
928.625	1716.3
933.118	2422.38
937.609	2401.6
942.097	1803.29
946.582	1413.91
951.065	970.881
955.546	988.223
960.023	699.609
964.499	842.959
968.971	599.4
973.441	793.281
977.909	1067.1
982.374	1637.94
986.836	2559.17
991.295	4442.05
995.753	8804.53
1000.21	18172.3
1004.66	32549.2
1009.11	35853.4
1013.55	23264
1018	14950.5
1022.44	11082.4
1026.88	8410.62
1031.32	6900.39
1035.75	4380.63
1040.18	2853.54
1044.61	1736.2
1049.04	1132.77
1053.46	861.559
1057.88	703.08
1062.3	404.307
1066.71	339.721
1071.13	303.803
1075.54	45.2207
1079.94	277.531
1084.35	1295.8
1088.75	206.606
1093.15	96.7539
1097.55	155.445
1101.94	112.494
1106.34	379.465
1110.73	154.994
1115.11	175.371
1119.5	158.715
1123.88	115.047
1128.26	247.353
1132.63	265.678
1137.01	92.082
1141.38	88.0644
1145.75	222.199
1150.12	267.555
1154.48	163.275
1158.84	108.883
1163.2	209.307
1167.55	7.07422
1171.91	101.434
1176.26	40.5625
1180.61	132.623
1184.95	247.562
1189.29	82.2383
1193.63	135.4
1197.97	78.4648
1202.31	130.889
1206.64	142.15
1210.97	12.4727
1215.29	10.0781
1219.62	260.258
1223.94	128.441
1228.26	200.727
1232.57	118.164
1236.89	223.977
1241.2	195.975
1245.51	60.3555
1249.81	252.377
1254.12	451.973
1258.42	263.629
1262.72	278.022
1267.01	437.766
1271.3	258.156
1275.59	271.17
1279.88	413.084
1284.17	443.408
1288.45	480.912
1292.73	221.768
1297.01	336.178
1301.28	177.041
1305.55	142.719
1309.82	279.453
1314.09	233.779
1318.35	414.478
1322.61	334.883
1326.87	188.441
1331.13	500.916
1335.38	432.482
1339.63	91.1465
1343.88	601.537
1348.12	219.842
1352.37	304.44
1356.61	270.938
1360.85	473.338
1365.08	314.154
1369.31	345.402
1373.54	307.512
1377.77	670.898
1381.99	361.723
1386.22	234.004
1390.43	366.449
1394.65	267.59
1398.87	227.848
1403.08	227.16
1407.29	422.828
1411.49	265.738
1415.69	438.094
1419.89	299.617
1424.09	329.141
1428.29	374.746
1432.48	26.8047
1436.67	358.996
1440.86	625.496
1445.04	556.68
1449.23	504.117
1453.4	398.379
1457.58	473.453
1461.76	317.019
1465.93	496.766
1470.1	488.012
1474.26	472.262
1478.43	559.961
1482.59	590.277
1486.75	592.805
1490.9	637.109
1495.06	581.543
1499.21	547.195
1503.35	259.195
1507.5	597.773
1511.64	311.043
1515.78	506.973
1519.92	540.859
1524.05	539.731
1528.18	552.914
1532.31	219.121
1536.44	225.441
1540.56	194.598
1544.69	709.891
1548.8	114.277
1552.92	20
1557.03	295.836
1561.14	38.7422
1565.25	231.238
1569.36	1.39453
