Measurement: Raman, 514 nm, ccw, Raman Data Processed
Mineral: Enstatite
Rruff sample: R060630
Ideal chemistry: MgSiO_3_
Locality: unknown
Source: Gemological Institute of America
Description: Tan colored fragment
Measured chemistry: (Mg_0.89_Fe_0.07_Al_0.04_)_Σ=1_(Si_0.96_Al_0.04_)_Σ=1_O_3_
Pin_id: L01844
Orientation: Laser parallel to -b* (0 -1 0). Fiducial mark perpendicular to laser is parallel to c [0 0 1]
Raman shift (cm-1)	intensity
118.134	0
123.058	1.22949
127.979	56.1255
132.898	35.9231
137.814	232.301
142.728	169.484
147.639	289.566
152.549	373.176
157.455	225.298
162.359	121.955
167.261	39.6846
172.161	24.1885
177.058	28.3318
181.952	52.853
186.845	53.5432
191.734	251.281
196.622	585.582
201.507	1010.2
206.389	1196.42
211.269	1360.96
216.147	1358.36
221.022	1664.64
225.895	2612.42
230.765	4915.67
235.633	8478.91
240.498	8752.47
245.361	3634.06
250.222	1476.95
255.08	861.109
259.936	705.52
264.789	410.986
269.64	563.929
274.488	858.117
279.334	1160.55
284.178	1230.49
289.019	804.082
293.857	868.189
298.693	1336.84
303.527	914.804
308.358	792.264
313.187	1319.18
318.013	2273.52
322.837	3817.25
327.659	5087.44
332.478	5928.31
337.294	7015.1
342.108	9141.85
346.92	11362.4
351.729	10879.3
356.535	8375.88
361.34	5764.07
366.141	4106.39
370.94	2907.32
375.737	2280.96
380.531	2013.77
385.323	1894.74
390.113	1598.86
394.9	1285.13
399.684	1346.54
404.466	1138.11
409.245	959.818
414.022	854.771
418.797	652.984
423.569	379.45
428.338	212.137
433.105	43.9653
437.87	23.9898
442.632	69.9898
447.391	140.098
452.149	372.379
456.903	355.826
461.655	238.431
466.405	69.1831
471.152	2.10889
475.897	58.9287
480.639	41.2788
485.378	24.9858
490.116	3.73389
494.85	25.4785
499.582	22.5249
504.312	11.8896
509.039	88.7207
513.764	64.7231
518.486	303.086
523.206	395.998
527.923	609.433
532.638	1139.24
537.35	1669.53
542.059	1302.06
546.766	614.78
551.471	503.565
556.173	363.402
560.873	257.285
565.57	389.208
570.264	520.162
574.957	834.821
579.646	712.942
584.333	560.049
589.018	329.085
593.7	371.134
598.379	291.188
603.056	271.245
607.73	334.296
612.402	422.704
617.072	547.852
621.739	883.817
626.403	1244.87
631.065	2071.91
635.724	3100.45
640.381	3982.39
645.035	4683.21
649.687	6665.4
654.336	10716
658.983	15221.2
663.627	16145.5
668.268	13618.8
672.907	14222.1
677.544	21010
682.178	33875.6
686.809	41677.4
691.438	31208.7
696.065	16525.9
700.688	8934.91
705.31	5485.8
709.929	3621.55
714.545	2665.27
719.158	1976.73
723.77	1566.23
728.378	1337.61
732.984	1064.85
737.588	866.968
742.189	789.955
746.787	667.817
751.383	528.575
755.976	381.312
760.567	389.185
765.155	314.166
769.741	130.077
774.324	57.9961
778.904	42.9477
783.482	35.148
788.058	107.675
792.631	58.9697
797.201	102.963
801.769	86.897
806.334	27.6973
810.897	65.1606
815.457	5.39453
820.014	3.91357
824.569	63.4004
829.122	175.735
833.671	284.102
838.219	311.516
842.763	454.987
847.306	540.526
851.845	535.144
856.382	527.853
860.917	783.661
865.448	665.575
869.978	655.609
874.505	630.787
879.029	625.11
883.55	547.59
888.069	559.255
892.586	564.109
897.1	689.213
901.611	898.639
906.12	974.509
910.626	1065.66
915.129	1206.51
919.63	1488.48
924.129	1864.21
928.625	2327.83
933.118	2935.74
937.609	3305.74
942.097	3501.82
946.582	3278.49
951.065	3381.08
955.546	2782.79
960.023	2346.25
964.499	1677.19
968.971	1624.17
973.441	1837.58
977.909	2524.4
982.374	3728.68
986.836	6332.42
991.295	11715.6
995.753	20632.1
1000.21	32924.1
1004.66	46400.1
1009.11	54339.8
1013.55	47995.3
1018	31846.4
1022.44	20546
1026.88	14502.1
1031.32	11798.6
1035.75	9815.92
1040.18	7088.41
1044.61	4905.99
1049.04	3377.59
1053.46	2405.97
1057.88	1762.63
1062.3	1197.73
1066.71	941.338
1071.13	548.609
1075.54	274.069
1079.94	360.459
1084.35	242.351
1088.75	198.647
1093.15	180.882
1097.55	148.357
1101.94	156.23
1106.34	188.591
1110.73	134.655
1115.11	109.065
1119.5	256.695
1123.88	241.966
1128.26	225.732
1132.63	258.888
1137.01	120.514
1141.38	18.999
1145.75	22.4092
1150.12	24.5654
1154.48	49.5049
1158.84	13.6641
1163.2	14.9551
1167.55	17.7168
1171.91	24.1553
1176.26	28.9282
1180.61	7.34033
1184.95	25.1484
1189.29	55.4492
1193.63	53.4443
1197.97	24.6245
1202.31	63.1221
1206.64	68.4228
1210.97	52.0845
1215.29	188.355
1219.62	73.1773
1223.94	15.5796
1228.26	31.897
1232.57	158.857
1236.89	92.3862
1241.2	134.456
1245.51	104.982
1249.81	143.008
1254.12	124.597
1258.42	262.751
1262.72	83.605
1267.01	90.1079
1271.3	127.589
1275.59	178.972
1279.88	281.548
1284.17	175.577
1288.45	224.391
1292.73	262.75
1297.01	151.804
1301.28	104.875
1305.55	207.909
1309.82	220.288
1314.09	204.031
1318.35	177.936
1322.61	274.403
1326.87	132.78
1331.13	271.542
1335.38	127.517
1339.63	116.637
1343.88	155.891
1348.12	224.182
1352.37	107.506
1356.61	214.034
1360.85	151.623
1365.08	185.283
1369.31	156.471
1373.54	115.835
1377.77	129.122
1381.99	166.304
1386.22	164.113
1390.43	42.6626
1394.65	68.0483
1398.87	123.499
1403.08	63.2695
1407.29	126.488
1411.49	133.673
1415.69	151.82
1419.89	186.902
1424.09	185.708
1428.29	124.582
1432.48	125.349
1436.67	135.924
1440.86	135.552
1445.04	183.448
1449.23	136.502
1453.4	223.761
1457.58	152.653
1461.76	170.274
1465.93	49.3906
1470.1	161.732
1474.26	56.2383
1478.43	66.9385
1482.59	105.682
1486.75	128.627
1490.9	149.377
1495.06	46.294
1499.21	225.531
1503.35	202.11
1507.5	30.9512
1511.64	100.009
1515.78	98.501
1519.92	82.5723
1524.05	220.74
1528.18	106.468
1532.31	136.685
1536.44	108.538
1540.56	140.823
1544.69	226.218
1548.8	135.414
1552.92	189.295
1557.03	91.5615
1561.14	125.163
1565.25	99.9785
1569.36	120.661
