Measurement: Raman, 514 nm, ccw, Raman Data Processed
Mineral: Enstatite
Rruff sample: R070418
Ideal chemistry: MgSiO_3_
Locality: India
Source: Michael Scott
Description: Brown translucent fragments
Measured chemistry: (Mg_0.86_Fe_0.14_)_Î£=1_Si_1.00_O_3_; trace amounts of Al, Ca, Mn
Pin_id: L01297
Orientation: Laser parallel to c* (0 0 1). Fiducial mark perpendicular to laser is parallel to a [1 0 0]
Raman shift (cm-1)	intensity
41.8	0
46.809	19.7935
51.816	56.6009
56.819	100.337
61.819	131.104
66.816	211.678
71.81	269.649
76.8	222.447
81.788	101.131
86.772	17.4232
91.754	39.1414
96.732	38.7383
101.707	12.5196
106.679	417.609
111.648	371.744
116.613	540.021
121.576	598.516
126.535	722.852
131.492	1109.55
136.445	1483.25
141.395	2520.58
146.343	3393.76
151.287	3130.13
156.228	2308.96
161.166	2044.1
166.1	1830.55
171.032	1656.66
175.961	1703.43
180.887	2413.84
185.809	3917.87
190.729	5295.29
195.645	3353.73
200.559	2124.72
205.469	1392.01
210.376	960.717
215.281	956.218
220.182	1347.75
225.08	3096.16
229.976	6630.48
234.868	11379.3
239.757	6370.18
244.643	1762.74
249.527	550.027
254.407	255.656
259.284	325.474
264.158	133.562
269.029	106.614
273.898	43.3386
278.763	276.391
283.625	719.541
288.485	1748.79
293.341	3697.14
298.194	4654.6
303.045	4115.94
307.892	4885.2
312.736	8186.52
317.578	12637.9
322.417	12499.5
327.252	15495.3
332.085	28482
336.914	49085.2
341.741	51716.8
346.565	29925.6
351.386	15042.2
356.204	9249.16
361.019	6877.23
365.831	6335.28
370.64	7590.35
375.447	10184.4
380.25	11761.5
385.05	13454.8
389.848	20273.3
394.643	30751
399.434	35302.6
404.223	29984
409.009	22484.2
413.792	16138.9
418.573	11174.6
423.35	7000.43
428.124	3869.01
432.896	2462.35
437.665	1904.43
442.431	1085.22
447.194	448.709
451.954	357.868
456.711	355.676
461.465	105.917
466.217	98.249
470.966	29.7329
475.712	50.2478
480.455	95.4453
485.195	126.083
489.932	104.637
494.667	48.2434
499.399	101.446
504.128	330.938
508.854	997.312
513.577	2787.52
518.297	5977.5
523.015	9280.19
527.73	7957.35
532.442	6693.73
537.151	8248.29
541.858	6846.98
546.561	6733.76
551.262	5893.64
555.96	2891.73
560.656	1654.9
565.348	1246.06
570.038	1170.18
574.725	1246.23
579.409	926.184
584.091	588.023
588.769	433.721
593.445	273.256
598.119	141.603
602.789	28.6775
607.457	34.175
612.122	10.1357
616.784	17.2036
621.443	86.5835
626.1	241.788
630.754	368.094
635.405	689.234
640.054	1364.64
644.7	2477.1
649.343	5004.98
653.983	10689.1
658.621	19318.7
663.256	19891.7
667.888	13056.3
672.518	11992.2
677.144	17079.6
681.769	22816.2
686.39	16866.2
691.009	8063.63
695.625	3942.52
700.238	2284.84
704.849	1456.59
709.457	1124.77
714.062	830.386
718.665	649.433
723.265	511.916
727.863	463.839
732.457	467.207
737.049	361.025
741.639	326.732
746.225	391.26
750.81	362.164
755.391	205.799
759.97	79.4338
764.546	43.8889
769.12	40.7961
773.69	63.1492
778.259	45.5305
782.824	49.3015
787.387	133.556
791.948	97.2422
796.506	104.262
801.061	25.5173
805.613	6.65308
810.163	25.551
814.711	30.9355
819.255	30.2053
823.797	38.2883
828.337	85.2109
832.874	176
837.408	167.683
841.94	333.286
846.469	603.836
850.996	1378.36
855.52	2463.88
860.041	2731.43
864.56	2014.03
869.077	1212.7
873.59	710.475
878.101	449.431
882.61	345.752
887.116	358.527
891.62	406.825
896.121	412.046
900.619	488.781
905.115	576.146
909.608	802.692
914.099	1403.09
918.587	2750.25
923.073	5626.01
927.556	7823.31
932.037	8214.51
936.515	8169.06
940.991	6883.88
945.464	4898.62
949.934	3242.52
954.403	2163.3
958.868	1574.97
963.331	1339.45
967.792	1049.76
972.25	1196.94
976.705	1344.73
981.158	1997.66
985.609	3105.29
990.057	5221.68
994.503	9782.79
998.946	17992.6
1003.39	31522.2
1007.83	45240.5
1012.26	44905.5
1016.69	45015.3
1021.12	47235.6
1025.55	47259.1
1029.98	43782
1034.4	33421.4
1038.82	22707.6
1043.24	14705.7
1047.66	9447.02
1052.07	6482.34
1056.48	4368.34
1060.89	2833.55
1065.3	1809.32
1069.7	1237.29
1074.1	903.088
1078.5	714.443
1082.9	451.385
1087.29	337.2
1091.68	299.549
1096.07	266.484
1100.46	199.816
1104.84	177.449
1109.23	228.253
1113.61	225.219
1117.98	204.263
1122.36	196.235
1126.73	192.876
1131.1	146.703
1135.47	142.662
1139.83	134.927
1144.19	9.56055
1148.56	39.7429
1152.91	29.9304
1157.27	72.8821
1161.62	2.51562
1165.97	39.2307
1170.32	64.7134
1174.67	37.1025
1179.01	2.36646
1183.35	46.4729
1187.69	26.5742
1192.03	31.8625
1196.36	18.0033
1200.7	75.7666
1205.03	51.3091
1209.35	37.5418
1213.68	77.5129
1218	24.5873
1222.32	16.5398
1226.64	13.0673
1230.95	3.49158
1235.27	26.2306
1239.58	7.52856
1243.89	11.8935
1248.19	87.5312
1252.5	90.6011
1256.8	64.109
1261.1	69.0493
1265.4	174.443
1269.69	120.334
1273.98	123.62
1278.27	147.477
1282.56	211.419
1286.85	216.255
1291.13	226.32
1295.41	223.193
1299.69	244.568
1303.97	246.447
1308.24	230.684
1312.51	297.571
1316.78	251.427
1321.05	249.295
1325.31	239.959
1329.58	239.11
1333.84	185.419
1338.1	168.237
1342.35	226.176
1346.61	150.125
1350.86	170.713
1355.11	210.541
1359.35	221.312
1363.6	210.772
1367.84	246.502
1372.08	200.199
1376.32	195.895
1380.55	191.949
1384.79	176.555
1389.02	190.02
1393.25	136.193
1397.47	161.727
1401.7	128.167
1405.92	127.916
1410.14	156.601
1414.36	144.469
1418.57	148.785
1422.79	143.397
1427	128.128
1431.21	146.684
1435.41	138.012
1439.62	201.146
1443.82	208.188
1448.02	191.553
1452.22	125.997
1456.41	134.029
1460.61	232.788
1464.8	173.071
1468.99	196.782
1473.17	125.916
1477.36	119.193
1481.54	149.545
1485.72	118.938
1489.9	143.373
1494.08	124.785
1498.25	27.2095
1502.42	29.7183
1506.59	58.5625
1510.76	72.9104
1514.93	47.7039
1519.09	60.8562
1523.25	88.332
1527.41	72.1977
1531.57	23.5759
1535.72	51.5703
1539.87	31.5249
1544.02	72.478
1548.17	103.007
1552.32	129.08
1556.46	104.078
1560.6	53.7097
