Measurement: Raman, 514 nm, ccw, Raman Data Processed
Mineral: Enstatite
Rruff sample: R060744
Ideal chemistry: MgSiO_3_
Locality: Orissa, India
Source: Herb Obodda
Description: Brown transparent fragment
Measured chemistry: (Mg_0.85_Fe^2+^_0.13_Fe^3+^_0.01_Mn_0.01_)_Σ=1_(Si_0.99_Al_0.01_)_Σ=1_O_3_; trace amounts of Ca; Fe^2+^ and Fe^3+^ splitted by charge balance
Pin_id: L01523
Orientation: Laser parallel to c* (0 0 1). Fiducial mark perpendicular to laser is parallel to -a [-1 0 0]
Raman shift (cm-1)	intensity
113.208	0
118.134	20.9956
123.058	344.288
127.979	869.668
132.898	1986.25
137.814	5425.59
142.728	7042.53
147.639	3865.58
152.549	2116.45
157.455	1265.31
162.359	1425.82
167.261	966.868
172.161	830.382
177.058	1145.7
181.952	1999.56
186.845	4568.31
191.734	3531.74
196.622	2366
201.507	1735.32
206.389	572.566
211.269	494.544
216.147	852.018
221.022	2058.85
225.895	5329.31
230.765	12195.1
235.633	10709.3
240.498	3554.16
245.361	906.569
250.222	233.539
255.08	84.9326
259.936	55.9829
264.789	332.459
269.64	257.192
274.488	95.4531
279.334	471.765
284.178	1124.26
289.019	2726.53
293.857	4570.39
298.693	4111.64
303.527	4089.77
308.358	6209.8
313.187	10661.9
318.013	12131.1
322.837	13178.7
327.659	21547.9
332.478	41771.5
337.294	59650.9
342.108	41396
346.92	20800.2
351.729	11956.5
356.535	8390.45
361.34	6990.78
366.141	7527.54
370.94	9612.69
375.737	11855.2
380.531	12421.1
385.323	17029.4
390.113	26800
394.9	35589.9
399.684	33519
404.466	25688.8
409.245	18897.1
414.022	13216.1
418.797	8752.07
423.569	4909.26
428.338	2945.76
433.105	2339.56
437.87	1861.65
442.632	874.005
447.391	500.63
452.149	552.519
456.903	388.681
461.655	164.635
466.405	89.0078
471.152	26.0586
475.897	113.999
480.639	12.1045
485.378	14.2563
490.116	84.8159
494.85	58.523
499.582	273.918
504.312	831.152
509.039	2272.07
513.764	5088.79
518.486	8836.28
523.206	9285.32
527.923	6634.8
532.638	7906.56
537.35	7867.47
542.059	6848.54
546.766	7288.85
551.471	3985.93
556.173	2116.46
560.873	1428.76
565.57	1459.12
570.264	1737.45
574.957	1464.75
579.646	787
584.333	550.179
589.018	416.272
593.7	174.266
598.379	17.1304
603.056	69.4473
607.73	35.7353
612.402	0.851074
617.072	34.4673
621.739	230.019
626.403	609.727
631.065	906.856
635.724	1483.4
640.381	2359.42
645.035	4090.09
649.687	8197.42
654.336	16666
658.983	24839.9
663.627	17503.3
668.268	12891.1
672.907	15892.1
677.544	24261.9
682.178	24428.1
686.809	12806.6
691.438	6123.35
696.065	3174.55
700.688	2089.14
705.31	1438.15
709.929	1216.6
714.545	905.463
719.158	790.758
723.77	724.483
728.378	686.639
732.984	748.227
737.588	769.718
742.189	789.321
746.787	982.494
751.383	865.786
755.976	423.467
760.567	169.213
765.155	107.545
769.741	90.5679
774.324	34.581
778.904	125.915
783.482	54.938
788.058	114.377
792.631	109.498
797.201	99.0669
801.769	8.77588
806.334	29.6489
810.897	19.5327
815.457	43.043
820.014	43.2207
824.569	21.1382
829.122	4.84521
833.671	80.3735
838.219	217.752
842.763	373.011
847.306	700.178
851.845	1532.28
856.382	2210.58
860.917	2063.39
865.448	1458.46
869.978	839.562
874.505	492.755
879.029	439.266
883.55	391.166
888.069	509.502
892.586	547.174
897.1	735.08
901.611	618.414
906.12	694.812
910.626	960.337
915.129	1784.09
919.63	3738.56
924.129	6715.42
928.625	7920.41
933.118	7937.83
937.609	8063.08
942.097	6206.68
946.582	4255.94
951.065	2782.04
955.546	1995.51
960.023	1631.34
964.499	1280.4
968.971	1218.25
973.441	1435.98
977.909	1749.57
982.374	2668.99
986.836	4397.23
991.295	7721.28
995.753	14526.2
1000.21	25993.9
1004.66	42789.5
1009.11	49379.9
1013.55	45935.1
1018	47002.1
1022.44	47303.8
1026.88	45190
1031.32	37894.1
1035.75	26910.9
1040.18	17964.2
1044.61	11487.5
1049.04	7783.11
1053.46	5411.07
1057.88	3668.28
1062.3	2388.02
1066.71	1722.09
1071.13	1147.21
1075.54	849.856
1079.94	702.147
1084.35	757.457
1088.75	443.622
1093.15	251.413
1097.55	314.337
1101.94	283.116
1106.34	261.457
1110.73	262.828
1115.11	222.856
1119.5	225.485
1123.88	220.935
1128.26	233.56
1132.63	154.842
1137.01	248.927
1141.38	53.7417
1145.75	108.319
1150.12	138.863
1154.48	101.216
1158.84	48.731
1163.2	193.087
1167.55	97.6538
1171.91	131.144
1176.26	0.467773
1180.61	21.7744
1184.95	9.26953
1189.29	119.707
1193.63	54.1938
1197.97	72.8227
1202.31	32.2559
1206.64	69.3794
1210.97	74.9565
1215.29	11.4233
1219.62	20.999
1223.94	64.5918
1228.26	79.9678
1232.57	11.0254
1236.89	34.1977
1241.2	84.6387
1245.51	34.1982
1249.81	62.6177
1254.12	34.4917
1258.42	152.367
1262.72	50.395
1267.01	94.6646
1271.3	132.509
1275.59	104.457
1279.88	202.847
1284.17	209.714
1288.45	305.323
1292.73	327.913
1297.01	338.917
1301.28	320.009
1305.55	297.082
1309.82	384.806
1314.09	361.567
1318.35	231.898
1322.61	290.095
1326.87	245.205
1331.13	285.406
1335.38	215.487
1339.63	262.014
1343.88	189.935
1348.12	217.495
1352.37	211.288
1356.61	311.013
1360.85	281.519
1365.08	304.839
1369.31	207.201
1373.54	175.538
1377.77	103.225
1381.99	195.705
1386.22	154.02
1390.43	235.613
1394.65	177.124
1398.87	142.309
1403.08	166.9
1407.29	149.4
1411.49	202.979
1415.69	217.698
1419.89	164.296
1424.09	205.965
1428.29	168.002
1432.48	416.798
1436.67	398.557
1440.86	268.532
1445.04	413.902
1449.23	381.409
1453.4	333.468
1457.58	273.1
1461.76	318.662
1465.93	355.755
1470.1	155.053
1474.26	159.402
1478.43	257.108
1482.59	249.827
1486.75	169.406
1490.9	94.1768
1495.06	62.9522
1499.21	18.938
1503.35	110.984
1507.5	116.144
1511.64	15.5586
1515.78	82.3521
1519.92	63.4565
1524.05	32.8276
1528.18	41.5366
1532.31	122.951
1536.44	36.5523
1540.56	34.231
1544.69	63.7412
1548.8	73.1885
1552.92	294.178
1557.03	85.5864
1561.14	83.6016
1565.25	23.6802
1569.36	6.69434
