Measurement: Raman, 514 nm, ccw, Raman Data Processed
Mineral: Enstatite
Rruff sample: R060630
Ideal chemistry: MgSiO_3_
Locality: unknown
Source: Gemological Institute of America
Description: Tan colored fragment
Measured chemistry: (Mg_0.89_Fe_0.07_Al_0.04_)_Σ=1_(Si_0.96_Al_0.04_)_Σ=1_O_3_
Pin_id: L00984
Orientation: Laser parallel to a* (1 0 0). Fiducial mark perpendicular to laser is parallel to -b [0 -1 0]
Raman shift (cm-1)	intensity
118.134	0
123.058	527.063
127.979	1003.31
132.898	3694.95
137.814	9128.6
142.728	11778.8
147.639	5606.31
152.549	3296.04
157.455	1803.23
162.359	878.347
167.261	507.152
172.161	381.738
177.058	52.7031
181.952	235.438
186.845	367.797
191.734	436.857
196.622	909.232
201.507	1715.05
206.389	1868.39
211.269	1410.36
216.147	528.723
221.022	526.391
225.895	844.408
230.765	2403.31
235.633	5228.25
240.498	4424.47
245.361	1444.92
250.222	371.398
255.08	86.2676
259.936	97.5039
264.789	61.6953
269.64	221.883
274.488	15.1367
279.334	71.8691
284.178	233.213
289.019	470.938
293.857	874.125
298.693	1141.12
303.527	953.324
308.358	1010
313.187	1248.25
318.013	1737.12
322.837	2607.92
327.659	4168.8
332.478	6643.91
337.294	10311.4
342.108	16282.7
346.92	21695
351.729	21766.6
356.535	16567.3
361.34	12033.2
366.141	8200.06
370.94	5929.33
375.737	4823.86
380.531	4242.9
385.323	4066.42
390.113	4569.43
394.9	5126.9
399.684	6307.59
404.466	6559.11
409.245	5962.78
414.022	6464.7
418.797	7575.35
423.569	6106.94
428.338	3131.02
433.105	2181.16
437.87	3119.69
442.632	5347.62
447.391	5916.96
452.149	3386.27
456.903	1800.5
461.655	824.639
466.405	820.496
471.152	408.891
475.897	187.185
480.639	248.408
485.378	51.9375
490.116	17.791
494.85	35.0566
499.582	11.2051
504.312	60.7676
509.039	35.4316
513.764	299.781
518.486	503.75
523.206	652.074
527.923	556.113
532.638	804.604
537.35	1034.63
542.059	969.004
546.766	740.854
551.471	459.102
556.173	359.967
560.873	5.47656
565.57	158.162
570.264	121.607
574.957	351.074
579.646	239.637
584.333	946.275
589.018	62.0176
593.7	37.4473
598.379	94.5762
603.056	21.7188
607.73	10.707
612.402	111.014
617.072	228.574
621.739	310.074
626.403	593.557
631.065	1439.01
635.724	2194.08
640.381	2977.39
645.035	3945.72
649.687	6444.74
654.336	10587.6
658.983	15804.3
663.627	15834.5
668.268	13020.1
672.907	12946.1
677.544	18525.7
682.178	30634.3
686.809	37237.3
691.438	26593.2
696.065	14887.8
700.688	8362.1
705.31	5135.89
709.929	3740.41
714.545	2630.03
719.158	2072.42
723.77	1627.56
728.378	1570.89
732.984	1271.58
737.588	1099.92
742.189	844.9
746.787	1010.49
751.383	1121.4
755.976	687.752
760.567	204.328
765.155	344.758
769.741	214.049
774.324	154.209
778.904	96.2812
783.482	22.9102
788.058	64.3555
792.631	146.816
797.201	24.8242
801.769	176.93
806.334	24.2012
810.897	18.1367
815.457	17.8164
820.014	256.549
824.569	426.217
829.122	353.848
833.671	450.504
838.219	982.166
842.763	1821.06
847.306	2187.3
851.845	2347.6
856.382	2074.93
860.917	1575.31
865.448	1509.76
869.978	1197.45
874.505	1061.47
879.029	934.85
883.55	696.674
888.069	531.789
892.586	449.264
897.1	552.924
901.611	495.961
906.12	505.258
910.626	674.164
915.129	1002.77
919.63	1008.5
924.129	1258.71
928.625	1393.27
933.118	1658.51
937.609	1851.11
942.097	2037.52
946.582	2064.07
951.065	1956.71
955.546	1649.06
960.023	1410.84
964.499	649.959
968.971	511.133
973.441	402.25
977.909	406.652
982.374	586.695
986.836	1146.6
991.295	1624.83
995.753	3187.42
1000.21	5180.38
1004.66	7491.78
1009.11	9346.53
1013.55	9589.49
1018	8657.01
1022.44	7836.95
1026.88	7926.81
1031.32	8019.53
1035.75	7003.83
1040.18	5283.06
1044.61	3643.97
1049.04	2527.75
1053.46	1621.6
1057.88	1200.16
1062.3	760.473
1066.71	761.281
1071.13	444.916
1075.54	333.365
1079.94	345.836
1084.35	141.59
1088.75	736.131
1093.15	199.772
1097.55	100.537
1101.94	286.529
1106.34	85.9512
1110.73	128.256
1115.11	163.09
1119.5	271.084
1123.88	506.644
1128.26	659.734
1132.63	141.916
1137.01	43.5605
1141.38	96.6328
1145.75	151.082
1150.12	39.4121
1154.48	32.0957
1158.84	74.9805
1163.2	117.486
1167.55	303.301
1171.91	26.1016
1176.26	137.857
1180.61	273.973
1184.95	297.781
1189.29	69.1934
1193.63	358.234
1197.97	92.8613
1202.31	8.9668
1206.64	133.775
1210.97	315.824
1215.29	307.945
1219.62	70.3555
1223.94	166.522
1228.26	160.793
1232.57	194.707
1236.89	77.8672
1241.2	137.998
1245.51	197.137
1249.81	231.293
1254.12	292.125
1258.42	164.242
1262.72	100.473
1267.01	370.465
1271.3	303.914
1275.59	697.32
1279.88	343.059
1284.17	160.481
1288.45	190.984
1292.73	75.0703
1297.01	257.234
1301.28	142.625
1305.55	404.125
1309.82	617.328
1314.09	548.074
1318.35	326.621
1322.61	519.973
1326.87	568.617
1331.13	358.527
1335.38	576.484
1339.63	240.949
1343.88	412.231
1348.12	435.801
1352.37	553.445
1356.61	294.965
1360.85	402.891
1365.08	382.094
1369.31	334.535
1373.54	396.633
1377.77	226.383
1381.99	202.289
1386.22	279.289
1390.43	314.199
1394.65	236.769
1398.87	94.9961
1403.08	274.129
1407.29	153.211
1411.49	185.746
1415.69	286.606
1419.89	275.629
1424.09	147.676
1428.29	224.273
1432.48	71.0469
1436.67	253.332
1440.86	421.988
1445.04	31.918
1449.23	290.519
1453.4	828.75
1457.58	411.606
1461.76	93.0938
1465.93	174.414
1470.1	425.652
1474.26	301.938
1478.43	250.797
1482.59	229.035
1486.75	380.023
1490.9	347.035
1495.06	198.551
1499.21	29.9531
1503.35	194.82
1507.5	279.102
1511.64	249.922
1515.78	221.621
1519.92	325.312
1524.05	12.1445
1528.18	83.1719
1532.31	363.188
1536.44	222.727
1540.56	422.848
1544.69	217.344
1548.8	217.375
1552.92	403.117
1557.03	322.254
1561.14	417.633
1565.25	118.742
1569.36	0.71875
