Measurement: Raman, 514 nm, ccw, Raman Data Processed
Mineral: Enstatite
Rruff sample: R040094
Ideal chemistry: MgSiO_3_
Locality: unknown
Source: University of Arizona Mineral Museum
Description: Dark green massive, associated with anthophyllite
Measured chemistry: (Mg_0.84_Fe_0.15_)(Si_0.99_Al_0.01_)O_3_; = Enstatite :  [box](Mg_0.83_Fe_0.14_Na_0.01_Ca_0.01_)_7_(Si_0.99_Al_0.01_)_8_O_22_(OH)_2_ = Anthophyllite
Pin_id: M00384
Orientation: Laser parallel to c* (0 0 1). Fiducial mark perpendicular to laser is parallel to a [1 0 0]
Raman shift (cm-1)	intensity
53.716	0
57.933	63.987
62.147	172.569
66.359	220.662
70.569	60.047
74.776	50.279
78.982	78.147
83.185	753.696
87.385	121.657
91.584	153.55
95.78	453.059
99.974	551.902
104.166	623.641
108.355	1091.96
112.543	964.699
116.728	1058.83
120.911	1010.19
125.091	1086.81
129.27	1099.67
133.446	1133.76
137.62	1161.02
141.791	1385.19
145.961	1488.75
150.128	1424.21
154.293	1262.95
158.456	1129.33
162.617	1462.2
166.775	1600.69
170.931	814.92
175.085	713.919
179.237	728.555
183.386	1135.84
187.534	1796.78
191.679	2639.35
195.822	2585.58
199.963	1617.05
204.101	1007.4
208.237	744.283
212.372	686.699
216.504	641.633
220.633	768.162
224.761	956.226
228.886	1579.72
233.009	2966.95
237.13	4044.72
241.249	2497.91
245.366	943.774
249.48	435.56
253.593	223.989
257.703	94.994
261.811	7.404
265.916	14.736
270.02	73.386
274.121	197.527
278.221	136.142
282.318	62.533
286.413	154.486
290.505	265.913
294.596	648.611
298.684	775.907
302.771	804.742
306.855	703.007
310.937	726.716
315.016	1448.74
319.094	2241.12
323.17	2242.88
327.243	2302.98
331.314	3327.45
335.383	6116.55
339.45	10164.2
343.515	11951.1
347.578	6794.88
351.638	3809.95
355.696	2393.31
359.753	1683.97
363.807	1349.89
367.859	1369.07
371.908	1641.5
375.956	2094.18
380.002	2836.09
384.045	3291.23
388.086	3200.61
392.126	3735.27
396.163	4626.23
400.198	5157.52
404.23	4571.18
408.261	4076.24
412.29	3753.58
416.316	3031.18
420.341	1998.05
424.363	1202.12
428.383	450.476
432.401	172.065
436.417	138.878
440.431	165.906
444.443	124.86
448.452	16.712
452.46	290.243
456.465	232.174
460.468	62.33
464.47	70.947
468.469	0.03
472.466	63.003
476.461	54.774
480.454	129.843
484.445	189.15
488.433	166.618
492.42	23.28
496.405	112.952
500.387	167.403
504.367	49.814
508.346	142.122
512.322	466.572
516.296	1162.06
520.268	1732.6
524.238	1994.19
528.206	1617.8
532.172	1108.44
536.136	1314.14
540.098	1498.85
544.057	1168.55
548.015	1155.23
551.97	1072.9
555.924	675.539
559.875	633.143
563.825	677.703
567.772	1005.21
571.718	1746.66
575.661	2428.07
579.602	1945.41
583.541	1271.67
587.478	615.839
591.413	416.917
595.346	399.894
599.277	202.764
603.206	32.605
607.133	131.226
611.058	3.503
614.981	4.015
618.902	7.196
622.82	49.334
626.737	33.414
630.652	148.709
634.564	328.512
638.475	592.709
642.384	589.156
646.29	1018.99
650.195	1688.7
654.097	3181.59
657.998	5815.19
661.896	7875.36
665.793	6391.73
669.687	4780.93
673.58	5286.1
677.47	7714.98
681.359	10662.3
685.245	10328.6
689.13	6439.56
693.012	3427.68
696.893	1877.28
700.771	1136.65
704.647	843.778
708.522	542.665
712.394	518.31
716.265	463.715
720.133	375.879
724	327.8
727.864	489.695
731.727	533.134
735.587	266.333
739.446	292.29
743.302	329.006
747.157	307.484
751.009	392.724
754.86	379.728
758.708	155.162
762.555	29.638
766.399	22.307
770.242	84.856
774.083	124.97
777.921	66.306
781.758	36.245
785.593	87.676
789.426	45.628
793.257	27.88
797.085	30.004
800.912	37.186
804.737	22.821
808.56	83.305
812.381	130.439
816.2	92.483
820.017	165.132
823.833	160.508
827.646	52.427
831.457	35.759
835.266	186.612
839.074	78.316
842.879	124.819
846.682	97.117
850.484	291.299
854.283	402.374
858.081	503.342
861.877	632.201
865.67	452.024
869.462	191.837
873.252	168.553
877.04	132.183
880.826	208.796
884.61	176.332
888.392	277.791
892.172	313.191
895.951	247.964
899.727	352.052
903.501	483.446
907.274	449.827
911.044	430.06
914.813	657.876
918.58	839.581
922.345	1226.17
926.108	1825.97
929.869	2150.46
933.628	2285.72
937.385	2409.52
941.14	2234.53
944.893	1735.3
948.645	1351.74
952.394	1072.33
956.142	966.15
959.888	646.734
963.631	563.821
967.373	736.619
971.113	752.179
974.851	744.694
978.588	958.847
982.322	1194.31
986.054	1662.63
989.785	2252.51
993.513	3759.74
997.24	6715.6
1000.97	11483
1004.69	20180.2
1008.41	25136.7
1012.13	19435.1
1015.85	14732
1019.56	12948.7
1023.27	12055.6
1026.99	11462.9
1030.7	10198.2
1034.4	8325.44
1038.11	6293.44
1041.81	4787.37
1045.52	3769.51
1049.22	2907.12
1052.91	2173.33
1056.61	1489.69
1060.31	1147.58
1064	908.377
1067.69	675.959
1071.38	690.225
1075.07	671.217
1078.75	492.383
1082.44	362.846
1086.12	384.944
1089.8	385.651
1093.48	189.785
1097.15	359.762
1100.83	551.024
1104.5	396.293
1108.17	112.601
1111.84	194.336
1115.51	185.833
1119.17	51.391
1122.83	188.749
1126.5	267.738
1130.15	317.95
1133.81	188.942
1137.47	116.124
1141.12	162.083
1144.78	38.659
1148.43	16.821
1152.07	217.871
1155.72	250.32
1159.37	42.221
1163.01	222.26
1166.65	224.797
1170.29	2.266
1173.93	173.215
1177.56	60.324
1181.2	194.899
1184.83	72.318
1188.46	141.584
1192.09	191.833
1195.71	48.294
1199.34	33.378
1202.96	32.683
1206.58	73.139
1210.2	168.496
1213.82	165.694
1217.44	237.992
1221.05	247.902
1224.66	123.832
1228.27	10.682
1231.88	171.425
1235.49	7.933
1239.09	66.528
1242.7	279.103
1246.3	284.258
1249.9	381.311
1253.49	275.22
1257.09	111.971
1260.68	159.463
1264.28	10.3
1267.87	68.588
1271.46	231.634
1275.04	267.148
1278.63	170.368
1282.21	333.284
1285.79	429.036
1289.37	146.468
1292.95	111.676
1296.53	312.157
1300.1	51.057
1303.68	30.986
1307.25	111.307
1310.82	499.802
1314.38	441.608
1317.95	174.081
1321.51	207.853
1325.08	227.498
1328.63	192.282
1332.19	15.894
1335.75	204.702
1339.31	213.393
1342.86	154.805
1346.41	289.592
1349.96	541.738
1353.51	449.153
1357.05	350.804
1360.6	197.024
1364.14	94.027
1367.68	213.217
1371.22	80.486
1374.76	173.999
1378.3	633.249
1381.83	494.152
1385.36	464.184
1388.89	548.993
1392.42	478.508
1395.95	299.164
1399.47	52.039
1402.99	147.988
1406.52	129.009
1410.04	1.837
1413.56	227.572
1417.07	501.535
1420.59	451.604
1424.1	381.575
1427.61	468.321
1431.12	558.24
1434.63	382.554
1438.13	228.609
1441.64	158.451
1445.14	286.171
1448.64	12.191
1452.14	232.848
1455.64	521.17
1459.13	589.518
1462.63	469.11
1466.12	518.719
1469.61	680.008
1473.1	402.086
1476.59	334.955
1480.07	248.871
1483.56	354.027
1487.04	111.923
1490.52	2.221
1494	195.551
1497.47	452.735
1500.95	385.36
1504.42	604.578
1507.89	796.354
1511.36	617.947
1514.83	459.615
