Measurement: Raman, 514 nm, ccw, Raman Data Processed
Mineral: Enstatite
Rruff sample: R060744
Ideal chemistry: MgSiO_3_
Locality: Orissa, India
Source: Herb Obodda
Description: Brown transparent fragment
Measured chemistry: (Mg_0.85_Fe^2+^_0.13_Fe^3+^_0.01_Mn_0.01_)_Σ=1_(Si_0.99_Al_0.01_)_Σ=1_O_3_; trace amounts of Ca; Fe^2+^ and Fe^3+^ splitted by charge balance
Pin_id: L01127
Orientation: Laser parallel to -b* (0 -1 0). Fiducial mark perpendicular to laser is parallel to -c [0 0 -1]
Raman shift (cm-1)	intensity
113.208	0
118.134	33.0679
123.058	74.0984
127.979	141.617
132.898	291.798
137.814	542.712
142.728	707.409
147.639	568.097
152.549	313.347
157.455	170.95
162.359	154.553
167.261	12.1123
172.161	10.3296
177.058	30.2109
181.952	4.2583
186.845	230.894
191.734	248.933
196.622	278.302
201.507	491.537
206.389	416.834
211.269	571.79
216.147	756.128
221.022	1152.82
225.895	2509.93
230.765	4445.55
235.633	4388.03
240.498	2102.93
245.361	906.41
250.222	866.124
255.08	719.066
259.936	819.314
264.789	1074.94
269.64	1510.01
274.488	1126.97
279.334	489.545
284.178	482.926
289.019	796.763
293.857	1216.38
298.693	1037.11
303.527	905.953
308.358	1379.53
313.187	2383.94
318.013	3208.26
322.837	4044.04
327.659	5639.7
332.478	9010.77
337.294	11375.4
342.108	9192.34
346.92	4909.51
351.729	2450.77
356.535	1427.47
361.34	1079.24
366.141	1158.26
370.94	1208.11
375.737	1543.93
380.531	1416.91
385.323	956.011
390.113	715.223
394.9	554.54
399.684	443.963
404.466	377.5
409.245	336.247
414.022	221.203
418.797	97.3525
423.569	23.6484
428.338	50.0073
433.105	29.7456
437.87	10.5342
442.632	2.32031
447.391	17.9399
452.149	93.3281
456.903	204.846
461.655	271.505
466.405	279.291
471.152	353.204
475.897	128.227
480.639	69.3491
485.378	18.4443
490.116	19.852
494.85	49.729
499.582	0.638672
504.312	29.8926
509.039	67.7476
513.764	189.59
518.486	423.858
523.206	317.325
527.923	714.885
532.638	1288.54
537.35	1533.33
542.059	992.298
546.766	643.403
551.471	727.595
556.173	405.884
560.873	485.295
565.57	456.045
570.264	547.702
574.957	531.502
579.646	482.974
584.333	340.273
589.018	398.118
593.7	333.151
598.379	193.277
603.056	348.496
607.73	433.807
612.402	412.209
617.072	376.704
621.739	614.715
626.403	839.488
631.065	984.95
635.724	1292.69
640.381	2038.93
645.035	3295.1
649.687	6373.63
654.336	12271.9
658.983	17677.2
663.627	15223.6
668.268	12510.4
672.907	16321.4
677.544	25196
682.178	26640.5
686.809	16142.4
691.438	7481.44
696.065	3761.5
700.688	2215.73
705.31	1508.93
709.929	1018.29
714.545	838.88
719.158	510.62
723.77	476.538
728.378	336.573
732.984	377.706
737.588	320.935
742.189	250.664
746.787	160.705
751.383	179.249
755.976	190.902
760.567	76.6787
765.155	51.5898
769.741	6.58301
774.324	3.7207
778.904	27.4106
783.482	67.2412
788.058	126.944
792.631	68.21
797.201	42.4512
801.769	105.98
806.334	37.6572
810.897	18.4951
815.457	9.64062
820.014	23.2354
824.569	33.2393
829.122	19.5713
833.671	114.769
838.219	32.2534
842.763	40.9355
847.306	62.8335
851.845	194.949
856.382	185.284
860.917	216.841
865.448	194.625
869.978	157.64
874.505	85.8936
879.029	33.3857
883.55	103.117
888.069	59.0928
892.586	135.339
897.1	53.9863
901.611	161.886
906.12	160.541
910.626	295.519
915.129	347.265
919.63	540.839
924.129	915.563
928.625	1583.21
933.118	2416.35
937.609	2873.1
942.097	2328
946.582	1587.26
951.065	1162.75
955.546	960.902
960.023	938.675
964.499	772.058
968.971	924.912
973.441	1124.56
977.909	1566.22
982.374	2136
986.836	3366.07
991.295	6025.41
995.753	12150
1000.21	25130.2
1004.66	46688.5
1009.11	50860.3
1013.55	29843.1
1018	16267.2
1022.44	11237.5
1026.88	8506.87
1031.32	6359.93
1035.75	4439.08
1040.18	3134.59
1044.61	2125.11
1049.04	1440.3
1053.46	931.364
1057.88	639.514
1062.3	673.163
1066.71	257.011
1071.13	281.72
1075.54	315.236
1079.94	229.353
1084.35	205.631
1088.75	212.062
1093.15	129.19
1097.55	149.022
1101.94	93.8369
1106.34	204.935
1110.73	145.581
1115.11	227.645
1119.5	128.488
1123.88	266.861
1128.26	179.106
1132.63	112.188
1137.01	5.62402
1141.38	193.941
1145.75	150.529
1150.12	156.144
1154.48	181.527
1158.84	13.9072
1163.2	105.143
1167.55	10.0098
1171.91	36.6895
1176.26	116.861
1180.61	190.304
1184.95	5.4209
1189.29	13.8467
1193.63	39.456
1197.97	38.1543
1202.31	75.8311
1206.64	21.9492
1210.97	64.6211
1215.29	39.8789
1219.62	5.52148
1223.94	11.0938
1228.26	11.6768
1232.57	21.252
1236.89	17.1514
1241.2	165.636
1245.51	19.5254
1249.81	142.505
1254.12	100.382
1258.42	47.706
1262.72	139.976
1267.01	238.216
1271.3	141.359
1275.59	93.9824
1279.88	158.163
1284.17	211.392
1288.45	208.342
1292.73	152.356
1297.01	152.254
1301.28	113.128
1305.55	196.025
1309.82	190.553
1314.09	157.586
1318.35	311.731
1322.61	256.967
1326.87	238.956
1331.13	207.762
1335.38	232.065
1339.63	197.16
1343.88	133.418
1348.12	93.0703
1352.37	75.5781
1356.61	198.999
1360.85	98.5606
1365.08	183.278
1369.31	92.9648
1373.54	216.338
1377.77	129.545
1381.99	83.2949
1386.22	27.0586
1390.43	55.1982
1394.65	84.1318
1398.87	212.649
1403.08	6.3457
1407.29	74.8789
1411.49	58.1416
1415.69	175.911
1419.89	62.0918
1424.09	252.204
1428.29	75.6445
1432.48	86.293
1436.67	185.862
1440.86	272.983
1445.04	160.179
1449.23	194.234
1453.4	111.779
1457.58	189.87
1461.76	18.3398
1465.93	188.302
1470.1	282.494
1474.26	176.658
1478.43	172.881
1482.59	283.134
1486.75	220.966
1490.9	242.89
1495.06	198.931
1499.21	112.454
1503.35	210.133
1507.5	279.953
1511.64	215.797
1515.78	224.905
1519.92	233.207
1524.05	212.02
1528.18	274.4
1532.31	64.457
1536.44	196.579
1540.56	147.67
1544.69	49.5654
1548.8	134.894
1552.92	18.9082
1557.03	128.424
1561.14	167.893
1565.25	170.096
1569.36	75.0713
