Measurement: Raman, 514 nm, ccw, Raman Data Processed
Mineral: Enstatite
Rruff sample: R070550
Ideal chemistry: MgSiO_3_
Locality: Tanzania
Source: www.multicolour.com
Description: Brown, translucent, vitreous crystal fragment
Measured chemistry: (Mg_0.90_Fe_0.10_)_Î£=1_Si_1.00_O_3_
Pin_id: L01735
Orientation: Laser parallel to -b* (0 -1 0). Fiducial mark perpendicular to laser is parallel to c [0 0 1]
Raman shift (cm-1)	intensity
112.889	0
117.854	448.676
122.816	3065.07
127.775	6121.67
132.73	11951.7
137.683	5000.29
142.633	2646.73
147.579	2782.3
152.522	2404.45
157.462	1142.13
162.4	396.408
167.334	150.353
172.265	21.2705
177.193	96.6025
182.117	55.2368
187.039	62.7993
191.958	409.238
196.874	554.443
201.787	624.631
206.696	405.541
211.603	33.0269
216.506	57.9761
221.407	106.649
226.304	1024.92
231.199	2562.51
236.091	4984.12
240.979	3770.15
245.864	575.216
250.747	25.0679
255.626	172.243
260.503	225.193
265.376	207.769
270.247	245.212
275.114	596.84
279.979	291.213
284.84	64.687
289.699	480.151
294.554	1031.12
299.407	1353.96
304.257	1319.86
309.103	1375.75
313.947	1736.96
318.788	2317.9
323.626	3624.98
328.461	6193.24
333.292	11982.1
338.121	20667
342.947	27139.7
347.771	16209.4
352.591	7202.85
357.408	4366.68
362.222	2976.78
367.034	2002.16
371.842	1969.78
376.648	2290.66
381.45	3072.69
386.25	2688.84
391.047	2608.07
395.841	3583.89
400.632	4828.68
405.42	4639.08
410.205	4209.81
414.988	4392.78
419.767	3993.91
424.544	2463.14
429.318	1332.83
434.089	1478.19
438.857	2228.58
443.622	3063.03
448.384	1509.5
453.143	758.977
457.9	707.435
462.654	768.86
467.405	622.376
472.153	460.134
476.898	159.958
481.64	17.6426
486.38	25.0742
491.116	26.5513
495.85	110.147
500.581	51.3013
505.309	154.393
510.035	59.6782
514.757	135.362
519.477	441.356
524.194	615.375
528.908	949.322
533.62	1109.33
538.328	1636.16
543.034	1592.95
547.737	1086.58
552.437	978.99
557.134	684.11
561.829	440.929
566.521	365.438
571.21	409.641
575.896	532.527
580.58	600.082
585.261	522.299
589.939	401.172
594.614	398.694
599.286	516.861
603.956	323.668
608.623	406.109
613.287	344.174
617.949	530.858
622.608	863.481
627.264	970.266
631.917	1224.95
636.568	1320.69
641.215	2052.66
645.861	3413.3
650.503	6191.15
655.143	12264.7
659.78	21008.5
664.414	25720.1
669.046	18044.4
673.674	16387
678.301	23702
682.924	33969.2
687.545	31573.3
692.163	15717.1
696.778	6955.23
701.391	3730.08
706.001	2275.61
710.609	1525.82
715.213	1056.73
719.815	823.337
724.415	584.648
729.011	457.671
733.606	368.414
738.197	314.883
742.786	239.087
747.372	185.034
751.955	262.733
756.536	177.193
761.114	148.464
765.69	32.5713
770.262	52.3706
774.833	85.2622
779.4	91.8857
783.965	12.6191
788.528	4.95606
793.087	77.0596
797.645	69.5254
802.199	50.3999
806.751	29.1763
811.3	16.3686
815.847	116.822
820.391	34.2056
824.933	9.96435
829.471	102.848
834.008	66.3857
838.541	227.025
843.073	435.66
847.601	1053.3
852.127	2331.97
856.65	3517.67
861.171	2739.42
865.69	1655.22
870.205	810.102
874.718	472.064
879.229	370.121
883.737	286.284
888.242	346.581
892.745	349.012
897.246	253.481
901.743	317.683
906.239	234.783
910.731	290.674
915.221	427.234
919.709	716.775
924.194	1398.26
928.677	2506.32
933.157	3426.06
937.634	3386.62
942.109	2645.94
946.582	1628.15
951.052	1079.06
955.519	887.032
959.984	713.877
964.447	628.766
968.906	644.528
973.364	707.69
977.819	922.321
982.271	1303.44
986.721	2118.31
991.169	3353.59
995.614	6546.23
1000.06	13079.2
1004.5	27773.6
1008.93	45967.2
1013.37	41584.3
1017.8	23491.9
1022.23	17083.2
1026.66	15312.3
1031.09	13516.6
1035.51	9687.4
1039.93	6031.06
1044.35	3793.84
1048.76	2289.02
1053.17	1444.72
1057.58	974.87
1061.99	789.506
1066.4	463.75
1070.8	402.065
1075.2	350.821
1079.6	390.062
1084	316.89
1088.39	231.994
1092.78	126.899
1097.17	171.386
1101.56	255.407
1105.94	11.1533
1110.32	142.051
1114.7	166.393
1119.08	193.184
1123.45	202.128
1127.82	195.403
1132.19	320.541
1136.56	48.1065
1140.92	191.905
1145.29	188.621
1149.65	21.7158
1154	13.2461
1158.36	94.7314
1162.71	31.6768
1167.06	14.419
1171.41	170.705
1175.76	107.7
1180.1	108.552
1184.44	120.246
1188.78	94.7666
1193.11	43.9639
1197.45	156.349
1201.78	63.7315
1206.11	36.9326
1210.43	32.6875
1214.76	125.997
1219.08	17.3008
1223.4	6.99316
1227.72	91.792
1232.03	125.225
1236.35	137.074
1240.66	136.408
1244.96	59.4551
1249.27	21.9707
1253.57	187.411
1257.88	81.3525
1262.17	78.6533
1266.47	138.606
1270.76	341.023
1275.06	202.828
1279.35	255.601
1283.63	315.44
1287.92	246.232
1292.2	198.698
1296.48	380.45
1300.76	199.31
1305.04	262.659
1309.31	395.029
1313.58	330.927
1317.85	406.493
1322.12	323.588
1326.38	206.856
1330.64	271.33
1334.9	123.453
1339.16	100.243
1343.41	22.0215
1347.67	183.21
1351.92	84.3486
1356.17	206.666
1360.41	84.3535
1364.66	268.155
1368.9	276.725
1373.14	133.434
1377.38	111.027
1381.61	106.703
1385.84	231.292
1390.08	221.182
1394.3	153.369
1398.53	101.619
1402.75	35.6875
1406.97	152.845
1411.19	239.94
1415.41	182.2
1419.63	107.998
1423.84	272.113
1428.05	239.463
1432.26	262.365
1436.46	349.721
1440.67	439.115
1444.87	615.019
1449.07	610.654
1453.27	542.034
1457.46	643.361
1461.66	633.333
1465.85	436.258
1470.04	311.456
1474.22	245.853
1478.41	463.379
1482.59	340.601
1486.77	335.771
1490.95	170.073
1495.12	147.477
1499.3	177.061
1503.47	18.042
1507.63	126.375
1511.8	199.156
1515.97	9.59473
1520.13	87.208
1524.29	73.54
1528.45	191.524
1532.61	69.8057
1536.76	170.665
1540.91	89.6875
1545.06	100.619
1549.21	40.8223
1553.35	128.007
1557.5	38.8486
1561.64	99.9062
