Measurement: Raman, 514 nm, ccw, Raman Data Processed
Mineral: Enstatite
Rruff sample: R040094
Ideal chemistry: MgSiO_3_
Locality: unknown
Source: University of Arizona Mineral Museum
Description: Dark green massive, associated with anthophyllite
Measured chemistry: (Mg_0.84_Fe_0.15_)(Si_0.99_Al_0.01_)O_3_; = Enstatite :  [box](Mg_0.83_Fe_0.14_Na_0.01_Ca_0.01_)_7_(Si_0.99_Al_0.01_)_8_O_22_(OH)_2_ = Anthophyllite
Pin_id: M00257
Orientation: Laser parallel to b* (0 1 0). Fiducial mark perpendicular to laser is parallel to -c [0 0 -1]
Raman shift (cm-1)	intensity
74.776	0
78.982	1.205
83.185	206.194
87.385	19.274
91.584	228.517
95.78	697.601
99.974	1081.43
104.166	1334.83
108.355	1957.97
112.543	2685.8
116.728	4091.86
120.911	4369.86
125.091	3384.52
129.27	2870.32
133.446	2624.4
137.62	2321.63
141.791	2959.25
145.961	2472.64
150.128	1734.58
154.293	1422.85
158.456	1800.21
162.617	2962.05
166.775	2812.16
170.931	2633.98
175.085	2959.77
179.237	3228.89
183.386	3697.57
187.534	3806.12
191.679	3881.06
195.822	3817.88
199.963	4342.3
204.101	4523.68
208.237	4449.09
212.372	4274.4
216.504	4106.57
220.633	4323.57
224.761	4745.38
228.886	4969.95
233.009	4719.26
237.13	4178.27
241.249	2688.31
245.366	1819.64
249.48	1863.28
253.593	2222.07
257.703	1910.19
261.811	1784.72
265.916	1437.92
270.02	700.63
274.121	262.818
278.221	22.56
282.318	224.601
286.413	68.595
290.505	126.396
294.596	392.221
298.684	636.848
302.771	655.397
306.855	528.78
310.937	351.243
315.016	436.409
319.094	734.767
323.17	963.02
327.243	1230.19
331.314	1471.62
335.383	2170.27
339.45	3344.21
343.515	3401.47
347.578	2485.91
351.638	1883.74
355.696	1862.95
359.753	1946.51
363.807	1984.38
367.859	2329.54
371.908	2944.97
375.956	3590.65
380.002	3438.56
384.045	2815.71
388.086	2462.06
392.126	2637.62
396.163	2698.36
400.198	2180.27
404.23	1482.37
408.261	1211.88
412.29	1188.79
416.316	1495.06
420.341	1829.79
424.363	2417.01
428.383	2484.01
432.401	1694.27
436.417	1124.09
440.431	820.694
444.443	459.665
448.452	185.891
452.46	150.468
456.465	115.442
460.468	10.344
464.47	46.426
468.469	33.272
472.466	81.828
476.461	127.776
480.454	151.849
484.445	142.451
488.433	44.548
492.42	128.415
496.405	58.334
500.387	121.228
504.367	249.803
508.346	321.124
512.322	820.129
516.296	854.108
520.268	1245.08
524.238	1426.65
528.206	1491.98
532.172	1590.85
536.136	1812.67
540.098	2037.36
544.057	1604.91
548.015	1024.3
551.97	678.544
555.924	479.622
559.875	359.53
563.825	327.263
567.772	173.813
571.718	177.171
575.661	228.329
579.602	214.273
583.541	116.988
587.478	84.424
591.413	66.597
595.346	40.362
599.277	45.009
603.206	33.536
607.133	78.526
611.058	228.055
614.981	150.248
618.902	308.021
622.82	298.842
626.737	452.307
630.652	700.873
634.564	931.729
638.475	1137.87
642.384	1545.56
646.29	2068.76
650.195	2781.46
654.097	3925.6
657.998	6001
661.896	8473.89
665.793	11363.9
669.687	17959.1
673.58	23925.4
677.47	21494.3
681.359	15542.3
685.245	11128.5
689.13	7314.33
693.012	5086.68
696.893	3704.66
700.771	2442.2
704.647	1705.49
708.522	1370.51
712.394	1306.27
716.265	1171.78
720.133	942.031
724	692.032
727.864	532.785
731.727	539.293
735.587	459.439
739.446	531.596
743.302	391.602
747.157	397.188
751.009	483.833
754.86	531.537
758.708	479.232
762.555	336.931
766.399	311.632
770.242	220.829
774.083	186.058
777.921	191.347
781.758	183.563
785.593	118.793
789.426	83.152
793.257	30.693
797.085	20.303
800.912	68.889
804.737	28.7
808.56	1.583
812.381	50.647
816.2	48.955
820.017	172.251
823.833	11.27
827.646	51.926
831.457	40.414
835.266	45.128
839.074	51.885
842.879	71.733
846.682	2.425
850.484	162.057
854.283	199.645
858.081	329.221
861.877	337.79
865.67	285.333
869.462	256.914
873.252	205.521
877.04	229.141
880.826	393.823
884.61	549.577
888.392	677.417
892.172	846.38
895.951	942.423
899.727	1000.89
903.501	1006.65
907.274	1117.87
911.044	1235.47
914.813	1547.3
918.58	2012.23
922.345	2471.26
926.108	2944.37
929.869	2731.54
933.628	2483.66
937.385	2027.9
941.14	1725.19
944.893	1431.3
948.645	1429.42
952.394	1359.3
956.142	1307.11
959.888	1238.7
963.631	1159.25
967.373	1293.62
971.113	1319.21
974.851	1568.1
978.588	1591.9
982.322	1741.85
986.054	1866.5
989.785	2120.41
993.513	2577.01
997.24	3839.73
1000.97	5696.14
1004.69	9132.73
1008.41	10783.2
1012.13	8010.01
1015.85	5770.03
1019.56	4901.01
1023.27	4600
1026.99	4748.1
1030.7	4912.31
1034.4	5925.29
1038.11	7090.77
1041.81	6150.17
1045.52	4811.48
1049.22	4056.33
1052.91	3979.84
1056.61	3695.99
1060.31	3160.65
1064	2536.2
1067.69	1901.14
1071.38	1512.73
1075.07	1172.89
1078.75	999.078
1082.44	915.659
1086.12	709.629
1089.8	733.463
1093.48	564.51
1097.15	548.207
1100.83	615.653
1104.5	567.934
1108.17	464.569
1111.84	359.234
1115.51	244.999
1119.17	210.436
1122.83	217.829
1126.5	315.41
1130.15	356.344
1133.81	311.046
1137.47	114.351
1141.12	92.401
1144.78	41.575
1148.43	18.862
1152.07	50.563
1155.72	148.525
1159.37	126.192
1163.01	153.149
1166.65	157.398
1170.29	63.393
1173.93	103.518
1177.56	67.928
1181.2	84.972
1184.83	80.522
1188.46	47.271
1192.09	36.744
1195.71	136.996
1199.34	85.047
1202.96	13.151
1206.58	8.086
1210.2	55.898
1213.82	90.503
1217.44	73.339
1221.05	71.64
1224.66	110.995
1228.27	93.518
1231.88	59.688
1235.49	15.842
1239.09	93.157
1242.7	141.81
1246.3	82.721
1249.9	228.039
1253.49	303.183
1257.09	133.776
1260.68	221.119
1264.28	179.169
1267.87	200.92
1271.46	110.675
1275.04	311.102
1278.63	193.004
1282.21	234.401
1285.79	263.987
1289.37	268.188
1292.95	80.056
1296.53	210.035
1300.1	34.671
1303.68	76.884
1307.25	57.543
1310.82	296.076
1314.38	296.299
1317.95	193.658
1321.51	167.29
1325.08	147.398
1328.63	172.883
1332.19	188.583
1335.75	74.694
1339.31	37.539
1342.86	10.068
1346.41	197.611
1349.96	292.781
1353.51	309.54
1357.05	354.479
1360.6	218.884
1364.14	180.325
1367.68	60.795
1371.22	93.282
1374.76	59.962
1378.3	99.056
1381.83	163.424
1385.36	317.926
1388.89	184.946
1392.42	386.523
1395.95	328.868
1399.47	192.875
1402.99	98.143
1406.52	73.54
1410.04	21.106
1413.56	135.472
1417.07	164.939
1420.59	292.656
1424.1	252.192
1427.61	399.617
1431.12	416.552
1434.63	368.794
1438.13	452.196
1441.64	289.069
1445.14	304.787
1448.64	181.931
1452.14	203.016
1455.64	217.297
1459.13	262.426
1462.63	367.393
1466.12	463.239
1469.61	536.414
1473.1	301.128
1476.59	483.397
1480.07	321.31
1483.56	212.675
1487.04	165.875
1490.52	35.058
1494	12.802
1497.47	5.789
1500.95	161.403
1504.42	349.204
1507.89	283.036
1511.36	357.629
1514.83	385.115
