Measurement: Raman, 514 nm, ccw, Raman Data Processed
Mineral: Enstatite
Rruff sample: R050644
Ideal chemistry: MgSiO_3_
Locality: Morogoro, Tanzania
Source: Jibamitra Ganguly
Description: Light brown crystal fragment
Measured chemistry: (Mg_0.90_Fe_0.10_)SiO_3_
Pin_id: L00720
Orientation: Laser parallel to c* (0 0 1). Fiducial mark perpendicular to laser is parallel to -a [-1 0 0]
Raman shift (cm-1)	intensity
51.431	0
56.387	36.9101
61.341	22.1385
66.292	20.252
71.241	556.432
76.187	3480.44
81.131	3515.06
86.072	912.605
91.012	475.985
95.948	443.955
100.883	537.628
105.815	971.562
110.744	820.469
115.671	584.226
120.596	586.752
125.519	697.801
130.439	928.021
135.356	965.801
140.271	809.676
145.184	841.859
150.094	788.421
155.002	548.38
159.908	277.728
164.811	205.441
169.711	148.536
174.61	93.725
179.505	99.7084
184.399	143.853
189.29	214.071
194.178	450.323
199.064	634.758
203.948	740.591
208.829	689.242
213.708	655.995
218.585	742.641
223.459	1560.04
228.33	3358.94
233.199	5197.12
238.066	5957.46
242.93	1875.88
247.792	727.304
252.651	872.671
257.508	938.144
262.363	957.028
267.215	1355.92
272.064	1668.56
276.912	1505.91
281.756	417.972
286.598	343.235
291.438	780.338
296.276	1234.99
301.111	1372.85
305.943	928.103
310.773	1487.92
315.601	2689.26
320.426	4048.11
325.248	5242.41
330.068	8302.16
334.886	12318.3
339.701	15135.3
344.514	11503.5
349.324	4960.55
354.132	2392.51
358.938	1465.32
363.741	1002.85
368.541	976.292
373.339	1152.35
378.135	1401.71
382.928	1293.43
387.718	738.476
392.506	597.84
397.292	536.503
402.075	453.449
406.856	426.663
411.634	352.13
416.41	324.835
421.183	103.763
425.954	39.8973
430.722	101.862
435.488	61.8966
440.251	66.1316
445.012	28.4807
449.77	116.136
454.526	164.913
459.28	241.799
464.03	338.783
468.779	377.853
473.525	259.999
478.268	60.2102
483.009	8.44519
487.747	39.5173
492.483	44.0175
497.217	56.0375
501.948	13.496
506.676	11.5177
511.402	8.28699
516.125	164.972
520.846	314.666
525.565	475.489
530.281	868.392
534.994	1403.44
539.705	1523.57
544.413	907.779
549.119	662.055
553.822	564.318
558.523	414.523
563.222	363.636
567.917	375.642
572.611	427.518
577.302	441.578
581.99	315.233
586.676	392.643
591.359	326.132
596.04	338.519
600.718	295.803
605.394	338.977
610.067	420.041
614.737	488.989
619.406	569.819
624.071	799.486
628.734	955.555
633.395	1274.29
638.053	1714.12
642.708	2602.29
647.361	4562.7
652.012	9140.19
656.66	16773.2
661.305	21985.4
665.948	18295.5
670.588	14807.7
675.226	20379.1
679.861	30454.3
684.494	31666.4
689.124	18668.2
693.752	8227.83
698.377	3953.62
702.999	2296.74
707.619	1554.76
712.237	1081.75
716.852	807.868
721.464	555.053
726.074	466.278
730.681	371.429
735.286	258.49
739.888	188.463
744.488	136.363
749.085	121.176
753.68	90.9143
758.272	115.584
762.861	68.2158
767.448	24.9351
772.033	28.1609
776.614	57.835
781.194	6.91431
785.77	24.0454
790.345	2.79102
794.916	28.3271
799.485	53.7134
804.052	14.1252
808.616	63.8218
813.177	71.8872
817.736	47.2773
822.292	32.9492
826.846	44.8486
831.397	6.854
835.945	17.6328
840.491	18.1663
845.035	57.2568
849.576	245.416
854.114	343.648
858.65	332.302
863.183	223.355
867.713	135.839
872.241	48.4202
876.767	84.1062
881.29	67.9026
885.81	105.817
890.328	100.857
894.843	100.028
899.356	167.338
903.866	127.597
908.373	204.736
912.878	320.038
917.38	611.7
921.88	887.721
926.377	1571.57
930.872	2685.95
935.364	3456.92
939.853	3223.23
944.34	2083.42
948.824	1314.05
953.306	970.056
957.785	824.92
962.261	792.622
966.735	904.784
971.207	1019.91
975.675	1262.69
980.141	1756.93
984.605	2420.38
989.066	3837.26
993.524	6752.44
997.98	13438.9
1002.43	30130.7
1006.88	56172.7
1011.33	59665
1015.78	32709.6
1020.22	18315.5
1024.66	14081.6
1029.1	12081
1033.53	9304.61
1037.97	6086.5
1042.4	3909.69
1046.82	2542.19
1051.25	1530.47
1055.67	1115.95
1060.09	846.636
1064.51	613.946
1068.92	519.765
1073.33	413.225
1077.74	302.243
1082.15	246.079
1086.55	123.647
1090.95	114.912
1095.35	122.803
1099.75	181.584
1104.14	161.394
1108.53	126.929
1112.92	191.625
1117.31	111.842
1121.69	180.76
1126.07	189.417
1130.45	136.449
1134.82	159.918
1139.19	144.757
1143.57	166.967
1147.93	114.95
1152.3	59.5378
1156.66	72.2073
1161.02	82.5498
1165.38	69.6831
1169.73	55.7451
1174.08	45.7375
1178.43	35.762
1182.78	101.736
1187.12	9.34912
1191.46	33.1728
1195.8	36.9319
1200.14	24.8328
1204.47	33.5881
1208.8	13.8315
1213.13	13.3196
1217.46	68.8391
1221.78	69.1997
1226.1	22.1831
1230.42	6.12231
1234.73	38.5332
1239.04	2.8706
1243.35	18.7485
1247.66	48.1501
1251.97	26.1924
1256.27	86.9314
1260.57	100.407
1264.86	42.7336
1269.16	55.6096
1273.45	64.2056
1277.74	107.527
1282.03	92.6216
1286.31	94.4517
1290.59	116.061
1294.87	177.469
1299.14	161.825
1303.42	144.226
1307.69	118.812
1311.95	159.688
1316.22	136.373
1320.48	77.9944
1324.74	123.42
1329	164.06
1333.26	135.557
1337.51	105.309
1341.76	117.927
1346	110.073
1350.25	85.583
1354.49	136.227
1358.73	161.223
1362.96	154.455
1367.2	153.644
1371.43	119.136
1375.66	102.748
1379.88	138.958
1384.11	118.001
1388.33	85.3079
1392.54	82.7351
1396.76	87.0464
1400.97	120.769
1405.18	51.6685
1409.39	126.727
1413.59	108.757
1417.8	33.74
1421.99	128.03
1426.19	10.794
1430.38	140.197
1434.58	118.828
1438.77	88.741
1442.95	133.356
1447.13	134.067
1451.32	113.255
1455.49	89.1111
1459.67	126.321
1463.84	126.786
1468.01	73.2664
1472.18	102.852
1476.35	92.3931
1480.51	61.0259
1484.67	67.5693
1488.83	122.365
1492.98	64.1404
1497.13	75.7471
1501.28	119.077
1505.43	37.8748
1509.57	44.7869
1513.71	9.94482
1517.85	88.3933
1521.99	36.0918
1526.12	21.7219
1530.25	94.5
1534.38	72.7566
1538.5	8.5896
1542.62	92.5774
1546.74	71.6814
1550.86	28.8064
1554.98	48.8997
1559.09	73.1023
1563.2	59.2805
1567.31	34.1177
