Measurement: Raman, 514 nm, ccw, Raman Data Processed
Mineral: Enstatite
Rruff sample: R060744
Ideal chemistry: MgSiO_3_
Locality: Orissa, India
Source: Herb Obodda
Description: Brown transparent fragment
Measured chemistry: (Mg_0.85_Fe^2+^_0.13_Fe^3+^_0.01_Mn_0.01_)_Σ=1_(Si_0.99_Al_0.01_)_Σ=1_O_3_; trace amounts of Ca; Fe^2+^ and Fe^3+^ splitted by charge balance
Pin_id: L01935
Orientation: Laser parallel to -a* (-1 0 0). Fiducial mark perpendicular to laser is parallel to -b [0 -1 0]
Raman shift (cm-1)	intensity
113.208	0
118.134	1074.97
123.058	7431.86
127.979	20086.2
132.898	11843.9
137.814	3982.71
142.728	2125.86
147.639	1104.11
152.549	265.824
157.455	18.7554
162.359	1032.63
167.261	444.548
172.161	168.945
177.058	8.68359
181.952	716.758
186.845	2121.45
191.734	2228.37
196.622	1414.14
201.507	1046.79
206.389	66.6533
211.269	10.0947
216.147	829.74
221.022	2675.43
225.895	6775.01
230.765	14951.5
235.633	15530.8
240.498	6625.18
245.361	1939.55
250.222	558.928
255.08	52.6748
259.936	109.256
264.789	419.063
269.64	217.547
274.488	86.2876
279.334	171.224
284.178	737.433
289.019	1866.68
293.857	3374.56
298.693	3324.64
303.527	3319.2
308.358	3451.21
313.187	4658.79
318.013	7071.58
322.837	9553.14
327.659	17772.5
332.478	36197.1
337.294	56118.5
342.108	45160.3
346.92	23524
351.729	13825.8
356.535	9600.12
361.34	6780.57
366.141	6245.06
370.94	7680.58
375.737	8951.16
380.531	8640.77
385.323	9854.44
390.113	14168.1
394.9	19539.9
399.684	19802.9
404.466	16519.5
409.245	13445.2
414.022	10700.6
418.797	7808.91
423.569	4341.55
428.338	3363.57
433.105	4600.38
437.87	5641.99
442.632	3356.45
447.391	1491.78
452.149	1204.01
456.903	1267.2
461.655	1258.46
466.405	715.393
471.152	364.447
475.897	203.644
480.639	196.092
485.378	69.5469
490.116	76.979
494.85	223.75
499.582	93.9004
504.312	465.245
509.039	1961.34
513.764	4995.14
518.486	6677.59
523.206	5545.51
527.923	3950.64
532.638	4754.93
537.35	6111.28
542.059	5623.86
546.766	4884.93
551.471	2865.52
556.173	1398.16
560.873	1025.3
565.57	1162.29
570.264	1768.42
574.957	1639.55
579.646	981.177
584.333	719.802
589.018	538.905
593.7	313.984
598.379	70.0288
603.056	62.9741
607.73	108.42
612.402	83.0156
617.072	111.357
621.739	269.68
626.403	558.907
631.065	951.899
635.724	1508.31
640.381	2726.52
645.035	5335.03
649.687	10892.4
654.336	23238.1
658.983	37324.1
663.627	29891.8
668.268	21416.4
672.907	25611.9
677.544	40176.9
682.178	44815.2
686.809	26658.3
691.438	13722.3
696.065	6356.45
700.688	3848.15
705.31	2571.7
709.929	1830.75
714.545	1301.3
719.158	1290.85
723.77	1203.93
728.378	1178
732.984	1518.58
737.588	1882.67
742.189	2083.5
746.787	3102.15
751.383	2815.74
755.976	1144.42
760.567	419.265
765.155	115.716
769.741	21.1719
774.324	68.5122
778.904	98.9487
783.482	169.938
788.058	15.8965
792.631	205.27
797.201	60.208
801.769	122.962
806.334	111.632
810.897	103.888
815.457	45.8931
820.014	33.5459
824.569	57.1797
829.122	32.8921
833.671	21.2798
838.219	115.749
842.763	408.682
847.306	848.55
851.845	1966.38
856.382	3183.18
860.917	3357
865.448	2297.84
869.978	1420.73
874.505	984.699
879.029	707.79
883.55	593.281
888.069	810.537
892.586	1035.2
897.1	1291.07
901.611	1031.13
906.12	767.315
910.626	846.553
915.129	1125.92
919.63	2005.06
924.129	3568.72
928.625	4659.85
933.118	5420.1
937.609	5584.24
942.097	4551.86
946.582	3361.16
951.065	2102.55
955.546	1639.23
960.023	1272.06
964.499	998.814
968.971	894.032
973.441	987.027
977.909	1388.99
982.374	2139.76
986.836	3477.27
991.295	6355.5
995.753	12172.4
1000.21	21984
1004.66	36827.4
1009.11	43913.4
1013.55	39081
1018	37471.3
1022.44	35728.3
1026.88	33055.9
1031.32	27491
1035.75	19508.8
1040.18	13023.2
1044.61	8309.42
1049.04	5769.4
1053.46	4241.35
1057.88	2888.35
1062.3	1948.2
1066.71	1281.76
1071.13	1049.51
1075.54	755.196
1079.94	457.688
1084.35	458.644
1088.75	430.492
1093.15	384.505
1097.55	411.544
1101.94	474.437
1106.34	306.265
1110.73	252.109
1115.11	355.117
1119.5	352.013
1123.88	469.922
1128.26	481.447
1132.63	327.805
1137.01	273.752
1141.38	186.118
1145.75	63.5527
1150.12	111.419
1154.48	174.898
1158.84	204.094
1163.2	144.96
1167.55	125.324
1171.91	232.679
1176.26	203.949
1180.61	27.4014
1184.95	0.533203
1189.29	21.8203
1193.63	6.05078
1197.97	98.1973
1202.31	20.8516
1206.64	81.3897
1210.97	76.9082
1215.29	95.208
1219.62	74.1709
1223.94	176.596
1228.26	43.4746
1232.57	102.808
1236.89	26.9785
1241.2	131.887
1245.51	140.824
1249.81	115.201
1254.12	145.026
1258.42	93.2119
1262.72	186.499
1267.01	255.918
1271.3	190.516
1275.59	234.337
1279.88	242.773
1284.17	231.909
1288.45	288.537
1292.73	383.963
1297.01	404.679
1301.28	396.63
1305.55	347.793
1309.82	502.029
1314.09	475.769
1318.35	318.192
1322.61	279.616
1326.87	282.608
1331.13	319.043
1335.38	231.69
1339.63	310.859
1343.88	253.877
1348.12	338.611
1352.37	119.066
1356.61	315.692
1360.85	221.385
1365.08	191.594
1369.31	232.117
1373.54	124.494
1377.77	79.8223
1381.99	285.788
1386.22	238.279
1390.43	221.84
1394.65	177.895
1398.87	125.519
1403.08	253.269
1407.29	199.794
1411.49	15.2578
1415.69	207.166
1419.89	187.71
1424.09	193.286
1428.29	309.711
1432.48	81.4356
1436.67	140.674
1440.86	387.287
1445.04	313.184
1449.23	271.873
1453.4	414.849
1457.58	386.153
1461.76	390.871
1465.93	281.89
1470.1	251.42
1474.26	240.925
1478.43	282.935
1482.59	321.479
1486.75	287.792
1490.9	233.507
1495.06	54.3906
1499.21	145.861
1503.35	152.306
1507.5	110.048
1511.64	48.2305
1515.78	149.27
1519.92	167.94
1524.05	1.91406
1528.18	129.755
1532.31	185.023
1536.44	79.084
1540.56	118.138
1544.69	58.624
1548.8	251.883
1552.92	219.9
1557.03	116.569
1561.14	134.336
1565.25	126.088
1569.36	36.7568
