Measurement: Raman, 514 nm, ccw, Raman Data Processed
Mineral: Enstatite
Rruff sample: R070550
Ideal chemistry: MgSiO_3_
Locality: Tanzania
Source: www.multicolour.com
Description: Brown, translucent, vitreous crystal fragment
Measured chemistry: (Mg_0.90_Fe_0.10_)_Î£=1_Si_1.00_O_3_
Pin_id: L01679
Orientation: Laser parallel to c* (0 0 1). Fiducial mark perpendicular to laser is parallel to a [1 0 0]
Raman shift (cm-1)	intensity
112.889	0
117.854	42.1935
122.816	68.3969
127.775	189.658
132.73	318.334
137.683	291.179
142.633	319.313
147.579	336.123
152.522	292.61
157.462	93.5712
162.4	13.4405
167.334	52.9502
172.265	3.86426
177.193	21.8781
182.117	3.2533
187.039	38.5618
191.958	187.763
196.874	324.266
201.787	610.301
206.696	679.188
211.603	524.649
216.506	463.603
221.407	716.005
226.304	1462.85
231.199	3006.26
236.091	5160.94
240.979	3381.74
245.864	934.339
250.747	636.176
255.626	851.235
260.503	948.566
265.376	849.782
270.247	1302.7
275.114	1597.67
279.979	836.453
284.84	245.888
289.699	394.334
294.554	791.391
299.407	1124.31
304.257	877.691
309.103	742.303
313.947	1415.25
318.788	2853.52
323.626	3710.71
328.461	4447.41
333.292	6823.47
338.121	10659.8
342.947	11651.3
347.771	6667.57
352.591	2797.45
357.408	1456.67
362.222	909.906
367.034	694.558
371.842	718.752
376.648	975.413
381.45	1272.18
386.25	873.032
391.047	488.954
395.841	338.939
400.632	236.985
405.42	269.098
410.205	141.384
414.988	138.842
419.767	57.4482
424.544	34.1863
429.318	20.9575
434.089	18.0848
438.857	18.2419
443.622	48.5878
448.384	116.493
453.143	121.464
457.9	210.142
462.654	202.293
467.405	321.745
472.153	378.962
476.898	214.223
481.64	32.5187
486.38	20.1461
491.116	41.9582
495.85	35.1777
500.581	44.682
505.309	65.4589
510.035	60.5981
514.757	57.059
519.477	171.789
524.194	248.61
528.908	435.565
533.62	767.555
538.328	1352.64
543.034	1039.83
547.737	620.155
552.437	539.601
557.134	408.085
561.829	302.552
566.521	303.995
571.21	312.337
575.896	371.372
580.58	345.036
585.261	332.371
589.939	285.531
594.614	241.8
599.286	251.034
603.956	296.231
608.623	319.386
613.287	364.5
617.949	437.57
622.608	513.031
627.264	673.058
631.917	838.931
636.568	1013.19
641.215	1436.54
645.861	2239.45
650.503	4046.91
655.143	8273.54
659.78	15269.6
664.414	17307.8
669.046	12203.4
673.674	11743
678.301	18320.2
682.924	26414.3
687.545	22708.4
692.163	10749.9
696.778	4899.43
701.391	2606.13
706.001	1622.13
710.609	1026.47
715.213	733.809
719.815	567.162
724.415	403.499
729.011	313.791
733.606	249.038
738.197	206.281
742.786	171.443
747.372	167.987
751.955	71.6581
756.536	44.7091
761.114	137.724
765.69	7.70618
770.262	33.7655
774.833	3.01428
779.4	6.29529
783.965	1.6991
788.528	15.2147
793.087	11.2922
797.645	8.97266
802.199	12.11
806.751	15.9833
811.3	53.2037
815.847	9.64563
820.391	62.2388
824.933	14.1759
829.471	9.71912
834.008	7.42468
838.541	20.4607
843.073	78.3893
847.601	74.3544
852.127	12.3822
856.65	94.4778
861.171	57.6455
865.69	60.8905
870.205	52.2194
874.718	53.6359
879.229	34.1466
883.737	41.7573
888.242	22.4725
892.745	113.297
897.246	63.7988
901.743	119.446
906.239	120.157
910.731	248.938
915.221	316.352
919.709	503.419
924.194	814.957
928.677	1313.76
933.157	2282.77
937.634	2954.62
942.109	2449.31
946.582	1510.89
951.052	1027.12
955.519	729.006
959.984	689.919
964.447	691.56
968.906	753.371
973.364	971.754
977.819	1149.85
982.271	1561.53
986.721	2251.19
991.169	3575.72
995.614	6789.48
1000.06	13912.5
1004.5	31590.8
1008.93	54401.4
1013.37	43998.1
1017.8	21105.1
1022.23	13021.3
1026.66	10547.7
1031.09	8881.34
1035.51	6336.15
1039.93	4103.16
1044.35	2695.36
1048.76	1726.81
1053.17	1128.49
1057.58	805.356
1061.99	590.461
1066.4	407.73
1070.8	381.546
1075.2	282.121
1079.6	267.79
1084	163.28
1088.39	168.158
1092.78	79.7848
1097.17	190.915
1101.56	102.775
1105.94	141.361
1110.32	92.5999
1114.7	112.925
1119.08	139.907
1123.45	152.709
1127.82	93.8956
1132.19	114.151
1136.56	125.787
1140.92	90.6238
1145.29	109.25
1149.65	54.9357
1154	33.4871
1158.36	66.1448
1162.71	16.1841
1167.06	21.1478
1171.41	38.0333
1175.76	48.9286
1180.1	2.75452
1184.44	41.527
1188.78	9.02026
1193.11	61.5051
1197.45	19.5779
1201.78	19.5439
1206.11	19.0557
1210.43	5.38025
1214.76	12.2127
1219.08	16.8459
1223.4	6.89941
1227.72	3.99658
1232.03	9.56677
1236.35	18.2759
1240.66	14.5485
1244.96	32.7472
1249.27	47.7379
1253.57	41.5029
1257.88	28.0271
1262.17	33.14
1266.47	50.9319
1270.76	56.566
1275.06	69.8731
1279.35	82.0134
1283.63	64.9253
1287.92	134.515
1292.2	137.852
1296.48	148.966
1300.76	112.893
1305.04	73.5582
1309.31	76.9888
1313.58	139.406
1317.85	137.351
1322.12	81.3436
1326.38	77.6116
1330.64	91.342
1334.9	73.9579
1339.16	100.044
1343.41	99.5046
1347.67	109.578
1351.92	96.1012
1356.17	93.0553
1360.41	156.822
1364.66	67.4307
1368.9	83.2046
1373.14	99.3934
1377.38	124.173
1381.61	69.4757
1385.84	65.8828
1390.08	59.699
1394.3	50.4983
1398.53	39.8846
1402.75	38.314
1406.97	34.6193
1411.19	40.7679
1415.41	91.4037
1419.63	100.788
1423.84	39.1445
1428.05	64.1858
1432.26	65.2765
1436.46	2.83533
1440.67	81.9995
1444.87	57.2726
1449.07	73.4972
1453.27	63.4739
1457.46	43.8351
1461.66	31.4145
1465.85	56.2206
1470.04	53.4097
1474.22	82.6397
1478.41	55.0339
1482.59	33.4147
1486.77	26.7199
1490.95	53.2051
1495.12	25.781
1499.3	48.3113
1503.47	7.45435
1507.63	34.1963
1511.8	27.2068
1515.97	32.4397
1520.13	6.27319
1524.29	68.3596
1528.45	79.1633
1532.61	14.0872
1536.76	44.3748
1540.91	66.2625
1545.06	65.0576
1549.21	40.6765
1553.35	31.1526
1557.5	53.4504
1561.64	0.286133
