Measurement: Raman, 514 nm, ccw, Raman Data Processed
Mineral: Enstatite
Rruff sample: R070550
Ideal chemistry: MgSiO_3_
Locality: Tanzania
Source: www.multicolour.com
Description: Brown, translucent, vitreous crystal fragment
Measured chemistry: (Mg_0.90_Fe_0.10_)_Î£=1_Si_1.00_O_3_
Pin_id: L01656
Orientation: Laser parallel to a* (1 0 0). Fiducial mark perpendicular to laser is parallel to -b [0 -1 0]
Raman shift (cm-1)	intensity
112.889	0
117.854	144.362
122.816	2453.33
127.775	9239.89
132.73	9906.71
137.683	3565.99
142.633	1823.71
147.579	1799.01
152.522	1562.63
157.462	873.975
162.4	1038.89
167.334	1163.94
172.265	200.295
177.193	67.0908
182.117	362.671
187.039	1785.8
191.958	3555.43
196.874	2919.13
201.787	1933.92
206.696	734.669
211.603	201.954
216.506	269.523
221.407	1123.88
226.304	3534.09
231.199	9138.84
236.091	16377.9
240.979	10939.5
245.864	3555.35
250.747	827.94
255.626	143.277
260.503	0.62207
265.376	266.321
270.247	236.168
275.114	35.835
279.979	51.6392
284.84	202.565
289.699	594.381
294.554	2055.96
299.407	3288.57
304.257	3053.75
309.103	2624.35
313.947	2659.42
318.788	4400.98
323.626	5682.68
328.461	9452.45
333.292	20207.8
338.121	40205.6
342.947	44532.3
347.771	24731.1
352.591	11804.9
357.408	7834.48
362.222	5319.27
367.034	4091.03
371.842	4446.81
376.648	6632.02
381.45	7472.65
386.25	6640.62
391.047	8263.89
395.841	12421.5
400.632	14466.3
405.42	12454.8
410.205	10991.8
414.988	11215.3
419.767	9120.36
424.544	5146.3
429.318	2419.99
434.089	1930.73
438.857	3278.76
443.622	3545.05
448.384	1707.59
453.143	993.362
457.9	822.354
462.654	941.443
467.405	745.734
472.153	476.238
476.898	270.76
481.64	181.97
486.38	156.145
491.116	7.45508
495.85	144.708
500.581	219.243
505.309	14.6602
510.035	831.37
514.757	2651.69
519.477	4852.53
524.194	4843.9
528.908	3678.81
533.62	3114.19
538.328	4412.96
543.034	4159.1
547.737	3654.39
552.437	2895.19
557.134	1479.17
561.829	890.925
566.521	1032.91
571.21	1583.99
575.896	2519.98
580.58	2136.85
585.261	1108.6
589.939	834.19
594.614	581.623
599.286	393.879
603.956	43.9355
608.623	4.57422
613.287	44.6182
617.949	100.145
622.608	187.337
627.264	464.255
631.917	662.247
636.568	1179.72
641.215	1900.66
645.861	3325.4
650.503	6440.52
655.143	13989.6
659.78	26826.8
664.414	30680.9
669.046	20489.4
673.674	18133.2
678.301	26838.8
682.924	39349.2
687.545	33403.4
692.163	16056.4
696.778	7200.17
701.391	3849.38
706.001	2545.05
710.609	1660.18
715.213	1182.75
719.815	1028.78
724.415	813.259
729.011	803.189
733.606	994.573
738.197	1042.41
742.786	1351.66
747.372	1921.46
751.955	2336
756.536	1001.91
761.114	275.317
765.69	145.081
770.262	42.4102
774.833	61.4751
779.4	23.3218
783.965	41.669
788.528	122.906
793.087	11.6221
797.645	99.2266
802.199	43.2207
806.751	122.497
811.3	79.9595
815.847	21.5049
820.391	16.9321
824.933	0.05957
829.471	25.5996
834.008	232.863
838.541	250.883
843.073	325.684
847.601	895.293
852.127	2174.73
856.65	3479.02
861.171	2739.19
865.69	1646.27
870.205	980.261
874.718	611.204
879.229	528.132
883.737	567.199
888.242	560.457
892.745	842.798
897.246	862.367
901.743	899.954
906.239	683.677
910.731	736.793
915.221	1067.82
919.709	1773.66
924.194	3335.7
928.677	4813.88
933.157	5402.56
937.634	5080.62
942.109	3940.07
946.582	2461.11
951.052	1567.94
955.519	1099.07
959.984	967.204
964.447	824.088
968.906	780.194
973.364	961.979
977.819	1217.5
982.271	1601.77
986.721	2409.72
991.169	3962.31
995.614	7043.61
1000.06	13645.5
1004.5	26343.1
1008.93	45138.4
1013.37	42259.3
1017.8	32685.7
1022.23	32076.7
1026.66	34251.3
1031.09	33109
1035.51	25157.7
1039.93	16726
1044.35	10546.6
1048.76	6410.02
1053.17	4252.57
1057.58	3188.21
1061.99	2267.89
1066.4	1552.14
1070.8	1048.69
1075.2	806.552
1079.6	749.902
1084	474.806
1088.39	349.66
1092.78	382.27
1097.17	395.183
1101.56	285.745
1105.94	271.908
1110.32	324.461
1114.7	328.336
1119.08	422.985
1123.45	601.297
1127.82	213.032
1132.19	193.962
1136.56	311.492
1140.92	182.677
1145.29	159.328
1149.65	180.38
1154	65.2197
1158.36	38.4678
1162.71	78.6211
1167.06	58.0264
1171.41	106.305
1175.76	105.431
1180.1	143.456
1184.44	16.1094
1188.78	0.559082
1193.11	152.074
1197.45	12.1001
1201.78	113.237
1206.11	8.1001
1210.43	84.2056
1214.76	25.1299
1219.08	13.7417
1223.4	10.6421
1227.72	53.6514
1232.03	50.9414
1236.35	21.9526
1240.66	4.11816
1244.96	121.906
1249.27	108.209
1253.57	51.7515
1257.88	89.5127
1262.17	69.9883
1266.47	146.73
1270.76	187.365
1275.06	93.4038
1279.35	209.78
1283.63	202.624
1287.92	198.272
1292.2	315.177
1296.48	351.31
1300.76	274.715
1305.04	332.627
1309.31	283.628
1313.58	320.361
1317.85	199.156
1322.12	365.673
1326.38	301.424
1330.64	103.385
1334.9	192.726
1339.16	177.491
1343.41	325.454
1347.67	206.603
1351.92	286.945
1356.17	307.462
1360.41	170.878
1364.66	292.133
1368.9	217.906
1373.14	241.963
1377.38	275.271
1381.61	174.456
1385.84	107.621
1390.08	107.113
1394.3	183.223
1398.53	223.758
1402.75	84.666
1406.97	144.443
1411.19	129.337
1415.41	116.096
1419.63	162.245
1423.84	164.411
1428.05	144.449
1432.26	389.011
1436.46	376.26
1440.67	171.319
1444.87	189.22
1449.07	238.827
1453.27	277.26
1457.46	349.009
1461.66	331.994
1465.85	280.441
1470.04	216.621
1474.22	22.0898
1478.41	224.106
1482.59	204.457
1486.77	162.801
1490.95	218.551
1495.12	93.7598
1499.3	94.4863
1503.47	42.3389
1507.63	145.538
1511.8	65.2217
1515.97	17.3008
1520.13	68.2568
1524.29	94.9453
1528.45	134.731
1532.61	137.773
1536.76	83.1357
1540.91	77.7539
1545.06	72.6367
1549.21	81.3603
1553.35	180.285
1557.5	91.7168
1561.64	88.4404
