Measurement: Raman, 514 nm, ccw, Raman Data Processed
Mineral: Enstatite
Rruff sample: R060630
Ideal chemistry: MgSiO_3_
Locality: unknown
Source: Gemological Institute of America
Description: Tan colored fragment
Measured chemistry: (Mg_0.89_Fe_0.07_Al_0.04_)_Σ=1_(Si_0.96_Al_0.04_)_Σ=1_O_3_
Pin_id: L01844
Orientation: Laser parallel to -b* (0 -1 0). Fiducial mark perpendicular to laser is parallel to c [0 0 1]
Raman shift (cm-1)	intensity
118.134	0
123.058	281.51
127.979	2207.01
132.898	6593.37
137.814	13604.8
142.728	16509.4
147.639	8504.49
152.549	3475.73
157.455	2000.26
162.359	947.986
167.261	278.366
172.161	189.883
177.058	125.134
181.952	132.673
186.845	21.8203
191.734	441.871
196.622	915.534
201.507	1635.35
206.389	2504.27
211.269	2161.9
216.147	1014.83
221.022	551.795
225.895	879.704
230.765	2147.66
235.633	4288.38
240.498	4627.77
245.361	1807.75
250.222	232.31
255.08	53.5508
259.936	18.0645
264.789	150.999
269.64	203.379
274.488	11.4902
279.334	187.861
284.178	337.389
289.019	609.766
293.857	928.697
298.693	1419.41
303.527	1329.67
308.358	1321.82
313.187	1595.92
318.013	2277.15
322.837	3395.53
327.659	5745.38
332.478	9082.53
337.294	14953.5
342.108	22745.9
346.92	28753.4
351.729	28170.3
356.535	21139.9
361.34	14414.6
366.141	9761.79
370.94	7062.34
375.737	5625.32
380.531	5050.7
385.323	5290.49
390.113	5675.69
394.9	6909.29
399.684	8404.09
404.466	8921.69
409.245	8282.65
414.022	9068.11
418.797	9921.97
423.569	8319.27
428.338	4825.82
433.105	3680.56
437.87	4641.22
442.632	7951.89
447.391	8412.55
452.149	4835.01
456.903	2338.36
461.655	1547.52
466.405	1055.08
471.152	768.714
475.897	531.122
480.639	291.24
485.378	248.716
490.116	139.57
494.85	186.798
499.582	135.332
504.312	140.412
509.039	73.0322
513.764	278.447
518.486	538.942
523.206	579.076
527.923	441.005
532.638	786.641
537.35	1198.6
542.059	831.014
546.766	516.175
551.471	604.352
556.173	388.602
560.873	176.653
565.57	9.02832
570.264	76.5176
574.957	105.861
579.646	32.5967
584.333	37.0147
589.018	30.5977
593.7	35.2031
598.379	30.0986
603.056	35.6885
607.73	36.6201
612.402	17.541
617.072	172.624
621.739	402.932
626.403	822.381
631.065	1556.96
635.724	2524.67
640.381	3542.54
645.035	4721.85
649.687	7687.3
654.336	13212.5
658.983	19066.5
663.627	20602.3
668.268	16994.7
672.907	16746.2
677.544	23527.4
682.178	36208.7
686.809	43336.8
691.438	32799.8
696.065	18340.7
700.688	10235.5
705.31	6306.76
709.929	4365.08
714.545	3300.98
719.158	2395.75
723.77	2001.96
728.378	1742.02
732.984	1561.94
737.588	1183.66
742.189	1024.4
746.787	716.245
751.383	729.665
755.976	541.359
760.567	411.184
765.155	142.97
769.741	240.722
774.324	93.4385
778.904	62.3428
783.482	32.2256
788.058	116.956
792.631	5.77344
797.201	52.1523
801.769	146.73
806.334	11.6836
810.897	70.3223
815.457	14.2998
820.014	6.24512
824.569	213.272
829.122	360.336
833.671	604.453
838.219	1364.68
842.763	2313.99
847.306	2870.49
851.845	2964.18
856.382	2633.01
860.917	2245.02
865.448	1631.35
869.978	1539.95
874.505	1144.84
879.029	928.062
883.55	766.655
888.069	400.482
892.586	543.481
897.1	546.745
901.611	375.22
906.12	600.872
910.626	630.69
915.129	960.227
919.63	1101.01
924.129	1077.93
928.625	1463.02
933.118	1634.58
937.609	1757.12
942.097	2184.86
946.582	1971.23
951.065	2045.81
955.546	1986.09
960.023	1258.69
964.499	721.238
968.971	558.967
973.441	228.441
977.909	158.184
982.374	533.188
986.836	680.439
991.295	1309.94
995.753	2237.66
1000.21	3857.66
1004.66	5974.36
1009.11	7859.97
1013.55	8451.95
1018	8559.45
1022.44	8210.93
1026.88	8497.32
1031.32	8940.13
1035.75	7969.98
1040.18	5866.27
1044.61	3915.36
1049.04	2604.36
1053.46	1817.86
1057.88	1131.15
1062.3	722.289
1066.71	376.551
1071.13	207.424
1075.54	130.693
1079.94	123.076
1084.35	49.582
1088.75	23.1016
1093.15	42.8789
1097.55	110.186
1101.94	23.4473
1106.34	33.1934
1110.73	112.496
1115.11	156.477
1119.5	182.978
1123.88	351.369
1128.26	176.731
1132.63	116.689
1137.01	161.961
1141.38	7.61523
1145.75	134.822
1150.12	47.8008
1154.48	32.4434
1158.84	7.73438
1163.2	2.31836
1167.55	7.75977
1171.91	108.078
1176.26	60.5586
1180.61	107.707
1184.95	123.443
1189.29	9.24609
1193.63	116.682
1197.97	66.9453
1202.31	26.291
1206.64	54.2109
1210.97	39.4062
1215.29	282.338
1219.62	0.210938
1223.94	120.658
1228.26	34.1211
1232.57	53.6699
1236.89	76.1465
1241.2	115.121
1245.51	104.588
1249.81	131.723
1254.12	183.807
1258.42	46.8066
1262.72	222.262
1267.01	295.252
1271.3	247.312
1275.59	190.764
1279.88	402.246
1284.17	312.193
1288.45	324.098
1292.73	131.082
1297.01	38.0312
1301.28	207.121
1305.55	204.978
1309.82	280.562
1314.09	341.426
1318.35	485.051
1322.61	373.324
1326.87	325.754
1331.13	226.254
1335.38	122.938
1339.63	227.609
1343.88	282.652
1348.12	115.051
1352.37	358.924
1356.61	79.7793
1360.85	201.51
1365.08	341.393
1369.31	139.789
1373.54	39.3242
1377.77	387.867
1381.99	119.119
1386.22	140.475
1390.43	58.2383
1394.65	152.545
1398.87	248.492
1403.08	38.6172
1407.29	262.654
1411.49	14.5547
1415.69	16.2715
1419.89	83.8652
1424.09	223
1428.29	109.871
1432.48	308.635
1436.67	129.256
1440.86	246.691
1445.04	250.094
1449.23	298.264
1453.4	131.84
1457.58	259.893
1461.76	345.557
1465.93	238.268
1470.1	162.916
1474.26	302.637
1478.43	175.637
1482.59	332.826
1486.75	125.416
1490.9	179.385
1495.06	411.377
1499.21	299.369
1503.35	311.111
1507.5	284.127
1511.64	352.443
1515.78	99.2734
1519.92	105.594
1524.05	140.393
1528.18	81.8301
1532.31	131.215
1536.44	144.164
1540.56	251.578
1544.69	145.66
1548.8	132.518
1552.92	370.9
1557.03	302.848
1561.14	286.965
1565.25	156.301
1569.36	66.2305
