Measurement: Raman, 514 nm, ccw, Raman Data Processed
Mineral: Enstatite
Rruff sample: R050644
Ideal chemistry: MgSiO_3_
Locality: Morogoro, Tanzania
Source: Jibamitra Ganguly
Description: Light brown crystal fragment
Measured chemistry: (Mg_0.90_Fe_0.10_)SiO_3_
Pin_id: L00720
Orientation: Laser parallel to c* (0 0 1). Fiducial mark perpendicular to laser is parallel to -a [-1 0 0]
Raman shift (cm-1)	intensity
51.431	0
56.387	66.3913
61.341	30.6935
66.292	17.8151
71.241	642.644
76.187	4016.47
81.131	3848.32
86.072	795.093
91.012	453.476
95.948	284.88
100.883	263.164
105.815	774.797
110.744	459.428
115.671	330.851
120.596	192.07
125.519	261.776
130.439	398.111
135.356	506.221
140.271	602.865
145.184	711.298
150.094	925.624
155.002	791.883
159.908	711.694
164.811	502.779
169.711	234.75
174.61	196.797
179.505	777.361
184.399	2344.99
189.29	3820.18
194.178	4213.9
199.064	2805.11
203.948	1384.3
208.829	816.91
213.708	584.088
218.585	854.114
223.459	1817.37
228.33	4025.58
233.199	6683.6
238.066	7047.28
242.93	2744.5
247.792	401.183
252.651	46.2537
257.508	110.095
262.363	52.7039
267.215	209.136
272.064	668.118
276.912	772.204
281.756	193.389
286.598	255.658
291.438	860.858
296.276	1492.41
301.111	1615.73
305.943	1229.99
310.773	1840.15
315.601	3314.2
320.426	4455.88
325.248	5725.82
330.068	10020.4
334.886	16389.8
339.701	19496.9
344.514	14640.7
349.324	6582.89
354.132	3388.29
358.938	2117.22
363.741	1671.25
368.541	1994.58
373.339	3157.67
378.135	4684.49
382.928	5209.02
387.718	5406.23
392.506	6060.1
397.292	6546.6
402.075	5645.72
406.856	5326.96
411.634	5379.24
416.41	4509.05
421.183	2313.39
425.954	664.23
430.722	45.5454
435.488	169.852
440.251	118.839
445.012	138.744
449.77	479.618
454.526	626.862
459.28	450.457
464.03	195.745
468.779	205.202
473.525	215.7
478.268	279.862
483.009	304.916
487.747	229.244
492.483	134.165
497.217	136.311
501.948	95.4277
506.676	472.952
511.402	1336.74
516.125	2383.93
520.846	2729.52
525.565	2432.51
530.281	2084.74
534.994	2236.17
539.705	2180.79
544.413	1774.53
549.119	1369.27
553.822	1085.99
558.523	952.636
563.222	1261.2
567.917	2417.66
572.611	3865
577.302	3839.94
581.99	2380.27
586.676	1317.19
591.359	979.021
596.04	599.718
600.718	236.263
605.394	59.6372
610.067	42.6776
614.737	54.2999
619.406	198.835
624.071	393.142
628.734	512.415
633.395	720.243
638.053	1176.78
642.708	1911.36
647.361	3707.41
652.012	7708.95
656.66	14346.4
661.305	18894.5
665.948	15622.7
670.588	12322.3
675.226	16413.1
679.861	24532.3
684.494	25809.7
689.124	15330.6
693.752	6612.21
698.377	3227.44
702.999	1889.29
707.619	1154.74
712.237	826.8
716.852	631.644
721.464	588.648
726.074	517.587
730.681	390.149
735.286	296.324
739.888	310.114
744.488	340.087
749.085	325.258
753.68	180.304
758.272	75.6125
762.861	47.5185
767.448	25.9595
772.033	0.793091
776.614	34.5233
781.194	37.868
785.77	19.8345
790.345	50.6925
794.916	80.459
799.485	89.1649
804.052	34.7744
808.616	6.01636
813.177	40.838
817.736	14.721
822.292	29.89
826.846	21.7938
831.397	146.499
835.945	100.043
840.491	152.442
845.035	337.715
849.576	710.878
854.114	973.947
858.65	832.929
863.183	496.834
867.713	386.673
872.241	296.464
876.767	282.223
881.29	310.974
885.81	356.827
890.328	498.791
894.843	563.378
899.356	425.871
903.866	399.163
908.373	530.03
912.878	776.069
917.38	1289.99
921.88	2281.26
926.377	3234.41
930.872	4013.82
935.364	4489.94
939.853	3727.99
944.34	2428.45
948.824	1492.24
953.306	1096.75
957.785	923.658
962.261	920.545
966.735	922.602
971.207	1109.78
975.675	1227.48
980.141	1685.69
984.605	2373.36
989.066	3637.48
993.524	6466.07
997.98	12306.1
1002.43	26658.5
1006.88	49784.3
1011.33	56150.6
1015.78	34966.3
1020.22	24825.4
1024.66	23517
1029.1	23417.9
1033.53	19667.2
1037.97	14064.1
1042.4	9298.77
1046.82	5525.19
1051.25	3473.3
1055.67	2322.42
1060.09	1700.24
1064.51	1206.73
1068.92	822.683
1073.33	558.193
1077.74	463.907
1082.15	336.226
1086.55	314.449
1090.95	207.201
1095.35	186.26
1099.75	120.992
1104.14	143.256
1108.53	142.182
1112.92	106.107
1117.31	121.029
1121.69	164.812
1126.07	178.456
1130.45	159.826
1134.82	176.892
1139.19	103.067
1143.57	92.8389
1147.93	34.9503
1152.3	41.044
1156.66	30.8705
1161.02	39.8307
1165.38	3.4823
1169.73	10.8415
1174.08	30.7422
1178.43	35.2455
1182.78	3.72083
1187.12	13.0759
1191.46	25.0875
1195.8	54.3773
1200.14	37.0415
1204.47	4.80115
1208.8	66.7169
1213.13	28.8748
1217.46	19.2794
1221.78	21.028
1226.1	15.9011
1230.42	12.63
1234.73	36.3397
1239.04	37.0821
1243.35	72.9825
1247.66	28.4761
1251.97	10.531
1256.27	50.1494
1260.57	84.4169
1264.86	51.348
1269.16	72.9073
1273.45	101.132
1277.74	146.974
1282.03	123.483
1286.31	92.6612
1290.59	147.516
1294.87	185.981
1299.14	190.003
1303.42	195.832
1307.69	192.997
1311.95	173.736
1316.22	207.441
1320.48	192.441
1324.74	161.695
1329	164.703
1333.26	160.807
1337.51	174.137
1341.76	117.747
1346	162.894
1350.25	153.835
1354.49	203.958
1358.73	149.041
1362.96	169.482
1367.2	162.244
1371.43	139.613
1375.66	170.894
1379.88	172.994
1384.11	181.677
1388.33	89.3713
1392.54	87.4558
1396.76	128.13
1400.97	135.948
1405.18	121.289
1409.39	165.337
1413.59	85.6854
1417.8	81.9788
1421.99	86.5491
1426.19	170.651
1430.38	100.519
1434.58	113.132
1438.77	125.515
1442.95	176.662
1447.13	163.164
1451.32	135.849
1455.49	115.596
1459.67	131.662
1463.84	131.131
1468.01	69.0437
1472.18	89.3791
1476.35	83.9009
1480.51	69.5398
1484.67	90.1858
1488.83	105.817
1492.98	41.4363
1497.13	123.981
1501.28	53.5344
1505.43	24.1616
1509.57	73.9485
1513.71	61.011
1517.85	75.3689
1521.99	52.9524
1526.12	3.30591
1530.25	47.2766
1534.38	84.0251
1538.5	106.837
1542.62	80.3982
1546.74	40.9329
1550.86	60.9622
1554.98	59.604
1559.09	13.3289
1563.2	52.7324
1567.31	10.5718
