Measurement: Raman, 514 nm, ccw, Raman Data Processed
Mineral: Enstatite
Rruff sample: R070418
Ideal chemistry: MgSiO_3_
Locality: India
Source: Michael Scott
Description: Brown translucent fragments
Measured chemistry: (Mg_0.86_Fe_0.14_)_Î£=1_Si_1.00_O_3_; trace amounts of Al, Ca, Mn
Pin_id: L01848
Orientation: Laser parallel to a* (1 0 0). Fiducial mark perpendicular to laser is parallel to b [0 1 0]
Raman shift (cm-1)	intensity
112.889	0
117.854	2301.82
122.816	9982.02
127.775	31012.9
132.73	23776.8
137.683	7258.39
142.633	2775.31
147.579	645.059
152.522	52.8857
157.462	81.374
162.4	115.748
167.334	468.517
172.265	296.902
177.193	421.729
182.117	562.217
187.039	1351.86
191.958	1392.72
196.874	1418.51
201.787	1657.38
206.696	384.844
211.603	164.176
216.506	127.869
221.407	338.152
226.304	1503.24
231.199	3829.21
236.091	5990.86
240.979	2066.62
245.864	238.669
250.747	152.074
255.626	171.841
260.503	60.0322
265.376	156.945
270.247	245.701
275.114	63.02
279.979	166.029
284.84	6.18213
289.699	535.812
294.554	1187.37
299.407	1433.59
304.257	1159.3
309.103	1466.31
313.947	2311.9
318.788	3855.16
323.626	7802.15
328.461	15875.1
333.292	32362.4
338.121	54251.8
342.947	49489.1
347.771	25825.9
352.591	13378.9
357.408	8171.53
362.222	5458.63
367.034	4108.35
371.842	3636.27
376.648	3373.52
381.45	3441.19
386.25	4219.31
391.047	6803.91
395.841	9956.42
400.632	11798.9
405.42	10587.5
410.205	9028.38
414.988	7352.69
419.767	6174.23
424.544	4636.11
429.318	4409.76
434.089	6772.96
438.857	9989.26
443.622	6570.72
448.384	2545.39
453.143	1544.39
457.9	1238.76
462.654	941.567
467.405	789.83
472.153	502.578
476.898	232.892
481.64	102.85
486.38	14.331
491.116	8.78174
495.85	64.2319
500.581	94.9766
505.309	54.2627
510.035	120.238
514.757	409.541
519.477	869.101
524.194	1294.62
528.908	1223.13
533.62	1872.82
538.328	2407.18
543.034	1564.84
547.737	1339.57
552.437	957.999
557.134	421.494
561.829	359.019
566.521	177.172
571.21	342.46
575.896	224.216
580.58	215.981
585.261	339.74
589.939	368.508
594.614	372.294
599.286	327.11
603.956	285.963
608.623	251.861
613.287	404.81
617.949	669.82
622.608	1216.08
627.264	1837.39
631.917	1786.67
636.568	1985.82
641.215	3458.95
645.861	5809.53
650.503	11095.7
655.143	22352.2
659.78	38024
664.414	35921.2
669.046	24238
673.674	27051.3
678.301	41942.6
682.924	52353
687.545	34721.4
692.163	15919.1
696.778	7846.77
701.391	4479.34
706.001	2967.85
710.609	1931.27
715.213	1330.59
719.815	938.802
724.415	637.915
729.011	581.927
733.606	478.837
738.197	433.649
742.786	402.363
747.372	446.979
751.955	481.5
756.536	170.924
761.114	31.2607
765.69	82.6231
770.262	62
774.833	67.9912
779.4	87.2578
783.965	20.3223
788.528	100.448
793.087	16.1562
797.645	84.937
802.199	10.6221
806.751	109.161
811.3	11.3457
815.847	50.5938
820.391	102.695
824.933	97.6724
829.471	115.622
834.008	57.5737
838.541	348.536
843.073	677.518
847.601	1068.53
852.127	2064.58
856.65	3583.67
861.171	3817.82
865.69	2754.03
870.205	1789.31
874.718	1010.68
879.229	770.127
883.737	449.674
888.242	424.326
892.745	501.09
897.246	471.976
901.743	338.809
906.239	226.176
910.731	345.313
915.221	184.36
919.709	215.66
924.194	334.981
928.677	704.923
933.157	912.91
937.634	1233.21
942.109	1123.09
946.582	802.867
951.052	685.308
955.519	608.957
959.984	512.078
964.447	286.44
968.906	217.054
973.364	266.606
977.819	215.291
982.271	669.318
986.721	1224.69
991.169	2223.41
995.614	4580.47
1000.06	8433.87
1004.5	12593.6
1008.93	15616.7
1013.37	15565.1
1017.8	15534.9
1022.23	14839
1026.66	13065.4
1031.09	10107.1
1035.51	6847.24
1039.93	4129.72
1044.35	2572.77
1048.76	1717.45
1053.17	1109.04
1057.58	806.015
1061.99	494.328
1066.4	438.528
1070.8	401.056
1075.2	273.147
1079.6	490.411
1084	622.757
1088.39	388.142
1092.78	310.315
1097.17	241.084
1101.56	352.353
1105.94	305.774
1110.32	354.42
1114.7	450.989
1119.08	443.17
1123.45	553.133
1127.82	223.853
1132.19	332.317
1136.56	266.088
1140.92	213.868
1145.29	148.648
1149.65	122.419
1154	59.167
1158.36	147.886
1162.71	187.561
1167.06	111.186
1171.41	296.748
1175.76	64.2314
1180.1	43.375
1184.44	44.7842
1188.78	50.8066
1193.11	77.4951
1197.45	1.62695
1201.78	9.70703
1206.11	199.713
1210.43	55.1289
1214.76	78.9639
1219.08	29.2725
1223.4	18.0615
1227.72	5.60938
1232.03	124.361
1236.35	121.875
1240.66	135.129
1244.96	47.1494
1249.27	182.918
1253.57	182.519
1257.88	303.97
1262.17	339.198
1266.47	423.197
1270.76	523.967
1275.06	434.506
1279.35	542.812
1283.63	224.881
1287.92	512.626
1292.2	516.295
1296.48	487.638
1300.76	425.761
1305.04	585.658
1309.31	840.793
1313.58	704.367
1317.85	767.29
1322.12	596.975
1326.38	398
1330.64	364.762
1334.9	174.535
1339.16	218.654
1343.41	250.677
1347.67	225.64
1351.92	231.882
1356.17	173.662
1360.41	179.446
1364.66	243.961
1368.9	205.273
1373.14	309.297
1377.38	240.452
1381.61	225.7
1385.84	336.828
1390.08	194.43
1394.3	198.535
1398.53	82.1523
1402.75	195.922
1406.97	143.398
1411.19	226.653
1415.41	256.519
1419.63	134.461
1423.84	107.615
1428.05	290.865
1432.26	411.181
1436.46	613.659
1440.67	862.537
1444.87	1244.78
1449.07	1400.83
1453.27	1348.05
1457.46	1228.78
1461.66	1249.42
1465.85	872.731
1470.04	634.253
1474.22	626.736
1478.41	475.092
1482.59	366.531
1486.77	298.091
1490.95	94.8369
1495.12	161.837
1499.3	59.999
1503.47	11.7168
1507.63	185.181
1511.8	26.2666
1515.97	84.8428
1520.13	190.852
1524.29	32.4297
1528.45	306.732
1532.61	264.771
1536.76	224.219
1540.91	48.248
1545.06	45.9795
1549.21	170.49
1553.35	221.014
1557.5	29.3945
1561.64	66.2295
