Measurement: Raman, 514 nm, ccw, Raman Data Processed
Mineral: Enstatite
Rruff sample: R060744
Ideal chemistry: MgSiO_3_
Locality: Orissa, India
Source: Herb Obodda
Description: Brown transparent fragment
Measured chemistry: (Mg_0.85_Fe^2+^_0.13_Fe^3+^_0.01_Mn_0.01_)_Σ=1_(Si_0.99_Al_0.01_)_Σ=1_O_3_; trace amounts of Ca; Fe^2+^ and Fe^3+^ splitted by charge balance
Pin_id: L01935
Orientation: Laser parallel to -a* (-1 0 0). Fiducial mark perpendicular to laser is parallel to -b [0 -1 0]
Raman shift (cm-1)	intensity
113.208	0
118.134	43.9085
123.058	136.315
127.979	102.166
132.898	431.82
137.814	1210.25
142.728	2233.76
147.639	2464.32
152.549	1733.58
157.455	1316.85
162.359	1362.01
167.261	1007.93
172.161	935.095
177.058	1320.31
181.952	2475.06
186.845	4867.64
191.734	4263.69
196.622	2549.52
201.507	1444.58
206.389	866.739
211.269	817.161
216.147	1184.94
221.022	2232.68
225.895	5092.22
230.765	11043.6
235.633	10586
240.498	3973.22
245.361	1072.21
250.222	426.94
255.08	136.831
259.936	0.744629
264.789	235.969
269.64	199.597
274.488	108.493
279.334	518.088
284.178	1072.88
289.019	2442.58
293.857	4102.01
298.693	3635.06
303.527	3144.34
308.358	4300.85
313.187	6988.66
318.013	9015.81
322.837	11064.7
327.659	18748.8
332.478	35961.8
337.294	51609.3
342.108	37569.5
346.92	19568.3
351.729	10779.3
356.535	7369.59
361.34	5856.04
366.141	6072.56
370.94	7279.52
375.737	9345.51
380.531	10790
385.323	13966
390.113	21021.4
394.9	27595.3
399.684	25986.7
404.466	20512.6
409.245	15564
414.022	10912.7
418.797	6881.91
423.569	3761.9
428.338	1980.38
433.105	1340.32
437.87	911.712
442.632	434.533
447.391	429.779
452.149	387.443
456.903	186.517
461.655	2.60547
466.405	75.0476
471.152	90.2136
475.897	180.477
480.639	302.557
485.378	208.791
490.116	17.5544
494.85	72.4182
499.582	45.2974
504.312	732.678
509.039	1886.86
513.764	4544.85
518.486	7165.68
523.206	8159.3
527.923	5927.43
532.638	6989.86
537.35	6937.62
542.059	5803.59
546.766	6125.75
551.471	3796.61
556.173	2129.57
560.873	1868.23
565.57	2422.04
570.264	3337.91
574.957	3181.83
579.646	1723.77
584.333	1114.72
589.018	712.812
593.7	384.574
598.379	78.4419
603.056	4.09375
607.73	5.20947
612.402	23.1477
617.072	30.8355
621.739	108.335
626.403	323.726
631.065	635.788
635.724	1059.11
640.381	1955.32
645.035	3828.32
649.687	7978.07
654.336	16459
658.983	24517.8
663.627	18508.8
668.268	13365.2
672.907	16910
677.544	25681.5
682.178	26332.2
686.809	14635.9
691.438	6780.99
696.065	3513.34
700.688	2070.18
705.31	1462.5
709.929	1131.3
714.545	841.572
719.158	747.326
723.77	700.557
728.378	663.266
732.984	636.453
737.588	584.123
742.189	515.255
746.787	693.681
751.383	625.418
755.976	255.946
760.567	135.657
765.155	91.9517
769.741	12.3203
774.324	46.6221
778.904	26.1375
783.482	83.8235
788.058	113.952
792.631	103.573
797.201	77.6724
801.769	0.888428
806.334	12.2456
810.897	43.0923
815.457	8.97095
820.014	608.561
824.569	69.904
829.122	33.0212
833.671	84.9617
838.219	145.763
842.763	263.451
847.306	629.051
851.845	1290.59
856.382	1924.09
860.917	1775.57
865.448	1296.06
869.978	726.586
874.505	454.168
879.029	381.883
883.55	291.975
888.069	519.538
892.586	543.472
897.1	641.668
901.611	541.729
906.12	661.92
910.626	1017.15
915.129	1564.65
919.63	3040.47
924.129	5721.45
928.625	6907.01
933.118	7713.17
937.609	7835.74
942.097	6164.58
946.582	4341.25
951.065	2859.36
955.546	1950.56
960.023	1603.32
964.499	1431.92
968.971	1290.62
973.441	1364.12
977.909	1832.4
982.374	2702.47
986.836	4392.31
991.295	8033.87
995.753	15140.2
1000.21	28639.2
1004.66	48392.9
1009.11	54803.4
1013.55	46426.5
1018	44491.3
1022.44	43359.2
1026.88	40783.9
1031.32	34537.7
1035.75	24836.2
1040.18	16855.4
1044.61	10932.1
1049.04	7249.83
1053.46	5118
1057.88	3316.15
1062.3	2241.34
1066.71	1465.65
1071.13	1107.06
1075.54	778.598
1079.94	597.819
1084.35	479.693
1088.75	378.325
1093.15	330.883
1097.55	264.692
1101.94	283.253
1106.34	339.66
1110.73	175.155
1115.11	159.295
1119.5	258.554
1123.88	255.111
1128.26	187.371
1132.63	220.272
1137.01	138.534
1141.38	175.601
1145.75	55.5505
1150.12	60.6697
1154.48	9.51489
1158.84	69.835
1163.2	73.0789
1167.55	95.3872
1171.91	60.4756
1176.26	15.168
1180.61	1.9082
1184.95	19.6484
1189.29	19.501
1193.63	21.8838
1197.97	44.831
1202.31	33.4353
1206.64	34.9072
1210.97	13.4761
1215.29	26.7361
1219.62	19.3511
1223.94	38.0242
1228.26	58.5391
1232.57	0.285645
1236.89	7.27661
1241.2	16.4619
1245.51	20.0637
1249.81	68.9685
1254.12	73.1648
1258.42	79.7124
1262.72	182.665
1267.01	160.095
1271.3	161.865
1275.59	167.072
1279.88	244.675
1284.17	254.249
1288.45	257.328
1292.73	250.226
1297.01	249.556
1301.28	185.324
1305.55	175.907
1309.82	348.014
1314.09	303.781
1318.35	262.589
1322.61	284.551
1326.87	246.512
1331.13	219.418
1335.38	226.442
1339.63	117.88
1343.88	171.553
1348.12	239.751
1352.37	155.371
1356.61	217.462
1360.85	216.941
1365.08	213.094
1369.31	281.157
1373.54	132.081
1377.77	225.488
1381.99	147.84
1386.22	201.924
1390.43	185.353
1394.65	163.247
1398.87	199.273
1403.08	148.79
1407.29	155.139
1411.49	221.755
1415.69	146.675
1419.89	200.381
1424.09	137.926
1428.29	179.64
1432.48	102.895
1436.67	191.522
1440.86	132.928
1445.04	191.163
1449.23	213.397
1453.4	183.446
1457.58	138.634
1461.76	128.273
1465.93	125.453
1470.1	132.013
1474.26	229.695
1478.43	170.659
1482.59	146.55
1486.75	127.477
1490.9	107.402
1495.06	137.167
1499.21	98.0371
1503.35	20.9927
1507.5	5.89941
1511.64	64.4612
1515.78	47.2595
1519.92	125.379
1524.05	21.2925
1528.18	144.232
1532.31	102.01
1536.44	80.8215
1540.56	23.1748
1544.69	48.7878
1548.8	90.7334
1552.92	163.567
1557.03	16.5596
1561.14	14.7407
1565.25	0.853027
1569.36	0.104492
