Measurement: Raman, 514 nm, ccw, Raman Data Processed
Mineral: Enstatite
Rruff sample: R050644
Ideal chemistry: MgSiO_3_
Locality: Morogoro, Tanzania
Source: Jibamitra Ganguly
Description: Light brown crystal fragment
Measured chemistry: (Mg_0.90_Fe_0.10_)SiO_3_
Pin_id: L01052
Orientation: Laser parallel to b* (0 1 0). Fiducial mark perpendicular to laser is parallel to c [0 0 1]
Raman shift (cm-1)	intensity
113.208	0
118.134	2023.97
123.058	9915.2
127.979	15592.2
132.898	13853
137.814	5978.62
142.728	1266.31
147.639	615.613
152.549	272.369
157.455	58.7441
162.359	37.7363
167.261	16.752
172.161	121.029
177.058	20.9219
181.952	335.58
186.845	559.264
191.734	827.436
196.622	1073.81
201.507	1068.51
206.389	692.762
211.269	255.131
216.147	4.44922
221.022	359.572
225.895	1375.07
230.765	2598.97
235.633	2593.72
240.498	1655.61
245.361	207.769
250.222	42.7988
255.08	190.506
259.936	9.46484
264.789	18.8066
269.64	29.1641
274.488	187.438
279.334	78.3438
284.178	18.2051
289.019	245.822
293.857	615.178
298.693	880.246
303.527	844.814
308.358	687.232
313.187	1075.14
318.013	2056.43
322.837	4218.96
327.659	10361.6
332.478	21450.5
337.294	28880.7
342.108	27023
346.92	16057.4
351.729	7822.79
356.535	4347.86
361.34	2954.87
366.141	2370.8
370.94	2204.81
375.737	2097.76
380.531	2026.68
385.323	2501.54
390.113	4507.35
394.9	6243.7
399.684	6951.4
404.466	6534.6
409.245	6105.58
414.022	6076.77
418.797	5081.74
423.569	3748.38
428.338	2763.93
433.105	3864.36
437.87	5070.92
442.632	4564.37
447.391	2421.89
452.149	988.443
456.903	578.869
461.655	681.492
466.405	380.344
471.152	260.252
475.897	39.1797
480.639	182.115
485.378	109.072
490.116	83.7168
494.85	28.1016
499.582	158.977
504.312	41.7227
509.039	170.281
513.764	268.58
518.486	575.231
523.206	572.309
527.923	880.783
532.638	942.516
537.35	1333.6
542.059	1024.39
546.766	772.6
551.471	613.061
556.173	429.877
560.873	336.387
565.57	77.9082
570.264	206.916
574.957	23.2598
579.646	141.822
584.333	164.606
589.018	218.559
593.7	217.676
598.379	128.023
603.056	314.609
607.73	285.434
612.402	366.492
617.072	441.68
621.739	711.496
626.403	1033.72
631.065	1092.85
635.724	1295.95
640.381	2301.28
645.035	3777.48
649.687	7123.85
654.336	14589.4
658.983	20367.2
663.627	18947
668.268	14093.5
672.907	15776
677.544	23260.7
682.178	26211.7
686.809	19828.9
691.438	10167.4
696.065	4607.1
700.688	2681.07
705.31	1728.27
709.929	1315.7
714.545	806.344
719.158	556.215
723.77	281.309
728.378	432.473
732.984	465.789
737.588	330.574
742.189	462.606
746.787	240.859
751.383	147.363
755.976	145.098
760.567	152.144
765.155	113.652
769.741	23.5859
774.324	20.8281
778.904	39.582
783.482	42.1523
788.058	94.0312
792.631	16.543
797.201	234.305
801.769	4.67969
806.334	127.957
810.897	63.7539
815.457	165.871
820.014	100.289
824.569	78.1094
829.122	147.207
833.671	205.348
838.219	378.121
842.763	720.777
847.306	1612.25
851.845	2322.09
856.382	2811.28
860.917	1976.84
865.448	1219.82
869.978	564.188
874.505	592.934
879.029	209.059
883.55	217.582
888.069	130.559
892.586	110.914
897.1	236.707
901.611	173.848
906.12	150.695
910.626	259.871
915.129	14.0352
919.63	436.273
924.129	206.43
928.625	529.965
933.118	910.867
937.609	806.715
942.097	758.59
946.582	511.656
951.065	508.398
955.546	282.668
960.023	170.438
964.499	33.2852
968.971	365.559
973.441	402.977
977.909	289.812
982.374	420.352
986.836	583.746
991.295	1187.85
995.753	2026.35
1000.21	3546.27
1004.66	5182.63
1009.11	6577.39
1013.55	7020.52
1018	7463.34
1022.44	8143.19
1026.88	8306.43
1031.32	7401.2
1035.75	5009.26
1040.18	3179.86
1044.61	2015.92
1049.04	1291.4
1053.46	722.996
1057.88	714.863
1062.3	699.316
1066.71	669.168
1071.13	471.945
1075.54	193.106
1079.94	493.336
1084.35	340.863
1088.75	485.121
1093.15	425.164
1097.55	559.699
1101.94	673.754
1106.34	384.488
1110.73	535.383
1115.11	529.727
1119.5	944.68
1123.88	492.918
1128.26	530.086
1132.63	373.731
1137.01	493.789
1141.38	216.238
1145.75	13.8359
1150.12	557.781
1154.48	410.16
1158.84	199.59
1163.2	369.981
1167.55	415.066
1171.91	235.57
1176.26	455.969
1180.61	199.941
1184.95	221.481
1189.29	311.164
1193.63	154.09
1197.97	64.2891
1202.31	271.215
1206.64	278.566
1210.97	120.434
1215.29	247.691
1219.62	9.44922
1223.94	254.707
1228.26	12.4219
1232.57	45.4961
1236.89	131.043
1241.2	234.262
1245.51	67.1523
1249.81	323.684
1254.12	216.875
1258.42	175.727
1262.72	142.176
1267.01	28.2344
1271.3	280.734
1275.59	459.481
1279.88	258.621
1284.17	0.597656
1288.45	400.894
1292.73	332.742
1297.01	12.3789
1301.28	3.22266
1305.55	456.965
1309.82	320.43
1314.09	501.852
1318.35	836.297
1322.61	210.211
1326.87	626.094
1331.13	430.856
1335.38	550.883
1339.63	109.844
1343.88	407.457
1348.12	291.777
1352.37	343.211
1356.61	164.879
1360.85	196.652
1365.08	121.672
1369.31	313.398
1373.54	144.418
1377.77	245.516
1381.99	379.598
1386.22	513.684
1390.43	178.137
1394.65	12.2969
1398.87	38.1133
1403.08	174.977
1407.29	222.336
1411.49	70.0234
1415.69	350.383
1419.89	346.961
1424.09	63.8984
1428.29	127.215
1432.48	314.43
1436.67	701.301
1440.86	863.102
1445.04	1068.43
1449.23	792.559
1453.4	932.391
1457.58	966.68
1461.76	859.34
1465.93	507.699
1470.1	634.715
1474.26	451.965
1478.43	530.496
1482.59	395.438
1486.75	134.516
1490.9	608.066
1495.06	298.305
1499.21	371.352
1503.35	377.25
1507.5	397.66
1511.64	478.34
1515.78	41.7969
1519.92	303.086
1524.05	404.184
1528.18	445.223
1532.31	70.9844
1536.44	546.676
1540.56	210.398
1544.69	235.531
1548.8	130.805
1552.92	403.352
1557.03	197.543
1561.14	209.988
1565.25	288.465
1569.36	1.27344
