Measurement: Raman, 514 nm, ccw, Raman Data Processed
Mineral: Enstatite
Rruff sample: R070550
Ideal chemistry: MgSiO_3_
Locality: Tanzania
Source: www.multicolour.com
Description: Brown, translucent, vitreous crystal fragment
Measured chemistry: (Mg_0.90_Fe_0.10_)_Î£=1_Si_1.00_O_3_
Pin_id: L01656
Orientation: Laser parallel to a* (1 0 0). Fiducial mark perpendicular to laser is parallel to -b [0 -1 0]
Raman shift (cm-1)	intensity
112.889	0
117.854	35.0062
122.816	28.7642
127.775	229.788
132.73	380.979
137.683	574.422
142.633	979.072
147.579	1499.28
152.522	1449.66
157.462	1019.36
162.4	846.721
167.334	653.043
172.265	298.427
177.193	363.917
182.117	1159.48
187.039	3034.78
191.958	5025.59
196.874	3559.04
201.787	1763.35
206.696	816.407
211.603	506.248
216.506	646.838
221.407	1128.17
226.304	2696.43
231.199	6346.22
236.091	11875.1
240.979	6568.02
245.864	1725.16
250.747	347.309
255.626	195.864
260.503	214.097
265.376	244.903
270.247	40.7849
275.114	118.354
279.979	132.032
284.84	221.765
289.699	841.221
294.554	2313.18
299.407	3450.47
304.257	2354.87
309.103	2002.29
313.947	3027.69
318.788	5542.04
323.626	6530.3
328.461	9326.53
333.292	18501.8
338.121	34798
342.947	36052.5
347.771	18688.9
352.591	8601.16
357.408	5016.75
362.222	3606.65
367.034	3163.01
371.842	3665.16
376.648	5339.32
381.45	7073.4
386.25	7438.98
391.047	9445.03
395.841	14084.6
400.632	15621.5
405.42	12618
410.205	10893.6
414.988	10080
419.767	7559.22
424.544	3941.44
429.318	1514.24
434.089	616.587
438.857	322.447
443.622	272.795
448.384	250.607
453.143	572.859
457.9	515.532
462.654	225.603
467.405	78.3389
472.153	21.3066
476.898	104.299
481.64	251.291
486.38	308.794
491.116	28.6704
495.85	245.57
500.581	183.101
505.309	82.4963
510.035	755.337
514.757	2243.65
519.477	3926.48
524.194	5450.91
528.908	4623.87
533.62	3757.31
538.328	4719.36
543.034	3784.32
547.737	3409.59
552.437	3111.15
557.134	1748.16
561.829	1192.28
566.521	1525.39
571.21	2628.48
575.896	3873.53
580.58	3167.52
585.261	1587.43
589.939	1040.24
594.614	892.948
599.286	400.523
603.956	109.177
608.623	17.1597
613.287	80.8123
617.949	74.1094
622.608	273.207
627.264	358.087
631.917	678.076
636.568	835.706
641.215	1486.79
645.861	2670.75
650.503	5190.89
655.143	11051.1
659.78	20561.3
664.414	21954.9
669.046	14230
673.674	13139
678.301	20005
682.924	27978.4
687.545	22126.4
692.163	10142.3
696.778	4643.52
701.391	2486.16
706.001	1619.33
710.609	1067.05
715.213	838.299
719.815	637.087
724.415	564.249
729.011	547.267
733.606	472.66
738.197	377.188
742.786	377.891
747.372	599.054
751.955	573.183
756.536	308.562
761.114	82.4075
765.69	33.7634
770.262	18.5044
774.833	22.0054
779.4	39.4133
783.965	47.3442
788.528	100.222
793.087	24.0469
797.645	80.9665
802.199	58.0764
806.751	116.249
811.3	46.488
815.847	47.4241
820.391	43.7981
824.933	20.1375
829.471	57.5884
834.008	17.0654
838.541	105.337
843.073	257.424
847.601	601.348
852.127	1243.13
856.65	1669.8
861.171	1409.36
865.69	844.847
870.205	487.272
874.718	362.756
879.229	339.024
883.737	288.444
888.242	444.065
892.745	633.78
897.246	612.158
901.743	546.121
906.239	599.096
910.731	676.012
915.221	1126.72
919.709	2180.29
924.194	4087.34
928.677	5689.44
933.157	5861.27
937.634	5897.81
942.109	4286.91
946.582	2626.22
951.052	1653.62
955.519	1210.26
959.984	959.518
964.447	961.937
968.906	1029.27
973.364	1015.28
977.819	1407.9
982.271	1895.22
986.721	2742.22
991.169	4450.77
995.614	7976.89
1000.06	15803.6
1004.5	32081.9
1008.93	51794.6
1013.37	44914
1017.8	33423.8
1022.23	33307.2
1026.66	36208
1031.09	34908.3
1035.51	26933.2
1039.93	18059.8
1044.35	11490.7
1048.76	6865.9
1053.17	4533.5
1057.58	3132.87
1061.99	2099.25
1066.4	1378.91
1070.8	984.21
1075.2	671.928
1079.6	525.183
1084	408.573
1088.39	323.795
1092.78	260.773
1097.17	196.133
1101.56	193.637
1105.94	150.138
1110.32	142.75
1114.7	129.884
1119.08	298.998
1123.45	294.462
1127.82	208.076
1132.19	205.265
1136.56	166.887
1140.92	132.032
1145.29	761.867
1149.65	1016.89
1154	33.0952
1158.36	38.4019
1162.71	92.5469
1167.06	4.34912
1171.41	41.6992
1175.76	39.6611
1180.1	18.4883
1184.44	2.17188
1188.78	7.58301
1193.11	29.3037
1197.45	31.4619
1201.78	49.0361
1206.11	90.0098
1210.43	60.6177
1214.76	3.57959
1219.08	54.6323
1223.4	85.1831
1227.72	10.4053
1232.03	15.4102
1236.35	0.905762
1240.66	26.4932
1244.96	19.7456
1249.27	29.0264
1253.57	25.9331
1257.88	22.1421
1262.17	88.9463
1266.47	141.054
1270.76	94.7183
1275.06	169.944
1279.35	161.723
1283.63	154.062
1287.92	267.959
1292.2	230.455
1296.48	278.476
1300.76	237.1
1305.04	211.543
1309.31	255.583
1313.58	236.608
1317.85	205.287
1322.12	206.381
1326.38	265.867
1330.64	238.025
1334.9	183.155
1339.16	166.542
1343.41	153.207
1347.67	145.468
1351.92	224.71
1356.17	180.469
1360.41	250.366
1364.66	187.204
1368.9	197.989
1373.14	169.588
1377.38	225.828
1381.61	231.25
1385.84	84.5527
1390.08	141.795
1394.3	105.285
1398.53	153.61
1402.75	109.6
1406.97	117.891
1411.19	153.864
1415.41	97.9619
1419.63	120.116
1423.84	127.562
1428.05	240.858
1432.26	111.652
1436.46	203.168
1440.67	193.62
1444.87	185.717
1449.07	206.336
1453.27	227.942
1457.46	238.622
1461.66	143.092
1465.85	136.736
1470.04	123.915
1474.22	108.352
1478.41	73.98
1482.59	154.934
1486.77	134.858
1490.95	39.7573
1495.12	102.544
1499.3	26.3648
1503.47	6.31592
1507.63	28.5459
1511.8	87.2056
1515.97	39.2456
1520.13	61.6074
1524.29	163.263
1528.45	95.2046
1532.61	99.394
1536.76	77.9404
1540.91	99.4023
1545.06	94.939
1549.21	161.896
1553.35	98.2739
1557.5	46.4898
1561.64	61.4932
