Measurement: Raman, 514 nm, ccw, Raman Data Processed
Mineral: Enstatite
Rruff sample: R060630
Ideal chemistry: MgSiO_3_
Locality: unknown
Source: Gemological Institute of America
Description: Tan colored fragment
Measured chemistry: (Mg_0.89_Fe_0.07_Al_0.04_)_Σ=1_(Si_0.96_Al_0.04_)_Σ=1_O_3_
Pin_id: L01005
Orientation: Laser parallel to c* (0 0 1). Fiducial mark perpendicular to laser is parallel to a [1 0 0]
Raman shift (cm-1)	intensity
118.134	0
123.058	84.4814
127.979	1.20361
132.898	76.5913
137.814	160.121
142.728	171.01
147.639	356.749
152.549	340.369
157.455	254.567
162.359	89.0122
167.261	33.0459
172.161	67.2798
177.058	83.4287
181.952	83.9741
186.845	262.353
191.734	325.404
196.622	661.021
201.507	1062.02
206.389	1121.75
211.269	1076.35
216.147	1120.66
221.022	1697.68
225.895	2994.62
230.765	5468.14
235.633	7620.17
240.498	5352.9
245.361	2095.78
250.222	905.027
255.08	584.585
259.936	493.565
264.789	296.508
269.64	393.904
274.488	778.151
279.334	999.146
284.178	831.241
289.019	642.213
293.857	873.168
298.693	764.208
303.527	756.286
308.358	835.962
313.187	1459.19
318.013	2568.91
322.837	3827.44
327.659	4737.73
332.478	5150.9
337.294	6037.73
342.108	7837.59
346.92	9077.3
351.729	8222.42
356.535	6296.24
361.34	4498.58
366.141	3208.37
370.94	2403.69
375.737	2120.21
380.531	1914.91
385.323	1676.78
390.113	1413.8
394.9	1183.95
399.684	1050.24
404.466	949.667
409.245	720.232
414.022	609.073
418.797	398.203
423.569	274.587
428.338	144.2
433.105	69.9971
437.87	13.1016
442.632	165.911
447.391	340.08
452.149	355.402
456.903	466.867
461.655	224.462
466.405	89.1846
471.152	44.062
475.897	48.3994
480.639	120.028
485.378	24.0127
490.116	41.2695
494.85	112.81
499.582	103.823
504.312	4.91211
509.039	66.5557
513.764	94.4356
518.486	190.726
523.206	401.484
527.923	710.87
532.638	1123.57
537.35	1288.63
542.059	938.819
546.766	579.101
551.471	404.394
556.173	209.683
560.873	157.958
565.57	425.214
570.264	565.438
574.957	676.678
579.646	616.026
584.333	416.149
589.018	212.197
593.7	337.187
598.379	195.113
603.056	371.969
607.73	265.749
612.402	507.766
617.072	596.874
621.739	795.674
626.403	1389.51
631.065	2103.18
635.724	3258.29
640.381	3788.95
645.035	4622.61
649.687	7053.02
654.336	10672.1
658.983	13225.5
663.627	12567.9
668.268	11633
672.907	13966.2
677.544	22012.7
682.178	32753.1
686.809	34204.8
691.438	23033.8
696.065	12430.5
700.688	6784.09
705.31	4166.45
709.929	3001.63
714.545	2177.63
719.158	1720.48
723.77	1252.18
728.378	1043.69
732.984	969.019
737.588	826.167
742.189	661.137
746.787	489.935
751.383	486.651
755.976	441.283
760.567	190.016
765.155	346.754
769.741	120.562
774.324	65.3975
778.904	89.1982
783.482	96.7217
788.058	26.8516
792.631	85.6865
797.201	104.137
801.769	189.624
806.334	16.6426
810.897	112.597
815.457	42.4111
820.014	70.2119
824.569	36.8525
829.122	105.457
833.671	251.046
838.219	336.631
842.763	354.226
847.306	460.841
851.845	662.488
856.382	678.18
860.917	659.924
865.448	670.732
869.978	595.615
874.505	707.584
879.029	430.656
883.55	392.858
888.069	538.257
892.586	446.833
897.1	826.578
901.611	924.582
906.12	941.876
910.626	1007.62
915.129	1169.42
919.63	1504.89
924.129	1708.74
928.625	2223.99
933.118	2574.68
937.609	2849.45
942.097	2868.91
946.582	3015.16
951.065	2839.68
955.546	2437.92
960.023	1947.03
964.499	1631.1
968.971	1492.59
973.441	1947.51
977.909	2514.88
982.374	4177.74
986.836	7206.98
991.295	13005.6
995.753	21963.6
1000.21	33268.9
1004.66	43784.8
1009.11	46075
1013.55	36432.9
1018	23487
1022.44	15674.8
1026.88	11654.1
1031.32	9386.99
1035.75	7534.54
1040.18	5408.33
1044.61	3845.58
1049.04	2653.26
1053.46	1951.84
1057.88	1342.86
1062.3	964.888
1066.71	704.58
1071.13	463.983
1075.54	425.478
1079.94	183.026
1084.35	48.0185
1088.75	255.18
1093.15	251.671
1097.55	102.532
1101.94	60.1123
1106.34	75.125
1110.73	111.981
1115.11	178.905
1119.5	196.572
1123.88	323.361
1128.26	170.931
1132.63	233.502
1137.01	125.013
1141.38	45.8018
1145.75	33.9785
1150.12	80.4023
1154.48	34.8428
1158.84	16.2324
1163.2	99.3926
1167.55	36.8457
1171.91	16.332
1176.26	39.6377
1180.61	61.4131
1184.95	7.12109
1189.29	1.05957
1193.63	9.41992
1197.97	65.6309
1202.31	100.114
1206.64	43.0049
1210.97	53.2812
1215.29	81.8457
1219.62	0.086914
1223.94	77.5068
1228.26	73.6621
1232.57	120.371
1236.89	50.4375
1241.2	159.135
1245.51	103.186
1249.81	125.809
1254.12	135.1
1258.42	97.8311
1262.72	67.1016
1267.01	190.902
1271.3	132.345
1275.59	81.0732
1279.88	189.508
1284.17	203.342
1288.45	163.73
1292.73	144.992
1297.01	111.326
1301.28	262.721
1305.55	191.883
1309.82	342.791
1314.09	174.349
1318.35	206.822
1322.61	363.924
1326.87	345.759
1331.13	186.725
1335.38	291.56
1339.63	174.799
1343.88	247.797
1348.12	104.363
1352.37	244.635
1356.61	136.944
1360.85	125.97
1365.08	274.69
1369.31	241.093
1373.54	154.683
1377.77	254.013
1381.99	85.333
1386.22	188.615
1390.43	227.769
1394.65	160.92
1398.87	140.651
1403.08	115.599
1407.29	2.75391
1411.49	335.93
1415.69	54.419
1419.89	176.468
1424.09	43.5791
1428.29	155.967
1432.48	82.4717
1436.67	24.1025
1440.86	182.987
1445.04	51.206
1449.23	168.969
1453.4	177.428
1457.58	108.155
1461.76	445.296
1465.93	227.487
1470.1	114.749
1474.26	77.3174
1478.43	188.847
1482.59	133.676
1486.75	140.618
1490.9	138.041
1495.06	105.139
1499.21	61.2412
1503.35	80.6309
1507.5	164.848
1511.64	110.838
1515.78	50.7158
1519.92	221.803
1524.05	112.454
1528.18	162.006
1532.31	225.701
1536.44	136.803
1540.56	174.676
1544.69	93.8418
1548.8	119.499
1552.92	125.335
1557.03	140.537
1561.14	158.134
1565.25	44.1309
1569.36	151.89
