Measurement: Raman, 514 nm, ccw, Raman Data Processed
Mineral: Epidote
Rruff sample: R040089
Ideal chemistry: Ca_2_Fe^3+^Al_2_(Si_2_O_7_)(SiO_4_)O(OH)
Locality: Grafton County, New Hampshire, USA
Source: University of Arizona Mineral Museum
Description: Dark green coarsely crystalline massive
Measured chemistry: Ca_2.00_(Al_2.36_Fe^3+^_0.64_)[Si_2.00_O_7_][Si_1.00_O_4_]O(OH)
Pin_id: M00383
Orientation: Laser parallel to a [1 0 0]. Fiducial mark perpendicular to laser is parallel to b* (0 1 0)
Raman shift (cm-1)	intensity
53.228	0
57.445	163.072
61.659	514.229
65.871	413.15
70.081	139.629
74.288	0.034
78.494	84.843
82.697	419.169
86.898	2068.37
91.097	5782.26
95.293	6825
99.488	4169.69
103.68	2716.49
107.87	2296.91
112.057	2401.94
116.243	1826
120.426	1280.95
124.608	1098.73
128.787	636.12
132.963	302.269
137.138	109.227
141.311	129.731
145.481	29.418
149.649	398.951
153.815	778.855
157.979	1479.74
162.14	1810.14
166.3	3149.91
170.457	6089.18
174.612	7737.8
178.765	5565.28
182.915	3080.39
187.064	1770.6
191.21	1047.98
195.355	721.908
199.497	1056.01
203.637	1930.32
207.774	2894.85
211.91	3369.58
216.043	3224.92
220.175	3640.24
224.304	4358.22
228.431	7031.15
232.556	11234.6
236.678	11908.9
240.799	8600.76
244.917	6859.81
249.034	6440.34
253.148	4952.79
257.26	2745.19
261.37	1575.79
265.477	1272.98
269.583	2088.81
273.686	4494.76
277.788	5971.03
281.887	3287.62
285.984	1773.74
290.079	1326.23
294.172	1475.14
298.263	1229.88
302.351	954.462
306.438	936.268
310.522	1326
314.604	1221.97
318.684	1004.27
322.762	1102.59
326.838	1391.85
330.912	2301.3
334.984	3840.97
339.053	5820.85
343.121	7430.98
347.186	11181.4
351.25	16452
355.311	15853
359.37	9423.27
363.427	4474.09
367.482	2205.94
371.535	1064.08
375.585	187.501
379.634	338.913
383.68	410.758
387.725	120.924
391.767	1389.05
395.808	2409.25
399.846	1519.81
403.882	140.922
407.916	330.542
411.948	345.692
415.978	317.374
420.006	1881.79
424.031	5340.8
428.055	9410.51
432.077	10880.9
436.096	12052.1
440.114	14944
444.129	17539.1
448.142	18490.3
452.154	19374.7
456.163	17940
460.17	15466.1
464.175	13013.1
468.178	11011.2
472.179	8550.35
476.178	6140.1
480.175	4440.26
484.17	3130.72
488.163	2631.41
492.153	2642.3
496.142	2673.38
500.129	3104.62
504.113	4116
508.096	5937.53
512.077	7949.19
516.055	8230.95
520.032	5542.84
524.006	3044.83
527.978	1672.9
531.949	863.051
535.917	526.926
539.883	492.494
543.848	558.425
547.81	668.928
551.77	1095.44
555.728	1958.04
559.685	3594.73
563.639	7909.56
567.591	18265.1
571.541	24440.4
575.489	12358.3
579.435	6482.76
583.38	6007.75
587.322	8042.81
591.262	11816.5
595.2	16455.8
599.136	24886.2
603.07	30750.3
607.002	29601.4
610.932	21694.1
614.86	15260.7
618.786	11664.2
622.71	7872.33
626.632	4818.93
630.552	3307.66
634.471	2382.95
638.387	1872.27
642.301	1460.17
646.213	1252.28
650.123	1046.19
654.031	1106.46
657.937	1346.09
661.842	1375.22
665.744	1309.86
669.644	1046.99
673.542	938.601
677.438	913.689
681.333	1097.24
685.225	1179.26
689.115	1197.72
693.004	1204.38
696.89	1286.28
700.775	1512.27
704.657	1473.23
708.538	1094.63
712.416	684.451
716.293	305.672
720.167	205.256
724.04	54.396
727.911	2.433
731.78	12.205
735.646	104.081
739.511	112.398
743.374	62.245
747.235	112.443
751.094	122.42
754.951	165.926
758.806	121.177
762.659	149.118
766.511	127.77
770.36	94.056
774.207	88.814
778.053	63.019
781.896	42.536
785.738	3.791
789.577	20.256
793.415	106.957
797.251	183.969
801.084	247.345
804.916	320.118
808.746	395.327
812.574	478.002
816.4	695.153
820.224	960.792
824.047	1320.93
827.867	1775.58
831.685	2242.75
835.502	2425.45
839.316	2755.7
843.129	2878.51
846.94	3099.88
850.749	3215.84
854.556	3677.39
858.361	4035.56
862.164	4762.38
865.965	5667.84
869.764	6484.38
873.562	7098.61
877.357	8220.57
881.151	9941.73
884.942	11626.2
888.732	13104.4
892.52	14767.2
896.306	16033.4
900.09	17824.4
903.872	21862.1
907.653	29246.4
911.431	37942.4
915.208	44056.7
918.982	42452.3
922.755	36654.5
926.526	28467.9
930.295	21107.8
934.062	15808.6
937.827	10812.8
941.59	7732.09
945.352	5723.26
949.112	4837.74
952.869	4297.04
956.625	4063.41
960.379	3900.16
964.131	3830.3
967.881	3327.74
971.63	3378.51
975.376	3940.58
979.121	5420.93
982.864	6969.61
986.605	5918.61
990.344	3588.92
994.081	2241.52
997.816	1519.43
1001.55	1014.13
1005.28	806.263
1009.01	645.178
1012.74	817.583
1016.47	1072.47
1020.19	1669.82
1023.91	2228.63
1027.63	2497.14
1031.35	2435.53
1035.07	2685.57
1038.78	3190.39
1042.49	3498.83
1046.21	3692.45
1049.92	3374.07
1053.62	2975.46
1057.33	2534.31
1061.03	2285.93
1064.73	1384.37
1068.44	1140.65
1072.13	1163.36
1075.83	1495.78
1079.53	2425.78
1083.22	4183.06
1086.91	7331.79
1090.6	9971.81
1094.29	7855.09
1097.97	3823.12
1101.66	1927.11
1105.34	1159.29
1109.02	807.23
1112.7	625.475
1116.37	475.875
1120.05	346.507
1123.72	302.312
1127.39	183.135
1131.06	143.342
1134.73	174.252
1138.39	94.554
1142.06	93.232
1145.72	51.779
1149.38	48.833
1153.04	14.387
1156.69	101.054
1160.35	47.19
1164	66.7
1167.65	96.554
1171.3	45.028
1174.95	31.541
1178.6	126.365
1182.24	12.513
1185.88	29.616
1189.52	7.262
1193.16	32.912
1196.8	6.192
1200.43	66.606
1204.07	2.877
1207.7	62.79
1211.33	69.922
1214.96	15.48
1218.58	27.809
1222.21	53.23
1225.83	3.068
1229.45	1.883
1233.07	76.143
1236.69	72.406
1240.3	58.556
1243.92	51.297
1247.53	36.69
1251.14	20.039
1254.75	8.179
1258.35	41.065
1261.96	25.876
1265.56	76.965
1269.16	74.067
1272.76	49.462
1276.36	99.302
1279.96	118.377
1283.55	92.811
1287.14	118.096
1290.73	153.9
1294.32	126.854
1297.91	147.818
1301.5	123.764
1305.08	125.417
1308.66	82.194
1312.24	107.814
1315.82	76.974
1319.4	77.03
1322.97	113.883
1326.55	99.345
1330.12	70.766
1333.69	154.323
1337.26	130.574
1340.82	105.074
1344.39	167.724
1347.95	74.006
1351.51	169.435
1355.07	136.411
1358.63	228.929
1362.18	180.579
1365.74	238.361
1369.29	214.027
1372.84	139.349
1376.39	211.846
1379.94	175.967
1383.48	152.959
1387.03	154.588
1390.57	85.852
1394.11	158.8
1397.65	152.769
1401.19	192.698
1404.72	204.782
1408.26	147.311
1411.79	154.302
1415.32	195.217
1418.85	101.946
1422.37	115.283
1425.9	76.777
1429.42	63.409
1432.94	154.506
1436.46	147.935
1439.98	130.695
1443.5	218.463
1447.01	167.185
1450.53	114.263
1454.04	84.65
1457.55	62.396
1461.05	78.399
1464.56	58.852
1468.07	116.694
1471.57	61.743
1475.07	59.783
1478.57	76.077
1482.07	128.135
1485.56	152.832
1489.06	99.183
1492.55	138.336
1496.04	96.395
1499.53	6.325
1503.02	44.6
1506.5	1.145
