Measurement: Raman, 514 nm, ccw, Raman Data Processed
Mineral: Epidote
Rruff sample: R040089
Ideal chemistry: Ca_2_Fe^3+^Al_2_(Si_2_O_7_)(SiO_4_)O(OH)
Locality: Grafton County, New Hampshire, USA
Source: University of Arizona Mineral Museum
Description: Dark green coarsely crystalline massive
Measured chemistry: Ca_2.00_(Al_2.36_Fe^3+^_0.64_)[Si_2.00_O_7_][Si_1.00_O_4_]O(OH)
Pin_id: M00263
Orientation: Laser parallel to -b* (0 -1 0). Fiducial mark perpendicular to laser is parallel to c [0 0 1]
Raman shift (cm-1)	intensity
125.905	0
130.053	437.768
134.2	3311.48
138.345	6948.91
142.488	6866.96
146.629	3932.46
150.768	2104.16
154.905	1274.91
159.04	1573.69
163.174	2815.05
167.306	4023.95
171.436	4674.77
175.564	3644.14
179.69	1728.91
183.814	454.287
187.937	111.164
192.057	110.577
196.176	226.716
200.293	245.763
204.408	192.651
208.521	859.06
212.633	1008.02
216.742	1110.75
220.85	1685.01
224.956	2695.31
229.06	3912.05
233.162	5224.38
237.263	5255.77
241.361	3980.76
245.458	3999.16
249.553	6030.4
253.646	7193.49
257.737	5611.02
261.827	3120.9
265.914	2158.69
270	2281.58
274.084	3890.35
278.166	6418.73
282.246	5707.33
286.325	2806.18
290.402	1475.21
294.477	1580.05
298.55	2344.67
302.621	2515.38
306.69	1841.09
310.758	840.155
314.824	273.082
318.888	18.818
322.95	10.584
327.01	597.209
331.069	1307.68
335.126	1217.47
339.181	787.188
343.234	926.807
347.285	1616.03
351.335	3399.81
355.383	4212.45
359.429	2988.49
363.473	1413.86
367.515	569.93
371.556	75.527
375.595	111.64
379.632	346.672
383.667	341.007
387.7	166.223
391.732	707.488
395.762	1951.03
399.79	1914.42
403.816	857.812
407.841	401.419
411.864	355.293
415.884	868.825
419.904	2140.87
423.921	5433.11
427.937	11045.8
431.951	12928.9
435.963	9942.45
439.973	7606.35
443.981	7510.66
447.988	10055.4
451.993	14450.6
455.996	15525.3
459.998	13469.5
463.998	12053.2
467.996	10240.4
471.992	8207.84
475.986	5880.56
479.979	4274.28
483.97	3280.89
487.959	2763.25
491.946	2595.63
495.932	2678.38
499.916	2768.54
503.898	3107.95
507.878	3699.47
511.857	5121.35
515.834	6194.1
519.809	5567.95
523.782	5263
527.754	6978.16
531.723	6249.52
535.692	3080
539.658	1361.92
543.623	866.629
547.585	819.397
551.547	1263.46
555.506	1834.53
559.464	2742.12
563.42	4681.39
567.374	10732.9
571.326	18364.5
575.277	12641.8
579.226	5011.34
583.173	2789.24
587.119	2472.64
591.063	3291.86
595.005	4370.77
598.945	6265.69
602.884	9326.99
606.821	11522.1
610.756	9595.65
614.689	6014.23
618.621	4003.71
622.551	2762.75
626.479	1989.62
630.406	1247.13
634.331	870.876
638.254	408.755
642.175	373.979
646.095	259.004
650.013	183.52
653.929	137.506
657.844	301.268
661.757	774.842
665.668	1038.2
669.577	1041.34
673.485	954.239
677.391	1016.88
681.296	1189.24
685.198	1371.32
689.099	1403.14
692.998	1334.81
696.896	1256.68
700.792	959.101
704.686	801.83
708.578	404.376
712.469	76.597
716.358	68.423
720.246	9.69
724.131	9.85
728.015	100.229
731.898	221.344
735.778	193.427
739.657	96.633
743.535	60.706
747.41	104.174
751.284	91.698
755.156	178.376
759.027	135.972
762.896	65.456
766.763	6.115
770.628	53.861
774.492	164.517
778.354	94.064
782.215	232.204
786.073	109.81
789.93	36.929
793.786	23.623
797.64	60.003
801.492	245.713
805.342	420.186
809.191	434.423
813.038	359.683
816.884	474.81
820.727	809.707
824.569	1264.38
828.41	1928.83
832.249	2633.07
836.086	2507.11
839.921	2540.94
843.755	1994.6
847.587	2188.1
851.418	2241.42
855.247	2424.58
859.074	2707.6
862.899	3080.45
866.723	3521.52
870.545	4128.4
874.366	4887.07
878.185	5571.5
882.002	5760.24
885.818	5633.38
889.632	5294.24
893.444	4901.03
897.255	4988.61
901.064	5573.79
904.872	6957
908.677	9036.23
912.482	12247.1
916.284	14721.4
920.085	15706
923.884	14483.4
927.682	11616.3
931.478	9098.03
935.272	7090.95
939.065	5732.17
942.856	4907.37
946.646	4138.9
950.433	3263.75
954.22	3289.41
958.004	3364.95
961.787	3390.94
965.569	3427.1
969.348	2983.4
973.126	2829.85
976.903	2826.45
980.678	3883.2
984.451	5400.12
988.223	5537.17
991.993	4184.36
995.761	2305.16
999.528	1423
1003.29	1171.59
1007.06	792.054
1010.82	644.504
1014.58	498.55
1018.34	169.76
1022.1	329.233
1025.85	691.759
1029.6	879.757
1033.36	1552.58
1037.11	1774.99
1040.86	2548.23
1044.6	3396.86
1048.35	3802.46
1052.09	3919.32
1055.84	3766.09
1059.58	3139.97
1063.32	2900.01
1067.06	2598.39
1070.79	2703.69
1074.53	3008.32
1078.26	3650.09
1081.99	5548.1
1085.72	8201.48
1089.45	11455.8
1093.18	14592
1096.9	12417.4
1100.62	6957.14
1104.35	3352.43
1108.07	1827.26
1111.79	1122.51
1115.5	856.771
1119.22	560.91
1122.93	474.507
1126.64	278.882
1130.36	512.501
1134.07	286.004
1137.77	422.594
1141.48	179.266
1145.18	218.324
1148.89	77.605
1152.59	33.691
1156.29	54.225
1159.99	264.326
1163.68	241.594
1167.38	108.439
1171.07	75.283
1174.77	159.715
1178.45	15.408
1182.14	40.584
1185.83	32.006
1189.52	93.992
1193.2	44.682
1196.88	105.523
1200.57	124.006
1204.24	73.258
1207.92	70.557
1211.6	45.213
1215.28	299.953
1218.95	244.307
1222.62	526.637
1226.29	497.861
1229.96	215.834
1233.63	227.184
1237.29	18.207
1240.95	88.797
1244.62	88.984
1248.28	538.785
1251.94	518.199
1255.6	557.193
1259.25	751.434
1262.91	537.773
1266.56	416.857
1270.21	262.385
1273.86	324.779
1277.51	427.629
1281.16	370.002
1284.8	524.994
1288.45	499.574
1292.09	363.975
1295.73	611.797
1299.37	7.496
1303.01	198.377
1306.64	252.969
1310.28	194.586
1313.91	531.91
1317.55	504.691
1321.17	507.473
1324.8	713.021
1328.43	296.072
1332.06	108.033
1335.68	220.904
1339.3	147.305
1342.92	431.24
1346.54	625.332
1350.16	637.551
1353.78	629.424
1357.39	852.189
1361.01	461.262
1364.62	641.752
1368.23	561.342
1371.84	3.48
