Measurement: Raman, 514 nm, ccw, Raman Data Processed
Mineral: Epidote
Rruff sample: R050131
Ideal chemistry: Ca_2_Fe^3+^Al_2_(Si_2_O_7_)(SiO_4_)O(OH)
Locality: Calumet mine, Chaffee County, Colorado, USA
Source: Dave Bunk Minerals
Description: Green prismatic crystal
Measured chemistry: Ca_2.00_Al_2.00_(Fe^3+^_0.75_Al_0.25_)(SiO_4_)(Si_2_O_7_)O(OH)
Pin_id: L00405
Orientation: Laser parallel to b* (0 1 0). Fiducial mark perpendicular to laser is parallel to c [0 0 1]
Raman shift (cm-1)	intensity
121.31	0
125.482	392.828
129.653	2558.21
133.821	6886.19
137.987	6509.81
142.152	2753.51
146.314	846.914
150.474	453.133
154.633	623.896
158.789	662.482
162.943	1591.06
167.095	2513.92
171.246	1702.71
175.394	541.97
179.54	101.038
183.684	221.032
187.826	29.836
191.967	250.412
196.105	856.441
200.241	1846.85
204.375	3054.24
208.507	3587.89
212.638	3541.56
216.766	4184.76
220.892	6097
225.016	9427.56
229.139	12078.3
233.259	10317
237.377	6288.25
241.493	5627.83
245.608	7346.27
249.72	7284.84
253.83	4826.69
257.939	3118.11
262.045	2532
266.15	3007.19
270.252	6028.7
274.353	13082.6
278.451	13307
282.548	5352.03
286.642	2379.2
290.735	1603.15
294.826	1776.85
298.914	2308.07
303.001	2301.2
307.086	1659.3
311.168	836.56
315.249	722.979
319.328	963.8
323.405	1967.42
327.48	2884.03
331.553	1615.93
335.624	275.098
339.693	318.074
343.76	505.057
347.826	259.782
351.889	69.623
355.95	26.417
360.01	86.705
364.067	131.684
368.123	1.814
372.176	25.055
376.228	119.989
380.277	685.024
384.325	1801.17
388.371	3570.44
392.415	5131.85
396.457	3958.73
400.497	2528.34
404.535	1979.29
408.571	1928.53
412.605	2755.43
416.638	5302.32
420.668	11326.2
424.697	22321.1
428.723	24867.1
432.748	17684.1
436.77	12762
440.791	9880.84
444.81	9810.35
448.827	14630.3
452.842	17100.4
456.855	14930.4
460.867	13210.4
464.876	11080.4
468.883	8540.34
472.889	5900.39
476.892	4288.53
480.894	3732.82
484.894	4119.34
488.892	4658.05
492.888	4776.94
496.882	5183.52
500.874	6306.09
504.865	7866.71
508.853	9514.32
512.84	10355.3
516.824	9747.45
520.807	12020.6
524.788	15426.6
528.767	11702.2
532.744	6222.96
536.719	4017.67
540.693	3376.04
544.664	3126.63
548.634	3695.5
552.601	4800.79
556.567	6589.1
560.531	10626.5
564.493	22283.7
568.453	33978.6
572.412	18848.3
576.368	9317.9
580.323	6935.28
584.275	7001.22
588.226	8727.32
592.175	11148.6
596.122	15413.9
600.068	20838.6
604.011	20821
607.952	16203
611.892	11630.2
615.83	8687.29
619.766	6004.29
623.7	4181.16
627.632	3338.79
631.563	2453.9
635.491	1826.44
639.418	1433
643.343	1045.58
647.266	942.611
651.187	883.478
655.106	904.177
659.024	1228.08
662.939	1598.96
666.853	1782.79
670.765	1650.85
674.675	1558.72
678.583	1718.5
682.49	1920.26
686.394	2215
690.297	2055.58
694.198	1280.93
698.097	662.013
701.995	431.821
705.89	239.345
709.784	79.561
713.675	65.581
717.565	125.463
721.453	179.438
725.34	132.687
729.224	206.342
733.107	179.51
736.988	215.226
740.867	223.583
744.744	147.573
748.62	121.065
752.493	115.969
756.365	104.067
760.235	20.05
764.103	252.442
767.969	442.64
771.834	460.555
775.697	291.191
779.558	158.554
783.417	65.643
787.274	62.441
791.13	140.947
794.983	100.176
798.835	195.145
802.686	355.871
806.534	617.359
810.38	845.615
814.225	1058.64
818.068	1366.44
821.909	1869.99
825.749	3115.29
829.586	4230.35
833.422	4439.18
837.256	3552.77
841.088	2828.14
844.919	2539.28
848.748	2551.2
852.575	2871.92
856.4	3262.45
860.223	3778.79
864.045	4356.31
867.864	5082.44
871.682	5463.73
875.499	5396.74
879.313	4532.87
883.126	3854.93
886.937	3810.73
890.746	4277.18
894.553	5316.05
898.359	7170.3
902.163	9602.48
905.965	13329.7
909.765	18548
913.564	24653.4
917.361	29188
921.156	27393.4
924.949	20149
928.74	14214.8
932.53	9820.93
936.318	7336.68
940.104	6032.15
943.889	4824.3
947.672	4117.79
951.453	3819.15
955.232	3723.78
959.01	4074.69
962.785	4119.88
966.559	3781.36
970.332	3468.13
974.102	3754.19
977.871	5497.54
981.638	8151.19
985.404	7691.14
989.167	5116.41
992.929	3080.01
996.689	1938.94
1000.45	1235.2
1004.2	758.79
1007.96	528.235
1011.71	404.21
1015.46	376.669
1019.21	394.168
1022.96	432.915
1026.71	656.853
1030.45	1132.62
1034.19	1877.64
1037.94	3073.34
1041.68	4224.77
1045.41	4559.93
1049.15	4063.71
1052.88	3596.38
1056.62	3785.07
1060.35	4397.89
1064.08	4451.01
1067.8	3781.97
1071.53	3922.08
1075.25	5167.25
1078.97	8039.04
1082.7	12333
1086.41	18587.4
1090.13	20608.8
1093.85	14397
1097.56	6292.12
1101.27	2708.68
1104.98	1389.26
1108.69	850.551
1112.4	645.303
1116.1	499.71
1119.81	441.622
1123.51	754.444
1127.21	340.446
1130.91	216.503
1134.61	187.067
1138.3	157.639
1141.99	123.276
1145.68	118.477
1149.38	81.055
1153.06	10.22
1156.75	63.578
1160.43	44.276
1164.12	67.117
1167.8	34.292
1171.48	116.254
1175.16	79.024
1178.83	100.768
1182.51	106.149
1186.18	53.626
1189.85	57.87
1193.52	0.15
1197.19	13.639
1200.86	50.897
1204.52	10.336
1208.19	18.401
1211.85	25.949
1215.51	25.048
1219.17	24.881
1222.82	30.479
1226.48	84.771
1230.13	124.043
1233.78	153.771
1237.43	178.251
1241.08	74.499
1244.73	49.513
1248.37	107.46
1252.01	126.365
1255.66	75.871
1259.3	147.065
1262.93	200.979
1266.57	158.869
1270.21	157.937
1273.84	139.772
1277.47	154.449
1281.1	104.485
1284.73	192.812
1288.36	164.895
1291.98	191.039
1295.6	190.639
1299.23	154.801
1302.85	136.957
1306.46	121.521
1310.08	112.654
1313.7	145.387
1317.31	166.083
1320.92	106.93
1324.53	130.446
1328.14	175.639
1331.75	98.792
1335.35	69.084
1338.96	90.482
1342.56	63.957
1346.16	97.465
1349.76	75.124
1353.36	129.605
1356.95	203.901
1360.55	165.882
1364.14	210.673
1367.73	201.608
1371.32	95.787
1374.91	161.767
1378.49	189.019
1382.08	142.112
1385.66	167.534
1389.24	106.765
1392.82	146.477
1396.4	148.623
1399.97	142.252
1403.55	168.969
1407.12	42.545
1410.69	90.499
1414.26	51.305
1417.83	32.531
1421.4	0.397
1424.96	56.355
1428.53	2.3
1432.09	115.81
1435.65	82.003
1439.21	65.426
1442.76	111.673
1446.32	25.696
1449.87	35.123
1453.43	23.772
1456.98	46.459
1460.53	34.485
1464.07	61.332
1467.62	59.575
1471.16	109.936
1474.71	97.411
1478.25	136.827
1481.79	89.744
1485.32	81.865
1488.86	34.472
1492.39	81.933
1495.93	24.415
1499.46	57.299
1502.99	35.228
1506.52	74.772
1510.05	92.204
1513.57	25.782
1517.09	1.345
1520.62	0
