Measurement: Raman, 514 nm, ccw, Raman Data Processed
Mineral: Epidote
Rruff sample: R050064
Ideal chemistry: Ca_2_Fe^3+^Al_2_(Si_2_O_7_)(SiO_4_)O(OH)
Locality: East Xichang City, Meigu County, Sichuan Province, China
Source: Rock Currier
Description: Green prismatic crystals
Measured chemistry: (Ca_1.99_Mn_0.01_)_Î£=2_Fe^3+^_1.00_Al_2.00_(Si_2.00_O_7_)(Si_1.00_O_4_)O(OH);
Pin_id: L00201
Orientation: Laser parallel to -b* (0 -1 0). Fiducial mark perpendicular to laser is parallel to -c [0 0 -1]
Raman shift (cm-1)	intensity
80.327	0
84.529	121.363
88.728	1721.15
92.926	2834.92
97.121	1525.55
101.314	419.575
105.505	98.209
109.694	32.23
113.881	60.54
118.066	116.054
122.249	1508.48
126.43	6759.53
130.608	13012.6
134.785	8600.65
138.959	3122.81
143.131	1860.21
147.301	1359.96
151.469	903.795
155.635	1605.49
159.799	4470.85
163.961	8273.63
168.121	7452.33
172.278	4504.36
176.434	2008.19
180.587	562.112
184.739	32.709
188.888	187.144
193.035	288.874
197.18	1449.37
201.324	2361.4
205.465	2099.99
209.603	1760.13
213.74	2478.85
217.875	4439
222.008	7769.39
226.139	11018.7
230.267	9872.53
234.394	7060.23
238.518	8247.86
242.641	8456.16
246.761	4457.66
250.879	1630.87
254.996	481.533
259.11	220.774
263.222	647.989
267.332	2714.84
271.44	7590.1
275.546	9422.23
279.65	4966.66
283.752	2920.08
287.852	4848.35
291.95	8271.42
296.046	6998.21
300.14	4185.45
304.231	2127.98
308.321	1019.17
312.409	428.001
316.495	788.439
320.578	2321.42
324.66	3427.79
328.739	2113.53
332.817	1103.67
336.892	1336.22
340.966	2929.18
345.037	6207.56
349.107	7749.76
353.174	5056.76
357.24	2157.24
361.303	670.268
365.365	106.304
369.424	442.821
373.481	522.909
377.537	335.792
381.59	433.009
385.642	1816.14
389.691	2005.21
393.738	861.532
397.784	245.45
401.827	105.672
405.868	404.471
409.908	1306.16
413.945	3362.85
417.98	8802.5
422.014	17239
426.045	17466.5
430.075	13604.7
434.102	12723.6
438.127	10313.3
442.151	11483.5
446.172	19074.3
450.192	26035.7
454.209	26637.5
458.225	20119.7
462.238	10762.2
466.25	5414.09
470.259	3054.28
474.267	1850.78
478.273	1537.55
482.276	1641.77
486.278	2150.84
490.278	3567.35
494.276	6403.08
498.271	9388.02
502.265	9133.17
506.257	8978.52
510.247	8514.05
514.235	7429.88
518.221	9905.95
522.205	12112.2
526.187	7660.92
530.167	3411.73
534.145	1575.58
538.122	819.594
542.096	838.725
546.068	1144.01
550.039	1715.05
554.007	3555.7
557.973	8967.1
561.938	22943.3
565.901	23571.8
569.861	10892.7
573.82	5601.83
577.777	5099.46
581.732	7181.17
585.685	9405.93
589.636	11377.2
593.585	15939.1
597.532	18494.1
601.477	14635
605.42	10495.7
609.361	8613.58
613.301	7206.31
617.238	5082.05
621.174	3038.11
625.108	1905.44
629.039	1350.21
632.969	945.881
636.897	686.976
640.823	565.495
644.747	394.737
648.669	315.692
652.589	298.218
656.508	319.71
660.424	373.755
664.339	367.482
668.251	455.882
672.162	510.947
676.071	609.668
679.978	847.039
683.883	1117.1
687.786	1133.36
691.687	819.349
695.586	418.062
699.484	188.813
703.379	34.162
707.273	19.006
711.165	69.904
715.055	115.815
718.943	80.874
722.829	136.136
726.713	119.705
730.595	133.556
734.476	105.681
738.354	81.032
742.231	88.611
746.106	77.278
749.978	45.021
753.849	23.832
757.719	13.25
761.586	1.393
765.451	5.319
769.315	77.586
773.177	88.351
777.036	90.644
780.894	86.481
784.75	129.876
788.605	125.859
792.457	217.447
796.307	278.66
800.156	339.502
804.003	460.982
807.848	571.103
811.691	759.873
815.532	1086.3
819.371	1556.39
823.209	2325.14
827.045	3097.58
830.878	3408.69
834.71	2856.5
838.54	2280.01
842.369	1979.22
846.195	2024.51
850.02	2336.78
853.842	2821.16
857.663	3702.76
861.482	4720.16
865.299	6189.38
869.115	7377.2
872.928	7582.32
876.74	7232.49
880.55	6267.74
884.358	5219.93
888.164	4684.16
891.969	4984.09
895.771	5987.95
899.572	8113.39
903.371	11648.6
907.168	17489.8
910.963	25124.3
914.757	30669.2
918.548	25786.2
922.338	16489.4
926.126	9954.11
929.912	6246.23
933.697	4086.9
937.479	2971.33
941.26	2240.4
945.039	1825.21
948.816	1624.19
952.591	1622.31
956.365	1579.54
960.136	1591
963.906	1534.6
967.674	1757.36
971.441	2737.3
975.205	4734.42
978.968	6941.74
982.729	5984.27
986.488	3484.01
990.245	2038.96
994	1217.13
997.754	841.454
1001.51	617.083
1005.26	479.566
1009	372.917
1012.75	407.026
1016.5	535.789
1020.24	712.732
1023.98	971.826
1027.72	1450.18
1031.46	2415.34
1035.19	4050.99
1038.93	6060.14
1042.66	6354.31
1046.39	4940.61
1050.12	3663.6
1053.85	3230.7
1057.57	4112.06
1061.29	4735.12
1065.02	3801.46
1068.74	3270.71
1072.45	3651.47
1076.17	5180.92
1079.88	8656.45
1083.6	14857.9
1087.31	13309.7
1091.02	6410.88
1094.72	2738.43
1098.43	1382.28
1102.13	890.777
1105.84	612.464
1109.54	449.374
1113.24	349.413
1116.93	275.623
1120.63	290.151
1124.32	248.882
1128.01	162.314
1131.7	87.534
1135.39	39.641
1139.08	59.431
1142.76	8.753
1146.45	98.943
1150.13	55.926
1153.81	15.962
1157.48	27.798
1161.16	38.91
1164.84	80.393
1168.51	45.261
1172.18	65.809
1175.85	63.4
1179.52	41.3
1183.18	12.548
1186.85	21.059
1190.51	15.547
1194.17	17.086
1197.83	0.242
1201.48	13.576
1205.14	8.517
1208.79	12.325
1212.44	36.087
1216.09	62.654
1219.74	18.099
1223.39	20.413
1227.03	63.402
1230.68	65.646
1234.32	54.587
1237.96	29.425
1241.6	41.195
1245.23	52.928
1248.87	60.653
1252.5	59.759
1256.13	80.642
1259.76	89.932
1263.39	64.982
1267.02	65.924
1270.64	66.51
1274.26	100.87
1277.88	111.782
1281.5	96.895
1285.12	89.237
1288.74	49.443
1292.35	55.868
1295.96	65.52
1299.57	56.838
1303.18	58.474
1306.79	64.159
1310.4	33.775
1314	27.835
1317.6	25.12
1321.2	42.201
1324.8	17.877
1328.4	35.678
1331.99	11.208
1335.59	7.915
1339.18	31.898
1342.77	39.325
1346.36	98.72
1349.95	108.397
1353.53	83.828
1357.12	161.306
1360.7	151.798
1364.28	200.589
1367.86	135.991
1371.44	144.654
1375.01	109.181
1378.59	129.503
1382.16	107.501
1385.73	117.725
1389.3	73.575
1392.87	94.667
1396.43	87.85
1399.99	94.793
1403.56	90.345
1407.12	106.302
1410.68	77.64
1414.23	107.928
1417.79	75.921
1421.34	28.161
1424.9	33.034
1428.45	16.705
1431.99	42.562
1435.54	31.03
1439.09	9.393
1442.63	18.475
1446.17	45.251
1449.71	49.453
1453.26	36.08
1456.79	27.731
1460.33	30.423
1463.86	44.537
1467.39	63.814
1470.92	39.273
1474.45	1.33
1477.98	15.395
1481.51	23.83
1485.03	35.421
1488.56	16.014
1492.08	49.662
1495.6	64.44
1499.11	27.029
1502.63	29.837
1506.14	56.487
1509.66	18.346
1513.17	16.591
