Measurement: Raman, 514 nm, ccw, Raman Data Processed
Mineral: Epidote
Rruff sample: R040092
Ideal chemistry: Ca_2_Fe^3+^Al_2_(Si_2_O_7_)(SiO_4_)O(OH)
Locality: Nahant, Massachusetts, USA
Source: University of Arizona Mineral Museum
Description: Green prismatic crystals imbedded in quartz
Measured chemistry: Ca_2.01_Al_2.00_Fe_1.00_(Si_1.00_O_4_)(Si_1.97_Fe_0.02_Al_0.01_Ti_0.01_O_7_)O(OH)
Pin_id: M00185
Orientation: Laser parallel to -c [0 0 -1]. Fiducial mark perpendicular to laser is parallel to b* (0 1 0)
Raman shift (cm-1)	intensity
51.466	0
55.666	666.259
59.863	866.707
64.059	1698.56
68.253	1168.55
72.445	4.132
76.635	88.314
80.823	2798.45
85.009	7400.5
89.193	12441.8
93.375	14102.6
97.554	10620.3
101.732	6322.17
105.908	2901.51
110.082	1109.79
114.254	794.617
118.424	614.622
122.592	128.65
126.758	110.345
130.922	7.391
135.083	7.656
139.243	123.307
143.401	42.045
147.557	417.843
151.711	605.138
155.863	1375.15
160.013	2928.71
164.161	6270.88
168.308	10933.8
172.452	15443.4
176.594	12749.1
180.734	7984.16
184.872	5217.17
189.008	3530.31
193.143	2725.6
197.275	1924.07
201.405	2388.75
205.534	2661.64
209.66	2324.78
213.784	1971.75
217.907	2910.17
222.027	5266.61
226.146	8940.57
230.263	12213.9
234.377	12353.6
238.49	11316.9
242.601	9925.11
246.709	6640.38
250.816	3484.21
254.921	2145.63
259.024	1420.89
263.125	1277.26
267.224	2357.59
271.321	4656.06
275.416	5751.05
279.51	4453.32
283.601	2324.23
287.69	1381.93
291.778	1347.51
295.863	1622.05
299.947	1582.33
304.029	1806.88
308.108	2261.44
312.186	2264.33
316.262	2089.17
320.336	1570.97
324.408	1334.73
328.478	1606.46
332.546	2198.14
336.612	3437.79
340.677	5896.4
344.739	10534
348.799	15054.5
352.858	13902
356.915	7965.51
360.969	3641.92
365.022	1479.27
369.073	423.552
373.122	415.299
377.169	469.91
381.215	182.646
385.258	989.818
389.299	2188.21
393.339	1796.55
397.376	646.909
401.412	78.562
405.446	286.695
409.478	9.921
413.508	917.818
417.536	2916.22
421.562	6234.35
425.586	11142.1
429.609	16371.6
433.629	23352.6
437.648	26334.2
441.665	21930.3
445.68	19315.9
449.693	19692.8
453.704	19463
457.713	17691.5
461.721	12745.2
465.726	7831.99
469.73	4805.74
473.731	3084.38
477.731	1883.84
481.729	1589.06
485.725	1719.01
489.72	2263.65
493.712	3604.97
497.703	5621.22
501.691	8119.54
505.678	9836.76
509.663	10124.6
513.646	7453.94
517.627	4324.88
521.607	2293.33
525.584	1300.29
529.56	876.742
533.534	625.501
537.506	638.13
541.476	892.281
545.444	1236.68
549.41	1885.42
553.375	3032.4
557.337	5582.18
561.298	10707.6
565.257	14500.4
569.214	11688.9
573.17	7440.68
577.123	7068.16
581.075	9329.49
585.024	13250.2
588.972	18463.2
592.918	23819.7
596.863	30171.4
600.805	29773.9
604.746	24992.2
608.685	20638.7
612.621	18526
616.557	15729.4
620.49	10738.2
624.421	6978.39
628.351	4770.12
632.279	3685.74
636.205	2866.76
640.129	2356.87
644.051	2020.21
647.972	1658.66
651.89	1334.62
655.807	1260.38
659.722	958.017
663.636	861.408
667.547	667.236
671.457	639.486
675.365	705.139
679.271	705.179
683.175	746.588
687.077	701.354
690.978	674.617
694.877	612.9
698.774	683.243
702.669	400.997
706.562	275.035
710.454	155.325
714.344	28.767
718.232	13.011
722.118	63.049
726.002	17.396
729.885	141.485
733.766	225.615
737.645	165.117
741.522	201.768
745.397	175.6
749.271	161.528
753.143	93.575
757.013	138.685
760.881	66.751
764.748	80.364
768.613	22.539
772.476	38.124
776.337	72.495
780.196	131.817
784.054	164.1
787.91	214.422
791.764	241.855
795.616	289.467
799.467	435.285
803.316	602.341
807.163	725.646
811.008	902.209
814.851	1211.05
818.693	1592.16
822.533	2045.58
826.371	2707.3
830.208	3315.35
834.042	3566.82
837.875	3587.45
841.706	3475.55
845.536	3514.03
849.363	3729.91
853.189	4133.23
857.013	4678.02
860.836	5238.28
864.656	5630.62
868.475	5841.35
872.292	6107.9
876.108	6729.38
879.922	7935.1
883.733	9057.51
887.544	10249.6
891.352	11045.8
895.159	12830.4
898.964	16063.6
902.767	21283.2
906.568	29148
910.368	38661.7
914.166	48332.7
917.962	48187.9
921.757	37126.5
925.55	25443
929.341	16809.1
933.13	11353.8
936.918	8025.83
940.703	6029.77
944.488	4543.2
948.27	4022.36
952.051	3699.71
955.83	3608.33
959.607	3406.28
963.383	2869.57
967.156	2522.24
970.928	2520.22
974.699	3091.52
978.468	3835.16
982.234	3598.11
986	2352.4
989.763	1504.07
993.525	1015.43
997.285	695.998
1001.04	449.802
1004.8	301.312
1008.55	1294.98
1012.31	659.427
1016.06	711.472
1019.81	759.562
1023.56	955.997
1027.31	1139.47
1031.05	1564.57
1034.79	2113.69
1038.53	2638.02
1042.27	2916.62
1046.01	2692.41
1049.75	2187.37
1053.48	1786.47
1057.22	1628.71
1060.95	1478.05
1064.68	1243.35
1068.4	1189.43
1072.13	1488.25
1075.86	2369.82
1079.58	4314.93
1083.3	7647.58
1087.02	10372.8
1090.74	7726.47
1094.45	4197.46
1098.17	2018.19
1101.88	1239.05
1105.59	794.664
1109.3	573.558
1113.01	429.558
1116.71	372.058
1120.42	313.334
1124.12	688.095
1127.82	131.507
1131.52	102.857
1135.22	114.752
1138.91	43.502
1142.61	16.934
1146.3	50.743
1149.99	31.242
1153.68	73.515
1157.37	146.615
1161.06	88.441
1164.74	12.902
1168.42	21.238
1172.1	45.96
1175.78	3.687
1179.46	9.602
1183.14	79.784
1186.81	15.998
1190.48	112.474
1194.15	123.497
1197.83	129.426
1201.49	139.837
1205.16	166.33
1208.82	154.432
1212.49	71.54
1216.15	83.728
1219.81	53.339
1223.46	37.018
1227.12	63.461
1230.78	82.618
1234.43	48.347
1238.08	1.323
1241.73	43.013
1245.38	4.344
1249.03	24.023
1252.67	3.783
1256.31	42.829
1259.95	86.219
1263.6	11.832
1267.23	34.54
1270.87	49.758
1274.51	89.067
1278.14	23.692
1281.77	47.593
1285.4	92.289
1289.03	48.98
1292.66	80.324
1296.28	1.779
1299.91	76.058
1303.53	82.326
1307.15	84.773
1310.77	51.556
1314.38	10.517
1318	0.676
1321.61	6.765
1325.23	74.98
1328.84	6.098
1332.45	26.627
1336.06	9.622
1339.66	22.069
1343.27	80.97
1346.87	126.363
1350.47	162.261
1354.07	148.706
1357.67	171.733
1361.26	218.373
1364.86	160.676
1368.45	260.646
1372.04	275.5
1375.63	248.377
1379.22	247.583
1382.81	220.453
1386.39	211.734
1389.98	284.948
1393.56	308.114
1397.14	248.2
1400.72	247.691
1404.3	265.347
1407.87	237.308
1411.45	249.423
1415.02	244.107
1418.59	263.805
1422.16	252.25
1425.73	234.338
1429.29	239.77
1432.86	241.439
1436.42	231.143
1439.98	258.68
1443.54	291.252
1447.1	250.284
1450.66	215.735
1454.21	314.339
1457.77	257.761
1461.32	271.052
1464.87	153.945
1468.42	262.682
1471.96	175.851
1475.51	281.675
1479.06	114.238
1482.6	204.464
1486.14	122.663
1489.68	185.359
1493.22	146.505
1496.75	134.236
1500.29	67.318
1503.82	50.682
1507.35	102.564
1510.88	110.991
1514.41	1.777
