Measurement: Raman, 514 nm, ccw, Raman Data Processed
Mineral: Epidote
Rruff sample: R040089
Ideal chemistry: Ca_2_Fe^3+^Al_2_(Si_2_O_7_)(SiO_4_)O(OH)
Locality: Grafton County, New Hampshire, USA
Source: University of Arizona Mineral Museum
Description: Dark green coarsely crystalline massive
Measured chemistry: Ca_2.00_(Al_2.36_Fe^3+^_0.64_)[Si_2.00_O_7_][Si_1.00_O_4_]O(OH)
Pin_id: L00423
Orientation: Laser parallel to c [0 0 1]. Fiducial mark perpendicular to laser is parallel to b* (0 1 0)
Raman shift (cm-1)	intensity
53.228	0
57.445	92.858
61.659	32.167
65.871	566.225
70.081	119.91
74.288	435.242
78.494	1499.52
82.697	1812.92
86.898	3780.21
91.097	9553.06
95.293	14307.2
99.488	9038.27
103.68	5469.34
107.87	4372.69
112.057	3659.89
116.243	4372.55
120.426	4097.66
124.608	3664.72
128.787	3952.9
132.963	5380.25
137.138	8328.26
141.311	9466.08
145.481	7013.75
149.649	4711.2
153.815	3418.65
157.979	2946.03
162.14	3033.22
166.3	3610.19
170.457	3546.89
174.612	1903.94
178.765	351.312
182.915	346.903
187.064	490.604
191.21	11.296
195.355	454.879
199.497	1432.93
203.637	2841.59
207.774	4339.76
211.91	5308.22
216.043	5523.73
220.175	6187.17
224.304	7638.87
228.431	9622.55
232.556	11266.1
236.678	10330.3
240.799	7430.55
244.917	7504.75
249.034	10438.7
253.148	12271.4
257.26	10215
261.37	6736.8
265.477	5707.9
269.583	7648.46
273.686	13758.6
277.788	21718.5
281.887	16338.1
285.984	7054
290.079	3345.52
294.172	2415.29
298.263	2677.28
302.351	3321.49
306.438	3443.93
310.522	2886.61
314.604	1891.55
318.684	1178.77
322.762	1278.28
326.838	2078.09
330.912	2894.22
334.984	1570.68
339.053	89.484
343.121	579.904
347.186	663.035
351.25	234.718
355.311	458.948
359.37	390.963
363.427	33.348
367.482	135.146
371.535	203.056
375.585	308.652
379.634	37.496
383.68	935.858
387.725	2487.71
391.767	5069.01
395.808	8109.75
399.846	8000.93
403.882	4962.63
407.916	3294.81
411.948	3007.61
415.978	4541.27
420.006	9006.03
424.031	19342
428.055	34879.3
432.077	37838.1
436.096	26818.3
440.114	18890.1
444.129	16483.3
448.142	18608
452.154	25814.2
456.163	28991.8
460.17	26310.6
464.175	23020.7
468.178	20591.9
472.179	17864.1
476.178	14247.2
480.175	11281
484.17	9115.57
488.163	8530.78
492.153	8826.63
496.142	8683.11
500.129	8269.55
504.113	8392.81
508.096	9548.95
512.077	11576.4
516.055	12788.3
520.032	12262.1
524.006	13906.6
527.978	19190.3
531.949	17676.9
535.917	9664.71
539.883	6233.46
543.848	5571.47
547.81	5710.17
551.77	6749.56
555.728	8139.6
559.685	10710.3
563.639	15942.7
567.591	30440.3
571.541	49676.4
575.489	33762.9
579.435	14519.1
583.38	8880.45
587.322	7882.26
591.262	9594.67
595.2	12438.9
599.136	18173.4
603.07	26633.5
607.002	31320.9
610.932	25573.6
614.86	16973.1
618.786	11497.9
622.71	8290.3
626.632	6129.28
630.552	4643.01
634.471	3675.04
638.387	2638.84
642.301	1918.25
646.213	1496.7
650.123	1217.54
654.031	1282.13
657.937	1814.45
661.842	2625.28
665.744	3600.57
669.644	3837.02
673.542	3426.37
677.438	3273.32
681.333	3721.84
685.225	4385.04
689.115	4592.06
693.004	4495
696.89	3474.73
700.775	2489.97
704.657	1683.67
708.538	965.812
712.416	535.39
716.293	180.381
720.167	82.749
724.04	41.394
727.911	157.969
731.78	138.993
735.646	262.875
739.511	317.891
743.374	293.331
747.235	312.27
751.094	285.743
754.951	272.082
758.806	240.271
762.659	188.147
766.511	150.292
770.36	75.493
774.207	84.482
778.053	59.212
781.896	15.543
785.738	76.103
789.577	2.694
793.415	109.394
797.251	242.372
801.084	383.69
804.916	532.382
808.746	745.459
812.574	1086.93
816.4	1480.79
820.224	2134.05
824.047	3045.67
827.867	4651.66
831.685	6314.05
835.502	6694.82
839.316	6052
843.129	5350.6
846.94	4996.62
850.749	5027.08
854.556	5593.98
858.361	5960.33
862.164	6754.16
865.965	7450.51
869.764	8346.15
873.562	9070.07
877.357	9289.22
881.151	9088.5
884.942	8250.5
888.732	7794.3
892.52	8217.59
896.306	9555.84
900.09	12061.2
903.872	16018.1
907.653	21284.3
911.431	27596.6
915.208	33803.3
918.982	35804.2
922.755	33931
926.526	28157.6
930.295	22629
934.062	18177.2
937.827	15042.4
941.59	13211.3
945.352	11245.7
949.112	9952.06
952.869	9240.16
956.625	9228.61
960.379	9727.43
964.131	9926.62
967.881	8716.18
971.63	7796.12
975.376	8136.46
979.121	10567.2
982.864	14468.4
986.605	14950
990.344	10502
994.081	6694.5
997.816	4497.46
1001.55	2942.91
1005.28	2001.84
1009.01	1241.38
1012.74	925.211
1016.47	844.094
1020.19	935.703
1023.91	1244.49
1027.63	1694.65
1031.35	2351.93
1035.07	3457.15
1038.78	4908.3
1042.49	6702.95
1046.21	7691.87
1049.92	7604.65
1053.62	6824.77
1057.33	6099.07
1061.03	5747.86
1064.73	5473.71
1068.44	5745.03
1072.13	7160.76
1075.83	9975.77
1079.53	14216.1
1083.22	20847.1
1086.91	30299.1
1090.6	39737.4
1094.29	35286.1
1097.97	18295
1101.66	8085.01
1105.34	4143.44
1109.02	2473.32
1112.7	1669.09
1116.37	1289.22
1120.05	1022.8
1123.72	892.961
1127.39	780.684
1131.06	647.057
1134.73	523.866
1138.39	491.85
1142.06	436.128
1145.72	290.005
1149.38	189.596
1153.04	138.221
1156.69	75.949
1160.35	5.659
1164	25.249
1167.65	88.428
1171.3	130.038
1174.95	50.082
1178.6	45.39
1182.24	54.302
1185.88	79.426
1189.52	101.12
1193.16	84.319
1196.8	91.497
1200.43	56.378
1204.07	114.289
1207.7	47.815
1211.33	8.511
1214.96	3.831
1218.58	57.771
1222.21	2.425
1225.83	16.397
1229.45	20.684
1233.07	76.504
1236.69	78.85
1240.3	108.786
1243.92	91.31
1247.53	140.499
1251.14	143.309
1254.75	142.882
1258.35	191.169
1261.96	853.76
1265.56	214.235
1269.16	188.771
1272.76	234.963
1276.36	287.577
1279.96	258.399
1283.55	207.072
1287.14	181.34
1290.73	232.138
1294.32	272.546
1297.91	212.742
1301.5	221.739
1305.08	275.285
1308.66	219.067
1312.24	220.605
1315.82	194.458
1319.4	199.81
1322.97	240.802
1326.55	201.538
1330.12	222.295
1333.69	183.898
1337.26	267.563
1340.82	208.488
1344.39	260.628
1347.95	162.623
1351.51	258.752
1355.07	243.888
1358.63	282.113
1362.18	307.795
1365.74	371.826
1369.29	294.425
1372.84	269.671
1376.39	213.571
1379.94	243.226
1383.48	214.178
1387.03	206.084
1390.57	168.12
1394.11	136.713
1397.65	111.828
1401.19	145.393
1404.72	125.747
1408.26	163.237
1411.79	142.105
1415.32	159.621
1418.85	120.242
1422.37	86.025
1425.9	67.013
1429.42	24.315
1432.94	5.089
1436.46	49.571
1439.98	41.813
1443.5	79.382
1447.01	55.832
1450.53	36.779
1454.04	95.554
1457.55	47.196
1461.05	63.08
1464.56	67.495
1468.07	98.324
1471.57	36.977
1475.07	1.374
1478.57	75.141
1482.07	25.062
1485.56	52.381
1489.06	55.632
1492.55	25.96
1496.04	65.083
1499.53	49.446
1503.02	63.344
1506.5	9.998
1509.99	57.372
1513.47	0
