Measurement: Raman, 514 nm, ccw, Raman Data Processed
Mineral: Epidote
Rruff sample: R050064
Ideal chemistry: Ca_2_Fe^3+^Al_2_(Si_2_O_7_)(SiO_4_)O(OH)
Locality: East Xichang City, Meigu County, Sichuan Province, China
Source: Rock Currier
Description: Green prismatic crystals
Measured chemistry: (Ca_1.99_Mn_0.01_)_Î£=2_Fe^3+^_1.00_Al_2.00_(Si_2.00_O_7_)(Si_1.00_O_4_)O(OH);
Pin_id: L00177
Orientation: Laser parallel to -c* (0 0 -1). Fiducial mark perpendicular to laser is parallel to a [1 0 0]
Raman shift (cm-1)	intensity
84.529	0
88.728	1141.62
92.926	5727.57
97.121	14009.7
101.314	9057
105.505	3384.33
109.694	1195.15
113.881	844.771
118.066	567.545
122.249	834.325
126.43	1362.94
130.608	911.338
134.785	249.941
138.959	36.637
143.131	216.545
147.301	194.802
151.469	35.096
155.635	526.332
159.799	1619.48
163.961	3540.51
168.121	7807.29
172.278	9262.13
176.434	5967.96
180.587	2652.78
184.739	1460.38
188.888	799.39
193.035	261.924
197.18	317.562
201.324	619.414
205.465	265.464
209.603	42.41
213.74	136.79
217.875	826.051
222.008	2526.36
226.139	5022.71
230.267	6046.07
234.394	5720.34
238.518	6875.62
242.641	6418.44
246.761	3715.24
250.879	2207.1
254.996	1746.08
259.11	1203.56
263.222	1122.89
267.332	2436.72
271.44	5563.14
275.546	8252.66
279.65	6711.29
283.752	5015.98
287.852	3740.91
291.95	3180.16
296.046	3481.61
300.14	3458.18
304.231	3650.6
308.321	6105.52
312.409	8538.75
316.495	6266.13
320.578	4121.28
324.66	4118.27
328.739	4164.12
332.817	3357.57
336.892	2451.68
340.966	3526.41
345.037	6333.73
349.107	7451.65
353.174	5280.16
357.24	3394.52
361.303	3164.92
365.365	3770.19
369.424	3184.08
373.481	1537.03
377.537	452.265
381.59	526.925
385.642	1623.15
389.691	1419.96
393.738	273.409
397.784	465.531
401.827	597.478
405.868	387.952
409.908	351.798
413.945	2014.54
417.98	6339.15
422.014	14133.5
426.045	17188.7
430.075	20094.5
434.102	24211.1
438.127	18818.5
442.151	14926.7
446.172	19005.7
450.192	27055.4
454.209	32546
458.225	25997.2
462.238	14369.2
466.25	7271.71
470.259	4176.13
474.267	2397.54
478.273	1505.8
482.276	1141.54
486.278	1407.67
490.278	2427.15
494.276	4726.97
498.271	7557.11
502.265	8384.56
506.257	8772.31
510.247	7470.33
514.235	4574.62
518.221	3569.17
522.205	3539.96
526.187	2043.97
530.167	728.188
534.145	259.615
538.122	89.266
542.096	233.086
546.068	584.163
550.039	1024.1
554.007	2413.43
557.973	6058.26
561.938	16342.5
565.901	18594.1
569.861	9070.22
573.82	5479.15
577.777	5853.84
581.732	9379.39
585.685	13608.3
589.636	17151.1
593.585	24832.5
597.532	29437.2
601.477	24782.8
605.42	20313.4
609.361	20243.3
613.301	18788.8
617.238	12864.8
621.174	7346.66
625.108	4334.83
629.039	2766.91
632.969	2057.74
636.897	1473.78
640.823	1150.5
644.747	836.405
648.669	602.594
652.589	487.356
656.508	360.776
660.424	344.844
664.339	263.549
668.251	215.882
672.162	299.835
676.071	244.397
679.978	372.561
683.883	521.317
687.786	665.659
691.687	509.578
695.586	332.067
699.484	146.118
703.379	41.722
707.273	13.753
711.165	36.872
715.055	108.124
718.943	84.45
722.829	108.811
726.713	74.934
730.595	104.078
734.476	71.235
738.354	45.405
742.231	60.589
746.106	46.795
749.978	57.088
753.849	97.849
757.719	79.025
761.586	46.665
765.451	43.93
769.315	38.917
773.177	18.435
777.036	1.204
780.894	53.072
784.75	72.337
788.605	52.009
792.457	109.207
796.307	131.921
800.156	162.831
804.003	198.991
807.848	313.384
811.691	428.362
815.532	550.934
819.371	701.111
823.209	1062.9
827.045	1519.31
830.878	1864.35
834.71	1830.02
838.54	1876.35
842.369	1736.33
846.195	1936.98
850.02	2316.3
853.842	2943.32
857.663	4060.97
861.482	5452.72
865.299	6586.67
869.115	7128.71
872.928	7723.53
876.74	9993.59
880.55	15416.6
884.358	21414.8
888.164	20992.2
891.969	15020.1
895.771	11277.1
899.572	10962
903.371	13156.7
907.168	18106
910.963	25388.2
914.757	32116.2
918.548	28702.8
922.338	19073.9
926.126	11595.3
929.912	7370.77
933.697	5060.92
937.479	3729.81
941.26	2872.33
945.039	2485.28
948.816	2203.94
952.591	2455.37
956.365	2719.4
960.136	2881.68
963.906	2442.25
967.674	2331.06
971.441	2877.14
975.205	4652.44
978.968	6572.97
982.729	5537.73
986.488	3233.72
990.245	1870.95
994	1182.42
997.754	894.162
1001.51	703.155
1005.26	621.375
1009	759.746
1012.75	1173.48
1016.5	2043.63
1020.24	2250.77
1023.98	1694.26
1027.72	1362.63
1031.46	1639.74
1035.19	2354.58
1038.93	3511.62
1042.66	3735.17
1046.39	3087.09
1050.12	2243.85
1053.85	1879.8
1057.57	2219.56
1061.29	2740.16
1065.02	2389.39
1068.74	2305.45
1072.45	2793.14
1076.17	4526.86
1079.88	8259.08
1083.6	15872.2
1087.31	14744.5
1091.02	7386.77
1094.72	3163.08
1098.43	1609.36
1102.13	1069.08
1105.84	668.771
1109.54	523.39
1113.24	423.85
1116.93	372.111
1120.63	393.98
1124.32	292.115
1128.01	238.074
1131.7	193.88
1135.39	123.565
1139.08	60.429
1142.76	14.699
1146.45	7.62
1150.13	5.104
1153.81	19.304
1157.48	19.634
1161.16	50.495
1164.84	69.47
1168.51	62.496
1172.18	25.283
1175.85	46.298
1179.52	3.507
1183.18	19.248
1186.85	9.585
1190.51	26.412
1194.17	8.244
1197.83	0.917
1201.48	17.027
1205.14	10.856
1208.79	33.506
1212.44	0.89
1216.09	1.486
1219.74	13.209
1223.39	18.893
1227.03	2.082
1230.68	23.785
1234.32	22.069
1237.96	19.406
1241.6	14.768
1245.23	13.121
1248.87	18.335
1252.5	15.294
1256.13	3.537
1259.76	18.379
1263.39	0.492
1267.02	35.993
1270.64	55.489
1274.26	77.461
1277.88	121.248
1281.5	23.554
1285.12	55.48
1288.74	58.762
1292.35	71.918
1295.96	98.681
1299.57	92.221
1303.18	79.322
1306.79	56.539
1310.4	71.62
1314	43.876
1317.6	39.205
1321.2	10.932
1324.8	2.268
1328.4	24.385
1331.99	33.526
1335.59	43.908
1339.18	86.889
1342.77	132.874
1346.36	103.048
1349.95	119.191
1353.53	113.079
1357.12	179.321
1360.7	192.456
1364.28	192.408
1367.86	166.762
1371.44	178.59
1375.01	215.068
1378.59	163.444
1382.16	168.15
1385.73	138.08
1389.3	92.244
1392.87	88.897
1396.43	98.115
1399.99	88.753
1403.56	88.541
1407.12	118.575
1410.68	114.36
1414.23	124.426
1417.79	64.595
1421.34	58.622
1424.9	62.688
1428.45	82.741
1431.99	66.383
1435.54	85.609
1439.09	116.885
1442.63	116.655
1446.17	93.899
1449.71	90.839
1453.26	88.947
1456.79	83.821
1460.33	79.696
1463.86	114.889
1467.39	94.33
1470.92	69.202
1474.45	64.899
1477.98	53.907
1481.51	31.852
1485.03	82.367
1488.56	97.951
1492.08	44.073
1495.6	70.992
1499.11	34.279
1502.63	29.268
1506.14	74.558
1509.66	55.97
1513.17	47.308
