Measurement: Raman, 514 nm, ccw, Raman Data Processed
Mineral: Epidote
Rruff sample: R040092
Ideal chemistry: Ca_2_Fe^3+^Al_2_(Si_2_O_7_)(SiO_4_)O(OH)
Locality: Nahant, Massachusetts, USA
Source: University of Arizona Mineral Museum
Description: Green prismatic crystals imbedded in quartz
Measured chemistry: Ca_2.01_Al_2.00_Fe_1.00_(Si_1.00_O_4_)(Si_1.97_Fe_0.02_Al_0.01_Ti_0.01_O_7_)O(OH)
Pin_id: S00018
Orientation: Laser parallel to b* (0 1 0). Fiducial mark perpendicular to laser is parallel to c [0 0 1]
Raman shift (cm-1)	intensity
51.466	0
55.666	112.571
59.863	270.448
64.059	70.846
68.253	69.736
72.445	11.538
76.635	521.559
80.823	2080.07
85.009	5450.4
89.193	9387.58
93.375	7137.22
97.554	4193.54
101.732	1683.19
105.908	1116.05
110.082	502.327
114.254	572.479
118.424	716.127
122.592	1572.99
126.758	3497.83
130.922	7474.49
135.083	5293.86
139.243	2795.51
143.401	3164.77
147.557	3868.73
151.711	2840.53
155.863	4492.71
160.013	9523.45
164.161	17576.9
168.308	18329.1
172.452	11374.1
176.594	5908.04
180.734	2765.84
184.872	1433.53
189.008	976.112
193.143	1063.59
197.275	1923.95
201.405	2871.21
205.534	2165.35
209.66	1190.36
213.784	851.217
217.907	1178.23
222.027	2019.21
226.146	3241.34
230.263	4602.42
234.377	8145.61
238.49	16063.3
242.601	20597.7
246.709	11292.5
250.816	4632.6
254.921	2118.81
259.024	997.018
263.125	707.115
267.224	1307.01
271.321	2834.64
275.416	4529.94
279.51	3505.84
283.601	4318.31
287.69	8368.29
291.778	14278.7
295.863	11329.6
299.947	7136.89
304.029	3803.47
308.108	2262.34
312.186	1930.52
316.262	1972.98
320.336	3073.7
324.408	4841.69
328.478	5348.92
332.546	5158.39
336.612	6816.11
340.677	12111.1
344.739	22063.3
348.799	28229.8
352.858	19884.5
356.915	9867.25
360.969	4823.13
365.022	2381.06
369.073	1030.11
373.122	72.176
377.169	359.596
381.215	384.393
385.258	127.901
389.299	337.051
393.339	100.362
397.376	150.874
401.412	279.968
405.446	60.862
409.478	767.26
413.508	2141.38
417.536	4645.19
421.562	9029.64
425.586	12142.7
429.609	13273.2
433.629	17081.2
437.648	17288.5
441.665	19318.1
445.68	31762.7
449.693	45336.3
453.704	42638.9
457.713	34032.4
461.721	19323.8
465.726	9647.02
469.73	5313.2
473.731	3458.67
477.731	2694.18
481.729	2798.92
485.725	3597.43
489.72	6019.67
493.712	10923.6
497.703	15805.1
501.691	14083.9
505.678	9793.35
509.663	7138.82
513.646	3999.98
517.627	3183.55
521.607	3707.64
525.584	2576.24
529.56	968.314
533.534	196.85
537.506	46.653
541.476	48.925
545.444	242.607
549.41	1027.46
553.375	2635.48
557.337	7071.17
561.298	16846.6
565.257	19901.6
569.214	8553.49
573.17	4085
577.123	3543.54
581.075	4968.31
585.024	7161.08
588.972	8691.39
592.918	11701.6
596.863	15038.6
600.805	12707.4
604.746	9338.87
608.685	7740.98
612.621	6769.95
616.557	4857.52
620.49	2804.38
624.421	1570.47
628.351	903.342
632.279	614.777
636.205	373.983
640.129	230.294
644.051	134.968
647.972	93.864
651.89	75.187
655.807	41.079
659.722	21.448
663.636	81.227
667.547	109.49
671.457	254.318
675.365	505.716
679.271	888.669
683.175	1558.16
687.077	2062.19
690.978	1765.73
694.877	1031.98
698.774	570.76
702.669	267.756
706.562	112.662
710.454	11.031
714.344	10.46
718.232	64.775
722.118	126.9
726.002	148.007
729.885	136.208
733.766	129.95
737.645	103.897
741.522	86.425
745.397	29.431
749.271	37.821
753.143	55.611
757.013	66.056
760.881	177.635
764.748	252.515
768.613	267.781
772.476	180.442
776.337	134.432
780.196	96.698
784.054	114.195
787.91	133.947
791.764	172.988
795.616	205.354
799.467	241.093
803.316	332.155
807.163	366.403
811.008	471.649
814.851	565.714
818.693	672.885
822.533	828.735
826.371	1069.72
830.208	1244.22
834.042	1333.24
837.875	1386.79
841.706	1533.87
845.536	1826.5
849.363	2259.73
853.189	2965.68
857.013	4059.33
860.836	5716.73
864.656	7823.85
868.475	9578.12
872.292	12035.7
876.108	14132.8
879.922	14615.3
883.733	13855.3
887.544	11528
891.352	8208.5
895.159	6233.45
898.964	5908.26
902.767	6709.97
906.568	8469.78
910.368	10664.4
914.166	11806.4
917.962	10130.4
921.757	6454.04
925.55	4101.98
929.341	2745.57
933.13	1932.77
936.918	1492.96
940.703	1131.38
944.488	928.034
948.27	807.242
952.051	823.779
955.83	832.733
959.607	880.823
963.383	953.091
967.156	1166.62
970.928	1676.38
974.699	3042.34
978.468	4513.5
982.234	4153.85
986	2420.34
989.763	1431.04
993.525	927.982
997.285	780.579
1001.04	737.298
1004.8	640.743
1008.55	566.957
1012.31	715.942
1016.06	1259.93
1019.81	1343.22
1023.56	1133
1027.31	1197.93
1031.05	1734.21
1034.79	2703.93
1038.53	3765.68
1042.27	3831.46
1046.01	2938.67
1049.75	2049.36
1053.48	1711.05
1057.22	1919.24
1060.95	2124.82
1064.68	1852.72
1068.4	1542.86
1072.13	1813.22
1075.86	2648.23
1079.58	4166.71
1083.3	7301.97
1087.02	8395.93
1090.74	4259.34
1094.45	1840.52
1098.17	919.555
1101.88	659.788
1105.59	445.71
1109.3	336.015
1113.01	251.93
1116.71	230.367
1120.42	270.894
1124.12	799.09
1127.82	181.504
1131.52	392.891
1135.22	225.85
1138.91	7.624
1142.61	25.129
1146.3	25.32
1149.99	65.588
1153.68	85.041
1157.37	82.048
1161.06	45.089
1164.74	39.304
1168.42	20.272
1172.1	27.778
1175.78	16.634
1179.46	23.897
1183.14	25.864
1186.81	5.967
1190.48	38.298
1194.15	16.302
1197.83	11.161
1201.49	36.723
1205.16	14.003
1208.82	24.045
1212.49	53.02
1216.15	33.921
1219.81	47.743
1223.46	55.472
1227.12	7.105
1230.78	5.627
1234.43	1.969
1238.08	17.339
1241.73	4.694
1245.38	21.197
1249.03	2.683
1252.67	2.212
1256.31	9.722
1259.95	46.928
1263.6	3.393
1267.23	2.841
1270.87	7.704
1274.51	23.585
1278.14	58.988
1281.77	2.852
1285.4	47.094
1289.03	53.344
1292.66	35.148
1296.28	29.718
1299.91	26.895
1303.53	38.993
1307.15	25.442
1310.77	49.008
1314.38	576.642
1318	25.319
1321.61	55.793
1325.23	47.902
1328.84	14.262
1332.45	32.855
1336.06	48.122
1339.66	83.327
1343.27	80.255
1346.87	92.791
1350.47	136.674
1354.07	179.059
1357.67	172.254
1361.26	211.267
1364.86	183.103
1368.45	174.116
1372.04	174.891
1375.63	204.01
1379.22	182.984
1382.81	174.663
1386.39	131.131
1389.98	154.689
1393.56	148.762
1397.14	131.186
1400.72	105.552
1404.3	91.376
1407.87	108.57
1411.45	113.998
1415.02	84.703
1418.59	71.987
1422.16	78.046
1425.73	37.862
1429.29	57.616
1432.86	73.691
1436.42	73.946
1439.98	92.697
1443.54	84.995
1447.1	74.82
1450.66	60.167
1454.21	58.163
1457.77	81.804
1461.32	20.744
1464.87	33.831
1468.42	47.194
1471.96	35.914
1475.51	30.482
1479.06	28.167
1482.6	36.83
1486.14	13.613
1489.68	25.954
1493.22	53.831
1496.75	46.87
1500.29	39.986
1503.82	24.22
1507.35	32.812
1510.88	66.79
1514.41	45.525
1517.94	34.576
1521.46	0
