Measurement: Raman, 514 nm, ccw, Raman Data Processed
Mineral: Epidote
Rruff sample: R050064
Ideal chemistry: Ca_2_Fe^3+^Al_2_(Si_2_O_7_)(SiO_4_)O(OH)
Locality: East Xichang City, Meigu County, Sichuan Province, China
Source: Rock Currier
Description: Green prismatic crystals
Measured chemistry: (Ca_1.99_Mn_0.01_)_Î£=2_Fe^3+^_1.00_Al_2.00_(Si_2.00_O_7_)(Si_1.00_O_4_)O(OH);
Pin_id: L00177
Orientation: Laser parallel to -c* (0 0 -1). Fiducial mark perpendicular to laser is parallel to a [1 0 0]
Raman shift (cm-1)	intensity
83.128	0
87.329	641.509
91.527	3167.4
95.723	8065.34
99.917	7102.66
104.109	2881.65
108.298	1114.55
112.486	626.202
116.672	371.584
120.855	338.868
125.036	653.736
129.216	654.009
133.393	139.062
137.568	31.423
141.741	215.427
145.911	120.748
150.08	115.222
154.247	617.201
158.411	1745.96
162.574	4171.44
166.734	9840.9
170.893	14584.9
175.049	11719.3
179.203	5904.33
183.355	2813.97
187.505	1566.17
191.653	938.076
195.799	977.416
199.943	1613.24
204.084	1422.97
208.224	835.791
212.362	757.706
216.497	1385.7
220.631	3320.77
224.762	6839.89
228.891	9244.06
233.018	7989.33
237.144	7775.71
241.267	7352.23
245.388	4651.63
249.507	2258.74
253.624	1429.42
257.739	961.075
261.852	965.106
265.962	2120.54
270.071	5597.8
274.178	9503.07
278.283	7888.44
282.385	4740.48
286.486	3376.76
290.584	2990.37
294.681	3701.21
298.775	3857.17
302.868	3272.34
306.958	3975.28
311.047	5636.23
315.133	5029.51
319.217	3470.23
323.299	3262.78
327.38	3532.14
331.458	3240.19
335.534	2838.87
339.608	4189.17
343.681	8278.08
347.751	11726.6
351.819	9665.73
355.885	5365.45
359.949	3359.77
364.011	3055.67
368.071	2712.17
372.129	1388.25
376.185	439.921
380.239	375.676
384.291	1239.4
388.341	1661.66
392.389	728.486
396.435	190.061
400.479	498.249
404.521	513.706
408.561	96.73
412.599	710.578
416.636	2736.8
420.67	7345.94
424.702	12041.9
428.732	16578.7
432.76	25176.3
436.786	21924.7
440.81	14223.8
444.832	13183.7
448.852	17654.4
452.87	22395.7
456.887	20277.7
460.901	11950.3
464.913	5963.47
468.923	3140.22
472.931	1705.72
476.938	967.727
480.942	747.076
484.944	884.744
488.945	1527.71
492.943	3295.95
496.94	6036.46
500.934	7263.22
504.927	7750.22
508.917	7587.44
512.906	4925.87
516.892	2648.49
520.877	2112.29
524.86	1463.25
528.841	536.367
532.82	122.618
536.796	4.016
540.771	27.342
544.744	151.156
548.715	583.186
552.684	1210.08
556.652	3095.18
560.617	8378.65
564.58	13615.3
568.541	8266.57
572.501	4655.28
576.458	4592.26
580.414	6881.79
584.367	11231.1
588.319	14468.9
592.268	19790.2
596.216	26063.9
600.162	23989.4
604.106	19178.9
608.048	18444.1
611.988	18776
615.926	14138
619.862	8593.48
623.797	4942.82
627.729	3099.83
631.659	2035.59
635.588	1523.13
639.515	1135.43
643.439	875.936
647.362	664.065
651.283	483.836
655.202	388.24
659.119	336.267
663.034	298.91
666.947	256.159
670.859	134.009
674.768	128.451
678.676	221.478
682.581	313.56
686.485	442.26
690.387	401.004
694.287	229.304
698.185	164.574
702.081	100.979
705.975	40.88
709.868	12.833
713.758	1.352
717.647	56.235
721.533	5.11
725.418	62.204
729.301	42.251
733.182	88.351
737.061	40.583
740.939	45.868
744.814	58.185
748.688	88.158
752.559	60.031
756.429	45.546
760.297	57.033
764.163	21.515
768.027	34.665
771.89	20.087
775.75	6.928
779.609	47.343
783.465	88.24
787.32	62.653
791.173	137.587
795.024	151.087
798.873	156.176
802.721	267.871
806.566	331.182
810.41	376.119
814.252	551.693
818.092	692.913
821.93	1124.79
825.766	1650.33
829.601	2106.31
833.433	2284.45
837.264	2124.04
841.093	2065.34
844.92	2137.35
848.745	2378.11
852.568	2900.66
856.39	3779.25
860.209	5233.71
864.027	6356.68
867.843	7046.86
871.657	7456.62
875.47	8441.95
879.28	11786.1
883.089	17050.5
886.896	18840.4
890.701	15383.5
894.504	12477.5
898.305	12722.5
902.105	15832.7
905.902	21704.1
909.698	32412.8
913.492	44425.7
917.285	45535.8
921.075	31495.9
924.864	19157.6
928.65	11896.5
932.435	7808.37
936.218	5407.1
940	4006.35
943.779	3199.41
947.557	2763.17
951.333	2404.62
955.107	2488.38
958.879	2529.48
962.65	2357.94
966.418	2012.69
970.185	2113.72
973.95	2874.03
977.714	4218.59
981.475	4253.42
985.235	2736.52
988.993	1643.87
992.749	1041.49
996.503	685.384
1000.26	575.787
1004.01	548.242
1007.75	594.815
1011.5	930.421
1015.25	1529.11
1018.99	1902.73
1022.73	1533.09
1026.47	1266.34
1030.21	1443.73
1033.95	2174.54
1037.68	3152.49
1041.41	3876.94
1045.15	3171.3
1048.88	2317.72
1052.6	1724.95
1056.33	1791.26
1060.05	2296.15
1063.78	2200.67
1067.5	1685.64
1071.21	1777.99
1074.93	2546.95
1078.65	4807.32
1082.36	9861.73
1086.07	12889.9
1089.78	7387.1
1093.49	3178.7
1097.2	1497.67
1100.9	918.201
1104.6	612.536
1108.3	421.827
1112	348.458
1115.7	238.353
1119.4	199.9
1123.09	338.841
1126.78	139.978
1130.47	74.454
1134.16	91.045
1137.85	66.729
1141.54	13.143
1145.22	7.038
1148.9	14.851
1152.58	3.813
1156.26	38.786
1159.94	0.984
1163.61	17.631
1167.28	39.092
1170.95	17.982
1174.62	26.403
1178.29	12.551
1181.96	29.427
1185.62	44.666
1189.29	1.723
1192.95	0.45
1196.61	14.426
1200.26	5.235
1203.92	14.212
1207.57	3.715
1211.23	30.128
1214.88	12.561
1218.53	41.434
1222.17	31.321
1225.82	6.09
1229.46	38.301
1233.11	0.014
1236.74	3.946
1240.38	32.101
1244.02	17.687
1247.66	27.247
1251.29	33.93
1254.92	19.713
1258.55	18.353
1262.18	38.95
1265.81	7.539
1269.43	14.114
1273.06	61.114
1276.68	74.108
1280.3	90.499
1283.91	86.478
1287.53	65.959
1291.15	86.13
1294.76	96.627
1298.37	52.377
1301.98	75.229
1305.59	79.485
1309.19	61.823
1312.8	71.116
1316.4	62.01
1320	51.706
1323.6	54.998
1327.2	66.267
1330.8	64.07
1334.39	84.814
1337.98	50.056
1341.58	90.061
1345.16	91.589
1348.75	135.867
1352.34	180.764
1355.92	121.516
1359.51	176.136
1363.09	197.627
1366.67	174.441
1370.24	158.907
1373.82	158.32
1377.39	165.252
1380.97	169.879
1384.54	121.721
1388.11	100.672
1391.68	107.053
1395.24	113.58
1398.81	115.324
1402.37	103.119
1405.93	72.451
1409.49	50.178
1413.05	78.507
1416.6	52.529
1420.16	64.532
1423.71	75.064
1427.26	74.915
1430.81	108.532
1434.36	92.108
1437.91	68.057
1441.45	61.008
1444.99	109.34
1448.54	123.393
1452.08	91.168
1455.61	77.06
1459.15	102.937
1462.68	93.198
1466.22	52.909
1469.75	65.968
1473.28	84.095
1476.81	71.33
1480.33	80.444
1483.86	62.472
1487.38	121.499
1490.9	61.572
1494.42	59.277
1497.94	26.576
1501.46	12.317
1504.97	32.898
1508.49	50.736
1512	32.384
1515.51	19.135
