Measurement: Raman, 514 nm, ccw, Raman Data Processed
Mineral: Epidote
Rruff sample: R050303
Ideal chemistry: Ca_2_Fe^3+^Al_2_(Si_2_O_7_)(SiO_4_)O(OH)
Locality: San Martin mine, Zacatecas, Mexico
Source: Eugene Schlepp
Description: Green elongated prismatic crystals
Measured chemistry: Ca_2.00_Al_2.00_(Fe^3+^_0.97_Al_0.03_)(SiO_4_)(Si_2_O_7_)O(OH)
Pin_id: L01647
Orientation: Laser parallel to (1 0 1). Fiducial mark perpendicular to laser is parallel to b [0 1 0]
Raman shift (cm-1)	intensity
53.91	0
58.864	239.563
63.817	92.8896
68.767	102.198
73.714	389.077
78.659	2288.36
83.602	8546.56
88.542	18929.4
93.48	22302.1
98.416	13714.2
103.349	7029.73
108.28	4878.1
113.208	2578.31
118.134	2946.8
123.058	3056.9
127.979	2235.93
132.898	1786.7
137.814	1734.01
142.728	1456.21
147.639	1821.24
152.549	2998.63
157.455	5550.16
162.359	8699.12
167.261	9450.11
172.161	6466.02
177.058	3041.72
181.952	981.131
186.845	323.125
191.734	484.572
196.622	985.323
201.507	1051.95
206.389	4.01465
211.269	344.158
216.147	570.519
221.022	2763.5
225.895	4380.22
230.765	6356.88
235.633	8251.98
240.498	7150.52
245.361	5363.32
250.222	2743.84
255.08	1382.86
259.936	2368.68
264.789	3717.53
269.64	5837.58
274.488	6004.64
279.334	5330.45
284.178	4989.87
289.019	5490.16
293.857	5456.25
298.693	5147.07
303.527	6726.52
308.358	8646.49
313.187	8818.87
318.013	9878.58
322.837	10721.5
327.659	9021.59
332.478	7510.7
337.294	9049.73
342.108	13443.6
346.92	14367.2
351.729	11807.5
356.535	9278.7
361.34	7577.46
366.141	4377.26
370.94	1440.5
375.737	52.9639
380.531	290.696
385.323	792.742
390.113	259.29
394.9	182.769
399.684	74.1387
404.466	1082.31
409.245	2697.72
414.022	5107.03
418.797	8064.15
423.569	12596
428.338	18320.7
433.105	18858.2
437.87	20882.7
442.632	27532.4
447.391	32558
452.149	31691.7
456.903	23577.3
461.655	14001.7
466.405	6846.58
471.152	3145.83
475.897	1879.21
480.639	1875.4
485.378	3070.31
490.116	5817.75
494.85	7524.56
499.582	7568.66
504.312	6399.87
509.039	3690.93
513.764	1803.88
518.486	598.206
523.206	12.7383
527.923	340.291
532.638	492.516
537.35	299.656
542.059	99.5557
546.766	981.388
551.471	3253.98
556.173	9149.28
560.873	12176.2
565.57	10332.8
570.264	6740.04
574.957	5428.86
579.646	7763.06
584.333	10806.4
589.018	15562.8
593.7	18827.6
598.379	18287.2
603.056	17704.9
607.73	16026.9
612.402	11528.8
617.072	7079.83
621.739	4177.84
626.403	2617.2
631.065	1851.91
635.724	1518.61
640.381	1171.9
645.035	956.715
649.687	873.427
654.336	762.393
658.983	837.333
663.627	746.218
668.268	876.71
672.907	851.519
677.544	1109.64
682.178	1432.48
686.809	2027.49
691.438	1397.37
696.065	880.335
700.688	468.379
705.31	191.411
709.929	101.01
714.545	3.11768
719.158	64.5557
723.77	1.48364
728.378	122.905
732.984	41.272
737.588	152.19
742.189	17.208
746.787	82.0532
751.383	24.3101
755.976	2.12988
760.567	12.7422
765.155	29.022
769.741	61.2595
774.324	80.4353
778.904	44.3777
783.482	72.6807
788.058	106.449
792.631	196.59
797.201	235.895
801.769	384.937
806.334	537.577
810.897	632.974
815.457	1093.95
820.014	1475.71
824.569	2033.95
829.122	2413.28
833.671	2748.08
838.219	3242.49
842.763	4172.05
847.306	5753.55
851.845	8519.16
856.382	12386.3
860.917	15515.9
865.448	17990.6
869.978	23925.4
874.505	34858.3
879.029	47068.4
883.55	49261.6
888.069	37881.5
892.586	25879.9
897.1	19453.1
901.611	18091.2
906.12	20848.8
910.626	24117.4
915.129	21182
919.63	14046.1
924.129	8662.48
928.625	5134.73
933.118	3459.17
937.609	2229.5
942.097	1660.74
946.582	1305.83
951.065	1140.76
955.546	1011.55
960.023	975.229
964.499	1097.84
968.971	1842.41
973.441	3101.07
977.909	3558.85
982.374	2935.97
986.836	1639.6
991.295	848.112
995.753	645.495
1000.21	796.002
1004.66	1405.55
1009.11	3099.32
1013.55	4900.26
1018	4891.9
1022.44	3175.1
1026.88	1964.39
1031.32	1698.12
1035.75	1663.64
1040.18	1611.61
1044.61	1259.79
1049.04	957.722
1053.46	1023.14
1057.88	1283.48
1062.3	1257.68
1066.71	1588.7
1071.13	2313.51
1075.54	4084.05
1079.94	7680.42
1084.35	7917.73
1088.75	5280.44
1093.15	2384.5
1097.55	1027.39
1101.94	520.719
1106.34	317.78
1110.73	197.064
1115.11	97.1455
1119.5	20.1377
1123.88	4.67871
1128.26	36.7295
1132.63	9.16992
1137.01	93.355
1141.38	65.9888
1145.75	95.7803
1150.12	76.1787
1154.48	74.4297
1158.84	137.73
1163.2	10.3599
1167.55	4.85718
1171.91	21.0828
1176.26	22.4414
1180.61	41.8123
1184.95	57.7544
1189.29	92.9109
1193.63	93.6128
1197.97	31.5383
1202.31	83.7202
1206.64	95.9431
1210.97	86.5991
1215.29	137.293
1219.62	36.6741
1223.94	114.389
1228.26	25.4617
1232.57	4.8728
1236.89	101.385
1241.2	139.152
1245.51	86.1748
1249.81	91.4228
1254.12	73.8149
1258.42	23.3538
1262.72	127.713
1267.01	57.9512
1271.3	81.4712
1275.59	16.6895
1279.88	178.087
1284.17	172.191
1288.45	108.042
1292.73	87.2395
1297.01	27.9407
1301.28	18.6768
1305.55	133.326
1309.82	100.234
1314.09	87.8862
1318.35	98.9294
1322.61	87.4944
1326.87	105.719
1331.13	155.414
1335.38	120.946
1339.63	115.79
1343.88	154.798
1348.12	181.888
1352.37	222.969
1356.61	189.784
1360.85	168.619
1365.08	298.199
1369.31	225.026
1373.54	229.303
1377.77	187.965
1381.99	232.232
1386.22	170.22
1390.43	70.5227
1394.65	167.805
1398.87	141.404
1403.08	159.292
1407.29	176.907
1411.49	155.661
1415.69	154.57
1419.89	137.567
1424.09	175.621
1428.29	134.712
1432.48	110.9
1436.67	183.577
1440.86	95.0767
1445.04	39.887
1449.23	101.156
1453.4	154.922
1457.58	131.773
1461.76	123.532
1465.93	116.626
1470.1	101.603
1474.26	154.633
1478.43	168.72
1482.59	109.896
1486.75	96.6558
1490.9	88.7844
1495.06	89.0178
1499.21	47.2507
1503.35	148.849
1507.5	53.5376
1511.64	86.9314
1515.78	67.8774
1519.92	67.2302
1524.05	102.934
1528.18	48.0737
1532.31	4.68286
1536.44	35.7673
1540.56	36.4287
1544.69	37.8721
1548.8	107.287
1552.92	238.906
1557.03	65.1294
1561.14	22.6504
1565.25	8.2998
1569.36	38.6411
