Measurement: Raman, 514 nm, ccw, Raman Data Processed
Mineral: Epidote
Rruff sample: R050131
Ideal chemistry: Ca_2_Fe^3+^Al_2_(Si_2_O_7_)(SiO_4_)O(OH)
Locality: Calumet mine, Chaffee County, Colorado, USA
Source: Dave Bunk Minerals
Description: Green prismatic crystal
Measured chemistry: Ca_2.00_Al_2.00_(Fe^3+^_0.75_Al_0.25_)(SiO_4_)(Si_2_O_7_)O(OH)
Pin_id: L00285
Orientation: Laser parallel to c* (0 0 1). Fiducial mark perpendicular to laser is parallel to -a [-1 0 0]
Raman shift (cm-1)	intensity
129.268	0
133.427	167.573
137.584	370.275
141.74	248.907
145.893	327.882
150.044	554.424
154.193	699.129
158.341	1176.91
162.486	1559.78
166.63	2274.97
170.771	2098.76
174.911	1393.77
179.049	523.822
183.184	78.408
187.318	11.113
191.45	218.958
195.58	63.417
199.708	344.846
203.834	867.578
207.958	1415.86
212.081	1343.97
216.201	934.46
220.32	1033.41
224.436	1754.22
228.551	2796.33
232.663	3135.3
236.774	2567.63
240.883	2286.82
244.99	3225.99
249.095	3818.06
253.198	3304.39
257.299	2584.73
261.399	2114.92
265.496	2234.39
269.592	4029.54
273.685	9035.27
277.777	12676.6
281.867	7088.58
285.955	3889.19
290.041	3052.5
294.125	2659.45
298.207	2713.47
302.288	3199.89
306.366	2954.06
310.443	2126.48
314.517	2133.53
318.59	2235.12
322.661	1602.86
326.73	1075.29
330.797	1028.08
334.863	1090.35
338.926	667.113
342.988	1.197
347.047	123.201
351.105	739.912
355.161	760.651
359.215	89.558
363.267	46.023
367.317	201.641
371.366	254.416
375.412	118.472
379.457	422.208
383.5	287.314
387.541	464.357
391.58	1633.29
395.617	1720.54
399.652	714.11
403.686	142.001
407.717	3.427
411.747	442.479
415.775	2008.16
419.801	5797.52
423.825	13910.9
427.848	19055.2
431.868	14540.3
435.887	10436.2
439.904	9372.97
443.918	10280.4
447.932	13538.6
451.943	19087.3
455.952	21216.6
459.96	21706.2
463.966	19335.9
467.969	15135.9
471.972	10386
475.972	6826.24
479.97	4524.68
483.967	3555.3
487.961	3284.16
491.954	3007.27
495.945	2781.59
499.935	3240.12
503.922	4298.9
507.908	5355.94
511.891	5027.97
515.873	4011.46
519.853	3792.23
523.832	5735.69
527.808	5769.92
531.783	2901.28
535.756	1398.85
539.727	1031.04
543.696	919.503
547.663	1126.75
551.629	1885.09
555.592	2979
559.554	5073.52
563.514	10622.6
567.473	21810
571.429	17717.7
575.384	7597.44
579.337	4270.88
583.288	3807.41
587.237	4788.8
591.185	6760.1
595.13	9590.23
599.074	13855.6
603.016	16567.7
606.957	14111.9
610.895	10337.8
614.832	8016.13
618.767	5635.06
622.7	3671.88
626.631	2437.77
630.561	1794.8
634.489	1184.08
638.415	829.92
642.339	560.109
646.261	455.344
650.182	480.415
654.101	499.897
658.018	680.994
661.933	992.702
665.847	1194.04
669.758	1098.97
673.668	1064.47
677.577	999.521
681.483	1360.14
685.388	1696.31
689.29	1920.02
693.192	1575.28
697.091	1019.4
700.988	624.781
704.884	408.986
708.778	262.694
712.67	55.866
716.561	50.425
720.45	76.699
724.337	55.841
728.222	13.103
732.105	96.521
735.987	127.237
739.867	129.378
743.745	106.993
747.622	106.986
751.496	114.393
755.369	90.207
759.241	66.265
763.11	38.466
766.978	40.704
770.844	22.964
774.708	15.067
778.57	3.975
782.431	22.406
786.29	21.224
790.147	108.49
794.003	140.253
797.857	127.536
801.709	179.359
805.559	240.751
809.407	382.736
813.254	499.322
817.099	619.518
820.943	881.333
824.784	1353.78
828.624	2025.86
832.462	2513.59
836.299	2472.98
840.134	2235.03
843.967	2171.77
847.798	2323.2
851.628	2712.32
855.455	3193.15
859.281	3906.68
863.106	4752.2
866.929	6019.3
870.75	6927.55
874.569	7105.27
878.386	6887.68
882.202	7114.05
886.016	8140.43
889.829	10076.3
893.639	11043.9
897.448	10687.2
901.256	10792.1
905.061	12382.7
908.865	15810
912.667	19100.5
916.468	21599.1
920.267	21034
924.064	16737.8
927.859	12494.2
931.653	8840.86
935.445	6851.86
939.235	5672.25
943.024	4839.71
946.811	4228.2
950.596	3954.04
954.379	4111.04
958.161	4589.04
961.941	4700.3
965.72	4411.8
969.496	3867.55
973.272	3965.58
977.045	5320.87
980.817	8014.44
984.587	9315.28
988.355	6930.42
992.122	4123.85
995.887	2571.58
999.65	1682.61
1003.41	1100.96
1007.17	799.886
1010.93	618.312
1014.69	685.067
1018.44	812.536
1022.2	1239.07
1025.95	1577.36
1029.7	1758.23
1033.44	2234.26
1037.19	3379.1
1040.94	5069.17
1044.68	6315.05
1048.42	6398.22
1052.16	5321.02
1055.9	4263.74
1059.64	3919.89
1063.37	3675.62
1067.1	3251.43
1070.84	3295.13
1074.57	4232.63
1078.29	6680.54
1082.02	10275.4
1085.75	15621.9
1089.47	20520.8
1093.19	17708.2
1096.91	9176.65
1100.63	4005.59
1104.35	2096.7
1108.06	1277.47
1111.78	921.195
1115.49	696.533
1119.2	580.066
1122.91	509.333
1126.61	401.76
1130.32	335.394
1134.02	276.841
1137.72	262.229
1141.42	262.783
1145.12	221.021
1148.82	149.007
1152.52	64.966
1156.21	24.173
1159.9	12.328
1163.59	22.255
1167.28	29.191
1170.97	51.16
1174.65	13.881
1178.34	10.032
1182.02	59.297
1185.7	50.282
1189.38	50.051
1193.06	88.921
1196.73	81.82
1200.41	47.028
1204.08	33.234
1207.75	3.782
1211.42	14.557
1215.09	30.8
1218.76	30.361
1222.42	7.201
1226.08	6.29
1229.75	35.321
1233.41	51.67
1237.06	22.765
1240.72	33.603
1244.38	17.134
1248.03	9.55
1251.68	65.734
1255.33	46.655
1258.98	105.208
1262.63	136.681
1266.27	118.15
1269.92	101.067
1273.56	99.55
1277.2	72.039
1280.84	85.093
1284.47	103.699
1288.11	113.255
1291.74	101.373
1295.38	138.413
1299.01	143.669
1302.64	94.082
1306.27	118.736
1309.89	94.525
1313.52	103.652
1317.14	106.267
1320.76	114.212
1324.38	87.75
1328	82.353
1331.62	162.842
1335.23	111.143
1338.85	122.796
1342.46	88.241
1346.07	115.787
1349.68	147.057
1353.29	109.194
1356.89	159.966
1360.49	192.53
1364.1	175.546
1367.7	191.356
1371.3	208.586
1374.9	176.072
1378.49	179.186
1382.09	164.637
1385.68	120.883
1389.27	119.269
1392.86	90.233
1396.45	100.432
1400.04	144.766
1403.62	101.712
1407.21	125.715
1410.79	113.975
1414.37	104.608
1417.95	63.345
1421.53	49.749
1425.1	70.906
1428.68	41.602
1432.25	64.926
1435.82	41.244
1439.39	75.998
1442.96	84.384
1446.53	72.759
1450.09	73.126
1453.66	53.388
1457.22	30.293
1460.78	85.185
1464.34	45.943
1467.89	64.401
1471.45	33.977
1475.01	31.244
1478.56	26.066
1482.11	48.265
1485.66	60.433
1489.21	48.643
1492.75	67.107
1496.3	19.909
1499.84	38.332
1503.38	10.818
1506.93	26.686
1510.46	5.117
1514	0.52
1517.54	46.977
