Measurement: Raman, 514 nm, ccw, Raman Data Processed
Mineral: Epididymite
Rruff sample: R070580
Ideal chemistry: Na_2_Be_2_Si_6_O_15_H_2_O
Locality: Narsarsuk, Narsaq, Kitaa, Greenland
Source: James Shigley
Description: A translucent to white elongated prism.
Measured chemistry: (Na_1.97_K_0.03_)_Σ=2_Be_2_Si_6.00_O_15_·H_2_O; trace amounts of Al; Be and H_2_O assumed by stoichiometry
Pin_id: M01011
Orientation: Laser parallel to c* (0 0 1). Fiducial mark perpendicular to laser is parallel to a [1 0 0]
Raman shift (cm-1)	intensity
111.206	0
116.155	828.582
121.101	3473.77
126.045	4305.38
130.985	6934.04
135.923	7234.97
140.858	1207.32
145.79	334.086
150.719	601.635
155.646	300.556
160.569	35.1616
165.49	73.1377
170.408	173.887
175.324	88.7524
180.237	26.647
185.146	445.285
190.053	1170.25
194.958	2350.92
199.859	3101.26
204.758	2045.87
209.654	1071.03
214.547	565.295
219.438	439.852
224.326	551.948
229.211	1211.34
234.093	2318.95
238.972	4286.64
243.849	5283.4
248.723	3433.23
253.594	2275.12
258.462	2203.68
263.328	1935.33
268.191	1307.75
273.051	477.894
277.908	201.767
282.763	102.146
287.615	105.919
292.464	16.0166
297.31	68.5737
302.154	17.4688
306.995	19.459
311.833	94.1894
316.668	300.664
321.501	539.793
326.331	843.672
331.158	1277.89
335.983	2379.11
340.804	3750.3
345.623	7034.44
350.44	4159.1
355.253	1925.61
360.064	1639.82
364.872	1847.01
369.677	2637.21
374.48	5002.45
379.28	8651.73
384.077	9097
388.872	4464.35
393.663	1983.82
398.452	2443.32
403.239	5700.82
408.022	12884.3
412.803	6544.84
417.581	1219.27
422.357	301.715
427.129	56.0913
431.899	69.2837
436.667	43.2959
441.431	81.8809
446.193	96.6436
450.952	136.005
455.709	11.2949
460.463	432.424
465.214	328.736
469.962	1112.78
474.708	2448.56
479.451	2694.7
484.191	2261.14
488.929	2252.49
493.663	1064.76
498.396	1005.95
503.125	1686.11
507.852	4029.28
512.576	11585.9
517.298	27446.5
522.016	37479.9
526.732	13208.5
531.446	4545.04
536.156	1950.7
540.865	1199.92
545.57	848.373
550.273	479.272
554.973	537.981
559.67	428.04
564.364	339.347
569.056	828.562
573.746	973.965
578.432	2397.37
583.116	5372.93
587.798	4913.99
592.476	1415.72
597.152	511.899
601.825	330.219
606.496	106.183
611.164	56.1992
615.829	172.07
620.492	211.778
625.152	533.339
629.809	817.755
634.464	1495.3
639.116	722.875
643.765	245.038
648.412	34.415
653.056	37.4717
657.697	90.9258
662.336	51.0918
666.972	43.0537
671.605	37.6182
676.236	101.306
680.864	21.3369
685.49	1.20312
690.113	92.5019
694.733	130.973
699.351	35.3633
703.965	25.3711
708.578	114.776
713.187	192.116
717.794	74.4775
722.399	89.3428
727.001	45.3232
731.6	23.1328
736.196	28.1299
740.79	23.2061
745.381	226.205
749.97	279.399
754.556	284.909
759.139	238.609
763.72	400.136
768.298	85.7598
772.874	243.413
777.447	164.193
782.017	115.616
786.585	64.2803
791.15	142.94
795.712	308.554
800.272	229.442
804.829	173.868
809.384	103.565
813.936	250.548
818.485	144.714
823.032	206.162
827.576	208.067
832.118	171.768
836.657	153.377
841.193	140.58
845.727	200.431
850.258	175.265
854.787	201.831
859.313	214.19
863.836	345.705
868.357	338.394
872.875	420.779
877.391	357.597
881.904	383.664
886.414	335.898
890.922	335.66
895.427	155.115
899.93	75.2481
904.43	224.775
908.927	75.2598
913.422	131.955
917.914	27.4053
922.404	86.0879
926.891	147.141
931.376	133.041
935.858	15.6816
940.337	80.0215
944.814	117.897
949.289	249.835
953.76	25.4111
958.229	70.6494
962.696	30.0576
967.16	30.8408
971.621	23.6426
976.08	63.4297
980.537	15.1836
984.99	10.9023
989.442	228.184
993.89	133.462
998.336	157.172
1002.78	406.028
1007.22	486.764
1011.66	496.38
1016.1	335.746
1020.53	294.879
1024.96	433.618
1029.39	679.981
1033.81	851.896
1038.24	1298.96
1042.66	1371.02
1047.07	1407.04
1051.49	1525.18
1055.9	1303.04
1060.31	1127.88
1064.72	1342.17
1069.13	1149.66
1073.53	1040.6
1077.93	706.346
1082.33	591.785
1086.72	614.965
1091.12	317.356
1095.51	491.525
1099.89	522.127
1104.28	888.947
1108.66	1051.24
1113.04	1641.62
1117.42	2294.59
1121.79	3306.89
1126.16	4590.07
1130.53	7015.69
1134.9	10158.1
1139.27	10980.4
1143.63	8278.3
1147.99	4843.2
1152.35	2638.25
1156.7	1514.26
1161.05	1109.4
1165.4	761.31
1169.75	417.047
1174.09	429.386
1178.44	247.413
1182.78	267.133
1187.11	124.559
1191.45	253.656
1195.78	281.462
1200.11	63.7861
1204.44	91.0644
1208.76	10.4072
1213.08	69.5469
1217.4	222.815
1221.72	31.3115
1226.03	26.0918
1230.35	53.6582
1234.66	65.0547
1238.96	48.584
1243.27	155.006
1247.57	30.4648
1251.87	209.658
1256.17	236.107
1260.46	102.738
1264.75	155.816
1269.04	96.2168
1273.33	36.3828
1277.62	75.8066
1281.9	38.7832
1286.18	144.576
1290.45	207.857
1294.73	392.832
1299	389.533
1303.27	162.926
1307.54	225.119
1311.8	277.027
1316.07	279.209
1320.33	160.908
1324.58	122.119
1328.84	44.3125
1333.09	261.807
1337.34	154.977
1341.59	313.205
1345.83	46.9316
1350.08	230.773
1354.32	141.894
1358.55	147.168
1362.79	143.856
1367.02	232.266
1371.25	38.1289
1375.48	247.176
1379.71	64.6426
1383.93	3.21289
1388.15	35.2754
1392.37	58.0098
1396.58	90.5879
1400.8	82.0059
1405.01	89.7148
1409.21	261.43
1413.42	200.647
1417.62	120.096
1421.83	163.533
1426.02	347.371
1430.22	159.231
1434.41	450.815
1438.61	541.469
1442.79	374.619
1446.98	414.113
1451.16	455.06
1455.35	504.871
1459.52	418.174
1463.7	388.758
1467.87	460.904
1472.05	211.42
1476.21	262.588
1480.38	195.736
1484.55	68.457
1488.71	107.037
1492.87	33.8789
1497.03	72.3008
1501.18	140.607
1505.33	324.143
1509.48	341.057
1513.63	453.381
1517.77	166.174
1521.92	155.713
1526.06	239.387
1530.19	188.557
1534.33	353.326
1538.46	272.207
1542.59	232.49
1546.72	284.826
1550.85	174.746
1554.97	269.135
1559.09	65.7051
