Measurement: Raman, 514 nm, ccw, Raman Data Processed
Mineral: Epidote
Rruff sample: R050131
Ideal chemistry: Ca_2_Fe^3+^Al_2_(Si_2_O_7_)(SiO_4_)O(OH)
Locality: Calumet mine, Chaffee County, Colorado, USA
Source: Dave Bunk Minerals
Description: Green prismatic crystal
Measured chemistry: Ca_2.00_Al_2.00_(Fe^3+^_0.75_Al_0.25_)(SiO_4_)(Si_2_O_7_)O(OH)
Pin_id: L00135
Orientation: Laser parallel to (1 0 1). Fiducial mark perpendicular to laser is parallel to b [0 1 0]
Raman shift (cm-1)	intensity
88.728	0
92.926	19.458
97.121	354.588
101.314	443.427
105.505	341.377
109.694	304.207
113.881	525.33
118.066	267.853
122.249	239.985
126.43	216.195
130.608	134.423
134.785	16.966
138.959	275.787
143.131	936.955
147.301	2117.27
151.469	1679.12
155.635	1607.31
159.799	2682.58
163.961	4174.37
168.121	3520.51
172.278	1349.46
176.434	315.463
180.587	39.226
184.739	124.557
188.888	123.555
193.035	175.786
197.18	985.372
201.324	1772.07
205.465	1671.08
209.603	743.449
213.74	165.229
217.875	155.429
222.008	143.134
226.139	503.525
230.267	1720.54
234.394	3642.14
238.518	7067.74
242.641	11786.8
246.761	12818.4
250.879	7910.68
254.996	4028.89
259.11	2430.34
263.222	2296.14
267.332	3542.66
271.44	6261.58
275.546	9019.86
279.65	6348.25
283.752	3450.49
287.852	3255.01
291.95	4619.88
296.046	6453.14
300.14	6791.68
304.231	5575.3
308.321	2998.52
312.409	1168.35
316.495	564.796
320.578	321.836
324.66	427.464
328.739	688.65
332.817	1227.31
336.892	2111.44
340.966	4202.04
345.037	8269.47
349.107	12382.9
353.174	10469.1
357.24	5558.86
361.303	2754.86
365.365	1642.36
369.424	687.35
373.481	55.829
377.537	315.274
381.59	461.426
385.642	268.835
389.691	152.846
393.738	427.977
397.784	547.459
401.827	693.233
405.868	979.318
409.908	1427.45
413.945	2676.74
417.98	5825.3
422.014	12657.1
426.045	19050.1
430.075	17304.2
434.102	15739.2
438.127	18144.9
442.151	23131.1
446.172	33507.7
450.192	48804.9
454.209	57272.4
458.225	59140.4
462.238	49858.8
466.25	34707.8
470.259	21977.2
474.267	14367
478.273	10377.3
482.276	8068.19
486.278	7379.57
490.278	7201.41
494.276	7283.64
498.271	7696.25
502.265	8449.23
506.257	8342.59
510.247	6836.49
514.235	4174.1
518.221	1928.21
522.205	1157.63
526.187	861.367
530.167	361.398
534.145	154.712
538.122	133.612
542.096	342.174
546.068	670.82
550.039	1337.8
554.007	2637.51
557.973	5471.95
561.938	13236.3
565.901	25059.7
569.861	18432.3
573.82	7896.19
577.777	4611.62
581.732	4517.85
585.685	5431.81
589.636	6843.59
593.585	9277.27
597.532	13742.1
601.477	15901.6
605.42	12980.7
609.361	9649.75
613.301	7738.7
617.238	6080.55
621.174	3823.3
625.108	2284.93
629.039	1418.42
632.969	939.213
636.897	668.084
640.823	449.29
644.747	279.396
648.669	201.024
652.589	261.58
656.508	458.796
660.424	500.782
664.339	516.528
668.251	598.022
672.162	688.252
676.071	912.204
679.978	1477.87
683.883	2268.24
687.786	3233.31
691.687	3071.07
695.586	2078.69
699.484	1290.67
703.379	819.991
707.273	427.234
711.165	196.142
715.055	16.658
718.943	102.526
722.829	160.905
726.713	240.754
730.595	269.346
734.476	255.832
738.354	172.225
742.231	173.295
746.106	96.878
749.978	16.33
753.849	163.807
757.719	508.86
761.586	1047.53
765.451	1657.83
769.315	2071.75
773.177	1742.3
777.036	1069.47
780.894	487.29
784.75	147.743
788.605	12.811
792.457	49.34
796.307	26.278
800.156	97.668
804.003	179.655
807.848	325.298
811.691	456.613
815.532	557.606
819.371	592.283
823.209	504.651
827.045	603.717
830.878	705.487
834.71	818.968
838.54	995.167
842.369	1100.09
846.195	1403.75
850.02	1772.15
853.842	2284.29
857.663	3357.19
861.482	4583.85
865.299	6296.26
869.115	8154.86
872.928	9521.16
876.74	10172.4
880.55	9833.05
884.358	9145.89
888.164	8687.91
891.969	7585.62
895.771	5310.38
899.572	3619.17
903.371	2700.69
907.168	2420.97
910.963	2377.84
914.757	2103.83
918.548	1646.94
922.338	1228.18
926.126	1044.62
929.912	949.196
933.697	849.926
937.479	873.443
941.26	761.038
945.039	781.545
948.816	956.347
952.591	1096.69
956.365	1258.93
960.136	1432.92
963.906	1553.14
967.674	1843.62
971.441	2699.32
975.205	4847.24
978.968	8106.4
982.729	9769.78
986.488	6709.42
990.245	3630.32
994	2041.45
997.754	1165.82
1001.51	791.459
1005.26	509.561
1009	316.173
1012.75	320.7
1016.5	620.532
1020.24	1036.37
1023.98	1243.8
1027.72	1038.02
1031.46	1041.06
1035.19	1186.22
1038.93	1670.33
1042.66	2062.61
1046.39	2109.76
1050.12	1978.3
1053.85	1850.83
1057.57	2083.3
1061.29	2423.69
1065.02	2244.75
1068.74	2380.51
1072.45	3170.79
1076.17	5273.77
1079.88	8230.61
1083.6	11977.9
1087.31	15003.5
1091.02	12561
1094.72	6200.81
1098.43	2863.18
1102.13	1575.37
1105.84	1094.67
1109.54	819.68
1113.24	598.133
1116.93	536.248
1120.63	641.859
1124.32	588.665
1128.01	411.349
1131.7	296.426
1135.39	256.351
1139.08	166.541
1142.76	89.15
1146.45	52.37
1150.13	13.911
1153.81	1.602
1157.48	17.82
1161.16	61.814
1164.84	35.037
1168.51	68.486
1172.18	38.69
1175.85	27.289
1179.52	23.568
1183.18	40.779
1186.85	40.26
1190.51	21.974
1194.17	38.277
1197.83	23.856
1201.48	11.031
1205.14	27.602
1208.79	1.56
1212.44	10.528
1216.09	23.12
1219.74	19.529
1223.39	6.952
1227.03	5.17
1230.68	23.611
1234.32	30.872
1237.96	34.905
1241.6	22.625
1245.23	8
1248.87	15.015
1252.5	30.716
1256.13	2.055
1259.76	3.962
1263.39	71.668
1267.02	49.983
1270.64	71.941
1274.26	85.56
1277.88	57.937
1281.5	41.873
1285.12	90.474
1288.74	67.767
1292.35	92.753
1295.96	61.416
1299.57	118.616
1303.18	76.275
1306.79	114.739
1310.4	92.013
1314	117.986
1317.6	95.915
1321.2	116.904
1324.8	127.181
1328.4	91.664
1331.99	147.237
1335.59	255.536
1339.18	101.422
1342.77	163.854
1346.36	214.434
1349.95	237.259
1353.53	209.402
1357.12	221.385
1360.7	272.288
1364.28	230.379
1367.86	252.177
1371.44	251.186
1375.01	249.856
1378.59	280.275
1382.16	242.52
1385.73	204.822
1389.3	174.049
1392.87	216.601
1396.43	194.368
1399.99	174.954
1403.56	160.778
1407.12	175.466
1410.68	146.835
1414.23	137.494
1417.79	154.935
1421.34	127.78
1424.9	135.519
1428.45	113.45
1431.99	120.775
1435.54	107.626
1439.09	92.55
1442.63	99.497
1446.17	111.108
1449.71	45.323
1453.26	88.731
1456.79	65.145
1460.33	60.617
1463.86	75.235
1467.39	25.866
1470.92	40.946
1474.45	82.332
1477.98	60.024
1481.51	53.987
1485.03	26.807
1488.56	64.822
1492.08	32.183
1495.6	76.793
1499.11	53.568
1502.63	63.107
1506.14	24.298
1509.66	33.764
1513.17	0
