Measurement: Raman, 514 nm, ccw, Raman Data Processed
Mineral: Epididymite
Rruff sample: R070580
Ideal chemistry: Na_2_Be_2_Si_6_O_15_H_2_O
Locality: Narsarsuk, Narsaq, Kitaa, Greenland
Source: James Shigley
Description: A translucent to white elongated prism.
Measured chemistry: (Na_1.97_K_0.03_)_Σ=2_Be_2_Si_6.00_O_15_·H_2_O; trace amounts of Al; Be and H_2_O assumed by stoichiometry
Pin_id: M01011
Orientation: Laser parallel to c* (0 0 1). Fiducial mark perpendicular to laser is parallel to a [1 0 0]
Raman shift (cm-1)	intensity
111.206	0
116.155	770.352
121.101	1938.02
126.045	2597.41
130.985	3996.84
135.923	3064.74
140.858	693.202
145.79	8.7085
150.719	115.606
155.646	40.3159
160.569	44.5171
165.49	156.476
170.408	280.312
175.324	138.514
180.237	98.6221
185.146	183.993
190.053	661.562
194.958	1084.01
199.859	1260.74
204.758	852.352
209.654	339.836
214.547	335.293
219.438	448.275
224.326	687.279
229.211	1211.37
234.093	1955.44
238.972	2759.26
243.849	2752.98
248.723	1677.54
253.594	889.981
258.462	700.723
263.328	640.919
268.191	355.613
273.051	127.139
277.908	64.9824
282.763	54.833
287.615	45.4087
292.464	11.377
297.31	55.3208
302.154	15.1079
306.995	58.353
311.833	68.8648
316.668	125.252
321.501	183.329
326.331	486.125
331.158	629.754
335.983	735.192
340.804	606.427
345.623	762.168
350.44	376.188
355.253	230.956
360.064	71.9341
364.872	243.835
369.677	215.8
374.48	742.746
379.28	1250.69
384.077	1599.71
388.872	1102.84
393.663	844.976
398.452	1619.15
403.239	3602.33
408.022	5839.43
412.803	2895.64
417.581	608.744
422.357	233.963
427.129	274.935
431.899	510.066
436.667	646.224
441.431	178.28
446.193	14.623
450.952	34.5752
455.709	111.676
460.463	263.992
465.214	442.692
469.962	1343.05
474.708	2370.98
479.451	2512.69
484.191	2571.63
488.929	2129.28
493.663	914.924
498.396	688.561
503.125	974.93
507.852	2505.37
512.576	8087.48
517.298	15125.9
522.016	16544
526.732	6353.61
531.446	2188.93
536.156	1005.71
540.865	593.268
545.57	316.137
550.273	306.669
554.973	91.9609
559.67	206.85
564.364	122.288
569.056	286.613
573.746	490.246
578.432	1016.11
583.116	1678.19
587.798	1591.27
592.476	656.383
597.152	311.788
601.825	316.094
606.496	51.8018
611.164	35.9258
615.829	150.915
620.492	160.352
625.152	228.506
629.809	443.938
634.464	470.037
639.116	110.494
643.765	71.8125
648.412	8.47266
653.056	149.339
657.697	18.7695
662.336	63.542
666.972	123.18
671.605	107.264
676.236	10.1172
680.864	116.691
685.49	13.0801
690.113	123.756
694.733	8.89258
699.351	161.832
703.965	90.6533
708.578	39.8506
713.187	129.85
717.794	198.614
722.399	36.4639
727.001	91.0508
731.6	150.098
736.196	198.827
740.79	111.219
745.381	179.15
749.97	83.1728
754.556	184.528
759.139	145.025
763.72	218.108
768.298	219.194
772.874	105.319
777.447	117.294
782.017	226.7
786.585	23.9248
791.15	53.1787
795.712	123.914
800.272	299.654
804.829	224.421
809.384	378.066
813.936	481.758
818.485	511.435
823.032	224.559
827.576	224.679
832.118	202.46
836.657	251.732
841.193	238.768
845.727	245.773
850.258	250.573
854.787	329.302
859.313	281.168
863.836	312.493
868.357	321.924
872.875	275.713
877.391	286.126
881.904	325.033
886.414	257.081
890.922	169.469
895.427	128.773
899.93	62.3809
904.43	0.770508
908.927	152.676
913.422	115.635
917.914	191.502
922.404	27.7041
926.891	86.7744
931.376	48.2275
935.858	164.715
940.337	33.3291
944.814	83.041
949.289	110.471
953.76	16.6309
958.229	2.13769
962.696	104.705
967.16	24.375
971.621	92.0947
976.08	76.7402
980.537	156.097
984.99	39.169
989.442	57.8467
993.89	295.977
998.336	182.88
1002.78	264.856
1007.22	262.623
1011.66	288.128
1016.1	236.389
1020.53	228.384
1024.96	390.08
1029.39	334.856
1033.81	761.255
1038.24	966.309
1042.66	1053.84
1047.07	1266.91
1051.49	1090.43
1055.9	950.789
1060.31	795.372
1064.72	875.215
1069.13	865.662
1073.53	667.17
1077.93	312.366
1082.33	418.914
1086.72	156.796
1091.12	180.089
1095.51	152.837
1099.89	376.716
1104.28	322.539
1108.66	525.746
1113.04	672.27
1117.42	929.461
1121.79	1186.92
1126.16	1831.04
1130.53	2769.76
1134.9	3550.26
1139.27	3973.88
1143.63	2942.41
1147.99	1610.98
1152.35	926.45
1156.7	723.857
1161.05	448.299
1165.4	102.412
1169.75	68.2871
1174.09	132.522
1178.44	18.6719
1182.78	66.6289
1187.11	148.834
1191.45	45.25
1195.78	2.5625
1200.11	135.982
1204.44	182.947
1208.76	132.703
1213.08	67.3281
1217.4	23.6855
1221.72	55.6348
1226.03	212.08
1230.35	74.5019
1234.66	140.379
1238.96	170.723
1243.27	8.19922
1247.57	84.9648
1251.87	12.2285
1256.17	190.332
1260.46	247.328
1264.75	0.277344
1269.04	59.457
1273.33	98.1953
1277.62	129.211
1281.9	375.438
1286.18	258.238
1290.45	205.549
1294.73	129.865
1299	230.836
1303.27	206.281
1307.54	392.852
1311.8	196.549
1316.07	59.4609
1320.33	410.18
1324.58	238.223
1328.84	298.078
1333.09	224.49
1337.34	374.877
1341.59	247.244
1345.83	179.203
1350.08	304.07
1354.32	272.801
1358.55	191.344
1362.79	90.4238
1367.02	277.898
1371.25	323.791
1375.48	100.969
1379.71	246.398
1383.93	176.457
1388.15	24.793
1392.37	75.7344
1396.58	175.225
1400.8	118.647
1405.01	25.2324
1409.21	177.986
1413.42	178.445
1417.62	209.281
1421.83	195.691
1426.02	181.508
1430.22	598.521
1434.41	561.957
1438.61	542.41
1442.79	635.787
1446.98	746.033
1451.16	552.916
1455.35	446.414
1459.52	593.723
1463.7	328.996
1467.87	611.742
1472.05	373.367
1476.21	241.772
1480.38	159.31
1484.55	323.816
1488.71	411.906
1492.87	258.744
1497.03	222.606
1501.18	275.522
1505.33	42.6328
1509.48	249.205
1513.63	345.291
1517.77	316.305
1521.92	185.857
1526.06	196.275
1530.19	318.504
1534.33	202.24
1538.46	11.9746
1542.59	227.432
1546.72	53.5703
1550.85	221.33
1554.97	418.076
1559.09	165.746
