Measurement: Raman, 514 nm, ccw, Raman Data Processed
Mineral: Epidote
Rruff sample: R050303
Ideal chemistry: Ca_2_Fe^3+^Al_2_(Si_2_O_7_)(SiO_4_)O(OH)
Locality: San Martin mine, Zacatecas, Mexico
Source: Eugene Schlepp
Description: Green elongated prismatic crystals
Measured chemistry: Ca_2.00_Al_2.00_(Fe^3+^_0.97_Al_0.03_)(SiO_4_)(Si_2_O_7_)O(OH)
Pin_id: L01647
Orientation: Laser parallel to (1 0 1). Fiducial mark perpendicular to laser is parallel to b [0 1 0]
Raman shift (cm-1)	intensity
53.91	0
58.864	131.713
63.817	100.485
68.767	3.51758
73.714	40.3702
78.659	308.912
83.602	1330.37
88.542	2105.06
93.48	2325.93
98.416	1518.58
103.349	941.583
108.28	1154.16
113.208	553.773
118.134	931.584
123.058	911.188
127.979	1005
132.898	1545.66
137.814	2208.35
142.728	1927.94
147.639	2456.57
152.549	4223.31
157.455	6809.65
162.359	8144.6
167.261	7347.27
172.161	5150.69
177.058	2402.9
181.952	1219.89
186.845	997.65
191.734	1743.16
196.622	2707.39
201.507	2511.29
206.389	1782.66
211.269	956.004
216.147	739.4
221.022	1253.6
225.895	2947.96
230.765	6930.43
235.633	11322.2
240.498	10692.6
245.361	8475.96
250.222	4584.75
255.08	1945.67
259.936	1922.18
264.789	2700.99
269.64	3980
274.488	4468.12
279.334	5110.29
284.178	6215.52
289.019	7964.78
293.857	8215.99
298.693	6461.99
303.527	3853.78
308.358	1847.32
313.187	1227.6
318.013	1446.61
322.837	1864.31
327.659	2504.69
332.478	4024.73
337.294	8172.39
342.108	13548.6
346.92	14838.5
351.729	11719.4
356.535	6515.44
361.34	2615.72
366.141	837.137
370.94	5.62988
375.737	482.65
380.531	463.782
385.323	112.767
390.113	23.894
394.9	111.849
399.684	286.576
404.466	952.069
409.245	2564.12
414.022	6305.69
418.797	10753.8
423.569	14016.3
428.338	17764.2
433.105	19445.6
437.87	26562.6
442.632	39532.3
447.391	48938.9
452.149	49817.4
456.903	38848.7
461.655	25040.7
466.405	13199.5
471.152	7312.88
475.897	5104.77
480.639	4597.04
485.378	5715.64
490.116	8541.42
494.85	10244.3
499.582	9254.19
504.312	7214.85
509.039	4263.43
513.764	2735.92
518.486	1727.19
523.206	1155.55
527.923	467.412
532.638	106.569
537.35	192.05
542.059	146.052
546.766	1160.63
551.471	3903.78
556.173	11360.4
560.873	15444.6
565.57	13371.1
570.264	7817.77
574.957	4168.18
579.646	4862.56
584.333	6771.75
589.018	9817.83
593.7	11756.5
598.379	11595.5
603.056	9697.12
607.73	7448.7
612.402	5633.73
617.072	3739.27
621.739	2150.95
626.403	1067.69
631.065	620.343
635.724	360.965
640.381	231.145
645.035	88.2866
649.687	32.2935
654.336	75.8967
658.983	47.5354
663.627	167.126
668.268	275.779
672.907	666.664
677.544	1256.83
682.178	2027.8
686.809	2350.45
691.438	1858.33
696.065	1087.39
700.688	594.635
705.31	325.031
709.929	107.548
714.545	14.9756
719.158	3.95264
723.77	85.7483
728.378	79.7375
732.984	59.7815
737.588	103.747
742.189	15.9971
746.787	89.259
751.383	34.322
755.976	8.12842
760.567	20.4875
765.155	54.6636
769.741	38.5583
774.324	39.2507
778.904	5.22656
783.482	17.3189
788.058	71.387
792.631	85.0188
797.201	39.2856
801.769	74.0435
806.334	126.559
810.897	241.272
815.457	275.679
820.014	409.704
824.569	595.972
829.122	750.49
833.671	919.277
838.219	1213.36
842.763	1342.76
847.306	1970.29
851.845	2807.99
856.382	4211.5
860.917	5841.9
865.448	7746.65
869.978	9598.43
874.505	11205.4
879.029	12053.9
883.55	11611.9
888.069	9040.3
892.586	6321.12
897.1	4489.19
901.611	3816.12
906.12	3974.92
910.626	4235.68
915.129	3974.55
919.63	3124.55
924.129	1867.48
928.625	1090.61
933.118	740.25
937.609	463.634
942.097	461.652
946.582	401.925
951.065	473.467
955.546	558.291
960.023	820.427
964.499	1169.92
968.971	2204.78
973.441	4017.03
977.909	4888.78
982.374	4144.98
986.836	2365.78
991.295	1117.34
995.753	673.984
1000.21	394.741
1004.66	361.555
1009.11	660.38
1013.55	1093.52
1018	1202.12
1022.44	947.937
1026.88	720.641
1031.32	739.99
1035.75	1051.24
1040.18	1208.9
1044.61	1294.58
1049.04	1123.95
1053.46	1390.61
1057.88	1714.82
1062.3	2027.19
1066.71	2116.76
1071.13	2682.43
1075.54	4486.21
1079.94	7453.27
1084.35	8596.73
1088.75	6193.88
1093.15	2838.16
1097.55	1288.81
1101.94	705.544
1106.34	459.687
1110.73	372.115
1115.11	372.219
1119.5	500.989
1123.88	435.998
1128.26	234.218
1132.63	69.1103
1137.01	3.97241
1141.38	17.1821
1145.75	53.5276
1150.12	63.2329
1154.48	42.9465
1158.84	87.8413
1163.2	11.7488
1167.55	2.2832
1171.91	23.9307
1176.26	40.6169
1180.61	44.3682
1184.95	26.2185
1189.29	40.9275
1193.63	28.1133
1197.97	31.1094
1202.31	28.2488
1206.64	57.3889
1210.97	65.5727
1215.29	40.3723
1219.62	18.8564
1223.94	37.0994
1228.26	97.0725
1232.57	13.7908
1236.89	13.8633
1241.2	24.021
1245.51	26.5825
1249.81	6.19556
1254.12	3.40845
1258.42	63.9104
1262.72	53.8772
1267.01	70.439
1271.3	69.3408
1275.59	93.864
1279.88	115.217
1284.17	77.9968
1288.45	62.5955
1292.73	77.7124
1297.01	96.575
1301.28	29.772
1305.55	84.95
1309.82	72.7905
1314.09	71.8779
1318.35	64.6431
1322.61	61.1768
1326.87	79.9502
1331.13	109.92
1335.38	125.655
1339.63	168.977
1343.88	134.276
1348.12	157.637
1352.37	198.608
1356.61	229.567
1360.85	230.392
1365.08	212.243
1369.31	236.654
1373.54	228.688
1377.77	224.939
1381.99	166.955
1386.22	143.629
1390.43	167.296
1394.65	121.603
1398.87	219.391
1403.08	182.723
1407.29	174.97
1411.49	89.7544
1415.69	169.538
1419.89	94.6816
1424.09	45.1067
1428.29	122.751
1432.48	102.879
1436.67	49.2825
1440.86	79.179
1445.04	85.8999
1449.23	15.8562
1453.4	102.573
1457.58	32.7205
1461.76	64.8042
1465.93	14.7073
1470.1	83.4158
1474.26	39.126
1478.43	10.2175
1482.59	40.512
1486.75	80.2175
1490.9	62.9329
1495.06	45.9067
1499.21	84.5786
1503.35	48.6272
1507.5	30.0054
1511.64	99.4023
1515.78	66.6375
1519.92	39.321
1524.05	34.658
1528.18	49.0195
1532.31	57.1079
1536.44	26.2058
1540.56	26.4712
1544.69	148.667
1548.8	24.686
1552.92	93.9563
1557.03	57.627
1561.14	36.177
1565.25	27.0203
1569.36	3.95239
