Measurement: Raman, 514 nm, ccw, Raman Data Processed
Mineral: Epidote
Rruff sample: R050303
Ideal chemistry: Ca_2_Fe^3+^Al_2_(Si_2_O_7_)(SiO_4_)O(OH)
Locality: San Martin mine, Zacatecas, Mexico
Source: Eugene Schlepp
Description: Green elongated prismatic crystals
Measured chemistry: Ca_2.00_Al_2.00_(Fe^3+^_0.97_Al_0.03_)(SiO_4_)(Si_2_O_7_)O(OH)
Pin_id: L01452
Orientation: Laser parallel to c* (0 0 1). Fiducial mark perpendicular to laser is parallel to a [1 0 0]
Raman shift (cm-1)	intensity
53.91	0
58.864	340.888
63.817	34.6404
68.767	403.781
73.714	1872.8
78.659	5129.76
83.602	13322.3
88.542	24065.9
93.48	28020.7
98.416	16823.4
103.349	8368.98
108.28	8811.3
113.208	4541.15
118.134	3780.09
123.058	3687.26
127.979	2960.01
132.898	2782.91
137.814	2912.71
142.728	2741.58
147.639	2943.47
152.549	3754.38
157.455	5766.7
162.359	11281.6
167.261	19838.6
172.161	18577.6
177.058	9887.43
181.952	5602.13
186.845	4317.57
191.734	3508.61
196.622	4102.12
201.507	3843.9
206.389	2677.87
211.269	3022
216.147	4939.08
221.022	9315.59
225.895	13602.7
230.765	12337.1
235.633	11598.4
240.498	9836
245.361	4353.26
250.222	2205.15
255.08	1458.81
259.936	2228.69
264.789	3493.28
269.64	7609.49
274.488	7228.48
279.334	3578.09
284.178	2258.32
289.019	2417.34
293.857	2954.41
298.693	2716.01
303.527	3355.77
308.358	5359.44
313.187	4751.91
318.013	3460.09
322.837	3162.92
327.659	2638.3
332.478	4981.16
337.294	6138.4
342.108	12814
346.92	16710.8
351.729	10453.1
356.535	5060.33
361.34	2726.24
366.141	991.874
370.94	154.233
375.737	436.932
380.531	477.417
385.323	1318.27
390.113	567.757
394.9	480.19
399.684	824.889
404.466	496.299
409.245	520.56
414.022	3299.2
418.797	8975.89
423.569	15552.6
428.338	26490.4
433.105	30138.3
437.87	19642.4
442.632	18199.5
447.391	21610.6
452.149	20166.8
456.903	12159.3
461.655	5786.93
466.405	2735.38
471.152	991.279
475.897	380.44
480.639	610.831
485.378	1573.37
490.116	3950.98
494.85	6950.02
499.582	8426.52
504.312	8995.22
509.039	6747.19
513.764	2835.67
518.486	1091.15
523.206	280.459
527.923	36.4678
532.638	41.7578
537.35	104.45
542.059	499.277
546.766	1233.9
551.471	2801.29
556.173	7111.81
560.873	12336.4
565.57	7785.01
570.264	5678.43
574.957	7455.29
579.646	12039.4
584.333	17692.8
589.018	23767
593.7	30389
598.379	27117
603.056	22076.6
607.73	20698.2
612.402	17759
617.072	11002.2
621.739	6336.15
626.403	4090.9
631.065	2843.96
635.724	1997.78
640.381	1582.53
645.035	1180.38
649.687	794.715
654.336	661.287
658.983	482.001
663.627	326.497
668.268	222.288
672.907	272.001
677.544	215.277
682.178	271.293
686.809	190.962
691.438	226.823
696.065	65.0019
700.688	1.21191
705.31	22.7139
709.929	52.1279
714.545	30.2725
719.158	60.6387
723.77	57.7451
728.378	118.988
732.984	132.304
737.588	107.714
742.189	46.044
746.787	46.2412
751.383	59.9727
755.976	28.3203
760.567	85.7393
765.155	35.6836
769.741	109.818
774.324	56.8262
778.904	107.878
783.482	193.169
788.058	162.812
792.631	259.886
797.201	306.519
801.769	516.836
806.334	717.019
810.897	863.948
815.457	1397.1
820.014	1918.85
824.569	2658.78
829.122	3187.95
833.671	3190.36
838.219	3248.61
842.763	3230.46
847.306	3775.35
851.845	4516.38
856.382	5504.84
860.917	6479.52
865.448	6984.98
869.978	8194.31
874.505	10602.2
879.029	13918.2
883.55	14986.5
888.069	13913.4
892.586	14564
897.1	18374.6
901.611	25635.7
906.12	37496.4
910.626	49403.2
915.129	46608
919.63	30602
924.129	17700.2
928.625	10508.4
933.118	6708.68
937.609	4557.78
942.097	3445.47
946.582	2653.75
951.065	2408.64
955.546	2407.18
960.023	1997.43
964.499	1661.47
968.971	1995.45
973.441	2474.51
977.909	2395.83
982.374	1316.62
986.836	629.042
991.295	339.759
995.753	0.618164
1000.21	4.66504
1004.66	59.5459
1009.11	316.341
1013.55	683.106
1018	650.369
1022.44	635.112
1026.88	951.529
1031.32	1591.48
1035.75	1982.16
1040.18	2011.24
1044.61	1573.3
1049.04	1164.18
1053.46	1095.32
1057.88	1066.67
1062.3	986.21
1066.71	1231.81
1071.13	1831.41
1075.54	4095.02
1079.94	8989.65
1084.35	10133.2
1088.75	4964.76
1093.15	1978.7
1097.55	1048.3
1101.94	493.994
1106.34	396.409
1110.73	195.197
1115.11	129.617
1119.5	35.7559
1123.88	85.2598
1128.26	67.624
1132.63	84.4639
1137.01	46.2949
1141.38	10.5264
1145.75	22.9736
1150.12	97.7822
1154.48	129.131
1158.84	91.1231
1163.2	84.5478
1167.55	73.9365
1171.91	71.2559
1176.26	89.0264
1180.61	78.1592
1184.95	173.681
1189.29	128.477
1193.63	227.337
1197.97	275.965
1202.31	268.126
1206.64	145.589
1210.97	156.017
1215.29	155.74
1219.62	1.87598
1223.94	70.3721
1228.26	37.7119
1232.57	235.35
1236.89	40.8584
1241.2	76.2158
1245.51	114.136
1249.81	55.8594
1254.12	58.4658
1258.42	8.04199
1262.72	5.53906
1267.01	77.7656
1271.3	64.9883
1275.59	226.452
1279.88	91.3613
1284.17	95.8379
1288.45	99.7871
1292.73	70.7598
1297.01	36.9355
1301.28	0.605469
1305.55	138.419
1309.82	117.169
1314.09	50.125
1318.35	60.2217
1322.61	268.526
1326.87	149.16
1331.13	97.0947
1335.38	169.301
1339.63	165.807
1343.88	150.679
1348.12	136.382
1352.37	173.97
1356.61	356.299
1360.85	222.554
1365.08	208.189
1369.31	246.251
1373.54	297.102
1377.77	288.316
1381.99	283.245
1386.22	177.406
1390.43	147.231
1394.65	164.443
1398.87	228.699
1403.08	128.341
1407.29	234.846
1411.49	249.69
1415.69	188.013
1419.89	218.615
1424.09	440.569
1428.29	257.241
1432.48	289.106
1436.67	368.252
1440.86	317.526
1445.04	375.543
1449.23	349.569
1453.4	229.375
1457.58	324.264
1461.76	319.83
1465.93	386.079
1470.1	418.124
1474.26	310.952
1478.43	201.436
1482.59	422.91
1486.75	293.991
1490.9	157.998
1495.06	288.423
1499.21	294.703
1503.35	280.176
1507.5	368.123
1511.64	205.66
1515.78	165.569
1519.92	261.081
1524.05	194.05
1528.18	17.3955
1532.31	136.664
1536.44	44.585
1540.56	16.1641
1544.69	44.0869
1548.8	118.425
1552.92	228.619
1557.03	80.667
1561.14	106.536
1565.25	64.5723
1569.36	44.166
