Measurement: Raman, 514 nm, ccw, Raman Data Processed
Mineral: Epidote
Rruff sample: R050303
Ideal chemistry: Ca_2_Fe^3+^Al_2_(Si_2_O_7_)(SiO_4_)O(OH)
Locality: San Martin mine, Zacatecas, Mexico
Source: Eugene Schlepp
Description: Green elongated prismatic crystals
Measured chemistry: Ca_2.00_Al_2.00_(Fe^3+^_0.97_Al_0.03_)(SiO_4_)(Si_2_O_7_)O(OH)
Pin_id: L01741
Orientation: Laser parallel to -a* (-1 0 0). Fiducial mark perpendicular to laser is parallel to -b [0 -1 0]
Raman shift (cm-1)	intensity
53.91	0
58.864	324.426
63.817	113.677
68.767	90.2361
73.714	509.072
78.659	1929.28
83.602	6081.5
88.542	10175.4
93.48	7980.38
98.416	4972.07
103.349	3797.4
108.28	4399.11
113.208	3830.23
118.134	4057.28
123.058	4676.91
127.979	6863.65
132.898	7489.64
137.814	6336.66
142.728	7597.08
147.639	7573.14
152.549	8802.7
157.455	15317.5
162.359	25993.4
167.261	23803.2
172.161	15199.2
177.058	8427.41
181.952	5196.65
186.845	4018.89
191.734	4127.04
196.622	5327.98
201.507	5745.55
206.389	4006.04
211.269	3173.81
216.147	3214.93
221.022	3839.23
225.895	5554.19
230.765	10334.2
235.633	20440.2
240.498	27891.1
245.361	15506.3
250.222	6674.35
255.08	3110.14
259.936	2558.14
264.789	2114
269.64	2887.45
274.488	3543.27
279.334	5095.33
284.178	10002.6
289.019	18024.1
293.857	16609.7
298.693	8623.15
303.527	4420.29
308.358	2653.97
313.187	2821.13
318.013	4507.69
322.837	6835.61
327.659	7524.8
332.478	9125.19
337.294	16020.7
342.108	29433.3
346.92	38661
351.729	25159.7
356.535	11143.8
361.34	4702.39
366.141	1861.13
370.94	479.736
375.737	357.972
380.531	447.731
385.323	399.69
390.113	401.745
394.9	401.381
399.684	323.805
404.466	194.711
409.245	1304.63
414.022	4145.41
418.797	8879.98
423.569	12852.3
428.338	16702.3
433.105	22187.4
437.87	22819.7
442.632	32637
447.391	46156.7
452.149	36471.7
456.903	22725.6
461.655	11189.4
466.405	5906.95
471.152	4012.96
475.897	3611.51
480.639	4713.57
485.378	7700.99
490.116	13597.6
494.85	20444.1
499.582	19460.6
504.312	13498.9
509.039	8461.36
513.764	4175.15
518.486	3329.85
523.206	2680.62
527.923	1019.8
532.638	187.925
537.35	250.09
542.059	51.9883
546.766	946.588
551.471	3570.76
556.173	10451
560.873	20941.4
565.57	14494.3
570.264	5446.71
574.957	3880.6
579.646	5489.54
584.333	7786.31
589.018	10139.1
593.7	14560.4
598.379	13489.4
603.056	9284.62
607.73	7223.46
612.402	5869.27
617.072	3646.74
621.739	2156.32
626.403	1266.73
631.065	685.231
635.724	592.453
640.381	355.463
645.035	387.777
649.687	263.541
654.336	247.093
658.983	143.153
663.627	250.536
668.268	114.325
672.907	477.315
677.544	914.572
682.178	1590.15
686.809	1842.84
691.438	1152.72
696.065	593.409
700.688	275.779
705.31	259.871
709.929	0.317383
714.545	164.441
719.158	27.9121
723.77	155.052
728.378	177.189
732.984	45.1094
737.588	164.209
742.189	49.9522
746.787	75.1055
751.383	50.6924
755.976	101.625
760.567	67.1934
765.155	55.8301
769.741	216.393
774.324	62.1103
778.904	242.253
783.482	73.1289
788.058	101.03
792.631	285.93
797.201	279.419
801.769	341.674
806.334	489.896
810.897	421.557
815.457	536.225
820.014	837.85
824.569	916.669
829.122	1115.51
833.671	1148.39
838.219	1508.36
842.763	1791.71
847.306	2561.19
851.845	3709.02
856.382	5264.52
860.917	7607.28
865.448	10359.3
869.978	13759.3
874.505	16837
879.029	17006.8
883.55	15155.3
888.069	11364.8
892.586	7733.97
897.1	6103.39
901.611	5501.4
906.12	6062.02
910.626	6669.96
915.129	5754.54
919.63	3842.72
924.129	2307.41
928.625	1504.8
933.118	1012.86
937.609	707.715
942.097	472.606
946.582	439.044
951.065	532.027
955.546	398.4
960.023	337.255
964.499	612.656
968.971	1065.54
973.441	2335.01
977.909	2853.01
982.374	1729.84
986.836	902.221
991.295	402.237
995.753	493.934
1000.21	288.453
1004.66	631.359
1009.11	634.399
1013.55	1237.9
1018	1647.71
1022.44	1398.02
1026.88	1119.34
1031.32	1358.89
1035.75	1718.61
1040.18	1808.33
1044.61	1369.68
1049.04	1026.1
1053.46	928.607
1057.88	836.583
1062.3	1024.57
1066.71	947.31
1071.13	1372.17
1075.54	2132.57
1079.94	3766.72
1084.35	4780.5
1088.75	2549.25
1093.15	1086.53
1097.55	621.132
1101.94	442.659
1106.34	321.413
1110.73	338
1115.11	453.661
1119.5	581.246
1123.88	669.105
1128.26	494.149
1132.63	186.647
1137.01	76.4648
1141.38	11.0498
1145.75	96.6699
1150.12	40.9277
1154.48	98.6758
1158.84	108.126
1163.2	115.02
1167.55	72.375
1171.91	131.897
1176.26	88.6064
1180.61	37.4297
1184.95	58.5947
1189.29	114.141
1193.63	26.9512
1197.97	56.0176
1202.31	48.0117
1206.64	78.1152
1210.97	117.947
1215.29	58.0967
1219.62	35.9199
1223.94	220.475
1228.26	29.8574
1232.57	215.092
1236.89	81.1484
1241.2	227.111
1245.51	103.881
1249.81	228.246
1254.12	170.197
1258.42	72.4238
1262.72	47.3105
1267.01	427.255
1271.3	192.648
1275.59	134.442
1279.88	133.752
1284.17	187.867
1288.45	41.1211
1292.73	175.26
1297.01	191.132
1301.28	77.9473
1305.55	177.891
1309.82	91.6894
1314.09	292.44
1318.35	323.902
1322.61	259.748
1326.87	268.363
1331.13	318.386
1335.38	167.359
1339.63	234.09
1343.88	94.6865
1348.12	230.477
1352.37	238.856
1356.61	192.261
1360.85	190.763
1365.08	140.625
1369.31	123.012
1373.54	285.981
1377.77	219.333
1381.99	61.7676
1386.22	193.092
1390.43	110.452
1394.65	155.033
1398.87	82.5547
1403.08	175.168
1407.29	119.864
1411.49	217.575
1415.69	79.2676
1419.89	105.705
1424.09	215.977
1428.29	107.186
1432.48	341.385
1436.67	55.1758
1440.86	226.269
1445.04	387.94
1449.23	334.404
1453.4	479.492
1457.58	640.607
1461.76	445.488
1465.93	433.965
1470.1	181.584
1474.26	114.279
1478.43	419.254
1482.59	132.34
1486.75	356.326
1490.9	311.486
1495.06	38.5977
1499.21	152.301
1503.35	147.383
1507.5	35.5527
1511.64	199.836
1515.78	16.2402
1519.92	136.746
1524.05	140.305
1528.18	300.025
1532.31	169.244
1536.44	167.6
1540.56	46.6406
1544.69	229.184
1548.8	145.703
1552.92	329.014
1557.03	146.434
1561.14	128.541
1565.25	102.549
1569.36	77.7891
