Measurement: Raman, 514 nm, ccw, Raman Data Processed
Mineral: Epidote
Rruff sample: R050191
Ideal chemistry: Ca_2_Fe^3+^Al_2_(Si_2_O_7_)(SiO_4_)O(OH)
Locality: Pampa Blanca, Castrovirreyna Province, Huancavelica Department, Peru
Source: Dave Bunk Minerals
Description: Cluster of green elongated prismatic crystals
Measured chemistry: Ca_2.00_Al_2.00_(Fe^3+^_0.84_Al_0.16_)(SiO_4_)(Si_2_O_7_)O(OH)
Pin_id: L01410
Orientation: Laser parallel to c* (0 0 1). Fiducial mark perpendicular to laser is parallel to -a [-1 0 0]
Raman shift (cm-1)	intensity
53.91	0
58.864	239.59
63.817	29.3983
68.767	156.094
73.714	774.831
78.659	3221.05
83.602	10349.8
88.542	16321.9
93.48	12324.3
98.416	6550.31
103.349	3368.81
108.28	2881.55
113.208	2006.97
118.134	1696.46
123.058	1596.59
127.979	1301.36
132.898	1143.11
137.814	1412.56
142.728	1417.95
147.639	1802.75
152.549	2600.22
157.455	4433.03
162.359	9557.19
167.261	18499.8
172.161	21019.8
177.058	12533
181.952	6477.41
186.845	4174.03
191.734	3289.78
196.622	3554.56
201.507	3902.22
206.389	3065.62
211.269	2850.81
216.147	4110.51
221.022	7976.07
225.895	13771.1
230.765	14591.7
235.633	12484.9
240.498	11525.8
245.361	6852.46
250.222	2914.94
255.08	1455.7
259.936	1545.21
264.789	2502.19
269.64	5734.27
274.488	7121.39
279.334	3333.44
284.178	1730.43
289.019	1638.31
293.857	1883.99
298.693	1759.39
303.527	1697.44
308.358	1427
313.187	1093.98
318.013	1083.35
322.837	1273.07
327.659	1426.1
332.478	2874.4
337.294	5791.92
342.108	12681.6
346.92	18923.5
351.729	14148.2
356.535	6422.05
361.34	2212.96
366.141	577.671
370.94	181.023
375.737	514.292
380.531	464.099
385.323	2224.17
390.113	1857.87
394.9	276.746
399.684	403.686
404.466	473.406
409.245	239.203
414.022	2122.39
418.797	6940.45
423.569	13994.4
428.338	23279.1
433.105	32472.7
437.87	25455.4
442.632	19564.4
447.391	20980.6
452.149	22223.2
456.903	17174.1
461.655	9130.43
466.405	4395.17
471.152	2002.06
475.897	1136.89
480.639	1075.32
485.378	1865.07
490.116	3440.96
494.85	6425.93
499.582	9058.96
504.312	10533.1
509.039	9718.33
513.764	4765.25
518.486	1666.75
523.206	294.542
527.923	138.12
532.638	139.314
537.35	52.7022
542.059	224.09
546.766	703.39
551.471	1915.45
556.173	5291.62
560.873	12526.2
565.57	11595
570.264	6461.1
574.957	6234.84
579.646	10046.4
584.333	16372.8
589.018	23905.7
593.7	33844.2
598.379	35269.4
603.056	27633.7
607.73	23423.6
612.402	20344.9
617.072	13630.7
621.739	7478.15
626.403	4503.12
631.065	2996.84
635.724	2220.66
640.381	1610.09
645.035	1251.44
649.687	948.644
654.336	696.156
658.983	511.896
663.627	479.887
668.268	433.391
672.907	363.628
677.544	392.26
682.178	332.595
686.809	299.518
691.438	321.322
696.065	317.039
700.688	373.578
705.31	217.905
709.929	59.8999
714.545	20.168
719.158	31.7012
723.77	71.0781
728.378	77.2349
732.984	95.353
737.588	129.497
742.189	131.853
746.787	39.5234
751.383	67.0244
755.976	9.95898
760.567	165.213
765.155	333.99
769.741	222.525
774.324	59.8125
778.904	80.709
783.482	75.0562
788.058	9.79102
792.631	79.1216
797.201	139.212
801.769	259.202
806.334	387.286
810.897	483.06
815.457	748.464
820.014	1190.19
824.569	1718.01
829.122	2417.93
833.671	2506.98
838.219	2439.19
842.763	2194.12
847.306	2478.85
851.845	2747.78
856.382	3304.96
860.917	3520.16
865.448	3958.14
869.978	4283.92
874.505	4913.6
879.029	5773.74
883.55	6659.78
888.069	7494.47
892.586	9446.67
897.1	13502.3
901.611	20639.4
906.12	32673.1
910.626	48573.5
915.129	55330.3
919.63	41300.1
924.129	24315.7
928.625	13991.5
933.118	8305.85
937.609	5483.8
942.097	3931.46
946.582	2988.72
951.065	2701.53
955.546	2509.94
960.023	2261.98
964.499	1924.67
968.971	1905.05
973.441	2623.13
977.909	3061.02
982.374	2298.81
986.836	1130.8
991.295	740.222
995.753	354.444
1000.21	159.651
1004.66	145.47
1009.11	49.5151
1013.55	203.026
1018	360.22
1022.44	515.635
1026.88	768.832
1031.32	1357.71
1035.75	1945.48
1040.18	2224.65
1044.61	1964.7
1049.04	1577.35
1053.46	1398.73
1057.88	1373.78
1062.3	1045.67
1066.71	937.898
1071.13	1372.07
1075.54	2555.4
1079.94	5478.1
1084.35	9864.97
1088.75	7897.03
1093.15	3493.89
1097.55	1492.54
1101.94	771.75
1106.34	557.495
1110.73	472.332
1115.11	568.792
1119.5	1610.04
1123.88	1643.45
1128.26	609.527
1132.63	64.043
1137.01	20.7979
1141.38	12.542
1145.75	50.6289
1150.12	53.481
1154.48	103.781
1158.84	76.5469
1163.2	35.0059
1167.55	18.9302
1171.91	0.515625
1176.26	57.0142
1180.61	88.0815
1184.95	18.0078
1189.29	3.23731
1193.63	39.4727
1197.97	2.07422
1202.31	65.0644
1206.64	20.3784
1210.97	53.4448
1215.29	16.5884
1219.62	152.316
1223.94	34.1182
1228.26	154.435
1232.57	35.6006
1236.89	103.459
1241.2	65.6372
1245.51	13.4238
1249.81	80.4805
1254.12	60.4834
1258.42	11.7993
1262.72	101.779
1267.01	143.899
1271.3	139.719
1275.59	76.4209
1279.88	143.699
1284.17	178.579
1288.45	121.084
1292.73	124.516
1297.01	253.746
1301.28	148.122
1305.55	137.726
1309.82	159.031
1314.09	219.622
1318.35	170.711
1322.61	164.564
1326.87	141.551
1331.13	108.369
1335.38	125.637
1339.63	118.466
1343.88	120.177
1348.12	152.566
1352.37	194.349
1356.61	198.662
1360.85	138.806
1365.08	197.429
1369.31	127.446
1373.54	147.507
1377.77	80.5654
1381.99	88.4087
1386.22	74.1416
1390.43	40.4824
1394.65	89.0464
1398.87	87.4253
1403.08	117.119
1407.29	45.3603
1411.49	127.366
1415.69	94.333
1419.89	58.148
1424.09	45.3023
1428.29	190.412
1432.48	150.229
1436.67	200.268
1440.86	229.455
1445.04	253.536
1449.23	258.024
1453.4	295.449
1457.58	243.9
1461.76	184.315
1465.93	151.765
1470.1	208.24
1474.26	149.299
1478.43	190.615
1482.59	204.481
1486.75	77.769
1490.9	132.305
1495.06	129.086
1499.21	178.279
1503.35	64.1758
1507.5	107.087
1511.64	100.788
1515.78	74.5669
1519.92	205.702
1524.05	153.088
1528.18	78.9497
1532.31	196.248
1536.44	50.2251
1540.56	116.361
1544.69	127.094
1548.8	112.553
1552.92	294.054
1557.03	100.266
1561.14	1.9541
1565.25	121.894
1569.36	119.091
