Measurement: Raman, 514 nm, ccw, Raman Data Processed
Mineral: Epidote
Rruff sample: R050064
Ideal chemistry: Ca_2_Fe^3+^Al_2_(Si_2_O_7_)(SiO_4_)O(OH)
Locality: East Xichang City, Meigu County, Sichuan Province, China
Source: Rock Currier
Description: Green prismatic crystals
Measured chemistry: (Ca_1.99_Mn_0.01_)_Î£=2_Fe^3+^_1.00_Al_2.00_(Si_2.00_O_7_)(Si_1.00_O_4_)O(OH);
Pin_id: L00552
Orientation: Laser parallel to a* (1 0 0). Fiducial mark perpendicular to laser is parallel to -b [0 -1 0]
Raman shift (cm-1)	intensity
73.319	0
77.525	89.8
81.728	447.121
85.929	837.062
90.128	1170.23
94.324	2412.22
98.519	3633.51
102.712	2474.69
106.902	918.89
111.09	517.918
115.277	339.972
119.461	197.263
123.643	200.599
127.823	692.665
132.001	649.277
136.176	133.742
140.35	115.933
144.521	95.554
148.691	381.696
152.858	157.688
157.024	273.808
161.187	825.488
165.348	2495.01
169.507	4363.05
173.664	5748.83
177.819	4760.08
181.971	1908.19
186.122	728.096
190.271	375.397
194.417	25.853
198.562	77.292
202.704	573.116
206.844	370.891
210.983	150.364
215.119	236.67
219.253	74.581
223.385	440.977
227.515	1592.82
231.643	2582.28
235.769	2384.92
239.893	3865.03
244.014	5210.85
248.134	2547.03
252.252	998.591
256.367	988.419
260.481	861.204
264.592	533.532
268.702	612.406
272.809	1430.37
276.915	2953.18
281.018	2790.97
285.119	2377.09
289.218	2145.82
293.316	2896.26
297.411	3065.99
301.504	2335.06
305.595	1550.09
309.684	1790.77
313.771	3306.29
317.856	3385.62
321.939	2639.48
326.02	3620.12
330.099	5006.99
334.176	4280.91
338.251	2877.84
342.323	2824.79
346.394	4888.76
350.463	7965.59
354.53	6680.06
358.594	3697.7
362.657	2724.08
366.718	3371.05
370.777	3208.25
374.833	1576.82
378.888	657.46
382.941	386.665
386.992	706.072
391.04	1164.98
395.087	978.934
399.132	484.105
403.174	80.421
407.215	152.518
411.254	469.385
415.29	1169.11
419.325	1569.65
423.358	2393.06
427.389	3489.02
431.417	4783.58
435.444	10614.8
439.469	9234.97
443.492	5262.25
447.512	6749.63
451.531	10876.1
455.548	11996.7
459.563	8647.32
463.576	3788.01
467.587	1687.07
471.596	842.524
475.603	385.182
479.608	182.012
483.611	230.106
487.612	371.32
491.611	694.569
495.608	2012.84
499.603	4476.34
503.596	3728.05
507.587	2617.26
511.577	2597.69
515.564	1365.82
519.549	508.211
523.533	353.413
527.514	133.412
531.493	81.706
535.471	123.838
539.447	112.698
543.42	73.044
547.392	20.697
551.362	145.219
555.329	428.24
559.295	1103.67
563.259	3279.86
567.221	5284.8
571.181	2369.23
575.139	1376.2
579.095	1349.49
583.049	2188.2
587.002	3918.04
590.952	4886.79
594.9	6504.44
598.847	8828.89
602.792	7219.69
606.734	5631.55
610.675	6623.84
614.614	7507.15
618.55	5188.29
622.485	2830.28
626.418	1665.69
630.349	1068.58
634.279	693.794
638.206	512.634
642.131	405.292
646.055	380.763
649.976	287.05
653.896	221.151
657.814	171.059
661.729	112.765
665.643	157.258
669.555	113.53
673.465	130.576
677.373	166.399
681.28	168
685.184	293.38
689.087	429.709
692.987	392.544
696.886	178.054
700.783	104.593
704.677	53.986
708.57	8.812
712.462	2.573
716.351	40.358
720.238	33.548
724.124	20.148
728.007	8.254
731.889	7.12
735.769	45.914
739.647	18.624
743.523	2.188
747.397	20.423
751.269	36.118
755.139	31.287
759.008	22.863
762.875	25.765
766.739	9.016
770.602	25.422
774.463	12.413
778.323	10.448
782.18	34.078
786.035	46.5
789.889	82.728
793.741	88.777
797.591	87.652
801.439	128.358
805.285	156.898
809.129	192.277
812.971	224.182
816.812	299.617
820.651	328.848
824.488	481.359
828.323	659.325
832.156	880.097
835.987	952.053
839.817	958.323
843.644	1081.51
847.47	1283.76
851.294	1640.16
855.116	2328.17
858.936	3336.44
862.755	4984.54
866.571	5995.38
870.386	5912.01
874.199	6635.98
878.01	9090.08
881.82	13654.5
885.627	20423.5
889.433	21360.9
893.236	14274.8
897.038	9004.7
900.838	6627.51
904.637	6200.5
908.433	6921.91
912.228	9320.12
916.021	13083.5
919.812	13455.6
923.601	9221.73
927.388	5383.42
931.174	3268.72
934.958	2240.43
938.739	1605.51
942.52	1232.29
946.298	916.198
950.074	725.216
953.849	623.355
957.622	571.617
961.393	450.007
965.162	474.552
968.93	482.263
972.696	541.105
976.459	792.083
980.222	1115.23
983.982	1259.54
987.74	593.982
991.497	364.22
995.252	278.851
999.005	233.181
1002.76	282.808
1006.51	359.869
1010.25	646.102
1014	1216.28
1017.74	2501.07
1021.49	3214.16
1025.23	1949.79
1028.96	872.256
1032.7	579.48
1036.44	535.463
1040.17	599.691
1043.9	600.432
1047.63	405.13
1051.36	288.056
1055.09	211.208
1058.81	271.616
1062.54	379.296
1066.26	356.094
1069.97	297.905
1073.69	324.245
1077.41	473.941
1081.12	1037.41
1084.84	2636
1088.55	3339.55
1092.25	1488.47
1095.96	639.149
1099.67	303.094
1103.37	189.081
1107.07	131.879
1110.77	112.363
1114.47	96.298
1118.16	70.501
1121.86	52.484
1125.55	110.56
1129.24	33.253
1132.93	19.645
1136.62	16.758
1140.31	37.949
1143.99	4.068
1147.67	37.035
1151.35	12.967
1155.03	1.35
1158.71	27.955
1162.39	16.871
1166.06	23.492
1169.73	18.736
1173.4	15.544
1177.07	7.841
1180.74	3.472
1184.4	6.509
1188.07	8.092
1191.73	14.262
1195.39	57.304
1199.05	37.053
1202.7	48.09
1206.36	18.603
1210.01	46.272
1213.66	27.754
1217.31	1.53
1220.96	7.756
1224.6	23.988
1228.25	29.084
1231.89	4.789
1235.53	54.241
1239.17	33.208
1242.81	7.968
1246.44	15.383
1250.08	16.771
1253.71	2.572
1257.34	6.338
1260.97	0.021
1264.6	25.881
1268.22	37.71
1271.85	18.333
1275.47	39.811
1279.09	3.311
1282.71	25.556
1286.33	32.855
1289.94	55.758
1293.56	72.027
1297.17	96.71
1300.78	43.372
1304.39	16.85
1307.99	27.65
1311.6	4.758
1315.2	10.608
1318.8	64.956
1322.4	30.21
1326	61.34
1329.6	71.589
1333.19	53.382
1336.79	66.355
1340.38	46.152
1343.97	2.84
1347.56	14.428
1351.14	91.884
1354.73	84.164
1358.31	105.571
1361.89	91.49
1365.47	57.904
1369.05	75.659
1372.63	68.459
1376.2	73.235
1379.78	50.613
1383.35	90.443
1386.92	100.96
1390.49	50.461
1394.05	63.422
1397.62	73.341
1401.18	40.81
1404.74	100.088
1408.3	84.799
1411.86	68.418
1415.42	52.828
1418.97	20.793
1422.53	28.258
1426.08	75.923
1429.63	56.4
1433.18	39.859
1436.72	84.901
1440.27	96.341
1443.81	91.983
1447.36	55.247
1450.89	44.018
1454.43	34.697
1457.97	7.204
1461.51	50.085
1465.04	19.207
1468.57	33.604
1472.1	67.538
1475.63	75.998
1479.16	54.561
1482.68	77.638
1486.21	68.506
1489.73	26.67
1493.25	28.13
1496.77	18.214
1500.29	26.695
1503.8	5.6
1507.32	7.403
1510.83	55.988
1514.34	52.466
1517.85	16.363
1521.36	0
