Measurement: Raman, 514 nm, ccw, Raman Data Processed
Mineral: Epidote
Rruff sample: R040092
Ideal chemistry: Ca_2_Fe^3+^Al_2_(Si_2_O_7_)(SiO_4_)O(OH)
Locality: Nahant, Massachusetts, USA
Source: University of Arizona Mineral Museum
Description: Green prismatic crystals imbedded in quartz
Measured chemistry: Ca_2.01_Al_2.00_Fe_1.00_(Si_1.00_O_4_)(Si_1.97_Fe_0.02_Al_0.01_Ti_0.01_O_7_)O(OH)
Pin_id: M00265
Orientation: Laser parallel to -a [-1 0 0]. Fiducial mark perpendicular to laser is parallel to -b* (0 -1 0)
Raman shift (cm-1)	intensity
51.466	0
55.666	1089.84
59.863	1615.18
64.059	2054.1
68.253	650.54
72.445	40.392
76.635	259.106
80.823	2890.72
85.009	7919.41
89.193	12733
93.375	9395.7
97.554	4063.44
101.732	995.021
105.908	449.864
110.082	318.371
114.254	578.898
118.424	73.653
122.592	530.927
126.758	2563.74
130.922	5184.78
135.083	4923.53
139.243	1961.97
143.401	1053.04
147.557	1324.32
151.711	542.235
155.863	1433.42
160.013	4721.96
164.161	9466.61
168.308	12970.3
172.452	12522.4
176.594	7562.24
180.734	3718.89
184.872	2574.31
189.008	2420.51
193.143	479.49
197.275	413.245
201.405	736.778
205.534	423.082
209.66	192.855
213.784	166.501
217.907	851.439
222.027	2894.34
226.146	5421.36
230.263	6995.05
234.377	8013.19
238.49	12118.6
242.601	15279.7
246.709	10440.4
250.816	6536.1
254.921	5615.15
259.024	3855.8
263.125	2167.93
267.224	1675.52
271.321	2603.64
275.416	3673.59
279.51	2678.92
283.601	2740.55
287.69	5277.96
291.778	8526.83
295.863	6298.95
299.947	2510.75
304.029	1036.77
308.108	883.013
312.186	1733.47
316.262	2588.14
320.336	4467.02
324.408	6945.1
328.478	8488.37
332.546	7444.85
336.612	7044.52
340.677	9641.37
344.739	16258.4
348.799	20960.5
352.858	16097.8
356.915	8618.18
360.969	4788.64
365.022	3365.16
369.073	1752.5
373.122	276.486
377.169	272.082
381.215	176.638
385.258	1627.48
389.299	3149.01
393.339	3139.42
397.376	1397.67
401.412	565.586
405.446	643.367
409.478	1917.84
413.508	3476.07
417.536	4680.03
421.562	6692.64
425.586	10066.8
429.609	13956.4
433.629	19608.4
437.648	18078.9
441.665	13923.3
445.68	17232.9
449.693	22025.5
453.704	17926.9
457.713	12350.1
461.721	7113
465.726	3855.67
469.73	2572.03
473.731	1430.05
477.731	940.71
481.729	1263.96
485.725	2195.76
489.72	4393.1
493.712	8653.95
497.703	13060.3
501.691	13760
505.678	11702.2
509.663	9428.81
513.646	4997.77
517.627	2027.07
521.607	709.688
525.584	71.598
529.56	299.322
533.534	285.91
537.506	199.805
541.476	178.806
545.444	179.12
549.41	1147.03
553.375	2455
557.337	6176.66
561.298	13502.6
565.257	16896
569.214	9096.42
573.17	5295.9
577.123	5287.37
581.075	7637.16
585.024	10559
588.972	13784.8
592.918	17978.1
596.863	22696.5
600.805	20429.6
604.746	16945
608.685	16006.1
612.621	14703.8
616.557	11099.6
620.49	6639.97
624.421	3950.2
628.351	2636.47
632.279	1971.04
636.205	1582.8
640.129	1352.09
644.051	1158.53
647.972	913.192
651.89	759.143
655.807	576.341
659.722	558.771
663.636	720.417
667.547	619.269
671.457	744.309
675.365	872.526
679.271	979.91
683.175	1159.98
687.077	1064.29
690.978	868.945
694.877	563.503
698.774	334.273
702.669	149.587
706.562	135.375
710.454	45.031
714.344	73.059
718.232	105.958
722.118	133.91
726.002	151.114
729.885	169.707
733.766	140.411
737.645	116.748
741.522	77.396
745.397	47.969
749.271	75.728
753.143	25.193
757.013	95.815
760.881	62.58
764.748	188.28
768.613	214.07
772.476	266.99
776.337	218.048
780.196	245.26
784.054	228.653
787.91	353.241
791.764	357.057
795.616	535.141
799.467	690.517
803.316	841.2
807.163	1351.21
811.008	1231.55
814.851	1521.25
818.693	1841.32
822.533	2155.78
826.371	2548.65
830.208	3013.93
834.042	3212.66
837.875	3583.93
841.706	3895.92
845.536	4521.07
849.363	5813.33
853.189	7454.74
857.013	10412.9
860.836	15171.4
864.656	18052.7
868.475	19372.8
872.292	22645.1
876.108	30005.9
879.922	40133.2
883.733	47403
887.544	43264.6
891.352	30406.3
895.159	21172.5
898.964	17542.9
902.767	17740.8
906.568	20714.2
910.368	25435.4
914.166	30081.9
917.962	26517.4
921.757	18029.8
925.55	11818.6
929.341	7997.07
933.13	5629.49
936.918	4129.31
940.703	3176.94
944.488	2583.47
948.27	2297.15
952.051	2087.12
955.83	1999.48
959.607	1975.2
963.383	1737.31
967.156	1644.84
970.928	1766.77
974.699	2397.05
978.468	2954.69
982.234	2797.84
986	1979.16
989.763	1429.39
993.525	1410.45
997.285	1376.76
1001.04	1665.62
1004.8	1721.36
1008.55	2261.39
1012.31	3634.34
1016.06	6250.4
1019.81	6455.33
1023.56	4414.28
1027.31	3010.09
1031.05	2736.62
1034.79	3372.4
1038.53	3795.36
1042.27	3601.4
1046.01	2759.45
1049.75	2033.44
1053.48	1581.33
1057.22	1307.01
1060.95	1166.4
1064.68	923.355
1068.4	829.787
1072.13	1115.06
1075.86	1656.88
1079.58	2910.51
1083.3	5424.65
1087.02	6540.46
1090.74	4008.27
1094.45	1944.78
1098.17	1005.8
1101.88	635.301
1105.59	382.021
1109.3	255.756
1113.01	169.131
1116.71	141.994
1120.42	332.294
1124.12	657.164
1127.82	2.397
1131.52	60.665
1135.22	89.413
1138.91	115.978
1142.61	86.048
1146.3	101.234
1149.99	89.898
1153.68	157.46
1157.37	111.931
1161.06	65.16
1164.74	13.68
1168.42	79.141
1172.1	12.351
1175.78	34.422
1179.46	18.045
1183.14	70.895
1186.81	117.989
1190.48	486.55
1194.15	385.035
1197.83	62.719
1201.49	134.253
1205.16	134.538
1208.82	89.386
1212.49	112.603
1216.15	155.929
1219.81	148.092
1223.46	178.361
1227.12	130.577
1230.78	37.508
1234.43	74.228
1238.08	89.438
1241.73	107.585
1245.38	22.306
1249.03	12.397
1252.67	4.771
1256.31	26.486
1259.95	30.709
1263.6	90.613
1267.23	108.242
1270.87	73.008
1274.51	119.026
1278.14	96.95
1281.77	77.069
1285.4	168.077
1289.03	77.229
1292.66	165.274
1296.28	66.702
1299.91	54.834
1303.53	17.596
1307.15	1.591
1310.77	53.505
1314.38	65.5
1318	48.118
1321.61	46.466
1325.23	7.358
1328.84	12.644
1332.45	88.835
1336.06	46.831
1339.66	5.686
1343.27	93.035
1346.87	87.95
1350.47	123.442
1354.07	156.524
1357.67	119.205
1361.26	137.502
1364.86	159.434
1368.45	212.825
1372.04	196.865
1375.63	209.776
1379.22	219.716
1382.81	176.753
1386.39	206.278
1389.98	151.859
1393.56	167.547
1397.14	141.812
1400.72	194.902
1404.3	173.741
1407.87	172.036
1411.45	191.572
1415.02	186.421
1418.59	181.964
1422.16	118.027
1425.73	182.653
1429.29	143.892
1432.86	170.295
1436.42	160.707
1439.98	184.563
1443.54	153.951
1447.1	191.229
1450.66	215.747
1454.21	177.574
1457.77	177.411
1461.32	152.04
1464.87	132.913
1468.42	142.141
1471.96	21.797
1475.51	150.148
1479.06	64.076
1482.6	183.597
1486.14	77.916
1489.68	71.904
1493.22	70.037
1496.75	124.849
1500.29	115.973
1503.82	38.208
1507.35	53.126
1510.88	82.303
1514.41	104.193
1517.94	1.798
1521.46	85.016
