Measurement: Raman, 514 nm, ccw, Raman Data Processed
Mineral: Epidote
Rruff sample: R050131
Ideal chemistry: Ca_2_Fe^3+^Al_2_(Si_2_O_7_)(SiO_4_)O(OH)
Locality: Calumet mine, Chaffee County, Colorado, USA
Source: Dave Bunk Minerals
Description: Green prismatic crystal
Measured chemistry: Ca_2.00_Al_2.00_(Fe^3+^_0.75_Al_0.25_)(SiO_4_)(Si_2_O_7_)O(OH)
Pin_id: L00405
Orientation: Laser parallel to b* (0 1 0). Fiducial mark perpendicular to laser is parallel to c [0 0 1]
Raman shift (cm-1)	intensity
121.31	0
125.482	286.11
129.653	2081.32
133.821	4921.23
137.987	3812.66
142.152	1615.78
146.314	1252.13
150.474	1029.35
154.633	711.804
158.789	1557.24
162.943	3640.03
167.095	5119
171.246	3519.38
175.394	1869.31
179.54	767.237
183.684	212.554
187.826	50.473
191.967	119.968
196.105	138.643
200.241	29.363
204.375	255.013
208.507	223.468
212.638	121.448
216.766	301.62
220.892	686.834
225.016	1558.12
229.139	2490.4
233.259	2426.69
237.377	2267.89
241.493	3461.05
245.608	5192.28
249.72	4852.33
253.83	2736.78
257.939	1316.71
262.045	706.477
266.15	670.829
270.252	1240.58
274.353	2612.8
278.451	2891.5
282.548	1527.7
286.642	1279.31
290.735	1879.8
294.826	2978.2
298.914	3016.39
303.001	1704.74
307.086	835.594
311.168	219.774
315.249	195.847
319.328	251.764
323.405	692.363
327.48	1211.93
331.553	1263.61
335.624	1326.58
339.693	1672.9
343.76	2921.54
347.826	5628.28
351.889	6783.98
355.95	4209.54
360.01	1887.48
364.067	827.116
368.123	370.001
372.176	39.513
376.228	186.879
380.277	188.57
384.325	115.696
388.371	261.116
392.415	591.073
396.457	434.202
400.497	105.583
404.535	39.365
408.571	47.596
412.605	285.145
416.638	978.342
420.668	2461.85
424.697	5303.95
428.723	6365.6
432.748	5574.74
436.77	5162.31
440.791	5219.19
444.81	6458.29
448.827	10839.6
452.842	12560.9
456.855	10942.1
460.867	10163.3
464.876	7694.44
468.883	5312.56
472.889	3182.66
476.892	2130.47
480.894	1672.17
484.894	1692.58
488.892	1793.9
492.888	1960.24
496.882	2369.94
500.874	3155.03
504.865	3953.72
508.853	4325.48
512.84	4189.42
516.824	3081.84
520.807	2801.92
524.788	3356.51
528.767	2452.27
532.744	1165.96
536.719	540.454
540.693	263.639
544.664	178.848
548.634	345.994
552.601	722.204
556.567	1262.72
560.531	2629.14
564.493	6230.08
568.453	9962.19
572.412	5274.44
576.368	2227.36
580.323	1633.29
584.275	1723.15
588.226	2430.14
592.175	3119.73
596.122	4381.34
600.068	6078.42
604.011	5912.19
607.952	4529.33
611.892	3220.23
615.83	2237.97
619.766	1524.54
623.7	1005.94
627.632	618.336
631.563	452.106
635.491	211.419
639.418	170.193
643.343	128.478
647.266	91.855
651.187	26.109
655.106	83.874
659.024	179.41
662.939	270.731
666.853	324.834
670.765	283.715
674.675	309.365
678.583	352.775
682.49	596.934
686.394	751.836
690.297	802.484
694.198	461.021
698.097	299.673
701.995	267.44
705.89	145.042
709.784	65.346
713.675	32.697
717.565	66.331
721.453	45.761
725.34	40.96
729.224	100.983
733.107	112.958
736.988	123.978
740.867	91.021
744.744	28.983
748.62	7.241
752.493	14.804
756.365	29.916
760.235	184.681
764.103	352.172
767.969	565.401
771.834	603.373
775.697	417.09
779.558	196.555
783.417	152.771
787.274	105.729
791.13	86.41
794.983	64.819
798.835	12.623
802.686	121.33
806.534	224.784
810.38	280.276
814.225	353.233
818.068	397.4
821.909	676.214
825.749	844.83
829.586	1070.25
833.422	1111.49
837.256	960.538
841.088	828.413
844.919	887.117
848.748	952.655
852.575	1150.04
856.4	1337.27
860.223	1583.79
864.045	2086.26
867.864	2689.8
871.682	3341.07
875.499	4227.16
879.313	4610.99
883.126	3947.65
886.937	3335.6
890.746	3090.53
894.553	2916.22
898.359	2995.54
902.163	3367.58
905.965	4443.64
909.765	5910.2
913.564	7754.32
917.361	8367.13
921.156	7200.02
924.949	5110.01
928.74	3515.08
932.53	2442.21
936.318	1868.14
940.104	1588.52
943.889	1221.37
947.672	1023.7
951.453	919.273
955.232	902.424
959.01	981.194
962.785	1033.23
966.559	959.396
970.332	986.681
974.102	1071.1
977.871	1795.65
981.638	2782.34
985.404	2720.19
989.167	1734.2
992.929	968.383
996.689	620.739
1000.45	311.957
1004.2	169.223
1007.96	174.147
1011.71	158.909
1015.46	201.39
1019.21	210.519
1022.96	339.21
1026.71	389.425
1030.45	678.411
1034.19	1017.62
1037.94	1592.97
1041.68	2085.2
1045.41	2321.66
1049.15	2039.35
1052.88	1653.42
1056.62	1517.35
1060.35	1518.48
1064.08	1444.78
1067.8	1250.22
1071.53	1243.97
1075.25	1595.82
1078.97	2402.59
1082.7	3604.57
1086.41	5377.64
1090.13	5935.41
1093.85	4154.44
1097.56	1864.8
1101.27	844.592
1104.98	450.498
1108.69	343.709
1112.4	285.644
1116.1	201.299
1119.81	250.268
1123.51	503.953
1127.21	134.243
1130.91	27.245
1134.61	34.26
1138.3	53.01
1141.99	26.305
1145.68	86.206
1149.38	39.305
1153.06	1.302
1156.75	86.259
1160.43	15.487
1164.12	9.312
1167.8	17.695
1171.48	4.19
1175.16	8.395
1178.83	56.09
1182.51	8.484
1186.18	2.01
1189.85	29.828
1193.52	16.311
1197.19	41.682
1200.86	17.295
1204.52	58.444
1208.19	42.586
1211.85	22.356
1215.51	45.011
1219.17	11.404
1222.82	65.612
1226.48	90.706
1230.13	25.681
1233.78	72.874
1237.43	68.265
1241.08	28.104
1244.73	50.408
1248.37	7.708
1252.01	44.931
1255.66	39.922
1259.3	87.015
1262.93	67.623
1266.57	41.057
1270.21	56.336
1273.84	83.458
1277.47	26.986
1281.1	7.397
1284.73	23.612
1288.36	52.255
1291.98	111.135
1295.6	54.149
1299.23	74.804
1302.85	91.6
1306.46	46.817
1310.08	43.526
1313.7	35.933
1317.31	47.703
1320.92	74.463
1324.53	85.589
1328.14	32.243
1331.75	80.128
1335.35	66.176
1338.96	42.298
1342.56	40.489
1346.16	75.445
1349.76	53.694
1353.36	152.735
1356.95	111.584
1360.55	183.462
1364.14	147.016
1367.73	167.351
1371.32	130.566
1374.91	68.598
1378.49	71.1
1382.08	88.028
1385.66	77.681
1389.24	91.158
1392.82	151.497
1396.4	176.427
1399.97	166.783
1403.55	108.208
1407.12	66.014
1410.69	47.727
1414.26	57.921
1417.83	57.239
1421.4	96.785
1424.96	125.971
1428.53	5.516
1432.09	113.722
1435.65	72.648
1439.21	66.088
1442.76	68.573
1446.32	48.044
1449.87	111.296
1453.43	23.651
1456.98	59.864
1460.53	67.452
1464.07	82.103
1467.62	73.365
1471.16	106.661
1474.71	110.1
1478.25	178.863
1481.79	70.166
1485.32	65.094
1488.86	99.171
1492.39	92.119
1495.93	71.208
1499.46	6.505
1502.99	6.754
1506.52	47.729
1510.05	12.142
1513.57	99.701
1517.09	44.544
