Measurement: Raman, 514 nm, ccw, Raman Data Processed
Mineral: Epididymite
Rruff sample: R070580
Ideal chemistry: Na_2_Be_2_Si_6_O_15_H_2_O
Locality: Narsarsuk, Narsaq, Kitaa, Greenland
Source: James Shigley
Description: A translucent to white elongated prism.
Measured chemistry: (Na_1.97_K_0.03_)_Σ=2_Be_2_Si_6.00_O_15_·H_2_O; trace amounts of Al; Be and H_2_O assumed by stoichiometry
Pin_id: M01839
Orientation: Laser parallel to b* (0 1 0). Fiducial mark perpendicular to laser is parallel to -c [0 0 -1]
Raman shift (cm-1)	intensity
111.206	0
116.155	583.356
121.101	3084.13
126.045	4221.63
130.985	5852.46
135.923	6113.29
140.858	1154.82
145.79	305.547
150.719	572.972
155.646	281.127
160.569	86.3867
165.49	140.753
170.408	31.8686
175.324	4.62305
180.237	229.675
185.146	381.664
190.053	1348.69
194.958	2331.33
199.859	2728.4
204.758	1824.12
209.654	951.035
214.547	451.106
219.438	377.584
224.326	467.65
229.211	1183.68
234.093	2140.29
238.972	3761.17
243.849	4389.29
248.723	2784.63
253.594	2020.18
258.462	1600.26
263.328	1275.24
268.191	354.66
273.051	251.841
277.908	108.482
282.763	122.007
287.615	5.97754
292.464	131.576
297.31	5.31543
302.154	26.124
306.995	20.126
311.833	121.884
316.668	172.356
321.501	151.438
326.331	264.015
331.158	771.154
335.983	1881.41
340.804	3605.76
345.623	6073.16
350.44	3940.49
355.253	1762.26
360.064	1438.83
364.872	1749.49
369.677	2804.23
374.48	5420.03
379.28	8182.9
384.077	8135.83
388.872	3918.82
393.663	1729.95
398.452	2922.14
403.239	5919.41
408.022	11005.7
412.803	5920
417.581	1097.29
422.357	322.607
427.129	180.981
431.899	22.498
436.667	111.172
441.431	45.3135
446.193	64.6992
450.952	129.536
455.709	129.802
460.463	304.837
465.214	281.438
469.962	759.362
474.708	1486.28
479.451	2170.17
484.191	2109.05
488.929	1741.9
493.663	903.727
498.396	1071.54
503.125	1806.33
507.852	4357.11
512.576	13342.9
517.298	25412.6
522.016	31084.3
526.732	11849.2
531.446	4088.7
536.156	2050.98
540.865	1126.45
545.57	722.243
550.273	599.865
554.973	480.099
559.67	555.413
564.364	574.611
569.056	540.861
573.746	1307.62
578.432	2799.42
583.116	5164.78
587.798	4470.84
592.476	1487.03
597.152	654.019
601.825	383.43
606.496	367.765
611.164	170.421
615.829	240.481
620.492	577.564
625.152	898.562
629.809	1371.47
634.464	1666.29
639.116	858.017
643.765	616.646
648.412	560.181
653.056	473.823
657.697	113.16
662.336	109.394
666.972	189.518
671.605	42.5195
676.236	66.1738
680.864	26.8086
685.49	196.326
690.113	96.6172
694.733	66.3076
699.351	50.376
703.965	84.0664
708.578	119.128
713.187	77.6689
717.794	15.2168
722.399	64.0869
727.001	25.0117
731.6	100.802
736.196	190.421
740.79	140.918
745.381	27.2891
749.97	145.52
754.556	387.624
759.139	215.599
763.72	380.452
768.298	235.179
772.874	140.783
777.447	170.265
782.017	122.625
786.585	230.958
791.15	157.072
795.712	292.067
800.272	259.947
804.829	189.58
809.384	152.418
813.936	102.534
818.485	220.786
823.032	112.136
827.576	108.117
832.118	149.359
836.657	250.002
841.193	253.838
845.727	289.352
850.258	305.622
854.787	445.853
859.313	598.441
863.836	537.66
868.357	613.845
872.875	315.333
877.391	315.766
881.904	487.856
886.414	357.19
890.922	234.481
895.427	369.733
899.93	178.283
904.43	249.144
908.927	313.312
913.422	182.464
917.914	154.602
922.404	131.727
926.891	199.64
931.376	112.76
935.858	217.886
940.337	103.051
944.814	4.70508
949.289	62.4219
953.76	56.7295
958.229	24.0859
962.696	0.813477
967.16	82.4297
971.621	123.936
976.08	48.8984
980.537	85.7256
984.99	59.3721
989.442	13.3965
993.89	180.702
998.336	253.951
1002.78	706.509
1007.22	402.22
1011.66	334.03
1016.1	223.945
1020.53	231.975
1024.96	481.118
1029.39	162.407
1033.81	318.897
1038.24	414.519
1042.66	609.279
1047.07	888.181
1051.49	868.231
1055.9	693.5
1060.31	707.702
1064.72	744.385
1069.13	842.745
1073.53	753.678
1077.93	523.442
1082.33	523.038
1086.72	491.119
1091.12	526.437
1095.51	432.938
1099.89	527.538
1104.28	632.39
1108.66	1100.88
1113.04	1538.07
1117.42	2197.93
1121.79	2853.52
1126.16	4160.92
1130.53	6524.44
1134.9	9262.17
1139.27	9757.2
1143.63	7152.45
1147.99	4118.95
1152.35	2286.71
1156.7	1339.85
1161.05	886.278
1165.4	569.437
1169.75	437.301
1174.09	306.491
1178.44	415.905
1182.78	111.542
1187.11	245.405
1191.45	227.491
1195.78	158.802
1200.11	80.3252
1204.44	41.0225
1208.76	98.9297
1213.08	97.085
1217.4	135.262
1221.72	15.8711
1226.03	46.2773
1230.35	84.1865
1234.66	242.201
1238.96	142.933
1243.27	356.781
1247.57	201.9
1251.87	138.325
1256.17	114.013
1260.46	200.894
1264.75	239.284
1269.04	306.928
1273.33	263.793
1277.62	262.427
1281.9	263.522
1286.18	340.612
1290.45	81.7002
1294.73	196.833
1299	334.169
1303.27	275.545
1307.54	320.011
1311.8	287.562
1316.07	420.452
1320.33	334
1324.58	241.923
1328.84	194.138
1333.09	183.23
1337.34	58.4326
1341.59	6.72852
1345.83	155.641
1350.08	142.172
1354.32	101.04
1358.55	118.844
1362.79	84.3057
1367.02	60.7402
1371.25	126.077
1375.48	49.7627
1379.71	109.147
1383.93	205.305
1388.15	95.1494
1392.37	12.5859
1396.58	6.91016
1400.8	112.41
1405.01	36.877
1409.21	25.8574
1413.42	100.237
1417.62	121.871
1421.83	35.6377
1426.02	31.4688
1430.22	122.075
1434.41	317.142
1438.61	317.965
1442.79	518.558
1446.98	469.232
1451.16	793.039
1455.35	780.076
1459.52	732.867
1463.7	577.512
1467.87	384.795
1472.05	326.17
1476.21	448.598
1480.38	430.992
1484.55	387.801
1488.71	181.01
1492.87	224.394
1497.03	33.2383
1501.18	149.787
1505.33	22.293
1509.48	156.506
1513.63	4.34961
1517.77	87.5625
1521.92	248.022
1526.06	274.131
1530.19	124.012
1534.33	197.131
1538.46	170.945
1542.59	295.34
1546.72	138.268
1550.85	78.8438
1554.97	185.566
1559.09	118.068
