Measurement: Raman, 514 nm, ccw, Raman Data Processed
Mineral: Epidote
Rruff sample: R050131
Ideal chemistry: Ca_2_Fe^3+^Al_2_(Si_2_O_7_)(SiO_4_)O(OH)
Locality: Calumet mine, Chaffee County, Colorado, USA
Source: Dave Bunk Minerals
Description: Green prismatic crystal
Measured chemistry: Ca_2.00_Al_2.00_(Fe^3+^_0.75_Al_0.25_)(SiO_4_)(Si_2_O_7_)O(OH)
Pin_id: L00285
Orientation: Laser parallel to c* (0 0 1). Fiducial mark perpendicular to laser is parallel to -a [-1 0 0]
Raman shift (cm-1)	intensity
129.268	0
133.427	152.777
137.584	622.573
141.74	685.133
145.893	572.863
150.044	920.061
154.193	1155.11
158.341	1865.07
162.486	2570.33
166.63	3734.65
170.771	3260.78
174.911	1548.01
179.049	336.338
183.184	127.712
187.318	75.574
191.45	314.22
195.58	680.108
199.708	1412.18
203.834	2612.38
207.958	3594.47
212.081	3248.19
216.201	2645.62
220.32	3014.31
224.436	4076.52
228.551	5435.47
232.663	5134.07
236.774	3738.44
240.883	4038.04
244.99	5921.72
249.095	7148.57
253.198	6084.13
257.299	4331.01
261.399	3437.21
265.496	3896.19
269.592	7101.71
273.685	15529.7
277.777	22488.1
281.867	12897.2
285.955	6576.98
290.041	4577.55
294.125	4058.71
298.207	4764.27
302.288	5873.65
306.366	5349.94
310.443	3440.42
314.517	2402.34
318.59	1921.87
322.661	1484.68
326.73	1357.96
330.797	1147.18
334.863	528.773
338.926	44.293
342.988	637.115
347.047	638.602
351.105	266.64
355.161	15.358
359.215	17.518
363.267	154.614
367.317	414.999
371.366	363.59
375.412	114.43
379.457	171.515
383.5	812.839
387.541	2097.41
391.58	4260.22
395.617	4747.3
399.652	3158.73
403.686	2108.39
407.717	1754.28
411.747	2599.05
415.775	5144.88
419.801	11715.8
423.825	25827.8
427.848	35761
431.868	27735.4
435.887	18981
439.904	15887.7
443.918	17185.6
447.932	23494.6
451.943	33424.6
455.952	37485.4
459.96	38906.6
463.966	35448
467.969	28319.7
471.972	19701.7
475.972	12904
479.97	9226.53
483.967	7739.34
487.961	7212.47
491.954	6675.93
495.945	6029.43
499.935	6244.71
503.922	7027.46
507.908	7879.95
511.891	7925.54
515.873	6796.09
519.853	6958.56
523.832	11214.7
527.808	11513.2
531.783	6472.22
535.756	3424.99
539.727	2763.41
543.696	2553.42
547.663	2975.76
551.629	4110.4
555.592	5911.54
559.554	9354.78
563.514	18671.1
567.473	37387.4
571.429	31011.6
575.384	13799.8
579.337	7789.97
583.288	6555.43
587.237	7805.45
591.185	10453
595.13	14442.9
599.074	20751.3
603.016	24675.5
606.957	21549
610.895	15749.1
614.832	11922.2
618.767	8425.81
622.7	5710.71
626.631	4049.71
630.561	3096.02
634.489	2158.71
638.415	1494.61
642.339	1030.63
646.261	840.467
650.182	845.846
654.101	823.96
658.018	1177.86
661.933	1650.27
665.847	2095.01
669.758	2042.8
673.668	1836.74
677.577	1915.41
681.483	2351.75
685.388	2977.72
689.29	3402.29
693.192	2877.46
697.091	1792.22
700.988	1118.57
704.884	694.476
708.778	405.933
712.67	144.932
716.561	17.425
720.45	101.682
724.337	98.784
728.222	118.211
732.105	140.113
735.987	201.572
739.867	218.641
743.745	174.467
747.622	184.982
751.496	160.274
755.369	179.297
759.241	149.006
763.11	70.272
766.978	23.901
770.844	61.677
774.708	8.591
778.57	56.418
782.431	68.102
786.29	1.353
790.147	20.103
794.003	93.251
797.857	171.896
801.709	227.091
805.559	334.86
809.407	443.213
813.254	673.159
817.099	923.701
820.943	1296.83
824.784	2014.53
828.624	3116.81
832.462	3730.67
836.299	3650.12
840.134	3350.18
843.967	3140.85
847.798	3288.15
851.628	3658.08
855.455	4452.67
859.281	5244.92
863.106	6331.85
866.929	7673.86
870.75	8997.67
874.569	9431.51
878.386	8672.99
882.202	7785.43
886.016	7824
889.829	8768.29
893.639	9890.31
897.448	10651.9
901.256	12322.9
905.061	15294.1
908.865	20324.3
912.667	25092.1
916.468	28303.9
920.267	27167.3
924.064	21562.6
927.859	16133.3
931.653	11677.5
935.445	9325.03
939.235	8124.52
943.024	7000.53
946.811	6140.78
950.596	5700.71
954.379	5899.69
958.161	6496.1
961.941	6966.86
965.72	6537.99
969.496	5890.48
973.272	6267.35
977.045	8303.59
980.817	12776.2
984.587	15429.2
988.355	11512.6
992.122	6966.46
995.887	4269.71
999.65	2707.39
1003.41	1735.52
1007.17	1184.1
1010.93	949.147
1014.69	927.746
1018.44	949.974
1022.2	1330.76
1025.95	1772.09
1029.7	2240.78
1033.44	3311.15
1037.19	5261
1040.94	7944.06
1044.68	9949.53
1048.42	10028.8
1052.16	8401.88
1055.9	6798.79
1059.64	6398.77
1063.37	6126.3
1067.1	5414.7
1070.84	5459.53
1074.57	6921.04
1078.29	10938.8
1082.02	16644.8
1085.75	25412.4
1089.47	33518.2
1093.19	29014.5
1096.91	15178.8
1100.63	6605.89
1104.35	3388.86
1108.06	2122.35
1111.78	1450.5
1115.49	1175.53
1119.2	986.519
1122.91	783.832
1126.61	690.354
1130.32	528.486
1134.02	482.581
1137.72	461.93
1141.42	476.708
1145.12	351.345
1148.82	229.901
1152.52	126.868
1156.21	44.296
1159.9	25.8
1163.59	42.491
1167.28	54.936
1170.97	76.354
1174.65	27.16
1178.34	5.956
1182.02	54.796
1185.7	76.154
1189.38	85.98
1193.06	95.718
1196.73	94.618
1200.41	20.353
1204.08	26.894
1207.75	45.208
1211.42	56.108
1215.09	36.525
1218.76	20.399
1222.42	6.682
1226.08	19.614
1229.75	66.522
1233.41	33.079
1237.06	44.229
1240.72	58.043
1244.38	56.533
1248.03	32.704
1251.68	76.532
1255.33	67.1
1258.98	112.318
1262.63	132.448
1266.27	195.997
1269.92	186.22
1273.56	134.082
1277.2	169.355
1280.84	123.408
1284.47	154.875
1288.11	161.622
1291.74	149.319
1295.38	211.72
1299.01	210.406
1302.64	143.918
1306.27	158.433
1309.89	171.506
1313.52	136.047
1317.14	141.415
1320.76	129.969
1324.38	134.241
1328	167.192
1331.62	169.345
1335.23	175.879
1338.85	154.149
1342.46	128.967
1346.07	148.953
1349.68	165.245
1353.29	222.148
1356.89	259.5
1360.49	239.466
1364.1	325.236
1367.7	306.511
1371.3	265.564
1374.9	242.97
1378.49	162.305
1382.09	184.022
1385.68	193.884
1389.27	178.614
1392.86	158.288
1396.45	136.885
1400.04	142.241
1403.62	121.547
1407.21	137.565
1410.79	107.656
1414.37	111.563
1417.95	112.458
1421.53	88.829
1425.1	56.997
1428.68	11.175
1432.25	45.744
1435.82	45.557
1439.39	76.424
1442.96	74.898
1446.53	49.55
1450.09	53.222
1453.66	37.791
1457.22	61.953
1460.78	41.428
1464.34	48.629
1467.89	17.721
1471.45	35.896
1475.01	27.008
1478.56	48.144
1482.11	39.875
1485.66	37.849
1489.21	33.442
1492.75	46.152
1496.3	40.025
1499.84	20.293
1503.38	18.623
1506.93	66.792
1510.46	45.979
1514	43.91
1517.54	26.524
1521.07	0
