Measurement: Raman, 514 nm, ccw, Raman Data Processed
Mineral: Epidote
Rruff sample: R050131
Ideal chemistry: Ca_2_Fe^3+^Al_2_(Si_2_O_7_)(SiO_4_)O(OH)
Locality: Calumet mine, Chaffee County, Colorado, USA
Source: Dave Bunk Minerals
Description: Green prismatic crystal
Measured chemistry: Ca_2.00_Al_2.00_(Fe^3+^_0.75_Al_0.25_)(SiO_4_)(Si_2_O_7_)O(OH)
Pin_id: L00135
Orientation: Laser parallel to (1 0 1). Fiducial mark perpendicular to laser is parallel to b [0 1 0]
Raman shift (cm-1)	intensity
81.728	0
85.929	4.327
90.128	1095.52
94.324	1628.53
98.519	1681.2
102.712	1040.01
106.902	680.069
111.09	668.926
115.277	634.569
119.461	406.713
123.643	243.187
127.823	123.239
132.001	4.463
136.176	74.642
140.35	24.491
144.521	4.449
148.691	204.436
152.858	419.078
157.024	802.755
161.187	1695.69
165.348	3803.92
169.507	6907.66
173.664	7737.54
177.819	5107.49
181.971	2685.38
186.122	1388.17
190.271	753.908
194.417	624.912
198.562	860.449
202.704	1314.19
206.844	1374.19
210.983	1172.46
215.119	1218
219.253	1653.82
223.385	3318.92
227.515	5901.31
231.643	7245.62
235.769	6175.99
239.893	5286.38
244.014	4375.89
248.134	2978.59
252.252	1292.38
256.367	517.279
260.481	151.94
264.592	334.102
268.702	1271.83
272.809	2993.37
276.915	3216.28
281.018	1718.58
285.119	985.32
289.218	782.507
293.316	689.915
297.411	600.625
301.504	513.135
305.595	533.478
309.684	651.714
313.771	705.05
317.856	736.714
321.939	775.427
326.02	939.933
330.099	1321.44
334.176	2101.16
338.251	2972.08
342.323	4712.22
346.394	8384.56
350.463	9970.11
354.53	7095.88
358.594	3607.86
362.657	1711.08
366.718	933.522
370.777	270.192
374.833	54.916
378.888	101.931
382.941	68.018
386.992	763.12
391.04	1369.43
395.087	802.797
399.132	90.083
403.174	196.317
407.215	277.812
411.254	13.107
415.29	667.914
419.325	2316.63
423.358	4804.02
427.389	7195.06
431.417	9834.68
435.444	12914.9
439.469	13085.5
443.492	11076.6
447.512	10547.9
451.531	11289.3
455.548	11050.9
459.563	9682.76
463.576	7094.9
467.587	4603.36
471.596	2825.1
475.603	1810.02
479.608	1293.1
483.611	1167.34
487.612	1236.7
491.611	1543.17
495.608	2150.73
499.603	3081.38
503.596	4436.12
507.587	5690.92
511.577	5608.8
515.564	3752.73
519.549	1970.71
523.533	917.742
527.514	351.809
531.493	258.904
535.471	177.937
539.447	222.716
543.42	364.492
547.392	408.653
551.362	825.893
555.329	1501.4
559.295	3210.4
563.259	7340.74
567.221	9981.62
571.181	6256.41
575.139	3880.33
579.095	3954.19
583.049	5429.3
587.002	7872.71
590.952	10684.3
594.9	14732.6
598.847	19353.4
602.792	18780.4
606.734	15153.8
610.675	12486.5
614.614	10699
618.55	7911.28
622.485	5123.31
626.418	3229.36
630.349	2244.02
634.279	1682.46
638.206	1311.29
642.131	1029.47
646.055	806.667
649.976	649.986
653.896	560.855
657.814	444.427
661.729	459.697
665.643	359.662
669.555	367.317
673.465	381.658
677.373	352.681
681.28	385.384
685.184	425.762
689.087	413.813
692.987	392.545
696.886	397.148
700.783	457.624
704.677	303.777
708.57	245.592
712.462	73.046
716.351	6.005
720.238	16.674
724.124	91.427
728.007	138.947
731.889	102.764
735.769	148.941
739.647	138.48
743.523	66.305
747.397	80.227
751.269	43.238
755.139	9.879
759.008	144.426
762.875	411.617
766.739	635.486
770.602	709.039
774.463	516.28
778.323	266.215
782.18	83.844
786.035	39.138
789.889	3.924
793.741	84.636
797.591	109.873
801.439	147.811
805.285	224.166
809.129	338.886
812.971	496.047
816.812	609.966
820.651	670.65
824.488	880.108
828.323	1178.35
832.156	1423.37
835.987	1493.73
839.817	1528.81
843.644	1530.24
847.47	1608.51
851.294	1811.63
855.116	2111.64
858.936	2535.52
862.755	3191.11
866.571	3785.44
870.386	3961.03
874.199	4472.42
878.01	5652.89
881.82	7000.98
885.627	8828.77
889.433	10136.4
893.236	9986.22
897.038	9894.57
900.838	10803.2
904.637	13798.3
908.433	18341.8
912.228	24147.5
916.021	27665.2
919.812	26213
923.601	19411
927.388	13329
931.174	8847.21
934.958	6064.74
938.739	4376.86
942.52	3337.45
946.298	2685.74
950.074	2291.33
953.849	2019.29
957.622	1850.9
961.393	1678.77
965.162	1585.83
968.93	1511.13
972.696	1644.67
976.459	2043.42
980.222	2643.39
983.982	2190.6
987.74	1410.03
991.497	893.76
995.252	569.719
999.005	442.272
1002.76	315.723
1006.51	264.244
1010.25	316.278
1014	489.716
1017.74	970.679
1021.49	1254.41
1025.23	1144.93
1028.96	1066.2
1032.7	1030.76
1036.44	1236.52
1040.17	1505.37
1043.9	1628.33
1047.63	1531.5
1051.36	1279.27
1055.09	996.604
1058.81	902.14
1062.54	707.083
1066.26	581.575
1069.97	576.625
1073.69	822.359
1077.41	1305.42
1081.12	2520.16
1084.84	4431.69
1088.55	5542.86
1092.25	4065.75
1095.96	1981.62
1099.67	1043.19
1103.37	670.078
1107.07	399.445
1110.77	326.554
1114.47	237.695
1118.16	172.845
1121.86	384.551
1125.55	177.379
1129.24	39.833
1132.93	40.526
1136.62	5.419
1140.31	3.017
1143.99	20.446
1147.67	54.827
1151.35	15.955
1155.03	105.049
1158.71	56.283
1162.39	68.947
1166.06	48.691
1169.73	36.927
1173.4	6.218
1177.07	11.648
1180.74	30.396
1184.4	47.323
1188.07	10.81
1191.73	26.76
1195.39	20.85
1199.05	21.461
1202.7	20.799
1206.36	8.864
1210.01	26.027
1213.66	12.901
1217.31	11.917
1220.96	53.402
1224.6	1.189
1228.25	9.293
1231.89	28.409
1235.53	39.293
1239.17	18.968
1242.81	6.899
1246.44	19.237
1250.08	13.268
1253.71	29.044
1257.34	19.02
1260.97	10.249
1264.6	26.391
1268.22	66.537
1271.85	55.474
1275.47	37.124
1279.09	53.621
1282.71	45.604
1286.33	73.126
1289.94	92.218
1293.56	56.913
1297.17	54.941
1300.78	74.13
1304.39	83.52
1307.99	55.682
1311.6	48.766
1315.2	59.798
1318.8	52.767
1322.4	41.406
1326	61.973
1329.6	33.849
1333.19	23.995
1336.79	54.719
1340.38	76.569
1343.97	119.198
1347.56	96.624
1351.14	100.348
1354.73	81.183
1358.31	95.742
1361.89	141.731
1365.47	133.251
1369.05	117.501
1372.63	123.122
1376.2	124.069
1379.78	123.256
1383.35	129.358
1386.92	74.117
1390.49	84.514
1394.05	76.724
1397.62	112.736
1401.18	64.06
1404.74	52.765
1408.3	69.718
1411.86	110.328
1415.42	70.064
1418.97	37.867
1422.53	107.711
1426.08	4.41
1429.63	72.723
1433.18	92.927
1436.72	132.589
1440.27	87.903
1443.81	114.818
1447.36	130.798
1450.89	69.443
1454.43	55.336
1457.97	105.058
1461.51	84.522
1465.04	91.053
1468.57	99.68
1472.1	79.638
1475.63	94.826
1479.16	99.292
1482.68	120.886
1486.21	66.718
1489.73	90.818
1493.25	63.33
1496.77	103.689
1500.29	97.096
1503.8	57.166
1507.32	102.373
1510.83	2.403
1514.34	9.601
