Measurement: Raman, 514 nm, ccw, Raman Data Processed
Mineral: Epidote
Rruff sample: R050064
Ideal chemistry: Ca_2_Fe^3+^Al_2_(Si_2_O_7_)(SiO_4_)O(OH)
Locality: East Xichang City, Meigu County, Sichuan Province, China
Source: Rock Currier
Description: Green prismatic crystals
Measured chemistry: (Ca_1.99_Mn_0.01_)_Î£=2_Fe^3+^_1.00_Al_2.00_(Si_2.00_O_7_)(Si_1.00_O_4_)O(OH);
Pin_id: L00111
Orientation: Laser parallel to (-1 0 -1). Fiducial mark perpendicular to laser is parallel to -b [0 -1 0]
Raman shift (cm-1)	intensity
84.529	0
88.728	529.488
92.926	2748.49
97.121	5019.73
101.314	4793.53
105.505	2352.34
109.694	811.945
113.881	544.795
118.066	174.139
122.249	127.386
126.43	316.663
130.608	356.872
134.785	63.87
138.959	48.286
143.131	155.277
147.301	41.646
151.469	34.67
155.635	292.446
159.799	1042.54
163.961	3026.49
168.121	6655.33
172.278	10380.5
176.434	8565.75
180.587	4358.39
184.739	1921.45
188.888	838.91
193.035	275.877
197.18	393.201
201.324	724.352
205.465	640.148
209.603	226.72
213.74	299.066
217.875	663.183
222.008	1715.06
226.139	4327.7
230.267	6762.88
234.394	7589.22
238.518	7513.08
242.641	6717.67
246.761	3935.44
250.879	1870.58
254.996	1078.87
259.11	650.797
263.222	636.575
267.332	1397.53
271.44	3426.26
275.546	4582.82
279.65	3566.69
283.752	2115.99
287.852	1547.18
291.95	1407.33
296.046	1441.36
300.14	1371.21
304.231	1339.53
308.321	2126.66
312.409	3382.76
316.495	3053.64
320.578	2197.97
324.66	2226.9
328.739	2795.43
332.817	3109.48
336.892	3051.99
340.966	3848.97
345.037	7054.41
349.107	10347.3
353.174	8750.65
357.24	4874.44
361.303	2810.67
365.365	2147.35
369.424	1487.47
373.481	528.024
377.537	161.997
381.59	142.383
385.642	1118.18
389.691	1934.38
393.738	1202.02
397.784	128.173
401.827	363.205
405.868	412.641
409.908	170.136
413.945	554.521
417.98	2297.86
422.014	5402.84
426.045	8031.51
430.075	11860.9
434.102	19170.9
438.127	20031.5
442.151	14872.6
446.172	12994.3
450.192	14426.7
454.209	16049.6
458.225	14693.1
462.238	9186.97
466.25	4631.35
470.259	2423.24
474.267	1291.66
478.273	804.428
482.276	616.479
486.278	770.774
490.278	1205.29
494.276	2356.01
498.271	4406.91
502.265	6136.99
506.257	7584.23
510.247	7721.63
514.235	4793.17
518.221	2381.83
522.205	1203.64
526.187	522.531
530.167	204.51
534.145	91.569
538.122	46.746
542.096	273.078
546.068	416.065
550.039	640.911
554.007	1317.49
557.973	2790.66
561.938	7304.22
565.901	11503.2
569.861	7452.04
573.82	4231.39
577.777	3957.84
581.732	5907.15
585.685	9186.59
589.636	12287.7
593.585	17366.5
597.532	22878.6
601.477	21994.4
605.42	17539.4
609.361	15694.1
613.301	15208.9
617.238	11736.5
621.174	7142.95
625.108	4272.58
629.039	2668.45
632.969	1818.4
636.897	1361.69
640.823	1055.37
644.747	840.814
648.669	549.237
652.589	495.175
656.508	448.746
660.424	361.945
664.339	277.762
668.251	186.19
672.162	133.58
676.071	139.854
679.978	209.076
683.883	361.882
687.786	305.267
691.687	229.226
695.586	168.752
699.484	86.836
703.379	63.458
707.273	52.581
711.165	42.897
715.055	40.193
718.943	46.124
722.829	11.207
726.713	25.402
730.595	58.328
734.476	61.138
738.354	67.833
742.231	86.578
746.106	20.433
749.978	64.842
753.849	15.644
757.719	54.062
761.586	30.487
765.451	62.831
769.315	22.114
773.177	9.161
777.036	33.076
780.894	10.331
784.75	29.15
788.605	47.426
792.457	61.183
796.307	118.469
800.156	163.313
804.003	208.738
807.848	207.763
811.691	357.397
815.532	433.65
819.371	632.529
823.209	845.043
827.045	1245.2
830.878	1538.01
834.71	1717.45
838.54	1782.48
842.369	1949.4
846.195	2083.91
850.02	2337.07
853.842	2718.38
857.663	3491.31
861.482	4643.52
865.299	5496.81
869.115	5628.06
872.928	5774.61
876.74	7208.44
880.55	10449.3
884.358	14725.3
888.164	16964.9
891.969	15060.2
895.771	12549.4
899.572	12144.1
903.371	14080
907.168	18706.2
910.963	24849.1
914.757	31006.5
918.548	30000.4
922.338	22678.7
926.126	15142.1
929.912	9874.24
933.697	6701.03
937.479	4768.11
941.26	3494.77
945.039	2770.78
948.816	2409
952.591	2145.99
956.365	2146.29
960.136	1955.82
963.906	1669.61
967.674	1448.67
971.441	1648.94
975.205	2209.38
978.968	2956.01
982.729	2763.86
986.488	1736.91
990.245	955.164
994	660.633
997.754	460.315
1001.51	441.427
1005.26	381.753
1009	460.124
1012.75	763.171
1016.5	1631.21
1020.24	1940.2
1023.98	1608.09
1027.72	1061.06
1031.46	1061.08
1035.19	1226.07
1038.93	1667.05
1042.66	1761.54
1046.39	1643.68
1050.12	1330.35
1053.85	988.72
1057.57	898.254
1061.29	853.691
1065.02	695.216
1068.74	801.237
1072.45	1171.74
1076.17	2029.63
1079.88	3814.37
1083.6	6948.97
1087.31	7786.19
1091.02	4883.38
1094.72	2303.41
1098.43	1246.58
1102.13	765.15
1105.84	520.088
1109.54	378.667
1113.24	252.396
1116.93	225.376
1120.63	145.453
1124.32	142.15
1128.01	131.301
1131.7	61.229
1135.39	47.972
1139.08	33.177
1142.76	42.746
1146.45	58.988
1150.13	58.379
1153.81	2.791
1157.48	56.587
1161.16	10.274
1164.84	8.76
1168.51	25.184
1172.18	51.624
1175.85	1.588
1179.52	19.877
1183.18	62.215
1186.85	57.93
1190.51	22.74
1194.17	5.757
1197.83	14.985
1201.48	9.294
1205.14	51.938
1208.79	32.314
1212.44	4.439
1216.09	26.547
1219.74	59.698
1223.39	52.568
1227.03	29.465
1230.68	13.719
1234.32	41.636
1237.96	9.017
1241.6	39.698
1245.23	0.322
1248.87	1.979
1252.5	14.633
1256.13	24.538
1259.76	21.154
1263.39	36.017
1267.02	13.569
1270.64	4.617
1274.26	8.429
1277.88	62.793
1281.5	63.846
1285.12	24.655
1288.74	60.042
1292.35	67.929
1295.96	53.562
1299.57	38.224
1303.18	11.655
1306.79	32.674
1310.4	41.123
1314	47.677
1317.6	46.141
1321.2	64.911
1324.8	55.075
1328.4	27.26
1331.99	18.764
1335.59	30.911
1339.18	31.263
1342.77	58.775
1346.36	105.003
1349.95	121.654
1353.53	130.672
1357.12	153.88
1360.7	116.915
1364.28	156.724
1367.86	107.408
1371.44	97.484
1375.01	144.077
1378.59	164.467
1382.16	136.185
1385.73	206.897
1389.3	88.506
1392.87	105.109
1396.43	133.369
1399.99	49.124
1403.56	65.826
1407.12	59.942
1410.68	133.124
1414.23	134.734
1417.79	116.907
1421.34	129.875
1424.9	96.129
1428.45	70.701
1431.99	112.094
1435.54	100.031
1439.09	106.705
1442.63	138.7
1446.17	144.058
1449.71	131.333
1453.26	104.282
1456.79	145.614
1460.33	148.338
1463.86	158.74
1467.39	110.133
1470.92	155.773
1474.45	66.304
1477.98	101.8
1481.51	105.235
1485.03	92.627
1488.56	68.278
1492.08	73.309
1495.6	63.108
1499.11	63.697
1502.63	85.118
1506.14	91.882
1509.66	46.641
1513.17	75.397
1516.68	78.812
