Measurement: Raman, 514 nm, ccw, Raman Data Processed
Mineral: Epidote
Rruff sample: R050131
Ideal chemistry: Ca_2_Fe^3+^Al_2_(Si_2_O_7_)(SiO_4_)O(OH)
Locality: Calumet mine, Chaffee County, Colorado, USA
Source: Dave Bunk Minerals
Description: Green prismatic crystal
Measured chemistry: Ca_2.00_Al_2.00_(Fe^3+^_0.75_Al_0.25_)(SiO_4_)(Si_2_O_7_)O(OH)
Pin_id: L00135
Orientation: Laser parallel to (1 0 1). Fiducial mark perpendicular to laser is parallel to b [0 1 0]
Raman shift (cm-1)	intensity
87.329	0
91.527	391.087
95.723	2103.44
99.917	4367.05
104.109	2474.55
108.298	900.506
112.486	587.909
116.672	359.288
120.855	213.296
125.036	505.997
129.216	537.89
133.393	283.331
137.568	258.502
141.741	727.692
145.911	1138.6
150.08	1046.55
154.247	954.26
158.411	1079.25
162.574	1782.41
166.734	2265.8
170.893	2077.41
175.049	1430.77
179.203	585.292
183.355	12.229
187.505	263.111
191.653	300.681
195.799	38.168
199.943	337.995
204.084	464.548
208.224	291.451
212.362	86.265
216.497	118.565
220.631	162.925
224.762	765.332
228.891	1674.2
233.018	2410.51
237.144	2961.89
241.267	4497.98
245.388	4871.74
249.507	3471.16
253.624	1817.22
257.739	1187.78
261.852	1240.6
265.962	1890.73
270.071	3327.41
274.178	5074.85
278.283	4824.95
282.385	3522.15
286.486	2902.37
290.584	2725.22
294.681	2959.82
298.775	3320.48
302.868	3344.85
306.958	3312.49
311.047	3775.28
315.133	4456.43
319.217	3962.02
323.299	3485.98
327.38	4198.46
331.458	5005.43
335.534	4493.88
339.608	3652.79
343.681	4555.14
347.751	6428.34
351.819	6219.03
355.885	3978.19
359.949	2582.95
364.011	2559.18
368.071	2630.8
372.129	1944.74
376.185	913.288
380.239	250.414
384.291	226.484
388.341	539.944
392.389	594.736
396.435	329.929
400.479	61.581
404.521	51.859
408.561	236.85
412.599	850.586
416.636	1767.17
420.67	3811.48
424.702	6799.42
428.732	7617.93
432.76	7336.94
436.786	8056.36
440.81	9176.05
444.832	11575.9
448.852	16925.8
452.87	20957.3
456.887	21876.1
460.901	19626.5
464.913	14347
468.923	9047.7
472.931	5526.61
476.938	4199.73
480.942	3040.49
484.944	2360.65
488.945	2266.41
492.943	2304.35
496.94	2771.55
500.934	3345.84
504.927	3732.25
508.917	3580.83
512.906	2601.99
516.892	1211.13
520.877	476.156
524.86	179.422
528.841	42.24
532.82	239.086
536.796	167.566
540.771	129.302
544.744	4.828
548.715	325.968
552.684	919.491
556.652	1847.27
560.617	4199.23
564.58	9285.61
568.541	9549.65
572.501	4771.07
576.458	2827.85
580.414	2654.35
584.367	3340.49
588.319	4362
592.268	5858.57
596.216	8105.42
600.162	10191.4
604.106	9564.5
608.048	8026.81
611.988	7218.85
615.926	5722.62
619.862	3755.13
623.797	2236.35
627.729	1404.41
631.659	886.682
635.588	691.411
639.515	504.444
643.439	380.512
647.362	340.928
651.283	318.977
655.202	306.78
659.119	371.202
663.034	402.284
666.947	385.464
670.859	422.408
674.768	456.427
678.676	674.066
682.581	972.316
686.485	1391.04
690.387	1368.43
694.287	929.504
698.185	691.395
702.081	509.012
705.975	303.984
709.868	125.583
713.758	33.703
717.647	71.85
721.533	98.448
725.418	96.2
729.301	158.239
733.182	110.752
737.061	139.594
740.939	85.755
744.814	62.125
748.688	39.559
752.559	39.148
756.429	154.326
760.297	412.141
764.163	744.631
768.027	968.806
771.89	946.673
775.75	666.239
779.609	341.511
783.465	204.495
787.32	65.189
791.173	90.578
795.024	118.672
798.873	171.492
802.721	213.064
806.566	456.397
810.41	510.371
814.252	677.255
818.092	782.254
821.93	861.395
825.766	929.669
829.601	1068.76
833.433	1241.67
837.264	1269.42
841.093	1502.03
844.92	1729.73
848.745	2038.66
852.568	2701.76
856.39	3646.88
860.209	5242.93
864.027	7487.77
867.843	9340.99
871.657	9715.9
875.47	10673.1
879.28	13359.4
883.089	17683.4
886.896	21580.8
890.701	21970.7
894.504	16354.2
898.305	11252.4
902.105	8396.46
905.902	7483.04
909.698	8078.32
913.492	9105.47
917.285	9253.01
921.075	7690.79
924.864	5485.81
928.65	3969.06
932.435	2870.53
936.218	2101.12
940	1551.99
943.779	1306.96
947.557	1130.59
951.333	1038.2
955.107	1124.27
958.879	1214.64
962.65	1128.33
966.418	1150.29
970.185	1285.53
973.95	1910.05
977.714	3202.85
981.475	4255.97
985.235	3537.38
988.993	2119.14
992.749	1284.13
996.503	762.606
1000.26	611.793
1004.01	598.303
1007.75	520.712
1011.5	835.27
1015.25	1426.18
1018.99	2490.2
1022.73	2705.82
1026.47	1925.74
1030.21	1345.96
1033.95	1238.26
1037.68	1228.82
1041.41	1359.95
1045.15	1348.17
1048.88	1262.52
1052.6	1057.77
1056.33	1002.4
1060.05	1173.24
1063.78	1087.32
1067.5	960.313
1071.21	1179.34
1074.93	1806.79
1078.65	3083.32
1082.36	4845.7
1086.07	7144.56
1089.78	7037.74
1093.49	4048.89
1097.2	1822.62
1100.9	869.232
1104.6	588.831
1108.3	379.751
1112	283.4
1115.7	221.098
1119.4	214.091
1123.09	370.894
1126.78	194.418
1130.47	72.786
1134.16	65.371
1137.85	48.625
1141.54	41.384
1145.22	14.736
1148.9	19.355
1152.58	56.123
1156.26	41.539
1159.94	52.621
1163.61	41.332
1167.28	45.667
1170.95	9.118
1174.62	41.277
1178.29	14.747
1181.96	20.087
1185.62	15.336
1189.29	8.96
1192.95	4.855
1196.61	19.098
1200.26	3.868
1203.92	52.82
1207.57	5.576
1211.23	10.679
1214.88	0.053
1218.53	13.311
1222.17	27.43
1225.82	31.339
1229.46	50.075
1233.11	22.514
1236.74	32.816
1240.38	34.65
1244.02	23.733
1247.66	38.654
1251.29	18.662
1254.92	36.364
1258.55	85.771
1262.18	92.894
1265.81	75.739
1269.43	75.355
1273.06	66.663
1276.68	69.609
1280.3	96.445
1283.91	101.026
1287.53	104.062
1291.15	124.611
1294.76	64.159
1298.37	91.493
1301.98	126.614
1305.59	63.66
1309.19	77.206
1312.8	86.913
1316.4	93.443
1320	116.709
1323.6	70.721
1327.2	93.81
1330.8	74.595
1334.39	59.354
1337.98	49.813
1341.58	69.813
1345.16	108.589
1348.75	116.495
1352.34	138.786
1355.92	145.418
1359.51	170.116
1363.09	131.902
1366.67	143.082
1370.24	136.809
1373.82	129.076
1377.39	130.121
1380.97	122.976
1384.54	141.61
1388.11	84.668
1391.68	121.745
1395.24	134.041
1398.81	79.227
1402.37	100.376
1405.93	93.559
1409.49	62.32
1413.05	96.795
1416.6	101.972
1420.16	43.71
1423.71	96.757
1427.26	95.728
1430.81	83.34
1434.36	94.93
1437.91	58.673
1441.45	75.344
1444.99	49.684
1448.54	72.887
1452.08	103.989
1455.61	73.952
1459.15	43.976
1462.68	43.99
1466.22	38.948
1469.75	68.672
1473.28	58.968
1476.81	38.64
1480.33	66.295
1483.86	66.712
1487.38	4.38
1490.9	2.704
1494.42	25.475
1497.94	20.085
1501.46	7.574
1504.97	15.356
1508.49	37.926
1512	11.143
1515.51	37.552
