Measurement: Raman, 514 nm, ccw, Raman Data Processed
Mineral: Epidote
Rruff sample: R050303
Ideal chemistry: Ca_2_Fe^3+^Al_2_(Si_2_O_7_)(SiO_4_)O(OH)
Locality: San Martin mine, Zacatecas, Mexico
Source: Eugene Schlepp
Description: Green elongated prismatic crystals
Measured chemistry: Ca_2.00_Al_2.00_(Fe^3+^_0.97_Al_0.03_)(SiO_4_)(Si_2_O_7_)O(OH)
Pin_id: L00691
Orientation: Laser parallel to -b* (0 -1 0). Fiducial mark perpendicular to laser is parallel to -c [0 0 -1]
Raman shift (cm-1)	intensity
53.91	0
58.864	398.103
63.817	5.68896
68.767	200.524
73.714	1158.04
78.659	5013.52
83.602	16626.2
88.542	33696.9
93.48	25087.5
98.416	11501.7
103.349	6171.85
108.28	7066.54
113.208	4074.23
118.134	4414.55
123.058	6601.77
127.979	14778.7
132.898	16707.7
137.814	7443.25
142.728	4884.95
147.639	3705.32
152.549	2759.85
157.455	3419.1
162.359	6493.4
167.261	8026.93
172.161	5315.76
177.058	3250.89
181.952	2755.33
186.845	3083.1
191.734	4402.19
196.622	7609.87
201.507	11009
206.389	10012.6
211.269	11569.5
216.147	16752.8
221.022	25420.7
225.895	30230.8
230.765	19754.2
235.633	12152.9
240.498	11063.8
245.361	7249.51
250.222	4157.51
255.08	3108.48
259.936	4249.16
264.789	7497.34
269.64	17185.9
274.488	20528.5
279.334	8977.84
284.178	4467.87
289.019	4958.45
293.857	6033.54
298.693	5309.17
303.527	4039.38
308.358	2980.19
313.187	2934.62
318.013	4693.69
322.837	6310.41
327.659	2713.79
332.478	36.1504
337.294	826.119
342.108	668.032
346.92	37.0395
351.729	19.9585
356.535	229.132
361.34	357.435
366.141	547.688
370.94	194.775
375.737	597.72
380.531	3073.4
385.323	6457.22
390.113	5249.14
394.9	2640.12
399.684	2082.15
404.466	3095.2
409.245	6585.26
414.022	15738.3
418.797	32882.4
423.569	38511.5
428.338	27187.4
433.105	19647.3
437.87	14915.4
442.632	18436.9
447.391	27008.8
452.149	24458.2
456.903	17271.8
461.655	9714.8
466.405	5350.91
471.152	3390.86
475.897	2628
480.639	3200.9
485.378	4368.51
490.116	7372.89
494.85	11747.4
499.582	13910.6
504.312	16481.2
509.039	18560.4
513.764	19510
518.486	25135.4
523.206	18803.8
527.923	8615.25
532.638	4115.66
537.35	2986.86
542.059	3337.15
546.766	4814.13
551.471	9614.86
556.173	22933.3
560.873	48308.3
565.57	36154.5
570.264	16342.1
574.957	12800.5
579.646	16493.2
584.333	21738.1
589.018	26308.8
593.7	34326.6
598.379	32502.6
603.056	22863.1
607.73	16981.9
612.402	13299.8
617.072	8738.92
621.739	5190.04
626.403	3188.29
631.065	2073.09
635.724	1423.77
640.381	1093.45
645.035	874.569
649.687	701.11
654.336	819.81
658.983	963.412
663.627	849.394
668.268	1128.69
672.907	1266.23
677.544	1556.95
682.178	1642.8
686.809	1435.7
691.438	823.609
696.065	306.457
700.688	46.1587
705.31	220.784
709.929	106.144
714.545	243.011
719.158	264.25
723.77	171.81
728.378	209.673
732.984	260.862
737.588	263.25
742.189	163.906
746.787	23.3862
751.383	104.228
755.976	30.5547
760.567	65.7461
765.155	117.595
769.741	226.525
774.324	161.7
778.904	315.118
783.482	262.942
788.058	394.207
792.631	627.921
797.201	789.088
801.769	1057.73
806.334	1587.87
810.897	2053.53
815.457	3226.75
820.014	4739.55
824.569	6699.97
829.122	7155.05
833.671	5862.81
838.219	4680.42
842.763	4339.17
847.306	4659.2
851.845	5191.93
856.382	6362.11
860.917	7806.59
865.448	8665.49
869.978	8411.77
874.505	7417.85
879.029	6723.42
883.55	6895.92
888.069	8183.14
892.586	11112.1
897.1	16544.1
901.611	24799.1
906.12	37934.4
910.626	52647.3
915.129	53546.3
919.63	36376.8
924.129	20878.5
928.625	11871.9
933.118	7419.89
937.609	4946.86
942.097	3768.01
946.582	3132.11
951.065	2863.97
955.546	2953.62
960.023	2891.11
964.499	3275.48
968.971	4704.76
973.441	8160.02
977.909	10309.7
982.374	7279.27
986.836	3772.99
991.295	2105.2
995.753	955.958
1000.21	481.331
1004.66	135.261
1009.11	50.2261
1013.55	39.6465
1018	374.375
1022.44	796.599
1026.88	1916.87
1031.32	3633.51
1035.75	5401.28
1040.18	6317.48
1044.61	5212
1049.04	4321.91
1053.46	4813.52
1057.88	6341.9
1062.3	6349.28
1066.71	6041.84
1071.13	7523.52
1075.54	12267
1079.94	21524.7
1084.35	25441.2
1088.75	13229.5
1093.15	5331.41
1097.55	2554.14
1101.94	1441.41
1106.34	913.479
1110.73	683.938
1115.11	441.949
1119.5	435.925
1123.88	251.906
1128.26	203.73
1132.63	133.658
1137.01	76.4404
1141.38	49.2983
1145.75	55.959
1150.12	81.98
1154.48	125.088
1158.84	73.9941
1163.2	180.042
1167.55	88.1484
1171.91	51.4805
1176.26	16.7476
1180.61	53.4092
1184.95	23.4507
1189.29	86.1958
1193.63	75.2749
1197.97	72.3789
1202.31	83.8882
1206.64	152.653
1210.97	203.383
1215.29	150.102
1219.62	288.151
1223.94	198.828
1228.26	272.713
1232.57	195.927
1236.89	204.509
1241.2	256.433
1245.51	271.681
1249.81	264.232
1254.12	257.553
1258.42	263.648
1262.72	273.553
1267.01	299.002
1271.3	402.663
1275.59	244.892
1279.88	258.458
1284.17	253.274
1288.45	213.457
1292.73	195.275
1297.01	145.403
1301.28	92.5352
1305.55	84.9766
1309.82	21.0864
1314.09	24.5352
1318.35	65.4209
1322.61	103.994
1326.87	115.14
1331.13	27.8877
1335.38	113.08
1339.63	123.672
1343.88	231.191
1348.12	131.186
1352.37	277.623
1356.61	203.386
1360.85	280.679
1365.08	208.394
1369.31	292.396
1373.54	241.027
1377.77	103.647
1381.99	239.171
1386.22	140.727
1390.43	176.052
1394.65	55.2783
1398.87	117.136
1403.08	110.494
1407.29	171.71
1411.49	103.242
1415.69	152.634
1419.89	96.4053
1424.09	94.499
1428.29	88.2544
1432.48	125.244
1436.67	155.39
1440.86	89.7485
1445.04	86.3613
1449.23	118.564
1453.4	120.727
1457.58	134.048
1461.76	180
1465.93	164.595
1470.1	145.81
1474.26	56.6138
1478.43	214.421
1482.59	244.777
1486.75	121.207
1490.9	431.113
1495.06	247.568
1499.21	168.977
1503.35	319.165
1507.5	241.991
1511.64	162.634
1515.78	145.87
1519.92	116.357
1524.05	155.45
1528.18	121.6
1532.31	86.1006
1536.44	35.1987
1540.56	66.1099
1544.69	43.6909
1548.8	121.843
1552.92	197.947
1557.03	15.2124
1561.14	18.915
1565.25	85.9434
1569.36	0.15625
