Measurement: Raman, 514 nm, ccw, Raman Data Processed
Mineral: Epidote
Rruff sample: R050191
Ideal chemistry: Ca_2_Fe^3+^Al_2_(Si_2_O_7_)(SiO_4_)O(OH)
Locality: Pampa Blanca, Castrovirreyna Province, Huancavelica Department, Peru
Source: Dave Bunk Minerals
Description: Cluster of green elongated prismatic crystals
Measured chemistry: Ca_2.00_Al_2.00_(Fe^3+^_0.84_Al_0.16_)(SiO_4_)(Si_2_O_7_)O(OH)
Pin_id: L01284
Orientation: Laser parallel to -a* (-1 0 0). Fiducial mark perpendicular to laser is parallel to b [0 1 0]
Raman shift (cm-1)	intensity
53.91	0
58.864	202.269
63.817	60.0287
68.767	11.4886
73.714	20.094
78.659	548.766
83.602	2177.49
88.542	4361.15
93.48	3951.26
98.416	2797.88
103.349	1556.23
108.28	1851.07
113.208	1264.49
118.134	1371.4
123.058	1553.65
127.979	2230.34
132.898	3091
137.814	2717.45
142.728	3767.34
147.639	5305.81
152.549	4727.95
157.455	7957.98
162.359	15347.2
167.261	19011
172.161	11255.4
177.058	5772.49
181.952	3170.15
186.845	2362.39
191.734	2153.14
196.622	3000.37
201.507	3694.35
206.389	2500.11
211.269	1232.46
216.147	1124.56
221.022	1274.36
225.895	2367.07
230.765	5082.27
235.633	11027.5
240.498	19991.2
245.361	21191
250.222	10804.8
255.08	4718.42
259.936	3180.75
264.789	2590.35
269.64	3866.76
274.488	5295.82
279.334	4500.44
284.178	5381.63
289.019	9391.38
293.857	13408.6
298.693	10002.1
303.527	5615.8
308.358	2727.66
313.187	1644.64
318.013	1953.21
322.837	2863.86
327.659	4054.03
332.478	5421.21
337.294	9156.34
342.108	17586.4
346.92	29286.3
351.729	26576.8
356.535	12992.9
361.34	5451.72
366.141	2220.18
370.94	672.168
375.737	187.494
380.531	586.213
385.323	450.995
390.113	206.031
394.9	13.3989
399.684	120.843
404.466	20.2065
409.245	715.017
414.022	2371.59
418.797	6129.88
423.569	12309.8
428.338	14542.5
433.105	17306.7
437.87	20890.8
442.632	28302
447.391	46851.8
452.149	53929.1
456.903	47407.9
461.655	31814
466.405	16973.2
471.152	9370.37
475.897	6504.88
480.639	5682.6
485.378	6428.47
490.116	8389.44
494.85	12251.5
499.582	15623.5
504.312	13610
509.039	9956.81
513.764	5332.91
518.486	3311.05
523.206	3137.09
527.923	1465.96
532.638	172.231
537.35	202.877
542.059	108.626
546.766	203.483
551.471	1647.17
556.173	5570.46
560.873	14495.3
565.57	21849.7
570.264	9430.6
574.957	4021.45
579.646	3847.23
584.333	5760.35
589.018	8338.24
593.7	12147.3
598.379	16101.4
603.056	13035.4
607.73	9005.95
612.402	6930.58
617.072	4477.41
621.739	2490.39
626.403	1224.98
631.065	715.134
635.724	292.823
640.381	214.011
645.035	109.111
649.687	84.3906
654.336	181.89
658.983	277.817
663.627	328.488
668.268	255.156
672.907	544.764
677.544	947.705
682.178	1771.26
686.809	2632.38
691.438	2398.22
696.065	1496.27
700.688	860.523
705.31	452.954
709.929	143.541
714.545	71.0698
719.158	37.0161
723.77	140.365
728.378	156.751
732.984	170.395
737.588	85.0298
742.189	122.34
746.787	81.7012
751.383	104.987
755.976	534.16
760.567	975.444
765.155	1714.86
769.741	1699.42
774.324	949.136
778.904	447.935
783.482	235.674
788.058	20.6504
792.631	67.0449
797.201	196.349
801.769	150.748
806.334	344.066
810.897	403.967
815.457	439.252
820.014	445.416
824.569	635.163
829.122	639.238
833.671	776.662
838.219	1021.46
842.763	1199.66
847.306	1660.71
851.845	2532.66
856.382	3644.48
860.917	5485.84
865.448	8002.79
869.978	10935.9
874.505	14177.1
879.029	15139.3
883.55	13933.8
888.069	12080.8
892.586	8438.94
897.1	5335.66
901.611	4129.76
906.12	4074.19
910.626	4619.81
915.129	4533.68
919.63	3484.22
924.129	1911.12
928.625	1150.62
933.118	723.749
937.609	396.295
942.097	270.62
946.582	216.356
951.065	173.507
955.546	334.088
960.023	318.151
964.499	628.719
968.971	1165.87
973.441	2591.53
977.909	4779.72
982.374	5218.46
986.836	2616.95
991.295	1123.51
995.753	448.484
1000.21	65.2363
1004.66	46.7353
1009.11	76.4761
1013.55	498.496
1018	1064.91
1022.44	1207.71
1026.88	674.477
1031.32	678.277
1035.75	791.158
1040.18	1041.43
1044.61	839.408
1049.04	790.985
1053.46	785.86
1057.88	930.575
1062.3	1251.97
1066.71	1217.24
1071.13	1522.8
1075.54	2500.51
1079.94	4604.75
1084.35	7100
1088.75	7021.5
1093.15	3306.34
1097.55	1373.73
1101.94	631.888
1106.34	400.843
1110.73	301.207
1115.11	241.798
1119.5	285.634
1123.88	264.379
1128.26	163.406
1132.63	22.334
1137.01	10.3994
1141.38	37.1685
1145.75	72.7358
1150.12	92.9741
1154.48	131.286
1158.84	13.7764
1163.2	113.541
1167.55	35.2812
1171.91	22.4429
1176.26	8.2876
1180.61	34.1426
1184.95	11.5688
1189.29	133.671
1193.63	17.8086
1197.97	53.5723
1202.31	23.814
1206.64	67.4277
1210.97	82.4097
1215.29	78.0801
1219.62	89.4185
1223.94	73.4331
1228.26	97.0317
1232.57	57.6201
1236.89	131.033
1241.2	61.6299
1245.51	84.8813
1249.81	104.669
1254.12	32.0088
1258.42	147.933
1262.72	78.3579
1267.01	114.757
1271.3	54.46
1275.59	135.387
1279.88	33.773
1284.17	44.6001
1288.45	119.994
1292.73	122.176
1297.01	20.9917
1301.28	70.8242
1305.55	196.546
1309.82	140.253
1314.09	159.734
1318.35	127.309
1322.61	144.636
1326.87	68.4844
1331.13	133.051
1335.38	70.7002
1339.63	172.609
1343.88	153.158
1348.12	286.053
1352.37	275.126
1356.61	194.351
1360.85	323.209
1365.08	289.371
1369.31	279.668
1373.54	278.184
1377.77	282.135
1381.99	279.136
1386.22	125.263
1390.43	234.643
1394.65	179.196
1398.87	198.529
1403.08	201.592
1407.29	244.344
1411.49	131.047
1415.69	194.125
1419.89	217.73
1424.09	101.447
1428.29	148.029
1432.48	108.967
1436.67	134.841
1440.86	120.359
1445.04	120.811
1449.23	87.8188
1453.4	129.423
1457.58	146.062
1461.76	62.9082
1465.93	28.6089
1470.1	76.1269
1474.26	61.1245
1478.43	96.0664
1482.59	124.838
1486.75	46.9058
1490.9	102.222
1495.06	139.643
1499.21	158.999
1503.35	125.002
1507.5	201.124
1511.64	92.645
1515.78	119.272
1519.92	68.6084
1524.05	169.132
1528.18	93.5068
1532.31	91.3603
1536.44	16.1465
1540.56	76.0024
1544.69	79.4233
1548.8	142.282
1552.92	159.091
1557.03	86.4624
1561.14	4.11865
1565.25	129.576
1569.36	0.905273
