Measurement: Raman, 514 nm, ccw, Raman Data Processed
Mineral: Epidote
Rruff sample: R050064
Ideal chemistry: Ca_2_Fe^3+^Al_2_(Si_2_O_7_)(SiO_4_)O(OH)
Locality: East Xichang City, Meigu County, Sichuan Province, China
Source: Rock Currier
Description: Green prismatic crystals
Measured chemistry: (Ca_1.99_Mn_0.01_)_Î£=2_Fe^3+^_1.00_Al_2.00_(Si_2.00_O_7_)(Si_1.00_O_4_)O(OH);
Pin_id: L00111
Orientation: Laser parallel to (-1 0 -1). Fiducial mark perpendicular to laser is parallel to -b [0 -1 0]
Raman shift (cm-1)	intensity
87.329	0
91.527	1365.57
95.723	4053.18
99.917	5512.59
104.109	3070.52
108.298	1132.25
112.486	310.912
116.672	367.382
120.855	219.607
125.036	429.388
129.216	550.325
133.393	282.443
137.568	26.899
141.741	214.156
145.911	97.538
150.08	139.722
154.247	146.548
158.411	569.331
162.574	1674.59
166.734	4521.4
170.893	8357.19
175.049	8444.49
179.203	4451.74
183.355	1647.73
187.505	732.107
191.653	162.567
195.799	24.184
199.943	400.755
204.084	510.008
208.224	258.519
212.362	1.596
216.497	126.235
220.631	941.426
224.762	2781.16
228.891	5199.41
233.018	6030.18
237.144	6101.44
241.267	5823.22
245.388	3983.73
249.507	1857.61
253.624	921.817
257.739	638.594
261.852	537.27
265.962	1011.28
270.071	2616.55
274.178	4871.75
278.283	4462.43
282.385	2975.16
286.486	2250.36
290.584	1888.88
294.681	1935.11
298.775	2028
302.868	1841.71
306.958	2314.89
311.047	3865.97
315.133	4609.99
319.217	3166.31
323.299	2768.16
327.38	3174.44
331.458	3848.12
335.534	3513.14
339.608	3327.45
343.681	5335.03
347.751	8682.88
351.819	8570.99
355.885	5044.36
359.949	3002.99
364.011	2556.89
368.071	2422.06
372.129	1465.52
376.185	521.406
380.239	191.429
384.291	620.7
388.341	1504.24
392.389	1277.04
396.435	391.155
400.479	268.38
404.521	362.964
408.561	237.978
412.599	406.77
416.636	1551.45
420.67	4020.48
424.702	6880.84
428.732	9131.53
432.76	14912.6
436.786	17554.1
440.81	13535.9
444.832	11188.2
448.852	12980.9
452.87	15354
456.887	15437.5
460.901	10881.2
464.913	5775.23
468.923	2939.67
472.931	1578.71
476.938	878.207
480.942	672.99
484.944	691.914
488.945	897.937
492.943	1709.04
496.94	3279.22
500.934	4866.45
504.927	6022.74
508.917	6819.08
512.906	4832.55
516.892	2515.75
520.877	1222.14
524.86	619.659
528.841	189.071
532.82	18.471
536.796	54.857
540.771	26.672
544.744	168.115
548.715	479.134
552.684	961.126
556.652	1858.27
560.617	4703.46
564.58	9910.66
568.541	8169.35
572.501	4368.01
576.458	3399.37
580.414	4290.8
584.367	6933.3
588.319	9696.12
592.268	13034.6
596.216	18346.5
600.162	19520.5
604.106	16037.6
608.048	14047.7
611.988	14005.5
615.926	11727.9
619.862	7415.55
623.797	4279.99
627.729	2636.66
631.659	1770.04
635.588	1331.71
639.515	903.1
643.439	793.725
647.362	553.234
651.283	395.308
655.202	337.025
659.119	325.382
663.034	309.372
666.947	200.991
670.859	161.232
674.768	184.082
678.676	183.536
682.581	279.597
686.485	390.266
690.387	336.541
694.287	195.418
698.185	137.833
702.081	127.875
705.975	68.474
709.868	28.591
713.758	13.887
717.647	80.014
721.533	11.399
725.418	4.166
729.301	21.808
733.182	41.544
737.061	42.06
740.939	31.381
744.814	59.557
748.688	45.701
752.559	64.786
756.429	54.779
760.297	11.703
764.163	14.5
768.027	4.077
771.89	3.643
775.75	34.198
779.609	15.398
783.465	53.518
787.32	100.222
791.173	104.532
795.024	65.458
798.873	148.01
802.721	217.216
806.566	250.094
810.41	297.651
814.252	387.895
818.092	470.834
821.93	731.477
825.766	1040.57
829.601	1367.19
833.433	1598.7
837.264	1675.24
841.093	1739.52
844.92	1880.56
848.745	2137.26
852.568	2645.14
856.39	3404.34
860.209	4698.41
864.027	5982.94
867.843	6533.67
871.657	6397.74
875.47	7485.04
879.28	10469.2
883.089	15839.5
886.896	19823.9
890.701	18953.2
894.504	14913.9
898.305	12539.7
902.105	12882.3
905.902	15149.3
909.698	20085.8
913.492	26221.1
917.285	27911
921.075	22672.5
924.864	15159.7
928.65	9778.66
932.435	6310.7
936.218	4456.95
940	3256.12
943.779	2619.64
947.557	2212.1
951.333	1879.69
955.107	1883.96
958.879	1830.44
962.65	1642.14
966.418	1486.02
970.185	1476.1
973.95	1852.36
977.714	2751.83
981.475	2942.5
985.235	2497.38
988.993	1283.45
992.749	759.71
996.503	568.213
1000.26	471.309
1004.01	426.623
1007.75	521.145
1011.5	830.789
1015.25	1551.16
1018.99	2379.36
1022.73	2176.3
1026.47	1544.82
1030.21	1135.1
1033.95	1258.45
1037.68	1606.61
1041.41	1997
1045.15	1740.01
1048.88	1525.63
1052.6	1098.99
1056.33	964.426
1060.05	1029.69
1063.78	910.018
1067.5	796.679
1071.21	1060.27
1074.93	1646.36
1078.65	2901.26
1082.36	5448.74
1086.07	7916.37
1089.78	5715.23
1093.49	2873.98
1097.2	1402.89
1100.9	822.742
1104.6	568.461
1108.3	313.539
1112	273.886
1115.7	216.775
1119.4	145.047
1123.09	279.322
1126.78	110.712
1130.47	85.183
1134.16	39.278
1137.85	32.553
1141.54	20.688
1145.22	14.95
1148.9	11.76
1152.58	30.559
1156.26	69.273
1159.94	66.478
1163.61	1.769
1167.28	9.2
1170.95	42.955
1174.62	26.835
1178.29	3.394
1181.96	27.627
1185.62	27.655
1189.29	23.46
1192.95	24.615
1196.61	35.655
1200.26	1.403
1203.92	12.865
1207.57	7.256
1211.23	4.379
1214.88	14.245
1218.53	4.074
1222.17	16.175
1225.82	45.514
1229.46	13.031
1233.11	3.517
1236.74	5.562
1240.38	40.534
1244.02	39.956
1247.66	4.289
1251.29	34.536
1254.92	16.461
1258.55	26.227
1262.18	30.692
1265.81	22.057
1269.43	13.068
1273.06	33.78
1276.68	46.466
1280.3	60.719
1283.91	53.82
1287.53	43.515
1291.15	56.907
1294.76	28.506
1298.37	50.617
1301.98	22.596
1305.59	5.184
1309.19	23.336
1312.8	45.035
1316.4	18.304
1320	22.753
1323.6	77.797
1327.2	41.434
1330.8	66.039
1334.39	24.032
1337.98	17.277
1341.58	11.137
1345.16	72.547
1348.75	70.433
1352.34	87.628
1355.92	111.05
1359.51	113.398
1363.09	113.897
1366.67	127.248
1370.24	131.065
1373.82	129.319
1377.39	87.981
1380.97	76.352
1384.54	89.179
1388.11	94.834
1391.68	87.297
1395.24	90.567
1398.81	104.517
1402.37	70.457
1405.93	83.042
1409.49	91.173
1413.05	90.254
1416.6	28.302
1420.16	40.385
1423.71	46.528
1427.26	101.545
1430.81	134.527
1434.36	118.892
1437.91	141.634
1441.45	125.751
1444.99	115.157
1448.54	109.989
1452.08	141.912
1455.61	70.165
1459.15	126.246
1462.68	121.257
1466.22	75.172
1469.75	64.601
1473.28	95.517
1476.81	93.412
1480.33	86.626
1483.86	101.719
1487.38	33.84
1490.9	45.166
1494.42	12.046
1497.94	1.44
1501.46	22.676
1504.97	47.68
1508.49	30.926
1512	38.493
1515.51	55.996
1519.02	0
