Measurement: Raman, 514 nm, ccw, Raman Data Processed
Mineral: Epididymite
Rruff sample: R060773
Ideal chemistry: Na_2_Be_2_Si_6_O_15_H_2_O
Locality: unknown
Source: Michael Scott
Description: Colorless platy crystals forming a pseudohexagonal aggregate
Pin_id: M00148
Orientation: Laser parallel to c* (0 0 1). Fiducial mark perpendicular to laser is parallel to a [1 0 0]
Raman shift (cm-1)	intensity
102.116	0
107.047	139.302
111.976	216.652
116.903	876.225
121.827	2707.93
126.749	6794.34
131.668	17734.4
136.585	6921.31
141.5	1245.74
146.412	232.027
151.321	192.792
156.229	39.8955
161.134	49.8457
166.036	596.546
170.936	646.123
175.834	600.661
180.729	533.743
185.622	1189.11
190.512	2299.51
195.4	3734.71
200.286	3476.48
205.169	2088.74
210.049	1316.24
214.928	1002.24
219.803	1103.94
224.677	1617.08
229.548	3036.89
234.416	5615.09
239.282	9073.68
244.146	6812.73
249.007	3198.07
253.866	1582.53
258.722	1435.21
263.576	816.504
268.427	304.502
273.276	51.7588
278.123	20.7808
282.967	304.371
287.809	160.594
292.648	156.692
297.485	172.072
302.319	145.378
307.151	143.236
311.98	95.7871
316.807	35.8652
321.631	58.939
326.454	249.009
331.273	326.46
336.09	471.293
340.905	949.507
345.717	1308.3
350.527	696.235
355.334	631.695
360.139	637.042
364.941	664.172
369.741	924.243
374.538	2041.26
379.333	3772.25
384.126	3502.21
388.916	2710.17
393.703	2303.12
398.488	4378.01
403.271	12606.7
408.051	20109.2
412.828	5956.63
417.603	1602.79
422.376	1004
427.146	1234.53
431.914	2601.15
436.679	2225.9
441.442	589.588
446.202	300.433
450.96	249.387
455.715	872.47
460.467	933.692
465.218	1082.1
469.965	2770.95
474.711	6077.34
479.454	6357.2
484.194	10406.2
488.932	5765.29
493.667	2454.59
498.4	2389.64
503.13	3531.89
507.858	7221.95
512.583	20954.3
517.306	53332.9
522.026	40969.7
526.744	12929.9
531.459	4739.3
536.172	2326.98
540.882	1212.99
545.59	879.969
550.295	570.136
554.998	449.772
559.698	365.027
564.396	271.054
569.091	388.942
573.784	832.707
578.474	2545.35
583.162	5721.8
587.847	3206.15
592.529	1241.44
597.209	717.835
601.887	531.272
606.562	467.381
611.235	436.822
615.905	492.377
620.572	563.612
625.237	912.942
629.9	1476.36
634.56	1405.85
639.217	689.413
643.872	425.031
648.524	281.695
653.174	251.394
657.821	160.124
662.466	34.9053
667.108	112.702
671.748	135.511
676.385	53.3452
681.02	111.201
685.652	108.089
690.281	69.957
694.908	69.3706
699.533	63.4102
704.155	69.2671
708.774	28.1426
713.391	51.9351
718.005	39.6206
722.617	51.6621
727.226	96.1685
731.833	168.264
736.437	113.094
741.039	55.6836
745.638	55.0044
750.234	102.842
754.828	141.423
759.419	135.735
764.008	252.783
768.595	200.561
773.178	174.065
777.759	185.295
782.338	240.244
786.914	268.912
791.488	300.294
796.059	297.015
800.627	411.586
805.193	527.32
809.756	797.924
814.317	1512.52
818.875	1745.28
823.431	921.599
827.984	815.976
832.534	445.307
837.082	471.983
841.627	458.951
846.17	550.47
850.71	881.671
855.248	1220.33
859.783	1549.49
864.316	1176.77
868.846	702.876
873.373	755.733
877.898	643.511
882.42	506.968
886.94	278.504
891.457	138.605
895.971	201.943
900.483	287.188
904.993	139.348
909.5	77.4287
914.004	194.439
918.505	59.3848
923.004	67.2754
927.501	7.11914
931.995	26.0996
936.486	91.5654
940.975	27.1855
945.461	55.2168
949.945	1.55664
954.426	7.87891
958.904	140.26
963.38	22.8477
967.853	26.75
972.324	141.647
976.792	114.995
981.258	191.852
985.72	256.541
990.181	161.727
994.639	260.567
999.094	624.706
1003.55	781.995
1008	513.401
1012.44	632.921
1016.89	614.587
1021.33	641.446
1025.77	816.426
1030.21	1025.53
1034.64	1388.76
1039.07	2186.11
1043.5	2636.6
1047.93	2768.23
1052.35	2471.85
1056.78	2103.63
1061.19	1884.93
1065.61	1686.81
1070.02	1645.51
1074.43	1221.51
1078.84	922.952
1083.25	900.597
1087.65	775.227
1092.05	609.896
1096.45	718.126
1100.85	1044.94
1105.24	1182.21
1109.63	1509.22
1114.02	2158.98
1118.4	2484.27
1122.78	3316.7
1127.16	4568.27
1131.54	6957.04
1135.92	9597.97
1140.29	9426.04
1144.66	6622.25
1149.02	3731.6
1153.39	2125.07
1157.75	1384.67
1162.11	875.402
1166.46	621.264
1170.82	509.253
1175.17	477.367
1179.52	285.602
1183.86	177.956
1188.21	85.4268
1192.55	122.016
1196.89	109.739
1201.22	36.6045
1205.55	48.5947
1209.88	21.415
1214.21	25.3242
1218.54	55.0078
1222.86	121.383
1227.18	17.6826
1231.5	100.024
1235.81	180.83
1240.12	144.702
1244.43	130.664
1248.74	265.713
1253.04	237.846
1257.34	213.055
1261.64	335.481
1265.94	338.125
1270.23	213.757
1274.52	233.537
1278.81	248.382
1283.1	249.289
1287.38	259.261
1291.66	239.327
1295.94	255.862
1300.21	220.974
1304.48	282.114
1308.75	199.28
1313.02	291.464
1317.29	339.66
1321.55	269.866
1325.81	321.096
1330.06	288.368
1334.32	204.684
1338.57	136.523
1342.82	54.417
1347.06	20.3271
1351.31	117.789
1355.55	47.4668
1359.79	117.644
1364.02	12.127
1368.26	147.387
1372.49	144.69
1376.71	41.8828
1380.94	62.2695
1385.16	91.25
1389.38	281.194
1393.6	67.0234
1397.81	208.514
1402.02	180.065
1406.23	135.691
1410.44	160.402
1414.64	22.165
1418.85	148.566
1423.04	55.1465
1427.24	124.626
1431.43	377.865
1435.62	549.938
1439.81	838.702
1444	998.536
1448.18	1109.08
1452.36	1240.96
1456.54	1186.96
1460.71	964.904
1464.89	746.73
1469.06	506.764
1473.22	313.13
1477.39	410.584
1481.55	286.663
1485.71	199.804
1489.86	95.2129
1494.02	117.572
1498.17	9.24219
1502.32	133.777
1506.46	94.5283
1510.61	40.415
1514.75	22.8389
1518.88	128.406
1523.02	198.595
1527.15	103.064
1531.28	108.356
1535.41	247.374
1539.53	173.502
1543.66	29.4961
1547.78	14.2344
1551.89	109.705
1556.01	68.2715
1560.12	109.474
1564.23	89.8379
1568.33	137.722
