Measurement: Raman, 514 nm, ccw, Raman Data Processed
Mineral: Epidote
Rruff sample: R050191
Ideal chemistry: Ca_2_Fe^3+^Al_2_(Si_2_O_7_)(SiO_4_)O(OH)
Locality: Pampa Blanca, Castrovirreyna Province, Huancavelica Department, Peru
Source: Dave Bunk Minerals
Description: Cluster of green elongated prismatic crystals
Measured chemistry: Ca_2.00_Al_2.00_(Fe^3+^_0.84_Al_0.16_)(SiO_4_)(Si_2_O_7_)O(OH)
Pin_id: L01284
Orientation: Laser parallel to -a* (-1 0 0). Fiducial mark perpendicular to laser is parallel to b [0 1 0]
Raman shift (cm-1)	intensity
53.91	0
58.864	252.402
63.817	28.6721
68.767	129.916
73.714	386.965
78.659	1544.64
83.602	6916.48
88.542	15070.7
93.48	12544.7
98.416	6580.62
103.349	3672.76
108.28	7727.55
113.208	2520.51
118.134	1992.09
123.058	1414.13
127.979	1370.21
132.898	1060.71
137.814	1126.05
142.728	1283.73
147.639	1531
152.549	2356.56
157.455	3396.95
162.359	6846.27
167.261	14659
172.161	22893.2
177.058	16191.8
181.952	7940.83
186.845	4844.21
191.734	3396.89
196.622	3576.8
201.507	4518.61
206.389	3819.66
211.269	3092.58
216.147	3486.09
221.022	6427.1
225.895	12273
230.765	16758.8
235.633	13519.8
240.498	12085.8
245.361	9215.23
250.222	3998.7
255.08	1532.67
259.936	2030.5
264.789	1639.4
269.64	4277.26
274.488	8578.6
279.334	4668.05
284.178	2006.6
289.019	1661.23
293.857	1787.83
298.693	1551.32
303.527	1459.65
308.358	1399.65
313.187	1120.23
318.013	1233.37
322.837	1635.02
327.659	2197.16
332.478	3310.74
337.294	5482.74
342.108	10710.1
346.92	19578.8
351.729	18456.5
356.535	8978.61
361.34	3586.97
366.141	1485.4
370.94	153.709
375.737	446.654
380.531	5.23438
385.323	1724.26
390.113	2832.91
394.9	825.672
399.684	428.463
404.466	616.781
409.245	142.841
414.022	1193.71
418.797	5071.32
423.569	12499.9
428.338	19618.4
433.105	30404.9
437.87	30281.5
442.632	21897.8
447.391	21141.1
452.149	23374.4
456.903	21530.8
461.655	13842.1
466.405	6856.36
471.152	3440.31
475.897	1845.59
480.639	1469.52
485.378	1669.75
490.116	2684.18
494.85	5236.76
499.582	8198.39
504.312	10628
509.039	11879.7
513.764	7391.35
518.486	2959.68
523.206	898.649
527.923	29.6006
532.638	47.5098
537.35	83.3799
542.059	190.864
546.766	460.847
551.471	1440.37
556.173	3676.31
560.873	10406.7
565.57	17172.4
570.264	9199.21
574.957	6243.42
579.646	8700.82
584.333	14725.1
589.018	21810.8
593.7	31998.8
598.379	41082.8
603.056	35019.3
607.73	27462
612.402	24401.3
617.072	17457.6
621.739	10049.8
626.403	5822.58
631.065	3843.36
635.724	2748.14
640.381	2095.86
645.035	1527.69
649.687	1195.4
654.336	1028.91
658.983	819.123
663.627	790.434
668.268	616.067
672.907	621.97
677.544	506.952
682.178	595.362
686.809	569.71
691.438	549.56
696.065	715.432
700.688	736.931
705.31	493.038
709.929	307.722
714.545	108.793
719.158	135.461
723.77	148.227
728.378	174.988
732.984	141.996
737.588	173.312
742.189	154.9
746.787	102.665
751.383	62.2764
755.976	169.174
760.567	553.824
765.155	939.128
769.741	1052.13
774.324	671.874
778.904	232.385
783.482	72.6108
788.058	101.338
792.631	95.6768
797.201	191.742
801.769	360.699
806.334	583.645
810.897	751.087
815.457	1027.22
820.014	1130.82
824.569	1821.55
829.122	2527.41
833.671	2736.43
838.219	2720.65
842.763	2773.12
847.306	3024.21
851.845	3659.43
856.382	4710.65
860.917	6284.18
865.448	7429.16
869.978	7739.15
874.505	9039.23
879.029	12884.1
883.55	18014.7
888.069	21141.7
892.586	19013.6
897.1	18152.6
901.611	21809.7
906.12	31342.5
910.626	46419.1
915.129	58190.9
919.63	51434
924.129	32603.2
928.625	19008.9
933.118	11490.7
937.609	7434.04
942.097	4990.3
946.582	3618.45
951.065	2966.49
955.546	2566.43
960.023	2070.3
964.499	1872.2
968.971	1829.13
973.441	2414.11
977.909	3372.18
982.374	3214.41
986.836	1551.07
991.295	719.582
995.753	391.526
1000.21	52.0967
1004.66	58.6431
1009.11	437.535
1013.55	1075.36
1018	2151.91
1022.44	2383.73
1026.88	1605.73
1031.32	1516.03
1035.75	2133.5
1040.18	2328.21
1044.61	2290.86
1049.04	1902.12
1053.46	1615.21
1057.88	1273.54
1062.3	1049.3
1066.71	840.915
1071.13	1090.59
1075.54	1921.16
1079.94	4439.35
1084.35	9030.25
1088.75	9996.99
1093.15	4886.61
1097.55	2100.68
1101.94	1085.26
1106.34	573.588
1110.73	381.188
1115.11	375.771
1119.5	335.006
1123.88	500.201
1128.26	223.042
1132.63	69.0098
1137.01	6.9707
1141.38	36.5459
1145.75	85.4966
1150.12	63.9951
1154.48	87.7866
1158.84	118.208
1163.2	104.299
1167.55	89.8418
1171.91	82.9023
1176.26	3.18115
1180.61	58.7178
1184.95	44.3428
1189.29	36.7705
1193.63	19.5708
1197.97	8.5249
1202.31	46.0059
1206.64	48.9233
1210.97	77.2129
1215.29	76.7793
1219.62	126.853
1223.94	140.939
1228.26	128.387
1232.57	95.8911
1236.89	114.604
1241.2	83.3809
1245.51	81.1279
1249.81	84.1816
1254.12	57.4131
1258.42	45.855
1262.72	146.948
1267.01	132.909
1271.3	254.622
1275.59	236.896
1279.88	227.769
1284.17	233.788
1288.45	273.095
1292.73	211.612
1297.01	183.088
1301.28	122.509
1305.55	147.86
1309.82	163.397
1314.09	87.6719
1318.35	96.7956
1322.61	111.265
1326.87	92.9377
1331.13	169.601
1335.38	134.247
1339.63	98.9055
1343.88	229.51
1348.12	246.561
1352.37	233.74
1356.61	165.549
1360.85	248.309
1365.08	181.553
1369.31	153.378
1373.54	189.463
1377.77	140.095
1381.99	121.534
1386.22	75.8257
1390.43	111.032
1394.65	83.6992
1398.87	168.206
1403.08	124.212
1407.29	82.4492
1411.49	88.5618
1415.69	151.591
1419.89	123.636
1424.09	80.5442
1428.29	105.512
1432.48	66.6177
1436.67	122.671
1440.86	140.423
1445.04	473.721
1449.23	122.397
1453.4	110.31
1457.58	189.413
1461.76	128.55
1465.93	108.094
1470.1	188.232
1474.26	137.402
1478.43	124.325
1482.59	154.258
1486.75	157.058
1490.9	137.548
1495.06	67.4624
1499.21	118.894
1503.35	121.65
1507.5	97.0928
1511.64	104.966
1515.78	4.04199
1519.92	78.4419
1524.05	54.1987
1528.18	83.3535
1532.31	60.8682
1536.44	10.7832
1540.56	9.30029
1544.69	33.5098
1548.8	67.5727
1552.92	188.695
1557.03	76.2424
1561.14	52.7898
1565.25	72.3735
1569.36	66.9937
