Measurement: Raman, 514 nm, ccw, Raman Data Processed
Mineral: Epidote
Rruff sample: R050064
Ideal chemistry: Ca_2_Fe^3+^Al_2_(Si_2_O_7_)(SiO_4_)O(OH)
Locality: East Xichang City, Meigu County, Sichuan Province, China
Source: Rock Currier
Description: Green prismatic crystals
Measured chemistry: (Ca_1.99_Mn_0.01_)_Î£=2_Fe^3+^_1.00_Al_2.00_(Si_2.00_O_7_)(Si_1.00_O_4_)O(OH);
Pin_id: L00201
Orientation: Laser parallel to -b* (0 -1 0). Fiducial mark perpendicular to laser is parallel to -c [0 0 -1]
Raman shift (cm-1)	intensity
81.728	0
85.929	462.678
90.128	3510.7
94.324	3734.1
98.519	1609.18
102.712	434.592
106.902	18.659
111.09	661.907
115.277	76.989
119.461	168.791
123.643	1923.59
127.823	7858.2
132.001	11229.2
136.176	5191.6
140.35	1796.87
144.521	952.574
148.691	231.521
152.858	236.122
157.024	517.371
161.187	3050.9
165.348	5479.77
169.507	4179.69
173.664	1900.4
177.819	800.954
181.971	456.392
186.122	544.331
190.271	1124.37
194.417	2496.65
198.562	4977.31
202.704	6458.46
206.844	5718.8
210.983	6295.28
215.119	9008.96
219.253	14220.9
223.385	22673
227.515	26429
231.643	18073.3
235.769	10987.6
239.893	9881.75
244.014	7545.84
248.134	4245.97
252.252	2371.12
256.367	1758.23
260.481	1969.89
264.592	3730.03
268.702	9941.55
272.809	20220.8
276.915	17900.2
281.018	7675.42
285.119	3530.87
289.218	3636.66
293.316	4860.63
297.411	5878.75
301.504	4650
305.595	3459.45
309.684	2414.83
313.771	1875.33
317.856	2707.43
321.939	4933.06
326.02	4457.91
330.099	1621.59
334.176	11.836
338.251	549.795
342.323	629.305
346.394	184.431
350.463	1.326
354.53	44.591
358.594	47.173
362.657	126.04
366.718	166.911
370.777	28.84
374.833	527.819
378.888	1556.41
382.941	4060.99
386.992	6689.34
391.04	5455.07
395.087	3051.11
399.132	2080.74
403.174	2167.09
407.215	3124.23
411.254	5582.19
415.29	11861.8
419.325	26792
423.358	39762.8
427.389	32154.3
431.417	22406.3
435.444	17588.8
439.469	13532
443.492	16065.6
447.512	25049.7
451.531	27704.3
455.548	24459.2
459.563	16714.3
463.576	9559.58
467.587	5994.98
471.596	3937.48
475.603	3246.08
479.608	3131.99
483.611	3629.27
487.612	4642.65
491.611	6701.12
495.608	10542.8
499.603	13335.3
503.596	14009.4
507.587	15850.6
511.577	15729.9
515.564	18044.7
519.549	27890.7
523.533	26931.1
527.514	14294.4
531.493	7032.75
535.471	4128.15
539.447	3327.8
543.42	3303.75
547.392	4036.78
551.362	5805.98
555.329	10602
559.295	26879.8
563.259	53083
567.221	38760.7
571.181	17535.6
575.139	11290
579.095	12339.8
583.049	17204.5
587.002	21407
590.952	25770
594.9	34306.2
598.847	34913.2
602.792	25255.6
606.734	19155
610.675	16338
614.614	13396.9
618.55	8820.72
622.485	5645.94
626.418	3948.22
630.349	2888.28
634.279	2189.09
638.206	1809.73
642.131	1374.18
646.055	1231.45
649.976	1054.53
653.896	1031.43
657.814	1085.94
661.729	1138.88
665.643	1151.91
669.555	1166.21
673.465	1220.36
677.373	1328.41
681.28	1471.56
685.184	1605.93
689.087	1367.35
692.987	872.531
696.886	314.436
700.783	139.057
704.677	73.371
708.57	79.761
712.462	99.663
716.351	137.542
720.238	157.65
724.124	216.064
728.007	100.961
731.889	151.908
735.769	198.717
739.647	156.754
743.523	111.11
747.397	161.644
751.269	112.48
755.139	71.445
759.008	65.008
762.875	37.193
766.739	32.771
770.602	3.994
774.463	71.305
778.323	102.248
782.18	110.888
786.035	211.248
789.889	282.338
793.741	391.163
797.591	473.73
801.439	630.046
805.285	820.117
809.129	1147.95
812.971	1667.21
816.812	2456.89
820.651	3673.18
824.488	5445.8
828.323	6990.36
832.156	6695.67
835.987	5150.73
839.817	3884.54
843.644	3402.11
847.47	3486.46
851.294	3949.64
855.116	4899.59
858.936	6375.43
862.755	8242.31
866.571	9991.5
870.386	9818.03
874.199	8120.67
878.01	6626.72
881.82	5639.71
885.627	5542.97
889.433	6396.47
893.236	7938.8
897.038	10977.7
900.838	15620.3
904.637	23526.3
908.433	35381.1
912.228	51098.4
916.021	58080.3
919.812	44937.1
923.601	27439.9
927.388	16447.8
931.174	10296.6
934.958	6906.32
938.739	5005.44
942.52	3771.84
946.298	3211.54
950.074	2931.54
953.849	2791.85
957.622	2799.48
961.393	2700.43
965.162	2854.7
968.93	3581.31
972.696	5648.25
976.459	9734.54
980.222	12178.2
983.982	8572.19
987.74	5034.56
991.497	3030.3
995.252	2038.36
999.005	1300.23
1002.76	854.165
1006.51	732.741
1010.25	577.56
1014	543.931
1017.74	750.393
1021.49	909.025
1025.23	1200.45
1028.96	1975.59
1032.7	3266.1
1036.44	5516.97
1040.17	7467.4
1043.9	7114.33
1047.63	5531.6
1051.36	4525
1055.09	5195.35
1058.81	7544.07
1062.54	7962.53
1066.26	6278.54
1069.97	5744.96
1073.69	7262.81
1077.41	10993
1081.12	19043.5
1084.84	28454.2
1088.55	19135.3
1092.25	8256.54
1095.96	3779.47
1099.67	2113.28
1103.37	1316.67
1107.07	903.957
1110.77	645.393
1114.47	511.349
1118.16	396.905
1121.86	539.96
1125.55	375.25
1129.24	150.889
1132.93	124.944
1136.62	65.027
1140.31	72.006
1143.99	30.793
1147.67	56.664
1151.35	63.78
1155.03	58.792
1158.71	78.684
1162.39	118.749
1166.06	58.309
1169.73	108.852
1173.4	76.246
1177.07	49.032
1180.74	38.475
1184.4	30.479
1188.07	5.439
1191.73	17.512
1195.39	17.284
1199.05	31.652
1202.7	56.497
1206.36	44.638
1210.01	75.624
1213.66	64.257
1217.31	69.645
1220.96	91.82
1224.6	78.77
1228.25	141.487
1231.89	105.963
1235.53	149.248
1239.17	162.356
1242.81	148.553
1246.44	91.826
1250.08	120.878
1253.71	158.457
1257.34	182.515
1260.97	159.754
1264.6	189.248
1268.22	196.49
1271.85	179.977
1275.47	142.22
1279.09	208.46
1282.71	152.785
1286.33	152.378
1289.94	184.152
1293.56	143.329
1297.17	136.277
1300.78	115.8
1304.39	77.861
1307.99	101.522
1311.6	60.263
1315.2	41.343
1318.8	20.609
1322.4	24.158
1326	15.077
1329.6	24.618
1333.19	44.892
1336.79	39.177
1340.38	90.325
1343.97	67.521
1347.56	117.879
1351.14	129.944
1354.73	141.593
1358.31	206.827
1361.89	209.764
1365.47	218.345
1369.05	233.553
1372.63	163.453
1376.2	180.307
1379.78	149.79
1383.35	133.625
1386.92	105.249
1390.49	109.292
1394.05	116.615
1397.62	73.504
1401.18	105.183
1404.74	106.1
1408.3	50.425
1411.86	95.288
1415.42	57.284
1418.97	80.655
1422.53	6.383
1426.08	20.95
1429.63	36.671
1433.18	30.813
1436.72	42.896
1440.27	26.986
1443.81	58.732
1447.36	19.095
1450.89	48.241
1454.43	47.534
1457.97	82.268
1461.51	59.159
1465.04	76.806
1468.57	65.164
1472.1	42.604
1475.63	54.987
1479.16	37.264
1482.68	39.535
1486.21	55.472
1489.73	66.861
1493.25	49.26
1496.77	15.845
1500.29	11.034
1503.8	37.508
1507.32	35.981
1510.83	5.227
1514.34	0.284
