Measurement: Raman, 514 nm, ccw, Raman Data Processed
Mineral: Epidote
Rruff sample: R050191
Ideal chemistry: Ca_2_Fe^3+^Al_2_(Si_2_O_7_)(SiO_4_)O(OH)
Locality: Pampa Blanca, Castrovirreyna Province, Huancavelica Department, Peru
Source: Dave Bunk Minerals
Description: Cluster of green elongated prismatic crystals
Measured chemistry: Ca_2.00_Al_2.00_(Fe^3+^_0.84_Al_0.16_)(SiO_4_)(Si_2_O_7_)O(OH)
Pin_id: L00883
Orientation: Laser parallel to (1 0 1). Fiducial mark perpendicular to laser is parallel to b [0 1 0]
Raman shift (cm-1)	intensity
53.91	0
58.864	309.324
63.817	32.8734
68.767	234.466
73.714	995.645
78.659	4565.52
83.602	14318.5
88.542	20007.4
93.48	16374.5
98.416	9489.69
103.349	5295.46
108.28	5101.38
113.208	2889.28
118.134	2578.65
123.058	2309.15
127.979	1955.06
132.898	1752.46
137.814	2064.95
142.728	1915.3
147.639	2562.91
152.549	3605.52
157.455	6207.77
162.359	13514.1
167.261	22568
172.161	19305.9
177.058	11197.9
181.952	6107.04
186.845	4208.24
191.734	3593.44
196.622	4033.55
201.507	4161.12
206.389	2811.12
211.269	3066.02
216.147	5376.02
221.022	10351.2
225.895	14931.1
230.765	13395.2
235.633	12746.9
240.498	10446.6
245.361	4926.15
250.222	2091.22
255.08	744.467
259.936	2006.57
264.789	3412.57
269.64	7200.6
274.488	6342.44
279.334	3063.97
284.178	1929.19
289.019	2167.06
293.857	2375.48
298.693	2156.35
303.527	2213.56
308.358	2573.89
313.187	2329.24
318.013	2172.58
322.837	2094.89
327.659	2312.11
332.478	3694.22
337.294	7596.17
342.108	15378.9
346.92	18347.5
351.729	11354.8
356.535	5314.04
361.34	2093.33
366.141	639.288
370.94	230.279
375.737	374.649
380.531	824.637
385.323	2002.18
390.113	974.655
394.9	402.959
399.684	867.812
404.466	497.771
409.245	301.525
414.022	3109.87
418.797	9157.81
423.569	16972.3
428.338	28860.2
433.105	33076.7
437.87	23939.8
442.632	20895.8
447.391	22989.9
452.149	22602.4
456.903	15343.5
461.655	7681.78
466.405	3587.31
471.152	1724.71
475.897	1027.21
480.639	1205.43
485.378	2151.08
490.116	4344.9
494.85	7643.7
499.582	9669.3
504.312	11210.6
509.039	8950.37
513.764	4223.31
518.486	1517.91
523.206	350.507
527.923	53.7534
532.638	54.5566
537.35	295.226
542.059	488.234
546.766	1147.35
551.471	2768.92
556.173	7405.87
560.873	13948.5
565.57	9850.88
570.264	6692.04
574.957	7922.52
579.646	13325.7
584.333	19836.4
589.018	27820.6
593.7	36905.1
598.379	35036.1
603.056	28571.1
607.73	25588.1
612.402	21550.9
617.072	13944.2
621.739	8392.48
626.403	5641.79
631.065	3903.36
635.724	3014.82
640.381	2332.56
645.035	1906.84
649.687	1478.43
654.336	1233.59
658.983	1058.12
663.627	922.642
668.268	832.913
672.907	774.074
677.544	922.457
682.178	977.855
686.809	949.642
691.438	939.753
696.065	751.238
700.688	639.938
705.31	434.82
709.929	247.824
714.545	90.6953
719.158	119.799
723.77	79.1773
728.378	173.003
732.984	212.985
737.588	193.966
742.189	217.401
746.787	167.232
751.383	206.49
755.976	125.599
760.567	32.3657
765.155	30.6977
769.741	18.9839
774.324	39.5713
778.904	2.96191
783.482	139.923
788.058	372.838
792.631	186.003
797.201	418.465
801.769	653.335
806.334	697.738
810.897	1152.95
815.457	1438.99
820.014	1871.66
824.569	2543.94
829.122	3203.84
833.671	3208.42
838.219	3247.72
842.763	3285.81
847.306	3619.21
851.845	4544.54
856.382	5520.65
860.917	6509.85
865.448	7258.13
869.978	8161.94
874.505	10692.4
879.029	14440.6
883.55	16936.2
888.069	15811.8
892.586	15792.4
897.1	18384.4
901.611	25596.4
906.12	38359.7
910.626	53796
915.129	55755.1
919.63	38938.1
924.129	22874.3
928.625	13611
933.118	8320.97
937.609	5445.21
942.097	3880.35
946.582	3002.42
951.065	2576.44
955.546	2325.47
960.023	2063.03
964.499	1954.86
968.971	2200.28
973.441	2996.9
977.909	3406.74
982.374	2453.91
986.836	1646.59
991.295	1269.23
995.753	1107.17
1000.21	888.131
1004.66	875.94
1009.11	1275.15
1013.55	1647.91
1018	2037.98
1022.44	1687.46
1026.88	1878.78
1031.32	2396.13
1035.75	3039.98
1040.18	3114.3
1044.61	2837.85
1049.04	2305.5
1053.46	2162.39
1057.88	2022.2
1062.3	1810.31
1066.71	1753.96
1071.13	2224.52
1075.54	3885.48
1079.94	8118.49
1084.35	11117.6
1088.75	7188.38
1093.15	3337.65
1097.55	1720.07
1101.94	1100.52
1106.34	768.155
1110.73	649.969
1115.11	1328.76
1119.5	4222.9
1123.88	3521.67
1128.26	1104
1132.63	69.3682
1137.01	98.6089
1141.38	50.1435
1145.75	24.0742
1150.12	174.536
1154.48	111.331
1158.84	74.2114
1163.2	54.7446
1167.55	76.2861
1171.91	130.654
1176.26	47.627
1180.61	73.0625
1184.95	8.94043
1189.29	8.22315
1193.63	12.3662
1197.97	22.7456
1202.31	120.053
1206.64	190.07
1210.97	90.9448
1215.29	168.656
1219.62	195.801
1223.94	117.269
1228.26	130.817
1232.57	187.619
1236.89	234.096
1241.2	149.922
1245.51	163.962
1249.81	77.4365
1254.12	14.04
1258.42	88.2866
1262.72	91.4307
1267.01	128.969
1271.3	180.905
1275.59	151.576
1279.88	215.76
1284.17	149.775
1288.45	241.165
1292.73	132.489
1297.01	145.831
1301.28	178.159
1305.55	126.205
1309.82	167.022
1314.09	134.231
1318.35	26.9419
1322.61	54.4434
1326.87	74.3887
1331.13	49.2681
1335.38	128.64
1339.63	118.435
1343.88	93.5215
1348.12	166.395
1352.37	177.109
1356.61	162.024
1360.85	182.254
1365.08	159.611
1369.31	198.897
1373.54	137.8
1377.77	125.342
1381.99	153.069
1386.22	98.1672
1390.43	133.396
1394.65	106.475
1398.87	107.227
1403.08	42.054
1407.29	92.8103
1411.49	53.8494
1415.69	94.6692
1419.89	40.5488
1424.09	60.8706
1428.29	87.2571
1432.48	114.425
1436.67	126.144
1440.86	194.79
1445.04	187.392
1449.23	128.854
1453.4	177.664
1457.58	117.152
1461.76	183.585
1465.93	176.833
1470.1	186.48
1474.26	201.242
1478.43	145.153
1482.59	163.825
1486.75	109.387
1490.9	180.417
1495.06	211.636
1499.21	116.144
1503.35	164.109
1507.5	77.6116
1511.64	133.231
1515.78	103.413
1519.92	167.809
1524.05	123.449
1528.18	102.592
1532.31	55.1868
1536.44	16.5791
1540.56	87.8042
1544.69	92.9443
1548.8	92.231
1552.92	400.063
1557.03	82.9736
1561.14	101.818
1565.25	103.286
1569.36	95.6968
