Measurement: Raman, 514 nm, ccw, Raman Data Processed
Mineral: Epidote
Rruff sample: R040089
Ideal chemistry: Ca_2_Fe^3+^Al_2_(Si_2_O_7_)(SiO_4_)O(OH)
Locality: Grafton County, New Hampshire, USA
Source: University of Arizona Mineral Museum
Description: Dark green coarsely crystalline massive
Measured chemistry: Ca_2.00_(Al_2.36_Fe^3+^_0.64_)[Si_2.00_O_7_][Si_1.00_O_4_]O(OH)
Pin_id: M00420
Orientation: Laser parallel to [1 0 1]. Fiducial mark perpendicular to laser is parallel to b* (0 1 0)
Raman shift (cm-1)	intensity
185.188	0
189.31	130.643
193.43	47.022
197.549	89.636
201.665	503.405
205.779	814.481
209.892	890.824
214.003	827.888
218.112	575.099
222.219	124.151
226.324	7.975
230.428	420.735
234.529	733.067
238.629	1134.27
242.727	2006.78
246.823	3814.4
250.917	5701.44
255.01	5540.41
259.101	3642.47
263.189	2354.05
267.276	1906.21
271.362	2208.62
275.445	5051.38
279.526	8274.65
283.606	4519.45
287.684	2079.95
291.76	1665.28
295.834	1815.31
299.907	1708.99
303.978	2363.32
308.046	3148.21
312.113	2483.69
316.179	770.798
320.242	101.513
324.304	161.821
328.363	37.259
332.421	197.728
336.478	171.357
340.532	726.339
344.585	639.432
348.635	849.418
352.684	1871.78
356.731	2349.2
360.777	1848.21
364.82	675.162
368.862	657.878
372.902	747.174
376.94	365.696
380.977	230.87
385.012	288.422
389.044	341.883
393.075	892.152
397.105	1257.01
401.132	954.098
405.158	642.408
409.182	545.006
413.204	541.92
417.224	1249.11
421.243	3614.81
425.26	8418.7
429.275	14913.2
433.288	13578.5
437.3	10804.3
441.309	10050.6
445.317	11797.5
449.323	16324.2
453.328	26181.2
457.331	32498.8
461.331	30956.9
465.33	27165.4
469.328	25474.4
473.323	21973.7
477.317	15653.4
481.309	10573.4
485.3	7968.42
489.288	7036.29
493.275	5820.32
497.26	4051.16
501.243	3252.16
505.225	3243.32
509.205	3824.61
513.183	3836.1
517.159	2867.77
521.133	1529.58
525.106	806.51
529.077	332.554
533.046	58.308
537.014	144.145
540.98	219.326
544.944	376.109
548.906	456.849
552.867	682.06
556.825	1413.32
560.783	3012.68
564.738	5516.97
568.692	11694.2
572.643	17424.2
576.594	8433.62
580.542	3954.84
584.489	2462.19
588.434	2263.19
592.377	3040.59
596.318	4530.93
600.258	7002.85
604.196	9263.61
608.132	9630.42
612.067	7721.71
616	5837.27
619.931	4245.84
623.861	2737.84
627.788	1580.4
631.714	1331.91
635.639	946.488
639.561	712.32
643.482	385.527
647.401	289.982
651.319	362.063
655.234	572.646
659.148	759.649
663.061	847.328
666.971	903.674
670.88	1045.68
674.787	1098.34
678.693	978.655
682.597	1067.61
686.499	1392.2
690.399	2299.76
694.298	2472.01
698.195	1789
702.09	1237.48
705.984	878.834
709.876	585.839
713.766	367.459
717.654	225.691
721.541	4.503
725.426	23.235
729.31	12.446
733.191	7.442
737.071	66.118
740.95	77.824
744.827	146.651
748.702	59.673
752.575	87.534
756.447	22.554
760.316	21.36
764.185	122.151
768.051	135.898
771.916	73.601
775.78	49.812
779.641	12.537
783.501	21.407
787.359	73.983
791.216	60.179
795.071	67.065
798.924	186.847
802.775	96.268
806.625	90.341
810.474	211.083
814.32	302.515
818.165	473.642
822.008	495.473
825.85	652.017
829.69	728.282
833.528	985.278
837.364	1241.01
841.199	1327.49
845.033	1451.74
848.864	1362.8
852.694	1804.7
856.523	2268.4
860.349	2741.88
864.174	3355.16
867.998	4198.31
871.819	5201.29
875.639	6368.47
879.458	7175.22
883.274	7222.59
887.09	6396.94
890.903	5747.02
894.715	5723.87
898.525	5483.43
902.334	4716.38
906.14	4519.14
909.946	3958.7
913.749	4180.19
917.551	4341.79
921.352	4174.33
925.15	3557.34
928.947	3149.49
932.743	2581.25
936.537	2335.26
940.329	2195.94
944.119	2643.67
947.908	2131.72
951.696	2285.06
955.481	2108.51
959.265	2212.88
963.048	2388.02
966.829	2663.39
970.608	2759.01
974.385	3174.89
978.161	3971.07
981.936	5757.53
985.708	7784.26
989.479	7531.24
993.249	4918.49
997.017	3046.03
1000.78	1853.94
1004.55	1140.18
1008.31	880.72
1012.07	512.597
1015.83	475.277
1019.59	641.205
1023.35	1151.76
1027.1	1145.49
1030.86	1400.74
1034.61	1407.52
1038.36	1781.57
1042.11	2487.39
1045.85	3234.35
1049.6	3515.15
1053.34	3154.72
1057.08	2659.51
1060.82	2172.03
1064.56	2082.15
1068.3	2099.9
1072.04	2239.56
1075.77	3061.03
1079.5	4103.89
1083.23	5979.84
1086.96	8728.85
1090.69	13030.4
1094.42	16664
1098.14	12364
1101.87	5544.35
1105.59	2587.97
1109.31	1575.59
1113.03	1034.73
1116.74	867.512
1120.46	791.979
1124.17	639.42
1127.88	485.624
1131.59	466.632
1135.3	421.604
1139.01	464.068
1142.71	364.044
1146.42	281.414
1150.12	235.914
1153.82	150.709
1157.52	30.255
1161.22	34.918
1164.92	173.773
1168.61	94.107
1172.3	95.303
1175.99	27.009
1179.68	12.942
1183.37	48.972
1187.06	88.894
1190.75	71.008
1194.43	16.177
1198.11	97.588
1201.79	93.52
1205.47	98.199
1209.15	109.785
1212.83	15.678
1216.5	36.7
1220.17	53.793
1223.84	47.447
1227.51	116.666
1231.18	115.694
1234.85	225.492
1238.51	300.403
1242.18	116.911
1245.84	54.268
1249.5	13.577
1253.16	59.562
1256.82	194.203
1260.47	219.288
1264.12	190.354
1267.78	272.309
1271.43	210.394
1275.08	136.337
1278.73	51.148
1282.37	147.308
1286.02	200.458
1289.66	83.411
1293.3	248.565
1296.94	367.168
1300.58	273.317
1304.22	270.465
1307.86	74.424
1311.49	71.699
1315.12	83.212
1318.76	64.616
1322.38	145.343
1326.01	301.78
1329.64	401.271
1333.27	386.836
1336.89	316.582
1340.51	272.789
1344.13	174.648
1347.75	18.885
1351.37	104.098
1354.98	31.53
1358.6	259.168
1362.21	342.328
1365.82	509.399
1369.43	525.818
1373.04	450.565
1376.65	265.46
1380.25	118.484
1383.86	125.692
1387.46	115.654
1391.06	141.667
1394.66	246.451
1398.26	355.012
1401.85	437.496
1405.45	568.652
1409.04	360.229
1412.63	472.43
1416.22	237.797
1419.81	114.2
1423.4	640.603
1426.99	88.584
1430.57	98.978
1434.15	163.339
1437.73	325.392
1441.32	393.414
1444.89	463.258
1448.47	493.425
1452.05	451.3
1455.62	389.012
1459.19	171.448
1462.76	184.71
1466.33	84.535
1469.9	73.354
1473.47	238.405
1477.03	360.476
1480.6	473.971
1484.16	533.892
1487.72	653.524
1491.28	531.721
1494.83	547.961
1498.39	267.01
1501.94	136.896
1505.5	40.666
1509.05	7.081
1512.6	4.928
1516.15	163.524
1519.69	279.604
1523.24	399.875
1526.79	580.325
1530.33	434.282
