Measurement: Raman, 514 nm, ccw, Raman Data Processed
Mineral: Epidote
Rruff sample: R050303
Ideal chemistry: Ca_2_Fe^3+^Al_2_(Si_2_O_7_)(SiO_4_)O(OH)
Locality: San Martin mine, Zacatecas, Mexico
Source: Eugene Schlepp
Description: Green elongated prismatic crystals
Measured chemistry: Ca_2.00_Al_2.00_(Fe^3+^_0.97_Al_0.03_)(SiO_4_)(Si_2_O_7_)O(OH)
Pin_id: L01452
Orientation: Laser parallel to c* (0 0 1). Fiducial mark perpendicular to laser is parallel to a [1 0 0]
Raman shift (cm-1)	intensity
53.91	0
58.864	381.265
63.817	31.1838
68.767	265.826
73.714	1389.97
78.659	4700.49
83.602	13683.4
88.542	30292.8
93.48	49163.7
98.416	35668.2
103.349	14691.5
108.28	11542.7
113.208	5359.53
118.134	4565.94
123.058	4689.54
127.979	3802.32
132.898	3146.83
137.814	3005.23
142.728	2586.52
147.639	2609.02
152.549	2987.14
157.455	4879.35
162.359	9226.97
167.261	13098.4
172.161	10441.7
177.058	5720.85
181.952	4391.93
186.845	4049.81
191.734	3259.39
196.622	4716.55
201.507	5192.83
206.389	3380.72
211.269	3356.86
216.147	5560.99
221.022	9827.55
225.895	12752
230.765	9509.68
235.633	8340.36
240.498	7383.52
245.361	4443.68
250.222	3942.05
255.08	3667.44
259.936	4707.82
264.789	8082.54
269.64	17353
274.488	17458.6
279.334	9175.1
284.178	5701.51
289.019	5831.79
293.857	7742.75
298.693	7164.23
303.527	8648.03
308.358	12839.9
313.187	12001.8
318.013	7540.54
322.837	6162.19
327.659	4285.62
332.478	2199.76
337.294	2699.52
342.108	5805.84
346.92	8197.72
351.729	5627.46
356.535	3730.46
361.34	3424.65
366.141	2000.53
370.94	0.882813
375.737	948.862
380.531	247.326
385.323	1034.28
390.113	214.158
394.9	646.271
399.684	928.281
404.466	69.0996
409.245	2452.81
414.022	9419.01
418.797	22424.5
423.569	26096.2
428.338	25707
433.105	25077.3
437.87	21654.9
442.632	27222.8
447.391	37002.1
452.149	38308.8
456.903	25454.5
461.655	12791.9
466.405	6730.57
471.152	3296.25
475.897	1331.75
480.639	950.87
485.378	1673.41
490.116	3634.19
494.85	7144.07
499.582	8979.9
504.312	9285.14
509.039	7863.48
513.764	6426.21
518.486	7602.91
523.206	4480.9
527.923	1295.98
532.638	189.15
537.35	82.1807
542.059	474.663
546.766	1605.45
551.471	4824.94
556.173	14297.4
560.873	29087.6
565.57	17839.2
570.264	8623.77
574.957	8625.97
579.646	13816.8
584.333	18663.6
589.018	24813.7
593.7	32597.8
598.379	29963.5
603.056	23452.2
607.73	20346.1
612.402	16225.9
617.072	9981
621.739	5497.05
626.403	3433.01
631.065	2221.09
635.724	1511.5
640.381	889.915
645.035	758.855
649.687	457.08
654.336	378.548
658.983	397.794
663.627	330.374
668.268	492.579
672.907	693.436
677.544	901.636
682.178	1251.74
686.809	1313.97
691.438	785.536
696.065	315.974
700.688	237.108
705.31	105.608
709.929	160.945
714.545	158.593
719.158	206.453
723.77	205.753
728.378	225.69
732.984	219.412
737.588	98.3467
742.189	87.9082
746.787	76.3726
751.383	24.3936
755.976	32.2139
760.567	19.9624
765.155	65.2236
769.741	53.7607
774.324	151.645
778.904	188.047
783.482	236.216
788.058	357.271
792.631	320.356
797.201	570.577
801.769	650.42
806.334	891.889
810.897	1265.86
815.457	1928.23
820.014	2701.08
824.569	3832.28
829.122	4532.86
833.671	4460.09
838.219	4437.42
842.763	4504.44
847.306	5380.62
851.845	7113.21
856.382	9179.42
860.917	11441
865.448	12807.4
869.978	14729.6
874.505	18998
879.029	24456
883.55	25627.3
888.069	21371.7
892.586	19288.1
897.1	21907
901.611	28816.5
906.12	40764.2
910.626	53079.4
915.129	50703.9
919.63	33556.1
924.129	19535.5
928.625	11602.9
933.118	7337.91
937.609	4915.02
942.097	3809.16
946.582	3457.35
951.065	3547.65
955.546	3951.1
960.023	3511.75
964.499	3275.68
968.971	4585.94
973.441	7687.71
977.909	8969.43
982.374	5695.02
986.836	2819.68
991.295	1450.43
995.753	833.424
1000.21	392.709
1004.66	368.669
1009.11	802.803
1013.55	1523.07
1018	1615.54
1022.44	1652.63
1026.88	2795.56
1031.32	4895.94
1035.75	6918.91
1040.18	7177.14
1044.61	5583.92
1049.04	4138.27
1053.46	4239.13
1057.88	5198.72
1062.3	4941.95
1066.71	4667.72
1071.13	6305.45
1075.54	11024.8
1079.94	20566.3
1084.35	23292.1
1088.75	11692
1093.15	4778.07
1097.55	2346.17
1101.94	1297.82
1106.34	854.467
1110.73	490.01
1115.11	238.028
1119.5	244.487
1123.88	186.041
1128.26	157.258
1132.63	2.52148
1137.01	169.576
1141.38	128.555
1145.75	80.4326
1150.12	125.817
1154.48	119.397
1158.84	143.26
1163.2	34.7866
1167.55	117.418
1171.91	0.804688
1176.26	53.9683
1180.61	37.0874
1184.95	14.2812
1189.29	34.124
1193.63	145.385
1197.97	145.992
1202.31	142.949
1206.64	151.318
1210.97	169.72
1215.29	194.455
1219.62	185.955
1223.94	139.822
1228.26	120.059
1232.57	108.482
1236.89	118.089
1241.2	108.832
1245.51	137.658
1249.81	107.504
1254.12	155.301
1258.42	131.099
1262.72	225.866
1267.01	168.286
1271.3	192.956
1275.59	164.481
1279.88	128.008
1284.17	107.575
1288.45	54.874
1292.73	124.732
1297.01	77.356
1301.28	122.851
1305.55	117.567
1309.82	92.75
1314.09	71.8579
1318.35	0.155762
1322.61	92.1758
1326.87	102.237
1331.13	182.727
1335.38	124.022
1339.63	193.496
1343.88	220.16
1348.12	276.048
1352.37	318.041
1356.61	274.789
1360.85	351.166
1365.08	300.442
1369.31	301.309
1373.54	279.636
1377.77	408.728
1381.99	279.044
1386.22	262.178
1390.43	269.767
1394.65	172.802
1398.87	221.583
1403.08	169.543
1407.29	129.178
1411.49	254.343
1415.69	164.611
1419.89	211.347
1424.09	160.963
1428.29	291.404
1432.48	294.244
1436.67	382.52
1440.86	242.374
1445.04	304.041
1449.23	255.578
1453.4	315.127
1457.58	294.494
1461.76	270.546
1465.93	225.435
1470.1	442.844
1474.26	272.851
1478.43	288.715
1482.59	254.355
1486.75	356.213
1490.9	220.177
1495.06	286.054
1499.21	306.042
1503.35	275.032
1507.5	252.312
1511.64	270.599
1515.78	240.4
1519.92	160.533
1524.05	140.862
1528.18	131.565
1532.31	81.9141
1536.44	147.118
1540.56	86.2554
1544.69	0.459961
1548.8	184.891
1552.92	306.004
1557.03	130.348
1561.14	124.211
1565.25	86.0601
1569.36	126.974
