Measurement: Raman, 514 nm, ccw, Raman Data Processed
Mineral: Epididymite
Rruff sample: R060773
Ideal chemistry: Na_2_Be_2_Si_6_O_15_H_2_O
Locality: unknown
Source: Michael Scott
Description: Colorless platy crystals forming a pseudohexagonal aggregate
Pin_id: M00395
Orientation: Laser parallel to b* (0 1 0). Fiducial mark perpendicular to laser is parallel to -c [0 0 -1]
Raman shift (cm-1)	intensity
102.116	0
107.047	37.542
111.976	137.762
116.903	739.68
121.827	3493.36
126.749	5010.56
131.668	10310
136.585	7158.32
141.5	2420.44
146.412	2239.01
151.321	3796.9
156.229	1696.89
161.134	329.383
166.036	26.4043
170.936	52.7158
175.834	43.541
180.729	87.9307
185.622	235.882
190.512	489.772
195.4	864.582
200.286	1434.35
205.169	831.828
210.049	586.493
214.928	540.724
219.803	670.818
224.677	1197.14
229.548	2351.3
234.416	4852.45
239.282	9694.54
244.146	10253.6
249.007	5502.6
253.866	3266.74
258.722	2649.79
263.576	1682.91
268.427	738.513
273.276	392.173
278.123	630.129
282.967	983.936
287.809	807.709
292.648	165.316
297.485	74.082
302.319	16.4482
307.151	66.7578
311.98	26.6885
316.807	55.877
321.631	67.6113
326.454	138.459
331.273	16.0781
336.09	20.6611
340.905	244.264
345.717	163.711
350.527	231.587
355.334	249.823
360.139	279.364
364.941	310.366
369.741	667.348
374.538	1324.42
379.333	2599.59
384.126	3494.86
388.916	2397.26
393.703	1410.83
398.488	1732.53
403.271	4443.26
408.051	11397
412.828	4353.95
417.603	854.179
422.376	20.5234
427.146	35.002
431.914	121.534
436.679	106.35
441.442	23.5615
446.202	290.481
450.96	165.106
455.715	209.885
460.467	787.903
465.218	1952.49
469.965	5168.49
474.711	15269.4
479.454	10808.5
484.194	3349.4
488.932	1840.02
493.667	1054.75
498.4	1241.58
503.13	1898.53
507.858	4232.61
512.583	11833.8
517.306	35557.2
522.026	40167.6
526.744	13337.2
531.459	4646.01
536.172	2375.05
540.882	1325.6
545.59	984.268
550.295	525.098
554.998	423.541
559.698	444.004
564.396	309.731
569.091	410.352
573.784	294.363
578.474	620.643
583.162	1496.49
587.847	1085.86
592.529	459.227
597.209	348.16
601.887	189.207
606.562	292.412
611.235	352.06
615.905	416.885
620.572	600.715
625.237	1123.53
629.9	906.26
634.56	753.91
639.217	680.184
643.872	757.941
648.524	830.311
653.174	612.574
657.821	338.727
662.466	183.762
667.108	37.3223
671.748	152.385
676.385	107.943
681.02	27.8965
685.652	1.86328
690.281	18.7285
694.908	105.82
699.533	67.707
704.155	41.6875
708.774	108.459
713.391	30.7969
718.005	119.133
722.617	28.2344
727.226	73.0684
731.833	131.143
736.437	219.004
741.039	231.697
745.638	418.223
750.234	591.572
754.828	944.742
759.419	768.164
764.008	576.551
768.595	265.193
773.178	297.66
777.759	284.957
782.338	285.088
786.914	318.059
791.488	439.873
796.059	184.535
800.627	453.051
805.193	425.535
809.756	476.727
814.317	767.394
818.875	1154.84
823.431	683.891
827.984	402.287
832.534	534.254
837.082	301.463
841.627	530.875
846.17	549.457
850.71	633.486
855.248	851.793
859.783	1146.56
864.316	784.967
868.846	582.938
873.373	654.971
877.898	414.336
882.42	444.119
886.94	354.502
891.457	386.879
895.971	157.875
900.483	391.959
904.993	387.139
909.5	150.422
914.004	311.82
918.505	313.389
923.004	73.1309
927.501	100.061
931.995	271.182
936.486	153.492
940.975	198.059
945.461	27.2168
949.945	222.545
954.426	98.6191
958.904	159.055
963.38	217.715
967.853	79.0273
972.324	56.459
976.792	135.928
981.258	393.83
985.72	108.902
990.181	48.4316
994.639	22.4473
999.094	534.654
1003.55	872.146
1008	442.904
1012.44	520.92
1016.89	352.195
1021.33	254.736
1025.77	246.559
1030.21	344.662
1034.64	230.051
1039.07	289.731
1043.5	514.721
1047.93	1065.99
1052.35	950.016
1056.78	912.881
1061.19	791.607
1065.61	706.068
1070.02	799.045
1074.43	866.287
1078.84	669.291
1083.25	503.543
1087.65	449.922
1092.05	258.273
1096.45	104.094
1100.85	129.922
1105.24	177.432
1109.63	802.008
1114.02	511.678
1118.4	934.643
1122.78	994.602
1127.16	949.16
1131.54	1119.55
1135.92	1620.69
1140.29	2032.13
1144.66	2039.87
1149.02	1052.93
1153.39	555.701
1157.75	463.93
1162.11	311.443
1166.46	240.287
1170.82	358.414
1175.17	239.816
1179.52	154.494
1183.86	13.3066
1188.21	249.338
1192.55	149.492
1196.89	14.1348
1201.22	124.379
1205.55	105.971
1209.88	41.8418
1214.21	1.96875
1218.54	5.5625
1222.86	158.994
1227.18	163.832
1231.5	245.91
1235.81	121.397
1240.12	253.287
1244.43	200.502
1248.74	72.9688
1253.04	159.68
1257.34	11.2871
1261.64	164.078
1265.94	416.654
1270.23	541.439
1274.52	324.424
1278.81	194.125
1283.1	248.053
1287.38	121.594
1291.66	470.793
1295.94	325.648
1300.21	515.646
1304.48	562.764
1308.75	472.238
1313.02	637.959
1317.29	699.477
1321.55	751.574
1325.81	241.809
1330.06	308.129
1334.32	212.893
1338.57	58.2168
1342.82	316.857
1347.06	247.705
1351.31	113.613
1355.55	394.603
1359.79	243.815
1364.02	164.59
1368.26	337.822
1372.49	171.602
1376.71	383.512
1380.94	328.647
1385.16	337.889
1389.38	150.135
1393.6	92.2461
1397.81	143.435
1402.02	133.779
1406.23	123.402
1410.44	167.805
1414.64	285.768
1418.85	120.055
1423.04	51.125
1427.24	166.484
1431.43	355.914
1435.62	581.68
1439.81	904.607
1444	1052.78
1448.18	1258.72
1452.36	1534.56
1456.54	1305.86
1460.71	1332.44
1464.89	1020.38
1469.06	771.5
1473.22	449.822
1477.39	812.285
1481.55	360.56
1485.71	392.947
1489.86	286.131
1494.02	19.4023
1498.17	27.6367
1502.32	164.394
1506.46	32.4043
1510.61	22.9238
1514.75	111.176
1518.88	255.086
1523.02	264.471
1527.15	171.107
1531.28	272.014
1535.41	439.527
1539.53	182.57
1543.66	144.602
1547.78	186.812
1551.89	257.475
1556.01	112.853
1560.12	208.027
1564.23	270.514
1568.33	312.244
