Measurement: Raman, 514 nm, ccw, Raman Data Processed
Mineral: Epidote
Rruff sample: R050064
Ideal chemistry: Ca_2_Fe^3+^Al_2_(Si_2_O_7_)(SiO_4_)O(OH)
Locality: East Xichang City, Meigu County, Sichuan Province, China
Source: Rock Currier
Description: Green prismatic crystals
Measured chemistry: (Ca_1.99_Mn_0.01_)_Î£=2_Fe^3+^_1.00_Al_2.00_(Si_2.00_O_7_)(Si_1.00_O_4_)O(OH);
Pin_id: L00552
Orientation: Laser parallel to a* (1 0 0). Fiducial mark perpendicular to laser is parallel to -b [0 -1 0]
Raman shift (cm-1)	intensity
73.319	0
77.525	88.068
81.728	201.06
85.929	9.26
90.128	76.385
94.324	296.068
98.519	626.583
102.712	512.927
106.902	230.819
111.09	155.853
115.277	121.644
119.461	198.09
123.643	46.903
127.823	11.012
132.001	317.248
136.176	753.286
140.35	329.19
144.521	868.664
148.691	1703.04
152.858	1116.53
157.024	1690.71
161.187	3782.75
165.348	8763.47
169.507	10818.5
173.664	5480.02
177.819	3079.37
181.971	1067.8
186.122	171.93
190.271	74.635
194.417	137.747
198.562	584.851
202.704	2345.18
206.844	1943.26
210.983	552.094
215.119	57.34
219.253	33.413
223.385	119.425
227.515	493.618
231.643	1114.71
235.769	3125.76
239.893	8981.33
244.014	14028.9
248.134	6962.29
252.252	2156.07
256.367	754.126
260.481	271.176
264.592	42.004
268.702	208.74
272.809	865.897
276.915	2218.48
281.018	1744.12
285.119	1425.58
289.218	2989.34
293.316	8394.07
297.411	9170.83
301.504	6255.66
305.595	2673.15
309.684	1249.07
313.771	811
317.856	767.645
321.939	1127.27
326.02	2156.84
330.099	2467.35
334.176	2268.67
338.251	2904.7
342.323	5051.66
346.394	10526.6
350.463	18002.2
354.53	14822.8
358.594	6795.66
362.657	2969.2
366.718	1541.12
370.777	776.054
374.833	207.58
378.888	92.133
382.941	129.129
386.992	104.146
391.04	399.62
395.087	168.755
399.132	66.985
403.174	17.834
407.215	27.74
411.254	276.957
415.29	870.063
419.325	2073.13
423.358	4990.8
427.389	7243.1
431.417	6853.86
435.444	11342.8
439.469	11501.2
443.492	10679.9
447.512	19048.8
451.531	32957.9
455.548	34667.3
459.563	25027
463.576	11296.8
467.587	5224.82
471.596	2967.95
475.603	1909.19
479.608	1469.49
483.611	1445.86
487.612	1772.29
491.611	2769.78
495.608	6305.47
499.603	12700.6
503.596	9662.73
507.587	5330.79
511.577	3979.38
515.564	1895.9
519.549	1057.72
523.533	1389.69
527.514	1083.7
531.493	490.073
535.471	161.711
539.447	33.608
543.42	33.219
547.392	79.078
551.362	395.776
555.329	977.188
559.295	2666.8
563.259	8423.23
567.221	13918
571.181	5570.55
575.139	2302.47
579.095	1707.78
583.049	2329.67
587.002	4306.15
590.952	5139.49
594.9	6670.25
598.847	9505.33
602.792	7414.55
606.734	4897.38
610.675	4248.42
614.614	4449.54
618.55	3209.37
622.485	1900.08
626.418	1077.81
630.349	709.142
634.279	475.427
638.206	323.688
642.131	244.149
646.055	171
649.976	123.011
653.896	69.398
657.814	2.624
661.729	10.687
665.643	53.837
669.555	47.578
673.465	74.452
677.373	130.542
681.28	376.485
685.184	795.278
689.087	1418.92
692.987	1395.4
696.886	695.764
700.783	364.938
704.677	180.422
708.57	96.751
712.462	80.888
716.351	21.15
720.238	21.375
724.124	14.169
728.007	18.674
731.889	2.009
735.769	31.768
739.647	47.97
743.523	35.642
747.397	16.755
751.269	29.317
755.139	40.334
759.008	53.744
762.875	40.583
766.739	2.812
770.602	8.569
774.463	1.413
778.323	8.728
782.18	13.33
786.035	12.227
789.889	81.586
793.741	15.179
797.591	62.547
801.439	28.704
805.285	67.641
809.129	114.1
812.971	158.649
816.812	138.243
820.651	149.674
824.488	213.812
828.323	245.27
832.156	325.852
835.987	396.321
839.817	435.625
843.644	550.768
847.47	690.751
851.294	951.579
855.116	1266.27
858.936	1821.8
862.755	2695.84
866.571	3825.18
870.386	4821.45
874.199	5903.26
878.01	6831.08
881.82	7316.1
885.627	8027.56
889.433	7738.63
893.236	5113.91
897.038	3297.39
900.838	2355.45
904.637	2012.08
908.433	1949.43
912.228	2250.43
916.021	2549.41
919.812	2303.66
923.601	1506.04
927.388	882.399
931.174	555.918
934.958	465.494
938.739	386.744
942.52	344.793
946.298	262.432
950.074	219.585
953.849	178.803
957.622	238.091
961.393	332.964
965.162	388.985
968.93	482.961
972.696	733.24
976.459	1353.58
980.222	2325.97
983.982	2265.42
987.74	1278.92
991.497	664.469
995.252	317.07
999.005	162.778
1002.76	133.962
1006.51	150.134
1010.25	208.938
1014	389.659
1017.74	866.855
1021.49	1154.95
1025.23	694.601
1028.96	355.527
1032.7	185.2
1036.44	219.111
1040.17	255.249
1043.9	268.617
1047.63	217.531
1051.36	153.592
1055.09	269.568
1058.81	504.001
1062.54	915.352
1066.26	972.885
1069.97	675.579
1073.69	613.709
1077.41	855.813
1081.12	1516.97
1084.84	3362.43
1088.55	4160.68
1092.25	1804.92
1095.96	815.533
1099.67	422.606
1103.37	328.245
1107.07	239.351
1110.77	166.443
1114.47	163.888
1118.16	181.443
1121.86	168.659
1125.55	233.51
1129.24	145.19
1132.93	112.599
1136.62	77.587
1140.31	45.13
1143.99	69.31
1147.67	36.916
1151.35	20.107
1155.03	1.479
1158.71	21.366
1162.39	13.378
1166.06	15.529
1169.73	52.505
1173.4	50.881
1177.07	49.298
1180.74	40.524
1184.4	17.376
1188.07	31.13
1191.73	10.333
1195.39	20.938
1199.05	8.554
1202.7	38.288
1206.36	61.68
1210.01	16.127
1213.66	22.458
1217.31	21.239
1220.96	21.001
1224.6	35.21
1228.25	47.497
1231.89	58.518
1235.53	47.654
1239.17	16.667
1242.81	10.383
1246.44	32.535
1250.08	2.187
1253.71	26.829
1257.34	21.373
1260.97	63.831
1264.6	80.184
1268.22	53.496
1271.85	16.697
1275.47	0.096
1279.09	33.896
1282.71	52.731
1286.33	40.625
1289.94	70.584
1293.56	53.014
1297.17	52.546
1300.78	45.846
1304.39	60.553
1307.99	5.313
1311.6	31.647
1315.2	21.259
1318.8	9.729
1322.4	55.965
1326	98.585
1329.6	64.994
1333.19	92.284
1336.79	64.465
1340.38	42.247
1343.97	22.982
1347.56	68.902
1351.14	41.517
1354.73	103.323
1358.31	127.047
1361.89	165.407
1365.47	165.106
1369.05	144.607
1372.63	102.325
1376.2	86.617
1379.78	111.211
1383.35	92.547
1386.92	71.237
1390.49	113.417
1394.05	111.932
1397.62	99.252
1401.18	93.648
1404.74	134.302
1408.3	86.992
1411.86	66.936
1415.42	32.09
1418.97	46.986
1422.53	43.462
1426.08	38.399
1429.63	65.479
1433.18	66.287
1436.72	94.888
1440.27	132.663
1443.81	96.444
1447.36	109.057
1450.89	83.353
1454.43	45.623
1457.97	15.884
1461.51	21.088
1465.04	12.199
1468.57	53.069
1472.1	91.677
1475.63	104.467
1479.16	74.956
1482.68	58.643
1486.21	36.821
1489.73	53.788
1493.25	16.685
1496.77	19.159
1500.29	37.362
1503.8	1.53
1507.32	12.216
1510.83	65.782
1514.34	55.346
1517.85	108.904
1521.36	0
