Measurement: Raman, 514 nm, ccw, Raman Data Processed
Mineral: Epididymite
Rruff sample: R060773
Ideal chemistry: Na_2_Be_2_Si_6_O_15_H_2_O
Locality: unknown
Source: Michael Scott
Description: Colorless platy crystals forming a pseudohexagonal aggregate
Pin_id: M00206
Orientation: Laser parallel to a* (1 0 0). Fiducial mark perpendicular to laser is parallel to b [0 1 0]
Raman shift (cm-1)	intensity
102.116	0
107.047	559.346
111.976	2068.05
116.903	4091.42
121.827	4206.77
126.749	2402.3
131.668	1615.96
136.585	1190.31
141.5	1256.02
146.412	1444.05
151.321	1210.85
156.229	324.871
161.134	65.8535
166.036	9.70898
170.936	78.8594
175.834	157.213
180.729	29.7539
185.622	460.578
190.512	985.453
195.4	1551.41
200.286	1369.87
205.169	822.699
210.049	358.647
214.928	640.225
219.803	1000.52
224.677	1649.33
229.548	3412.58
234.416	5744.66
239.282	6788.42
244.146	5252.01
249.007	2831.02
253.866	1667.01
258.722	1415.97
263.576	876
268.427	492.606
273.276	423.332
278.123	434.56
282.967	276.279
287.809	151.363
292.648	144.633
297.485	210.629
302.319	140.606
307.151	48.3574
311.98	122.844
316.807	273.082
321.631	439.065
326.454	941.492
331.273	1069.75
336.09	799.467
340.905	544.584
345.717	428.383
350.527	522.074
355.334	380.617
360.139	127.686
364.941	139.152
369.741	22.1992
374.538	263.816
379.333	519.963
384.126	502.613
388.916	708.928
393.703	1367.96
398.488	4613.18
403.271	8714.43
408.051	8495.84
412.828	3083.01
417.603	441.908
422.376	209.576
427.146	339.353
431.914	509.072
436.679	357.447
441.442	100.781
446.202	199.398
450.96	227.35
455.715	540.379
460.467	791.551
465.218	2434.17
469.965	5290.96
474.711	6743.7
479.454	5073.12
484.194	3481.08
488.932	2248.2
493.667	1504.65
498.4	1788.11
503.13	3274.84
507.858	8881.01
512.583	23348.8
517.306	34884.7
522.026	24248
526.744	8698.79
531.459	3356.12
536.172	1866.6
540.882	1210.42
545.59	739.682
550.295	703.877
554.998	656.559
559.698	525.713
564.396	614.246
569.091	1011.9
573.784	1283.31
578.474	2461.94
583.162	3342.63
587.847	2445.06
592.529	1715.89
597.209	1457.44
601.887	1264.81
606.562	1043.08
611.235	1218.68
615.905	1235.76
620.572	1727.5
625.237	3074.49
629.9	2843.96
634.56	1822.85
639.217	1551.18
643.872	1957
648.524	2101.32
653.174	1733.16
657.821	1305.5
662.466	698.273
667.108	476.447
671.748	470.006
676.385	172.93
681.02	94.166
685.652	58.5547
690.281	84.1543
694.908	98.4258
699.533	194.357
704.155	1.22852
708.774	98.4316
713.391	207.098
718.005	74.916
722.617	101.703
727.226	320.871
731.833	369.602
736.437	300.67
741.039	236.019
745.638	396.809
750.234	390.606
754.828	278.943
759.419	529.656
764.008	526.758
768.595	570.26
773.178	576.17
777.759	351.506
782.338	404.269
786.914	513.482
791.488	498.154
796.059	689.297
800.627	759.932
805.193	767.072
809.756	815.959
814.317	1010.68
818.875	963.158
823.431	1065.56
827.984	909.881
832.534	1027.93
837.082	869.467
841.627	1013.52
846.17	1480.14
850.71	1680.45
855.248	2348.48
859.783	2865.14
864.316	2516.84
868.846	1761.64
873.373	1383.41
877.898	1102.67
882.42	1053.73
886.94	743.76
891.457	709.674
895.971	956.684
900.483	852.814
904.993	972.99
909.5	692.275
914.004	505.664
918.505	362.205
923.004	88.0508
927.501	160.199
931.995	307.76
936.486	115.769
940.975	2.06836
945.461	158.918
949.945	115.35
954.426	369.658
958.904	171.289
963.38	34.0195
967.853	203.5
972.324	14.7422
976.792	93.7109
981.258	35.9805
985.72	219.266
990.181	308.578
994.639	458.594
999.094	1885.02
1003.55	2443.82
1008	961.981
1012.44	439.519
1016.89	656.527
1021.33	572.883
1025.77	1059.62
1030.21	957.75
1034.64	658.273
1039.07	1175.19
1043.5	1284.51
1047.93	1232.66
1052.35	1159.87
1056.78	946.242
1061.19	1016.17
1065.61	817.375
1070.02	983.336
1074.43	634.301
1078.84	778.504
1083.25	1345.52
1087.65	875.598
1092.05	719.004
1096.45	632.332
1100.85	827.371
1105.24	553.082
1109.63	946.707
1114.02	1122.94
1118.4	1401.28
1122.78	2111.92
1127.16	2442.86
1131.54	3739.1
1135.92	5285.64
1140.29	4545.47
1144.66	2781.61
1149.02	1752.03
1153.39	791.754
1157.75	689.856
1162.11	300.324
1166.46	277.074
1170.82	751.109
1175.17	238.422
1179.52	95
1183.86	88.7188
1188.21	268.344
1192.55	227.961
1196.89	72.2617
1201.22	22.4453
1205.55	9.42969
1209.88	236.684
1214.21	168.633
1218.54	217.199
1222.86	74.0273
1227.18	43.1016
1231.5	186.422
1235.81	752.199
1240.12	770.656
1244.43	793.184
1248.74	687.539
1253.04	592.203
1257.34	597.543
1261.64	675.258
1265.94	1254.22
1270.23	1084.44
1274.52	1492.93
1278.81	1019.67
1283.1	1017.66
1287.38	1084.8
1291.66	834.062
1295.94	1319.77
1300.21	1106.66
1304.48	1149.74
1308.75	876.004
1313.02	1530.98
1317.29	1567.4
1321.55	1501.25
1325.81	827.844
1330.06	489.84
1334.32	520.203
1338.57	317.68
1342.82	404.879
1347.06	234.367
1351.31	436.176
1355.55	425.113
1359.79	318.555
1364.02	251.281
1368.26	537.199
1372.49	509.711
1376.71	252.047
1380.94	335.449
1385.16	525.738
1389.38	459.055
1393.6	262.644
1397.81	173.453
1402.02	299.981
1406.23	78.9336
1410.44	120.055
1414.64	162.848
1418.85	1.05469
1423.04	139.203
1427.24	517.188
1431.43	923.918
1435.62	1740.43
1439.81	2467
1444	3715.38
1448.18	3820.93
1452.36	4121.74
1456.54	4077.9
1460.71	3660.42
1464.89	2695.47
1469.06	1996.54
1473.22	1736.84
1477.39	1659.14
1481.55	1394.61
1485.71	1040.44
1489.86	692.625
1494.02	240.894
1498.17	120.176
1502.32	146.172
1506.46	129.066
1510.61	92.6289
1514.75	131.324
1518.88	304.644
1523.02	208.684
1527.15	299.441
1531.28	638.012
1535.41	430.793
1539.53	336.547
1543.66	381.516
1547.78	259.312
1551.89	508.617
1556.01	531.453
1560.12	32.5078
1564.23	303.738
1568.33	260.91
