Measurement: Raman, 514 nm, ccw, Raman Data Processed
Mineral: Epidote
Rruff sample: R050303
Ideal chemistry: Ca_2_Fe^3+^Al_2_(Si_2_O_7_)(SiO_4_)O(OH)
Locality: San Martin mine, Zacatecas, Mexico
Source: Eugene Schlepp
Description: Green elongated prismatic crystals
Measured chemistry: Ca_2.00_Al_2.00_(Fe^3+^_0.97_Al_0.03_)(SiO_4_)(Si_2_O_7_)O(OH)
Pin_id: L00691
Orientation: Laser parallel to -b* (0 -1 0). Fiducial mark perpendicular to laser is parallel to -c [0 0 -1]
Raman shift (cm-1)	intensity
53.91	0
58.864	146.928
63.817	61.2261
68.767	5.98218
73.714	218.426
78.659	1167.01
83.602	3774.54
88.542	5392.21
93.48	3416.53
98.416	1516.66
103.349	764.444
108.28	1827.56
113.208	472.112
118.134	492.571
123.058	910.633
127.979	2351.05
132.898	2511.62
137.814	2569.33
142.728	4304.6
147.639	4327.58
152.549	5713.53
157.455	11490.4
162.359	20718.3
167.261	18748.3
172.161	11047.3
177.058	5124.55
181.952	2546.91
186.845	1893.4
191.734	2141.01
196.622	3524.69
201.507	3689.98
206.389	1914.84
211.269	1081.9
216.147	1051.67
221.022	1851.06
225.895	3696.97
230.765	8960.13
235.633	18456.3
240.498	23403.5
245.361	13959.4
250.222	5436.16
255.08	2230.53
259.936	1551.81
264.789	1726.82
269.64	2944.43
274.488	3708.5
279.334	4575.96
284.178	8566.82
289.019	14403.1
293.857	12893.6
298.693	7682.15
303.527	3810.73
308.358	1939.27
313.187	1837.77
318.013	2772.19
322.837	4445.52
327.659	5378.74
332.478	7912.81
337.294	15136.7
342.108	27720.4
346.92	33413.9
351.729	22092.8
356.535	9976.18
361.34	4006.22
366.141	1342.76
370.94	29.832
375.737	494.365
380.531	461.452
385.323	304.608
390.113	179.019
394.9	72.4004
399.684	206.839
404.466	995.905
409.245	2480.79
414.022	5830.45
418.797	11361.9
423.569	15391
428.338	18318.8
433.105	22508.2
437.87	26763.7
442.632	40441.2
447.391	54966.1
452.149	49851.3
456.903	33534.7
461.655	17681.2
466.405	9374.65
471.152	5860.96
475.897	4965.06
480.639	5593.45
485.378	8341.9
490.116	13199.4
494.85	18113.3
499.582	15892.4
504.312	11116
509.039	6751.68
513.764	3907.68
518.486	3442.38
523.206	2636.94
527.923	1094.8
532.638	158.645
537.35	30.6489
542.059	313.943
546.766	1494.36
551.471	4620.56
556.173	12376.5
560.873	21726.1
565.57	14551.4
570.264	5809.2
574.957	4281.28
579.646	5594.94
584.333	8087.52
589.018	10641.3
593.7	14354.9
598.379	13233.3
603.056	9243.38
607.73	7279.04
612.402	5662.79
617.072	3545.53
621.739	1859.68
626.403	927.153
631.065	515.494
635.724	315.684
640.381	106.91
645.035	28.2881
649.687	84.4133
654.336	33.3381
658.983	22.9123
663.627	69.4475
668.268	280.328
672.907	593.89
677.544	1322.37
682.178	2139.81
686.809	2389.84
691.438	1660.98
696.065	921.222
700.688	506.521
705.31	194.851
709.929	131.173
714.545	6.7688
719.158	103.487
723.77	112.618
728.378	91.3992
732.984	94.7876
737.588	90.8325
742.189	31.3452
746.787	26.9692
751.383	45.7715
755.976	64.4514
760.567	27.0064
765.155	75.9734
769.741	75.4871
774.324	107.575
778.904	31.272
783.482	70.5776
788.058	170.161
792.631	121.332
797.201	192.649
801.769	228.812
806.334	248.068
810.897	239.259
815.457	352.433
820.014	480.641
824.569	576.824
829.122	820.003
833.671	1005.2
838.219	1136.44
842.763	1520.74
847.306	2024.69
851.845	2742.36
856.382	3953.92
860.917	5722.72
865.448	8371.86
869.978	11461.3
874.505	12681
879.029	10621.1
883.55	7792.81
888.069	5591.65
892.586	4366.36
897.1	4005.21
901.611	4493.24
906.12	5637.85
910.626	6377.58
915.129	5361.93
919.63	3541.65
924.129	2047.35
928.625	1297.01
933.118	830.736
937.609	644.901
942.097	447.398
946.582	391.555
951.065	484.871
955.546	575.366
960.023	691.92
964.499	926.012
968.971	1904.27
973.441	3481.83
977.909	4171.72
982.374	2769
986.836	1323.95
991.295	601.774
995.753	262.886
1000.21	119.272
1004.66	48.9338
1009.11	80.3235
1013.55	262.408
1018	382.951
1022.44	454.872
1026.88	758.281
1031.32	1260.99
1035.75	1872.78
1040.18	1965.06
1044.61	1445.28
1049.04	1104.85
1053.46	1231.21
1057.88	1480.41
1062.3	1419.89
1066.71	1548.23
1071.13	2283.86
1075.54	3690.84
1079.94	6234.29
1084.35	7023.19
1088.75	3895.53
1093.15	1666.3
1097.55	856.067
1101.94	567.362
1106.34	374.06
1110.73	301.106
1115.11	418.639
1119.5	659.282
1123.88	562.341
1128.26	276.204
1132.63	77.2236
1137.01	35.5823
1141.38	2.91455
1145.75	26.2251
1150.12	94.9717
1154.48	47.8953
1158.84	7.18115
1163.2	65.4902
1167.55	34.4055
1171.91	23.2827
1176.26	49.4795
1180.61	28.9729
1184.95	6.26343
1189.29	13.7051
1193.63	34.7685
1197.97	24.3765
1202.31	47.1245
1206.64	74.3545
1210.97	39.3723
1215.29	51.0654
1219.62	46.6235
1223.94	64.032
1228.26	10.7651
1232.57	48.1548
1236.89	6.875
1241.2	8.33252
1245.51	19.5298
1249.81	43.1304
1254.12	0.374512
1258.42	69.0676
1262.72	10.3679
1267.01	45.2039
1271.3	67.1812
1275.59	47.8413
1279.88	66.6484
1284.17	24.9541
1288.45	141.661
1292.73	2.31006
1297.01	81.3852
1301.28	23.3164
1305.55	76.3955
1309.82	52.8779
1314.09	46.5964
1318.35	95.3381
1322.61	64.3159
1326.87	86.8521
1331.13	36.1062
1335.38	90.5098
1339.63	173.696
1343.88	156.157
1348.12	203.097
1352.37	243.048
1356.61	212.363
1360.85	248.535
1365.08	165.05
1369.31	228.131
1373.54	178.677
1377.77	173.034
1381.99	196.038
1386.22	182.373
1390.43	187.579
1394.65	140.613
1398.87	81.49
1403.08	138.163
1407.29	126.117
1411.49	125.756
1415.69	113.321
1419.89	98.7139
1424.09	104.659
1428.29	73.4959
1432.48	58.73
1436.67	136.14
1440.86	13.0442
1445.04	29.115
1449.23	33.2002
1453.4	42.8684
1457.58	54.3857
1461.76	6.04199
1465.93	77.2861
1470.1	78.2192
1474.26	48.8809
1478.43	65.6536
1482.59	36.6636
1486.75	30.6499
1490.9	34.5029
1495.06	88.5039
1499.21	40.4075
1503.35	97.2461
1507.5	90.0046
1511.64	66.5295
1515.78	65.698
1519.92	126.803
1524.05	62.6516
1528.18	90.6943
1532.31	2.81079
1536.44	23.0967
1540.56	80.4104
1544.69	1.02661
1548.8	97.2651
1552.92	171.995
1557.03	100.291
1561.14	34.0962
1565.25	57.4551
1569.36	31.8091
