Measurement: Raman, 514 nm, ccw, Raman Data Processed
Mineral: Epidote
Rruff sample: R050303
Ideal chemistry: Ca_2_Fe^3+^Al_2_(Si_2_O_7_)(SiO_4_)O(OH)
Locality: San Martin mine, Zacatecas, Mexico
Source: Eugene Schlepp
Description: Green elongated prismatic crystals
Measured chemistry: Ca_2.00_Al_2.00_(Fe^3+^_0.97_Al_0.03_)(SiO_4_)(Si_2_O_7_)O(OH)
Pin_id: L01741
Orientation: Laser parallel to -a* (-1 0 0). Fiducial mark perpendicular to laser is parallel to -b [0 -1 0]
Raman shift (cm-1)	intensity
53.91	0
58.864	270.655
63.817	15.9198
68.767	284.382
73.714	1182.7
78.659	3283.85
83.602	8954.53
88.542	17568.1
93.48	14733.4
98.416	8126.84
103.349	4549.75
108.28	4744.88
113.208	3499.95
118.134	2990.47
123.058	2520.45
127.979	2397.15
132.898	2277.63
137.814	2138.17
142.728	2304.71
147.639	2417.41
152.549	3106.89
157.455	4212.48
162.359	8289.92
167.261	16813.1
172.161	22625.3
177.058	12594.9
181.952	6398.02
186.845	4155.51
191.734	3348.28
196.622	3827.23
201.507	4539.13
206.389	2936.17
211.269	2690.44
216.147	4097.63
221.022	7325.98
225.895	13016.4
230.765	13567.3
235.633	12044.4
240.498	11868.8
245.361	5464.23
250.222	2065.49
255.08	1271.18
259.936	1660.74
264.789	2233.21
269.64	5601.16
274.488	7845.9
279.334	2832.32
284.178	1387.42
289.019	1654.18
293.857	2135.45
298.693	1846.16
303.527	1408.22
308.358	1239.47
313.187	1019.84
318.013	1205.27
322.837	1318.69
327.659	1622.04
332.478	2282.26
337.294	4754.3
342.108	11197.1
346.92	18354.6
351.729	12655.7
356.535	5097.61
361.34	1916.38
366.141	542.667
370.94	350.777
375.737	448.494
380.531	443.807
385.323	2183.31
390.113	1660.37
394.9	93.626
399.684	415.521
404.466	108.073
409.245	452.558
414.022	2226.7
418.797	6550.34
423.569	12067.7
428.338	21619.5
433.105	33903
437.87	22186.9
442.632	17021.3
447.391	19876.8
452.149	20796.7
456.903	14041.1
461.655	6350.77
466.405	2531.77
471.152	1128.13
475.897	557.656
480.639	571.266
485.378	1278.73
490.116	2758.88
494.85	5924.64
499.582	7928.82
504.312	9075.25
509.039	8128.82
513.764	3552.47
518.486	1190.72
523.206	80.874
527.923	166.079
532.638	46.1699
537.35	36.1582
542.059	349.246
546.766	854.789
551.471	2019.58
556.173	4910.82
560.873	11388.4
565.57	9312.34
570.264	5205.66
574.957	5982.1
579.646	10120.6
584.333	16014.7
589.018	21288.5
593.7	30092.8
598.379	28221.2
603.056	21495.2
607.73	20500.5
612.402	19291.1
617.072	12409.6
621.739	6668.1
626.403	3974.4
631.065	2897.62
635.724	2042.47
640.381	1627.72
645.035	1151.49
649.687	800.154
654.336	697.665
658.983	381.373
663.627	369.841
668.268	283.598
672.907	232.683
677.544	147.023
682.178	65.8779
686.809	56.6953
691.438	136.401
696.065	91.5264
700.688	8.92676
705.31	48.2051
709.929	29.5088
714.545	20.5498
719.158	1.44629
723.77	70.2891
728.378	45.7803
732.984	83.3096
737.588	73.3799
742.189	78.9492
746.787	46.332
751.383	50.1582
755.976	73.9463
760.567	10.9355
765.155	42.9893
769.741	14.9668
774.324	34.2119
778.904	51.7734
783.482	87.8584
788.058	144.556
792.631	211.002
797.201	339.277
801.769	231.417
806.334	301.489
810.897	582.49
815.457	972.179
820.014	1292.12
824.569	2070.12
829.122	2538.63
833.671	2697.23
838.219	2724.17
842.763	2710.24
847.306	3071.24
851.845	3955.19
856.382	5079.99
860.917	6150.39
865.448	6507.15
869.978	7181.3
874.505	9171.8
879.029	12650.9
883.55	15358.5
888.069	14414.8
892.586	13708.3
897.1	16165.9
901.611	21526.6
906.12	31733.5
910.626	45093
915.129	49697.5
919.63	35171.9
924.129	20016.9
928.625	11320
933.118	7132.94
937.609	4683.82
942.097	3143.28
946.582	2314.36
951.065	1851.08
955.546	1486.58
960.023	1188.94
964.499	1108.17
968.971	1408.35
973.441	1837.62
977.909	2173.17
982.374	1158.93
986.836	514.05
991.295	213.559
995.753	23.5234
1000.21	88.9863
1004.66	181.405
1009.11	582.914
1013.55	1249.36
1018	1551.23
1022.44	1067.59
1026.88	1027.18
1031.32	1261.17
1035.75	1618.86
1040.18	1817.52
1044.61	1369.92
1049.04	938.004
1053.46	821.188
1057.88	733.948
1062.3	501.649
1066.71	724.356
1071.13	1286.06
1075.54	2762.64
1079.94	6393.17
1084.35	9687.66
1088.75	5228.78
1093.15	1964.31
1097.55	1062.3
1101.94	492.43
1106.34	376.744
1110.73	137.365
1115.11	214.074
1119.5	438.126
1123.88	458.342
1128.26	42.2529
1132.63	6.03809
1137.01	113.701
1141.38	74.8848
1145.75	7.87207
1150.12	49.6885
1154.48	407.769
1158.84	44.0723
1163.2	17.7217
1167.55	32.3828
1171.91	47.3799
1176.26	55.8232
1180.61	114.401
1184.95	122.985
1189.29	142.515
1193.63	168.117
1197.97	54.206
1202.31	128.693
1206.64	32.0859
1210.97	136.492
1215.29	53.5117
1219.62	75.915
1223.94	211.273
1228.26	75.5606
1232.57	137.211
1236.89	80.4443
1241.2	84.1455
1245.51	69.4727
1249.81	29.3818
1254.12	24.4785
1258.42	11.6406
1262.72	60.8857
1267.01	66.8369
1271.3	119.63
1275.59	44.0342
1279.88	165.075
1284.17	168.695
1288.45	138.749
1292.73	158.49
1297.01	108.326
1301.28	158.318
1305.55	18.7881
1309.82	94.0674
1314.09	123.322
1318.35	189.516
1322.61	11.7695
1326.87	81.1543
1331.13	153.457
1335.38	63.1709
1339.63	145.432
1343.88	148.253
1348.12	280.329
1352.37	257.551
1356.61	163.624
1360.85	206.866
1365.08	280.215
1369.31	211.683
1373.54	244.79
1377.77	220.568
1381.99	288.46
1386.22	224.398
1390.43	92.6123
1394.65	205.685
1398.87	198.806
1403.08	128.474
1407.29	171.222
1411.49	128.616
1415.69	0.689453
1419.89	272.754
1424.09	206.202
1428.29	229.26
1432.48	245.082
1436.67	294.566
1440.86	380.078
1445.04	222.067
1449.23	376.127
1453.4	302.993
1457.58	235.507
1461.76	242.393
1465.93	311.524
1470.1	332.709
1474.26	318.718
1478.43	296.648
1482.59	293.469
1486.75	199.464
1490.9	362.911
1495.06	273.94
1499.21	245.39
1503.35	207.745
1507.5	153.336
1511.64	312.05
1515.78	285.76
1519.92	170.009
1524.05	205.747
1528.18	134.109
1532.31	268.092
1536.44	50.8984
1540.56	120.783
1544.69	119.01
1548.8	18.8271
1552.92	347.695
1557.03	197.075
1561.14	170.907
1565.25	220.447
1569.36	87.5967
