Measurement: Raman, 514 nm, ccw, Raman Data Processed
Mineral: Epididymite
Rruff sample: R060773
Ideal chemistry: Na_2_Be_2_Si_6_O_15_H_2_O
Locality: unknown
Source: Michael Scott
Description: Colorless platy crystals forming a pseudohexagonal aggregate
Pin_id: M00148
Orientation: Laser parallel to c* (0 0 1). Fiducial mark perpendicular to laser is parallel to a [1 0 0]
Raman shift (cm-1)	intensity
102.116	0
107.047	263.982
111.976	548.617
116.903	1761.01
121.827	4338.07
126.749	6065.04
131.668	12842.6
136.585	5833.44
141.5	971.239
146.412	662.645
151.321	731.644
156.229	294.577
161.134	1029.08
166.036	2628.09
170.936	1957.59
175.834	673.209
180.729	484.763
185.622	926.056
190.512	2072.65
195.4	3460.9
200.286	3086.45
205.169	1867.6
210.049	1006.11
214.928	726.555
219.803	1050.67
224.677	1962.12
229.548	3687.59
234.416	4625.93
239.282	6760.15
244.146	5302.23
249.007	2846.41
253.866	1655.44
258.722	1434.19
263.576	946.688
268.427	120.004
273.276	183.973
278.123	231.492
282.967	82.2275
287.809	60.4648
292.648	171.888
297.485	20.2656
302.319	11.5088
307.151	0.336914
311.98	73.4033
316.807	553.551
321.631	1534.09
326.454	2320.26
331.273	3298.11
336.09	3260.63
340.905	3265.66
345.717	3722.94
350.527	2035.13
355.334	1493.92
360.139	1452.57
364.941	1477.18
369.741	2008.73
374.538	3765.23
379.333	6614.66
384.126	6073.06
388.916	4122.41
393.703	2392.73
398.488	3900.18
403.271	9915.61
408.051	15472.9
412.828	4801.06
417.603	1018.65
422.376	453.703
427.146	653.275
431.914	1259.85
436.679	990.4
441.442	208.531
446.202	124.484
450.96	36.7246
455.715	312.215
460.467	657.885
465.218	1293.5
469.965	3712.22
474.711	5796.94
479.454	4675.61
484.194	6257.27
488.932	3669.93
493.667	1787.6
498.4	1882.33
503.13	3218.13
507.858	7058.98
512.583	18867.9
517.306	42567.8
522.026	33435.8
526.744	10740.7
531.459	3809.7
536.172	1749.76
540.882	883.826
545.59	565.904
550.295	253.975
554.998	37.6035
559.698	77.9062
564.396	121.728
569.091	329.869
573.784	721.18
578.474	2716.85
583.162	5640.19
587.847	3245.76
592.529	1075.56
597.209	535.639
601.887	370.096
606.562	431.531
611.235	402.732
615.905	408.102
620.572	438.34
625.237	932.219
629.9	1331.45
634.56	1326.96
639.217	690.613
643.872	427.881
648.524	288.904
653.174	425.891
657.821	230.666
662.466	147.318
667.108	281.703
671.748	270.805
676.385	294.629
681.02	487.18
685.652	371.49
690.281	46.5898
694.908	177.065
699.533	8.73438
704.155	252.586
708.774	105.877
713.391	149.334
718.005	1.03906
722.617	28.832
727.226	12.1797
731.833	201.148
736.437	6.44336
741.039	300.269
745.638	107.602
750.234	112.488
754.828	264.955
759.419	322.85
764.008	305.152
768.595	187.894
773.178	100.072
777.759	318.684
782.338	186.182
786.914	328.592
791.488	92.2988
796.059	314.498
800.627	295.914
805.193	491.492
809.756	722.893
814.317	937.865
818.875	1095.36
823.431	719.863
827.984	621.867
832.534	319.787
837.082	567.725
841.627	532.629
846.17	692.207
850.71	1025.33
855.248	1826.3
859.783	1971.09
864.316	1633.37
868.846	1112.95
873.373	838.074
877.898	743.732
882.42	573.42
886.94	315.773
891.457	375.006
895.971	309.215
900.483	291.293
904.993	147.221
909.5	216.223
914.004	0.162109
918.505	203.068
923.004	30.791
927.501	4.41016
931.995	6.06445
936.486	56.8145
940.975	2.57617
945.461	11.2031
949.945	263.986
954.426	137.221
958.904	138.766
963.38	116.33
967.853	74.4336
972.324	137.799
976.792	52.8535
981.258	274.824
985.72	235.865
990.181	420.359
994.639	355.086
999.094	664.977
1003.55	1169.98
1008	1047.08
1012.44	786.287
1016.89	1216.62
1021.33	1408.25
1025.77	1882.97
1030.21	2669.78
1034.64	3599.72
1039.07	4552.75
1043.5	4158.91
1047.93	3599.21
1052.35	3119.11
1056.78	2735.47
1061.19	2543.66
1065.61	2567.31
1070.02	2048.55
1074.43	1563.11
1078.84	1235.59
1083.25	1065.06
1087.65	832.299
1092.05	997.963
1096.45	1295.78
1100.85	1662.44
1105.24	2063.34
1109.63	2434.33
1114.02	3405.65
1118.4	3668.15
1122.78	4801.83
1127.16	6479.71
1131.54	9373.88
1135.92	11683.4
1140.29	11393
1144.66	7862.88
1149.02	4657.88
1153.39	2626.05
1157.75	1821.4
1162.11	1188.92
1166.46	1025.62
1170.82	866.482
1175.17	486.551
1179.52	423.791
1183.86	357.344
1188.21	309.068
1192.55	17.3203
1196.89	213.443
1201.22	120.002
1205.55	91.4922
1209.88	74.8223
1214.21	56.0352
1218.54	138.635
1222.86	18.7188
1227.18	227.359
1231.5	136.574
1235.81	171.957
1240.12	135.397
1244.43	212.086
1248.74	217.566
1253.04	358.455
1257.34	446.525
1261.64	403.559
1265.94	448.906
1270.23	268.519
1274.52	420.228
1278.81	374.113
1283.1	327.93
1287.38	348.92
1291.66	181.998
1295.94	302.164
1300.21	238.398
1304.48	371.699
1308.75	320.059
1313.02	370.475
1317.29	575.945
1321.55	354.123
1325.81	445.383
1330.06	328.723
1334.32	164.619
1338.57	198.279
1342.82	104.055
1347.06	85.4492
1351.31	121.566
1355.55	209.719
1359.79	25.6602
1364.02	243.072
1368.26	68.4043
1372.49	70.1387
1376.71	118.883
1380.94	154.008
1385.16	181.199
1389.38	192.859
1393.6	233.582
1397.81	223.641
1402.02	380.238
1406.23	220.894
1410.44	75.9883
1414.64	270.867
1418.85	60.9219
1423.04	282.582
1427.24	287.617
1431.43	582.559
1435.62	918.336
1439.81	1354.19
1444	1765.23
1448.18	1894.05
1452.36	1922.69
1456.54	1735.8
1460.71	1442.09
1464.89	913.035
1469.06	836.246
1473.22	820.242
1477.39	489.543
1481.55	285.055
1485.71	512.246
1489.86	210.336
1494.02	69.4531
1498.17	119.598
1502.32	220.832
1506.46	111.227
1510.61	138.715
1514.75	115.551
1518.88	175.633
1523.02	245.273
1527.15	295.82
1531.28	515.277
1535.41	271.258
1539.53	191.734
1543.66	321.789
1547.78	147.84
1551.89	351.977
1556.01	147.41
1560.12	162.137
1564.23	48.6602
1568.33	249.906
