Measurement: Raman, 514 nm, ccw, Raman Data Processed
Mineral: Epididymite
Rruff sample: R070580
Ideal chemistry: Na_2_Be_2_Si_6_O_15_H_2_O
Locality: Narsarsuk, Narsaq, Kitaa, Greenland
Source: James Shigley
Description: A translucent to white elongated prism.
Measured chemistry: (Na_1.97_K_0.03_)_Σ=2_Be_2_Si_6.00_O_15_·H_2_O; trace amounts of Al; Be and H_2_O assumed by stoichiometry
Pin_id: M01755
Orientation: Laser parallel to -a* (-1 0 0). Fiducial mark perpendicular to laser is parallel to b [0 1 0]
Raman shift (cm-1)	intensity
111.206	0
116.155	902.019
121.101	3079.18
126.045	4652.66
130.985	7163.96
135.923	7009.61
140.858	3324.38
145.79	3057.32
150.719	3274.52
155.646	1861.51
160.569	330.044
165.49	5.5625
170.408	61.6963
175.324	35.5127
180.237	50.623
185.146	95.251
190.053	427.247
194.958	867.536
199.859	1047.3
204.758	753.898
209.654	511.109
214.547	434.883
219.438	727.78
224.326	1126.21
229.211	2206.47
234.093	4657.82
238.972	7796.42
243.849	8917.16
248.723	5168
253.594	2819.99
258.462	2291.78
263.328	1318.27
268.191	641.725
273.051	352.323
277.908	300.484
282.763	720.727
287.615	631.686
292.464	55.8848
297.31	59.502
302.154	24.9346
306.995	7.39746
311.833	59.5332
316.668	4.68848
321.501	45.8535
326.331	76.542
331.158	242.856
335.983	224.1
340.804	169.275
345.623	132.342
350.44	217.166
355.253	177.833
360.064	122.875
364.872	335.209
369.677	500.908
374.48	1411.66
379.28	2487.48
384.077	2833.62
388.872	2179.93
393.663	1208.29
398.452	1776.72
403.239	4208.25
408.022	8645.88
412.803	4804.84
417.581	834.938
422.357	266.921
427.129	139.035
431.899	116.164
436.667	59.1035
441.431	109.675
446.193	62.5977
450.952	108.674
455.709	260.008
460.463	647.871
465.214	1763.99
469.962	5270.02
474.708	11195.3
479.451	10595.5
484.191	3176.81
488.929	1632.22
493.663	963.422
498.396	1015.69
503.125	1608.9
507.852	4230.16
512.576	12750.1
517.298	28550.6
522.016	36779.2
526.732	13355.8
531.446	4376.14
536.156	2228.61
540.865	1382.09
545.57	794.82
550.273	700.297
554.973	389.916
559.67	301.037
564.364	371.766
569.056	387.828
573.746	285.565
578.432	504.228
583.116	1113.24
587.798	1110.14
592.476	466.213
597.152	309.002
601.825	73.2949
606.496	125.787
611.164	217.424
615.829	109.932
620.492	243.32
625.152	113.564
629.809	325.691
634.464	82.668
639.116	389.539
643.765	275.473
648.412	56.3906
653.056	76.9453
657.697	146.033
662.336	13.0469
666.972	169.178
671.605	31.1641
676.236	17.627
680.864	56.8125
685.49	99.7207
690.113	53.4805
694.733	76.6699
699.351	67.2031
703.965	66.4258
708.578	79.3613
713.187	96.6914
717.794	44.7539
722.399	284.615
727.001	97.6211
731.6	51.793
736.196	202.154
740.79	217.34
745.381	408.586
749.97	542.748
754.556	946.269
759.139	812.553
763.72	561.918
768.298	353.992
772.874	190.705
777.447	329.348
782.017	160.6
786.585	293.148
791.15	270.223
795.712	121.422
800.272	334.875
804.829	168.039
809.384	469.998
813.936	571.15
818.485	589.525
823.032	376.438
827.576	357.893
832.118	182.381
836.657	286.685
841.193	402.996
845.727	14.5176
850.258	93.5469
854.787	32.9316
859.313	179.791
863.836	84.1602
868.357	243.332
872.875	192.525
877.391	251.6
881.904	185.449
886.414	116.106
890.922	8.62305
895.427	117.926
899.93	93.0137
904.43	221.938
908.927	173.705
913.422	57.2559
917.914	197.603
922.404	34.4277
926.891	72.4434
931.376	345.338
935.858	108.557
940.337	242.826
944.814	187.822
949.289	182.082
953.76	73.2891
958.229	57.6328
962.696	174.904
967.16	0.716797
971.621	265.742
976.08	110.644
980.537	180.539
984.99	104.502
989.442	260.082
993.89	188.984
998.336	177.185
1002.78	464.9
1007.22	267.812
1011.66	408.568
1016.1	449.953
1020.53	167.01
1024.96	0.119141
1029.39	311.762
1033.81	55.6543
1038.24	531.576
1042.66	803.521
1047.07	1136.2
1051.49	1260.19
1055.9	1066.07
1060.31	937.154
1064.72	1063.79
1069.13	735.521
1073.53	672.85
1077.93	429.795
1082.33	496.978
1086.72	674.344
1091.12	353.023
1095.51	187.654
1099.89	19.877
1104.28	300.639
1108.66	329.33
1113.04	556.107
1117.42	588.019
1121.79	735.609
1126.16	916.715
1130.53	962.924
1134.9	1677.43
1139.27	2279.83
1143.63	1649.38
1147.99	1390.03
1152.35	436.789
1156.7	208.551
1161.05	562.496
1165.4	170.602
1169.75	143.881
1174.09	118.266
1178.44	31.7305
1182.78	105.176
1187.11	224.598
1191.45	220.106
1195.78	49.957
1200.11	203.096
1204.44	135.602
1208.76	55.8301
1213.08	149.685
1217.4	323.287
1221.72	44.9551
1226.03	37.2461
1230.35	310.664
1234.66	36.1523
1238.96	209.768
1243.27	246.705
1247.57	16.502
1251.87	147.256
1256.17	322.051
1260.46	399.943
1264.75	206.869
1269.04	54.9512
1273.33	155.744
1277.62	214.94
1281.9	273.861
1286.18	484.9
1290.45	285.066
1294.73	314.535
1299	296.988
1303.27	203.275
1307.54	597.602
1311.8	445.006
1316.07	234.406
1320.33	324.863
1324.58	413.394
1328.84	300.133
1333.09	277.262
1337.34	434.254
1341.59	120.078
1345.83	943.949
1350.08	224.652
1354.32	283.547
1358.55	370.434
1362.79	376.617
1367.02	447.621
1371.25	152.473
1375.48	377.348
1379.71	136.727
1383.93	196.234
1388.15	239.277
1392.37	161.012
1396.58	165.023
1400.8	271.84
1405.01	157.512
1409.21	329.125
1413.42	349.684
1417.62	258.574
1421.83	96.6758
1426.02	57.1562
1430.22	369.129
1434.41	241.594
1438.61	339.309
1442.79	479.949
1446.98	88.8594
1451.16	251.988
1455.35	282.32
1459.52	455.652
1463.7	213.008
1467.87	263.754
1472.05	285.176
1476.21	95.2539
1480.38	234.184
1484.55	287.121
1488.71	106.25
1492.87	226.312
1497.03	195.453
1501.18	344.918
1505.33	423.562
1509.48	297.184
1513.63	182.594
1517.77	256.039
1521.92	319.543
1526.06	236.258
1530.19	169.262
1534.33	129.051
1538.46	64.9414
1542.59	2.12891
1546.72	323.484
1550.85	348.633
1554.97	161.84
1559.09	85.8477
