Measurement: Raman, 514 nm, ccw, Raman Data Processed
Mineral: Epidote
Rruff sample: R050131
Ideal chemistry: Ca_2_Fe^3+^Al_2_(Si_2_O_7_)(SiO_4_)O(OH)
Locality: Calumet mine, Chaffee County, Colorado, USA
Source: Dave Bunk Minerals
Description: Green prismatic crystal
Measured chemistry: Ca_2.00_Al_2.00_(Fe^3+^_0.75_Al_0.25_)(SiO_4_)(Si_2_O_7_)O(OH)
Pin_id: L00285
Orientation: Laser parallel to c* (0 0 1). Fiducial mark perpendicular to laser is parallel to -a [-1 0 0]
Raman shift (cm-1)	intensity
127.882	0
132.041	30.268
136.199	179.55
140.355	15.446
144.509	17.644
148.66	158.441
152.81	321.575
156.958	451.261
161.105	650.511
165.249	1438.39
169.391	3215.61
173.531	5469.87
177.669	5051.12
181.806	2742.75
185.94	1239.43
190.073	526.918
194.204	88.841
198.332	97.958
202.459	424.838
206.584	918.706
210.707	1119.15
214.828	946.798
218.947	1041.42
223.064	1445.14
227.179	2950.42
231.293	5711.39
235.404	7034.12
239.514	5796.68
243.621	4689.11
247.727	4081.39
251.831	2574.58
255.933	1139.81
260.033	555.071
264.131	318.843
268.227	735.584
272.321	1994.97
276.413	3623.07
280.504	2963.37
284.592	1618.79
288.679	1312.31
292.764	1165.11
296.847	934.316
300.928	803.5
305.007	766.673
309.084	1105.13
313.159	1536.15
317.233	2142.46
321.304	1587.18
325.374	1506.27
329.442	1873.57
333.508	2678.09
337.572	3388.82
341.634	3893.73
345.694	5378.8
349.753	8861
353.809	9383.33
357.864	5955.76
361.916	3071.96
365.967	1684.41
370.016	1238.78
374.064	716.095
378.109	104.36
382.152	164.48
386.194	173.333
390.233	993.061
394.271	1453.77
398.307	740.468
402.341	106.834
406.374	333.461
410.404	307.964
414.433	1.207
418.459	919.293
422.484	3015.58
426.507	5736.08
430.528	7305.37
434.547	9103.09
438.565	11770.8
442.58	13018.7
446.594	12087
450.606	12185.6
454.616	12464.5
458.624	11693.7
462.631	9913.1
466.635	7522.68
470.638	5294.5
474.639	3431.46
478.638	2308.43
482.635	1641.39
486.63	1488.32
490.624	1601.2
494.615	1720.02
498.605	2158.76
502.593	3205.41
506.579	4843.97
510.564	6131.42
514.546	5708.76
518.527	3554.98
522.506	1920.09
526.483	1114.08
530.458	590.946
534.431	413.669
538.403	321.869
542.373	372.676
546.341	445.193
550.307	707.332
554.271	1129.32
558.234	2022.19
562.195	4255.52
566.154	10054.8
570.111	12735.1
574.066	6566.92
578.019	3749.73
581.971	3609.86
585.921	4832.94
589.869	7403.5
593.815	10460.1
597.76	15282.4
601.703	19768
605.644	18154.1
609.583	13560.2
613.52	10699.9
617.455	8471.76
621.389	5609.66
625.321	3429.59
629.251	2268.58
633.18	1629.56
637.106	1242.98
641.031	964.356
644.954	765.097
648.875	644.713
652.795	566.564
656.712	556.712
660.628	629.362
664.542	596.662
668.455	456.608
672.365	414.197
676.274	453.427
680.181	487.295
684.086	531.799
687.99	557.937
691.891	585.706
695.791	558.106
699.689	593.304
703.586	569.396
707.48	440.128
711.373	259.487
715.264	153.454
719.154	89.035
723.041	13.723
726.927	7.155
730.811	47.977
734.693	19.457
738.574	25.753
742.453	66.898
746.33	90.973
750.205	24.971
754.079	49.789
757.95	63.491
761.82	44.12
765.689	113.656
769.555	68.209
773.42	67.646
777.283	6.128
781.144	37.779
785.004	16.379
788.862	30.479
792.718	50.916
796.572	86.954
800.425	120.615
804.276	116.919
808.125	176.888
811.972	295.542
815.818	378.895
819.662	462.953
823.504	622.723
827.345	889.213
831.183	1274.43
835.02	1464.38
838.856	1584.08
842.689	1681.52
846.521	1639.71
850.351	1663.68
854.18	1870.42
858.006	2364.96
861.831	2872.31
865.655	3641.27
869.476	4165.79
873.296	4211.67
877.114	4870.2
880.93	6278.88
884.745	7834.9
888.558	9549.1
892.369	10940.5
896.179	10788.5
899.987	10814.8
903.793	12626.5
907.597	15906.6
911.4	21103.8
915.201	25192.3
919.001	26135
922.798	23151.1
926.594	17412
930.388	12369.3
934.181	9692.92
937.972	5615.34
941.761	4108.94
945.548	3255.13
949.334	2754.2
953.118	2524.75
956.901	2519.12
960.681	2411.37
964.46	2151.04
968.238	1915.89
972.013	1862.92
975.787	2248.14
979.56	3041.54
983.33	3681.1
987.099	2868.81
990.866	1686.67
994.632	1027.7
998.396	702.996
1002.16	496.409
1005.92	277.591
1009.68	292.957
1013.43	361.165
1017.19	577.201
1020.94	867.713
1024.7	1250.44
1028.45	1153.1
1032.19	1044.76
1035.94	1123.67
1039.69	1504.43
1043.43	1815.08
1047.17	1981.93
1050.91	1854.67
1054.65	1494.12
1058.39	1259.29
1062.13	1021.93
1065.86	742.333
1069.59	687.745
1073.32	852.156
1077.05	1212.9
1080.78	2069.7
1084.5	3658.97
1088.23	5759.54
1091.95	6502.2
1095.67	4255.76
1099.39	2104.67
1103.11	1129.51
1106.82	700.506
1110.54	418.707
1114.25	305.322
1117.96	221.698
1121.67	207.004
1125.38	195.926
1129.08	157.375
1132.79	113.895
1136.49	77.682
1140.19	25.987
1143.89	45.882
1147.59	40.266
1151.28	28.406
1154.98	14.325
1158.67	17.908
1162.36	29.633
1166.05	27.984
1169.74	64.09
1173.43	37.016
1177.11	59.79
1180.79	8.459
1184.47	13.561
1188.15	33.982
1191.83	1.484
1195.51	13.078
1199.18	14.934
1202.86	7.632
1206.53	47.073
1210.2	51.001
1213.87	27.781
1217.54	38.409
1221.2	25
1224.86	27.556
1228.53	12.783
1232.19	22.932
1235.85	18.001
1239.5	32.885
1243.16	11.565
1246.81	24.485
1250.46	11.739
1254.12	13.832
1257.76	25.149
1261.41	23.909
1265.06	13.632
1268.7	23.344
1272.34	40.055
1275.99	28.4
1279.62	53.531
1283.26	72.599
1286.9	57.28
1290.53	22.777
1294.17	52.309
1297.8	58.803
1301.43	75.897
1305.06	35.777
1308.68	57.135
1312.31	73.298
1315.93	55.503
1319.56	100.993
1323.18	66.516
1326.8	42.178
1330.41	24.625
1334.03	67.411
1337.64	66.077
1341.26	80.187
1344.87	73.602
1348.47	93.246
1352.08	103.885
1355.69	88.246
1359.29	99.132
1362.9	108.313
1366.5	115.824
1370.1	106.381
1373.7	114.941
1377.29	93.734
1380.89	150.3
1384.48	120.81
1388.08	71.919
1391.67	89.21
1395.26	47.675
1398.84	42.203
1402.43	104.356
1406.01	70.454
1409.6	56.765
1413.18	85.107
1416.76	70.172
1420.34	46.281
1423.91	37.27
1427.49	58.418
1431.06	37.737
1434.63	48.201
1438.2	45.292
1441.77	60.665
1445.34	71.79
1448.9	75.302
1452.47	67.582
1456.03	54.526
1459.59	82.556
1463.15	43.935
1466.71	68.501
1470.27	50.068
1473.82	45.783
1477.37	64.832
1480.93	72.455
1484.48	24.307
1488.03	20.181
1491.57	1.215
1495.12	68.321
1498.66	90.859
1502.2	83.017
1505.75	20.408
1509.29	73.849
1512.82	16.085
1516.36	64.512
1519.89	3.481
