Measurement: Raman, 514 nm, ccw, Raman Data Processed
Mineral: Epidote
Rruff sample: R040089
Ideal chemistry: Ca_2_Fe^3+^Al_2_(Si_2_O_7_)(SiO_4_)O(OH)
Locality: Grafton County, New Hampshire, USA
Source: University of Arizona Mineral Museum
Description: Dark green coarsely crystalline massive
Measured chemistry: Ca_2.00_(Al_2.36_Fe^3+^_0.64_)[Si_2.00_O_7_][Si_1.00_O_4_]O(OH)
Pin_id: L00423
Orientation: Laser parallel to c [0 0 1]. Fiducial mark perpendicular to laser is parallel to b* (0 1 0)
Raman shift (cm-1)	intensity
53.228	0
57.445	213.102
61.659	826.688
65.871	2399.04
70.081	3720.71
74.288	6948.9
78.494	9363.67
82.697	9061.97
86.898	8192.03
91.097	8114.1
95.293	8862.52
99.488	7076.73
103.68	6144.44
107.87	4689.63
112.057	2923.35
116.243	2819.3
120.426	1513.68
124.608	799.41
128.787	308.984
132.963	88.04
137.138	385.09
141.311	234.979
145.481	35.597
149.649	152.85
153.815	517.133
157.979	1047.19
162.14	1450.63
166.3	2562.51
170.457	4770.56
174.612	6465.1
178.765	5704.41
182.915	3186.45
187.064	1740.3
191.21	1084.8
195.355	592.837
199.497	710.424
203.637	1437.52
207.774	2473.25
211.91	2987.07
216.043	2905.11
220.175	3219.76
224.304	3963.91
228.431	5856.57
232.556	9595.7
236.678	11872.9
240.799	9568.73
244.917	7274.02
249.034	6812.51
253.148	6040.66
257.26	3782.47
261.37	2313.92
265.477	1977.02
269.583	2728.6
273.686	4515.49
277.788	6372.63
281.887	4572.9
285.984	2937.64
290.079	2421.87
294.172	2305.11
298.263	2137.67
302.351	1817.6
306.438	1524.75
310.522	1661.04
314.604	1922.88
318.684	1585.99
322.762	1302.1
326.838	1537.16
330.912	2236.04
334.984	3669.12
339.053	5462.12
343.121	7334.7
347.186	10036.9
351.25	15086.6
355.311	16186.2
359.37	10635.6
363.427	5443.98
367.482	2633.8
371.535	1397.14
375.585	409.933
379.634	205.229
383.68	406.097
387.725	128.333
391.767	793.979
395.808	2237.54
399.846	1636.57
403.882	250.214
407.916	438.521
411.948	472.431
415.978	57.39
420.006	1305.31
424.031	3867.19
428.055	7962.79
432.077	10083.1
436.096	10857.4
440.114	12812.2
444.129	15907.7
448.142	17403.8
452.154	18410.8
456.163	17318.9
460.17	14997.4
464.175	12985.4
468.178	11034.6
472.179	8798.81
476.178	6407.31
480.175	4696.52
484.17	3364.08
488.163	2483.64
492.153	2324.76
496.142	2284.99
500.129	2777.26
504.113	3918.58
508.096	5199.92
512.077	7081.38
516.055	7723.1
520.032	5995.2
524.006	3347.75
527.978	1574.62
531.949	785.661
535.917	372.686
539.883	356.27
543.848	250.23
547.81	344.748
551.77	806.105
555.728	1451.23
559.685	2806.43
563.639	5991.44
567.591	14409.2
571.541	23870.9
575.489	14895.5
579.435	6740.79
583.38	5242.25
587.322	6705.78
591.262	9951.13
595.2	14424.9
599.136	20486.2
603.07	27243.1
607.002	28761.7
610.932	22480.5
614.86	15289.8
618.786	11047.6
622.71	7768.83
626.632	4817.73
630.552	3253.69
634.471	2315.17
638.387	1698.92
642.301	1305.65
646.213	1104.05
650.123	917.404
654.031	964.778
657.937	1150.84
661.842	1256.21
665.744	1229.13
669.644	1058.58
673.542	935.55
677.438	797.035
681.333	900.018
685.225	1069.49
689.115	1107.43
693.004	1130.88
696.89	1079.97
700.775	1328.14
704.657	1442.41
708.538	1162.33
712.416	792.689
716.293	330.479
720.167	124.664
724.04	63.382
727.911	76.96
731.78	73.769
735.646	111.725
739.511	99.037
743.374	126.732
747.235	152.965
751.094	183.828
754.951	166.337
758.806	129.449
762.659	124.033
766.511	72.194
770.36	101.894
774.207	121.208
778.053	70.007
781.896	41.135
785.738	61.463
789.577	42.067
793.415	40.817
797.251	128.79
801.084	212.064
804.916	275.668
808.746	374.635
812.574	428.009
816.4	562.353
820.224	765.047
824.047	1021.73
827.867	1449.88
831.685	1922.48
835.502	2192.57
839.316	2380.14
843.129	2517.22
846.94	2611.8
850.749	2707.89
854.556	3090.51
858.361	3158.67
862.164	3496.41
865.965	3975.73
869.764	4571.01
873.562	5312.05
877.357	6495.29
881.151	7800.2
884.942	8717.23
888.732	9339.1
892.52	10439.9
896.306	12455.9
900.09	14796.9
903.872	19085.7
907.653	25556.4
911.431	33972.7
915.208	40775
918.982	41220
922.755	37099.1
926.526	29030.4
930.295	21442.4
934.062	15465.3
937.827	10904.2
941.59	7861.86
945.352	6041.17
949.112	4975.95
952.869	4345.79
956.625	4247.38
960.379	4042.87
964.131	3964.12
967.881	3434.66
971.63	3294.44
975.376	3785.44
979.121	4928.67
982.864	6506.11
986.605	6334.78
990.344	4062.69
994.081	2467.83
997.816	1603.19
1001.55	989.798
1005.28	759.929
1009.01	538.967
1012.74	618.293
1016.47	740.378
1020.19	941.142
1023.91	1339.99
1027.63	1550.89
1031.35	1822.82
1035.07	2159.34
1038.78	2716.19
1042.49	3250.18
1046.21	3519.37
1049.92	3303.49
1053.62	2947.89
1057.33	2375.22
1061.03	1831.13
1064.73	1369.69
1068.44	1036.72
1072.13	1174.74
1075.83	1355.59
1079.53	2050.93
1083.22	3541.44
1086.91	6168.66
1090.6	9242.99
1094.29	8567.16
1097.97	4505.68
1101.66	2194.99
1105.34	1277.12
1109.02	788.415
1112.7	626.753
1116.37	509.017
1120.05	411.438
1123.72	285.049
1127.39	237.357
1131.06	177.998
1134.73	209.112
1138.39	145.402
1142.06	82.311
1145.72	46.669
1149.38	30.885
1153.04	1.284
1156.69	80.853
1160.35	85.535
1164	19.579
1167.65	81.607
1171.3	66.42
1174.95	62.733
1178.6	31.226
1182.24	75.131
1185.88	91.357
1189.52	26.702
1193.16	26.307
1196.8	3.103
1200.43	3.479
1204.07	20.421
1207.7	12.72
1211.33	42.933
1214.96	7.449
1218.58	114.052
1222.21	22.871
1225.83	62.044
1229.45	18.774
1233.07	79.471
1236.69	12.282
1240.3	14.031
1243.92	16.546
1247.53	4.358
1251.14	12.899
1254.75	19.129
1258.35	23.857
1261.96	16.557
1265.56	20.545
1269.16	59.281
1272.76	135.583
1276.36	138.689
1279.96	100.471
1283.55	69.558
1287.14	93.526
1290.73	55.098
1294.32	101.117
1297.91	101.54
1301.5	75.996
1305.08	101.737
1308.66	88.854
1312.24	59.35
1315.82	90.224
1319.4	97.482
1322.97	85.813
1326.55	33.432
1330.12	80.274
1333.69	92.547
1337.26	118.654
1340.82	112.153
1344.39	90.876
1347.95	182.465
1351.51	141.736
1355.07	116.775
1358.63	98.182
1362.18	145.378
1365.74	160.733
1369.29	108.734
1372.84	221.384
1376.39	192.148
1379.94	157.528
1383.48	130.696
1387.03	113.599
1390.57	143.739
1394.11	86.63
1397.65	104.182
1401.19	95.938
1404.72	131.382
1408.26	122.708
1411.79	161.091
1415.32	125.458
1418.85	131.39
1422.37	146.074
1425.9	96.69
1429.42	118.186
1432.94	101.918
1436.46	94.744
1439.98	92.196
1443.5	101.905
1447.01	72.341
1450.53	114.321
1454.04	142.515
1457.55	142.025
1461.05	97.637
1464.56	80.53
1468.07	86.686
1471.57	39.924
1475.07	78.592
1478.57	80.475
1482.07	31.611
1485.56	97.864
1489.06	117.348
1492.55	77.847
1496.04	69.729
1499.53	42.931
1503.02	43.401
1506.5	110.576
1509.99	53.91
1513.47	58.504
1516.95	0.167
