Measurement: Raman, 514 nm, ccw, Raman Data Processed
Mineral: Epidote
Rruff sample: R040092
Ideal chemistry: Ca_2_Fe^3+^Al_2_(Si_2_O_7_)(SiO_4_)O(OH)
Locality: Nahant, Massachusetts, USA
Source: University of Arizona Mineral Museum
Description: Green prismatic crystals imbedded in quartz
Measured chemistry: Ca_2.01_Al_2.00_Fe_1.00_(Si_1.00_O_4_)(Si_1.97_Fe_0.02_Al_0.01_Ti_0.01_O_7_)O(OH)
Pin_id: M00185
Orientation: Laser parallel to -c [0 0 -1]. Fiducial mark perpendicular to laser is parallel to b* (0 1 0)
Raman shift (cm-1)	intensity
51.466	0
55.666	423.199
59.863	702.013
64.059	934.171
68.253	774.981
72.445	101.39
76.635	103.611
80.823	2977.3
85.009	9497.28
89.193	18467.9
93.375	25431.3
97.554	27563.9
101.732	20786.8
105.908	8973.59
110.082	3164.72
114.254	1617.67
118.424	941.963
122.592	605.137
126.758	1301.01
130.922	2900.78
135.083	3754.94
139.243	2293.48
143.401	397.512
147.557	48.653
151.711	340.752
155.863	195.595
160.013	1723.53
164.161	3697.05
168.308	4870.23
172.452	4649.19
176.594	2833.99
180.734	1751.68
184.872	2147.91
189.008	3040.94
193.143	2064.02
197.275	1543.67
201.405	2423.09
205.534	2932.35
209.66	2773.25
213.784	3066.26
217.907	5230.29
222.027	8614.09
226.146	12064.6
230.263	13175
234.377	10114
238.49	7645.91
242.601	6820.45
246.709	6346.36
250.816	6097.48
254.921	6699.79
259.024	6053.27
263.125	5189.87
267.224	6985.9
271.321	11438.6
275.416	13946.9
279.51	10839.5
283.601	5620.66
287.69	3555.88
291.778	3199.13
295.863	3735.35
299.947	3915.48
304.029	4111.4
308.108	5039.13
312.186	6163.76
316.262	6124.23
320.336	4292.18
324.408	3087.23
328.478	2242.12
332.546	719.862
336.612	141.588
340.677	181.613
344.739	1163.8
348.799	2635.03
352.858	2575.09
356.915	1225.98
360.969	318.18
365.022	44.229
369.073	249.986
373.122	658.539
377.169	521.357
381.215	261.31
385.258	1839.33
389.299	3621.38
393.339	3377.57
397.376	1676.14
401.412	571.285
405.446	587.021
409.478	1634.23
413.508	4544.02
417.536	10654.4
421.562	19137.6
425.586	24431.4
429.609	20980.8
433.629	17982.9
437.648	16640.4
441.665	15194.4
445.68	16994.4
449.693	20981.2
453.704	21327.6
457.713	19552.9
461.721	14658.1
465.726	9930.12
469.73	7536.84
473.731	5484.22
477.731	3651.51
481.729	2804.73
485.725	2756.84
489.72	3372.84
493.712	4975.65
497.703	7393.5
501.691	10455.9
505.678	12247.1
509.663	11985.7
513.646	10703.8
517.627	11291.2
521.607	13755
525.584	12413.5
529.56	6979.9
533.534	3505.5
537.506	2056.61
541.476	1856.07
545.444	2185.63
549.41	3460.56
553.375	5566.72
557.337	11097.9
561.298	22891.2
565.257	32570.5
569.214	23567.7
573.17	12430.4
577.123	9064.19
581.075	10108.9
585.024	12964.6
588.972	17511.6
592.918	22317.5
596.863	28508.4
600.805	28548.1
604.746	23359.5
608.685	17804.6
612.621	14523.7
616.557	11379.1
620.49	7688.35
624.421	5161.95
628.351	3403.51
632.279	2637.81
636.205	2034.06
640.129	1565.81
644.051	1311.33
647.972	1116.91
651.89	1075.83
655.807	999.174
659.722	1153.39
663.636	1292.08
667.547	1243.06
671.457	1244.3
675.365	1490.79
679.271	1547.51
683.175	1820.48
687.077	1623.94
690.978	1434.42
694.877	682.335
698.774	427.37
702.669	165.592
706.562	9.238
710.454	121.19
714.344	224.802
718.232	21.41
722.118	141.071
726.002	40.99
729.885	159.27
733.766	263.129
737.645	177.863
741.522	187.186
745.397	248.067
749.271	172.463
753.143	161.206
757.013	863.848
760.881	384.792
764.748	351.818
768.613	12.198
772.476	32.405
776.337	37.758
780.196	151.953
784.054	168.125
787.91	338.333
791.764	311.628
795.616	360.054
799.467	549.655
803.316	824.465
807.163	961.5
811.008	1248.77
814.851	1756.29
818.693	2374.06
822.533	3610.11
826.371	4647.44
830.208	5476.07
834.042	5152.02
837.875	4747.3
841.706	4298.94
845.536	4204.93
849.363	4693.29
853.189	5333.05
857.013	6397.19
860.836	7631.03
864.656	8537.64
868.475	9120.78
872.292	9084.15
876.108	8611.13
879.922	8897.99
883.733	9754.67
887.544	10715.9
891.352	11311.1
895.159	12859.2
898.964	16058.5
902.767	21547.2
906.568	29502.7
910.368	38912.3
914.166	48571.2
917.962	48427.8
921.757	37740
925.55	26344.4
929.341	17288.2
933.13	11479
936.918	8577.77
940.703	6593.35
944.488	5488.22
948.27	4996.34
952.051	5198.04
955.83	5664.1
959.607	5797.52
963.383	4938.31
967.156	4294.47
970.928	4598
974.699	6656.91
978.468	9500.24
982.234	10089
986	6966.18
989.763	4249.81
993.525	2780.95
997.285	1882.58
1001.04	1205.1
1004.8	888.145
1008.55	758.803
1012.31	719.379
1016.06	938.372
1019.81	1111.35
1023.56	1464.49
1027.31	1719.55
1031.05	2662.33
1034.79	4488.66
1038.53	5905.97
1042.27	7001.04
1046.01	6359.4
1049.75	5132.8
1053.48	4571.65
1057.22	4949.36
1060.95	5378.67
1064.68	4769.28
1068.4	4542.15
1072.13	5655.65
1075.86	8555.81
1079.58	13152.6
1083.3	20306
1087.02	24257
1090.74	17387.5
1094.45	8833.46
1098.17	4350.68
1101.88	2574.96
1105.59	1535.06
1109.3	1118.71
1113.01	810.873
1116.71	537.346
1120.42	613.238
1124.12	846.4
1127.82	338.917
1131.52	304.409
1135.22	212.876
1138.91	151.984
1142.61	15.311
1146.3	64.935
1149.99	8.973
1153.68	188.34
1157.37	86.467
1161.06	153.22
1164.74	108.444
1168.42	119.987
1172.1	104.407
1175.78	117.658
1179.46	92.879
1183.14	24.79
1186.81	36.935
1190.48	5.312
1194.15	74.596
1197.83	28.972
1201.49	36
1205.16	53.11
1208.82	64.043
1212.49	179.066
1216.15	96.01
1219.81	65.294
1223.46	69.194
1227.12	86.624
1230.78	101.521
1234.43	63.227
1238.08	89.762
1241.73	125.899
1245.38	98.346
1249.03	127.118
1252.67	94.64
1256.31	120.296
1259.95	91.352
1263.6	143.094
1267.23	164.904
1270.87	169.362
1274.51	97.102
1278.14	161.945
1281.77	164.952
1285.4	121.372
1289.03	92.098
1292.66	86.954
1296.28	109.353
1299.91	231.149
1303.53	72.587
1307.15	76.25
1310.77	8.44
1314.38	7.083
1318	10.211
1321.61	75.396
1325.23	60.528
1328.84	4.472
1332.45	52.93
1336.06	29.677
1339.66	76.678
1343.27	120.112
1346.87	153.844
1350.47	141.389
1354.07	227.792
1357.67	329.894
1361.26	184.762
1364.86	206.14
1368.45	279.081
1372.04	300.662
1375.63	279.313
1379.22	208.869
1382.81	279.736
1386.39	139.287
1389.98	392.927
1393.56	257.396
1397.14	189.846
1400.72	203.34
1404.3	231.617
1407.87	221.604
1411.45	216.237
1415.02	304.661
1418.59	255.763
1422.16	293.238
1425.73	163.002
1429.29	168.999
1432.86	166.272
1436.42	178.853
1439.98	188.938
1443.54	223.339
1447.1	203.573
1450.66	234.853
1454.21	180.607
1457.77	191.137
1461.32	162.961
1464.87	177.4
1468.42	71.119
1471.96	134.429
1475.51	74.753
1479.06	146.098
1482.6	188.013
1486.14	138.073
1489.68	113.313
1493.22	49.547
1496.75	85.522
1500.29	121.07
1503.82	67.323
1507.35	136.484
1510.88	122.481
1514.41	5.737
1517.94	15.375
1521.46	0
