Measurement: Raman, 514 nm, ccw, Raman Data Processed
Mineral: Epidote
Rruff sample: R040092
Ideal chemistry: Ca_2_Fe^3+^Al_2_(Si_2_O_7_)(SiO_4_)O(OH)
Locality: Nahant, Massachusetts, USA
Source: University of Arizona Mineral Museum
Description: Green prismatic crystals imbedded in quartz
Measured chemistry: Ca_2.01_Al_2.00_Fe_1.00_(Si_1.00_O_4_)(Si_1.97_Fe_0.02_Al_0.01_Ti_0.01_O_7_)O(OH)
Pin_id: M00265
Orientation: Laser parallel to -a [-1 0 0]. Fiducial mark perpendicular to laser is parallel to -b* (0 -1 0)
Raman shift (cm-1)	intensity
51.466	0
55.666	190.58
59.863	358.69
64.059	517.078
68.253	40.539
72.445	38.813
76.635	1081.01
80.823	5794.18
85.009	14764.1
89.193	22168
93.375	14882.2
97.554	5097.07
101.732	1427
105.908	596.591
110.082	169.326
114.254	95.445
118.424	697.383
122.592	2893.11
126.758	8780.33
130.922	17309.8
135.083	17177.2
139.243	8322.07
143.401	6356.89
147.557	7494.18
151.711	5540.32
155.863	6515
160.013	13028.4
164.161	22481.8
168.308	26554.8
172.452	19094
176.594	10901.4
180.734	5506.07
184.872	2973.04
189.008	1913.31
193.143	1912.88
197.275	2858.76
201.405	4396.95
205.534	4016.45
209.66	2852.26
213.784	2823.36
217.907	4308.93
222.027	6449.79
226.146	8496.9
230.263	10173.4
234.377	14879.1
238.49	26550.1
242.601	35451.8
246.709	23871.2
250.816	10532.8
254.921	4487.15
259.024	1971.25
263.125	1005.96
267.224	1111.17
271.321	1587.8
275.416	2666.79
279.51	3913.09
283.601	7837.63
287.69	16463.4
291.778	25811.3
295.863	19747.3
299.947	8950.46
304.029	4034.6
308.108	2138.76
312.186	2196.68
316.262	3662.57
320.336	7466.37
324.408	11101.1
328.478	11124.6
332.546	10109.1
336.612	12604.5
340.677	20228.7
344.739	33916.8
348.799	43590.7
352.858	33341.5
356.915	17222.1
360.969	8323.5
365.022	3854.69
369.073	1564.67
373.122	377.409
377.169	271.129
381.215	532.867
385.258	411.573
389.299	228.795
393.339	122.933
397.376	264.66
401.412	196.864
405.446	102.867
409.478	973.068
413.508	2717.86
417.536	6201.25
421.562	11227.2
425.586	16550.5
429.609	20892.3
433.629	26851.2
437.648	24769.4
441.665	22114.8
445.68	32521.1
449.693	43856.2
453.704	30901
457.713	17829.5
461.721	9971.73
465.726	5711.61
469.73	3834.17
473.731	3111.4
477.731	3642.25
481.729	4785.69
485.725	7323.68
489.72	12327.2
493.712	21438.2
497.703	30272.7
501.691	30330.7
505.678	23948.1
509.663	18342.9
513.646	10103.1
517.627	4857.69
521.607	2782.67
525.584	1655
529.56	905.657
533.534	529.629
537.506	427.013
541.476	495.878
545.444	1014.43
549.41	2249.96
553.375	4717.8
557.337	11678.1
561.298	26171.4
565.257	32835.4
569.214	16472.6
573.17	8063.95
577.123	6773.88
581.075	8958.12
585.024	12077.6
588.972	15863.4
592.918	19760.3
596.863	25324.1
600.805	22040
604.746	15860.8
608.685	11723.9
612.621	9473.08
616.557	7030.43
620.49	4429.24
624.421	2663.53
628.351	1711.68
632.279	1183.93
636.205	933.439
640.129	732.189
644.051	690.865
647.972	507.297
651.89	422.111
655.807	276.504
659.722	310.46
663.636	409.965
667.547	445.004
671.457	528.561
675.365	713.625
679.271	861.182
683.175	1154.22
687.077	1383.72
690.978	1280.68
694.877	747.206
698.774	356.205
702.669	210.892
706.562	93.935
710.454	42.37
714.344	114.425
718.232	127.595
722.118	162.39
726.002	166.113
729.885	203.931
733.766	194.88
737.645	117.85
741.522	136.604
745.397	52.136
749.271	73.234
753.143	22.845
757.013	71.239
760.881	155.356
764.748	278.65
768.613	277.204
772.476	189.024
776.337	98.066
780.196	98.289
784.054	150.678
787.91	189.271
791.764	241.11
795.616	283.236
799.467	361.696
803.316	470.472
807.163	600.63
811.008	668.161
814.851	827.072
818.693	1176.37
822.533	1419.06
826.371	1561.16
830.208	1753.56
834.042	1881.6
837.875	1978.98
841.706	2290.84
845.536	2783.24
849.363	3530.16
853.189	4532.63
857.013	6172.59
860.836	8427.91
864.656	11208.5
868.475	14459.6
872.292	18950.9
876.108	22556.7
879.922	22617
883.733	20693.9
887.544	17226
891.352	12396.8
895.159	8923.14
898.964	7543.39
902.767	7951.74
906.568	9336.41
910.368	11188.8
914.166	11292.1
917.962	8804.56
921.757	5886.46
925.55	4064.18
929.341	2964.59
933.13	2204.46
936.918	1751.9
940.703	1256.57
944.488	1016.63
948.27	842.868
952.051	772.958
955.83	719.743
959.607	749.652
963.383	764.625
967.156	893.68
970.928	1168.82
974.699	1986.09
978.468	2724.5
982.234	2371.03
986	1503.98
989.763	879.369
993.525	771.062
997.285	635.72
1001.04	551.795
1004.8	612.747
1008.55	831.299
1012.31	1362.28
1016.06	2329.89
1019.81	2694.29
1023.56	2224.47
1027.31	2159.27
1031.05	2777.03
1034.79	4034.85
1038.53	5020.71
1042.27	4976.48
1046.01	3852.07
1049.75	2626.45
1053.48	1862.51
1057.22	1622.19
1060.95	1424.36
1064.68	1157.87
1068.4	1052.65
1072.13	1154.68
1075.86	1572.96
1079.58	2461.52
1083.3	3949.38
1087.02	4540.52
1090.74	2708.95
1094.45	1348.62
1098.17	778.765
1101.88	548.982
1105.59	446.133
1109.3	316.917
1113.01	238.213
1116.71	126.573
1120.42	253.521
1124.12	508.034
1127.82	76.461
1131.52	58.656
1135.22	66.8
1138.91	41.796
1142.61	71.555
1146.3	69.939
1149.99	86.085
1153.68	140.158
1157.37	92.007
1161.06	58.677
1164.74	45.181
1168.42	13.691
1172.1	8.515
1175.78	41.669
1179.46	57.06
1183.14	101.955
1186.81	85.836
1190.48	246.792
1194.15	136.07
1197.83	100.119
1201.49	188.859
1205.16	130.152
1208.82	179.618
1212.49	112.132
1216.15	232.131
1219.81	141.103
1223.46	130.776
1227.12	126.312
1230.78	173.708
1234.43	159.954
1238.08	81.498
1241.73	131.648
1245.38	72.703
1249.03	55.704
1252.67	63.329
1256.31	44.933
1259.95	46.477
1263.6	132.743
1267.23	46.799
1270.87	107.639
1274.51	87.062
1278.14	78.614
1281.77	125.928
1285.4	140.156
1289.03	86.751
1292.66	38.037
1296.28	57.167
1299.91	15.501
1303.53	27.589
1307.15	9.569
1310.77	9.123
1314.38	43.128
1318	20.037
1321.61	22.94
1325.23	5.36
1328.84	22.178
1332.45	29.503
1336.06	3.71
1339.66	27.279
1343.27	57.984
1346.87	71.385
1350.47	96.374
1354.07	124.126
1357.67	178.605
1361.26	115.793
1364.86	191.704
1368.45	200.37
1372.04	204.807
1375.63	160.389
1379.22	99.379
1382.81	180.336
1386.39	168.177
1389.98	121.701
1393.56	174.736
1397.14	197.909
1400.72	161.273
1404.3	152.537
1407.87	167.112
1411.45	204.457
1415.02	166.616
1418.59	96.217
1422.16	109.04
1425.73	98.718
1429.29	67.761
1432.86	86.5
1436.42	80.347
1439.98	116.432
1443.54	86.135
1447.1	112.959
1450.66	93.239
1454.21	99.884
1457.77	84.195
1461.32	121.333
1464.87	73.146
1468.42	73.859
1471.96	48.923
1475.51	80.3
1479.06	21.93
1482.6	91.065
1486.14	34.859
1489.68	40.124
1493.22	62.135
1496.75	26.512
1500.29	45.327
1503.82	90.785
1507.35	63.92
1510.88	110.924
1514.41	6.354
1517.94	32.716
1521.46	68.939
