Measurement: Raman, 514 nm, ccw, Raman Data Processed
Mineral: Epidote
Rruff sample: R050131
Ideal chemistry: Ca_2_Fe^3+^Al_2_(Si_2_O_7_)(SiO_4_)O(OH)
Locality: Calumet mine, Chaffee County, Colorado, USA
Source: Dave Bunk Minerals
Description: Green prismatic crystal
Measured chemistry: Ca_2.00_Al_2.00_(Fe^3+^_0.75_Al_0.25_)(SiO_4_)(Si_2_O_7_)O(OH)
Pin_id: L00140
Orientation: Laser parallel to -a* (-1 0 0). Fiducial mark perpendicular to laser is parallel to b [0 1 0]
Raman shift (cm-1)	intensity
137.568	0
141.741	70.942
145.911	4.378
150.08	59.339
154.247	315.178
158.411	630.068
162.574	1523.98
166.734	3693.43
170.893	6753.09
175.049	7377.77
179.203	4208.54
183.355	1944.1
187.505	997.634
191.653	520.689
195.799	439.987
199.943	664.226
204.084	1055.74
208.224	994.383
212.362	598.713
216.497	727.428
220.631	1358.67
224.762	2802.27
228.891	5041.38
233.018	5781.3
237.144	4670.18
241.267	4249.1
245.388	3595.14
249.507	1927.31
253.624	655.639
257.739	151.145
261.852	8.845
265.962	254.961
270.071	1072.81
274.178	2842.44
278.283	2563.78
282.385	975.766
286.486	407.04
290.584	339.568
294.681	391.321
298.775	416.313
302.868	315.416
306.958	290.991
311.047	243.986
315.133	262.458
319.217	245.005
323.299	363.345
327.38	558.334
331.458	897.869
335.534	1474.87
339.608	2183.26
343.681	4120.97
347.751	7433.97
351.819	8301.21
355.885	5062.68
359.949	2379.35
364.011	1117.2
368.071	521.174
372.129	72.227
376.185	152.698
380.239	116.831
384.291	246.848
388.341	981.564
392.389	1208.35
396.435	473.194
400.479	62.883
404.521	207.064
408.561	157.611
412.599	101.573
416.636	664.854
420.67	2045.21
424.702	4525.2
428.732	6642.35
432.76	10003.7
436.786	13190.5
440.81	11697
444.832	8993.82
448.852	8880.94
452.87	9318.36
456.887	9156.05
460.901	7333.96
464.913	4776.06
468.923	2611.36
472.931	1587.81
476.938	1038.37
480.942	868.011
484.944	778.713
488.945	923.451
492.943	1280.21
496.94	2132.97
500.934	3150.72
504.927	4088.46
508.917	5053.18
512.906	4706.87
516.892	2683.52
520.877	1251.13
524.86	559.696
528.841	278.204
532.82	154.652
536.796	148.579
540.771	155.86
544.744	121.937
548.715	339.136
552.684	656.323
556.652	1190.45
560.617	2650.15
564.58	6439.19
568.541	7348.29
572.501	3822.72
576.458	2543.5
580.414	2933.75
584.367	4510.2
588.319	6767.15
592.268	9419.66
596.216	13132
600.162	16616.1
604.106	15488.6
608.048	12253.7
611.988	10596.2
615.926	8633.32
619.862	5915.1
623.797	3645.36
627.729	2410.25
631.659	1603.25
635.588	1229.63
639.515	928.843
643.439	788.917
647.362	618.303
651.283	471.059
655.202	412.502
659.119	343.712
663.034	379.686
666.947	295.422
670.859	206.917
674.768	189.168
678.676	252.175
682.581	252.935
686.485	262.446
690.387	244.708
694.287	210.792
698.185	262.919
702.081	324.952
705.975	274.73
709.868	202.251
713.758	57.515
717.647	41.511
721.533	7.525
725.418	26.652
729.301	1.358
733.182	28.832
737.061	26.806
740.939	17.338
744.814	39.444
748.688	31.117
752.559	78.408
756.429	50.408
760.297	68.084
764.163	44.47
768.027	20.538
771.89	53.206
775.75	7.443
779.609	16.131
783.465	11.771
787.32	28.36
791.173	21.662
795.024	71.687
798.873	98.453
802.721	141.985
806.566	134.297
810.41	175.401
814.252	229.302
818.092	352.289
821.93	482.519
825.766	678.844
829.601	983.988
833.433	1106.95
837.264	1141.75
841.093	1167.38
844.92	1157.85
848.745	1274.17
852.568	1410.34
856.39	1726.38
860.209	2042.3
864.027	2635.05
867.843	3058.15
871.657	3111.22
875.47	3286.79
879.28	4085.03
883.089	5437.66
886.896	6767.07
890.701	7651.69
894.504	7440.41
898.305	7380.35
902.105	8725.77
905.902	11500.5
909.698	15958.3
913.492	21839.4
917.285	25600.6
921.075	21824.2
924.864	14969.5
928.65	9708.93
932.435	6495.35
936.218	4479.03
940	3158.14
943.779	2450.48
947.557	1890.2
951.333	1545.78
955.107	1460.97
958.879	1442.57
962.65	1266.4
966.418	1146.34
970.185	1145.4
973.95	1326.63
977.714	1646.92
981.475	1875.38
985.235	1569.98
988.993	970.709
992.749	667.577
996.503	489.946
1000.26	379.096
1004.01	327.054
1007.75	401.468
1011.5	487.329
1015.25	611.057
1018.99	845.023
1022.73	993.687
1026.47	938.049
1030.21	816.635
1033.95	911.857
1037.68	1065.9
1041.41	1202.28
1045.15	1198.03
1048.88	1003.03
1052.6	851.944
1056.33	805.082
1060.05	755.108
1063.78	626.51
1067.5	533.299
1071.21	561.229
1074.93	711.681
1078.65	1269.42
1082.36	2423.54
1086.07	4238.95
1089.78	4405.35
1093.49	2584.74
1097.2	1161.88
1100.9	632.212
1104.6	451.037
1108.3	340.51
1112	263.424
1115.7	217.39
1119.4	181.745
1123.09	286.406
1126.78	110.386
1130.47	98.224
1134.16	55.138
1137.85	23.485
1141.54	47.998
1145.22	33.26
1148.9	30.603
1152.58	42.99
1156.26	34.301
1159.94	3.173
1163.61	9.722
1167.28	21.825
1170.95	27.814
1174.62	29.202
1178.29	0.876
1181.96	28.198
1185.62	6.775
1189.29	4.205
1192.95	4.475
1196.61	15.121
1200.26	18.921
1203.92	12.076
1207.57	11.303
1211.23	26.8
1214.88	16.999
1218.53	9.776
1222.17	30.491
1225.82	28.496
1229.46	21.099
1233.11	7.494
1236.74	16.764
1240.38	4.796
1244.02	10.102
1247.66	7.942
1251.29	10.126
1254.92	32.723
1258.55	30.157
1262.18	54.458
1265.81	5.119
1269.43	44.891
1273.06	0.864
1276.68	39.569
1280.3	4.092
1283.91	28.532
1287.53	18.635
1291.15	36.228
1294.76	48.32
1298.37	80.746
1301.98	14.474
1305.59	39.311
1309.19	30.568
1312.8	27.237
1316.4	36.595
1320	76.955
1323.6	28.077
1327.2	45.865
1330.8	36.825
1334.39	41.644
1337.98	11.204
1341.58	108.494
1345.16	74.374
1348.75	64.065
1352.34	28.08
1355.92	73.253
1359.51	85.963
1363.09	74.751
1366.67	38.208
1370.24	56.498
1373.82	30.539
1377.39	33.431
1380.97	31.69
1384.54	89.902
1388.11	44.651
1391.68	40.342
1395.24	53.375
1398.81	81.315
1402.37	45.132
1405.93	52.008
1409.49	42.014
1413.05	25.995
1416.6	39.246
1420.16	57.828
1423.71	47.858
1427.26	53.204
1430.81	58.398
1434.36	57.598
1437.91	70.34
1441.45	66.444
1444.99	63.311
1448.54	42.28
1452.08	52.879
1455.61	38.289
1459.15	50.013
1462.68	39.956
1466.22	33.241
1469.75	43.574
1473.28	57.52
1476.81	62.924
1480.33	38.197
1483.86	25.448
1487.38	22.772
1490.9	39.184
1494.42	2.778
1497.94	24.537
1501.46	16.829
1504.97	31.531
1508.49	86.879
1512	30.234
1515.51	2.57
1519.02	51.998
