Measurement: Raman, 514 nm, ccw, Raman Data Processed
Mineral: Epidote
Rruff sample: R040092
Ideal chemistry: Ca_2_Fe^3+^Al_2_(Si_2_O_7_)(SiO_4_)O(OH)
Locality: Nahant, Massachusetts, USA
Source: University of Arizona Mineral Museum
Description: Green prismatic crystals imbedded in quartz
Measured chemistry: Ca_2.01_Al_2.00_Fe_1.00_(Si_1.00_O_4_)(Si_1.97_Fe_0.02_Al_0.01_Ti_0.01_O_7_)O(OH)
Pin_id: S00018
Orientation: Laser parallel to b* (0 1 0). Fiducial mark perpendicular to laser is parallel to c [0 0 1]
Raman shift (cm-1)	intensity
51.466	0
55.666	144.57
59.863	300.492
64.059	24.455
68.253	103.701
72.445	325.639
76.635	1834.01
80.823	6670.03
85.009	17017
89.193	27420.7
93.375	21333
97.554	11220.3
101.732	5668.29
105.908	3733.78
110.082	2571.4
114.254	2229.4
118.424	2456.79
122.592	3969.5
126.758	8475.87
130.922	15640.6
135.083	13706.9
139.243	5657.03
143.401	3356.91
147.557	2986.3
151.711	1816.33
155.863	2048.43
160.013	3847.92
164.161	7052.01
168.308	8807.85
172.452	5978.54
176.594	3384.17
180.734	2126.75
184.872	1925.31
189.008	2101.86
193.143	2727.43
197.275	4414.3
201.405	6618.75
205.534	6915.29
209.66	6703.6
213.784	7942.63
217.907	11600.1
222.027	17567.7
226.146	23404.1
230.263	20628.9
234.377	12447
238.49	10159.2
242.601	10194
246.709	6404.02
250.816	3389.91
254.921	2158.49
259.024	1781.57
263.125	2576.98
267.224	5888.56
271.321	13431.2
275.416	20173.9
279.51	12017.5
283.601	5158.98
287.69	4180.27
291.778	5744.28
295.863	6227.94
299.947	5326.07
304.029	3639.58
308.108	2718.51
312.186	1880.89
316.262	1851.71
320.336	3427.99
324.408	4504.72
328.478	2659.89
332.546	336.485
336.612	381.558
340.677	157.786
344.739	904.054
348.799	1808.26
352.858	1374.83
356.915	237.724
360.969	364.795
365.022	650.131
369.073	706.093
373.122	629.905
377.169	100.21
381.215	1657.38
385.258	3921.21
389.299	5020.95
393.339	2933.84
397.376	1373.07
401.412	972.666
405.446	1389.69
409.478	2985.03
413.508	6803.72
417.536	15396.7
421.562	28528.8
425.586	34053
429.609	24463.2
433.629	18255.3
437.648	14145.3
441.665	13206.9
445.68	19523
449.693	28328.5
453.704	28412.3
457.713	24113.2
461.721	14839.4
465.726	7951.66
469.73	4705.09
473.731	2693.6
477.731	2052.15
481.729	2156.73
485.725	2878.29
489.72	4406.84
493.712	7589.32
497.703	11326.1
501.691	12702.7
505.678	13619.9
509.663	14726
513.646	14280.9
517.627	17476.7
521.607	22168.9
525.584	16419.4
529.56	8048.08
533.534	3812.46
537.506	2362.01
541.476	2065.72
545.444	2504.66
549.41	3901.49
553.375	6927.61
557.337	15710.4
561.298	35103.1
565.257	44732.8
569.214	22756.4
573.17	12042.8
577.123	10176.9
581.075	13137.9
585.024	17499.6
588.972	21115.8
592.918	26549.1
596.863	33087.2
600.805	28207.7
604.746	20599.1
608.685	16197.7
612.621	13369.5
616.557	10260.3
620.49	6414.45
624.421	4160.28
628.351	2771.22
632.279	2033.8
636.205	1506.97
640.129	1155.88
644.051	1013.52
647.972	706.859
651.89	696.878
655.807	669.737
659.722	704.884
663.636	847.771
667.547	852.252
671.457	887.308
675.365	1114.92
679.271	1297.24
683.175	1440.93
687.077	1415.34
690.978	1050.48
694.877	447.755
698.774	153.516
702.669	74.4
706.562	110.563
710.454	234.292
714.344	171.953
718.232	313.476
722.118	175.415
726.002	221.567
729.885	171.541
733.766	165.785
737.645	164.181
741.522	166.638
745.397	118.117
749.271	93.467
753.143	25.519
757.013	85.996
760.881	90.439
764.748	130.957
768.613	230.614
772.476	228.49
776.337	243.601
780.196	238.966
784.054	286.597
787.91	394.542
791.764	488.83
795.616	578.466
799.467	711.459
803.316	1007.82
807.163	1238.54
811.008	1537.65
814.851	2151.13
818.693	2982
822.533	4373.26
826.371	6132.92
830.208	6910
834.042	6007.5
837.875	4725.43
841.706	3844.79
845.536	3743.58
849.363	4095.82
853.189	4794.38
857.013	5892.23
860.836	7558.89
864.656	9135.23
868.475	10502
872.292	10352.7
876.108	9094.31
879.922	8282.88
883.733	7812.02
887.544	7796.15
891.352	8484.33
895.159	10160.8
898.964	13511.4
902.767	19377.3
906.568	28444.4
910.368	40824.9
914.166	52787.6
917.962	48124.9
921.757	31515.6
925.55	19317.8
929.341	11899
933.13	7937.15
936.918	5682.58
940.703	4312.2
944.488	3465
948.27	3091.01
952.051	2998.23
955.83	3092.68
959.607	3038.37
963.383	2997.32
967.156	3009.52
970.928	4067
974.699	6843.77
978.468	10337.8
982.234	10015.2
986	6201.96
989.763	3637.01
993.525	2386.19
997.285	1577.77
1001.04	1080.94
1004.8	855.238
1008.55	763.516
1012.31	746.615
1016.06	920.145
1019.81	1163.41
1023.56	1564.03
1027.31	2169.49
1031.05	3568.24
1034.79	5596.59
1038.53	7947.32
1042.27	8406.04
1046.01	6803.18
1049.75	5193.17
1053.48	4775.39
1057.22	6083.59
1060.95	7615.97
1064.68	6627.61
1068.4	5433.68
1072.13	5987.15
1075.86	8304.07
1079.58	13311.2
1083.3	23647.8
1087.02	26728.8
1090.74	14057.3
1094.45	5796.72
1098.17	2692.43
1101.88	1545.78
1105.59	915.068
1109.3	705.641
1113.01	490.863
1116.71	423.524
1120.42	435.901
1124.12	722.525
1127.82	243.117
1131.52	175.71
1135.22	130.248
1138.91	7.102
1142.61	32.538
1146.3	104.365
1149.99	96.614
1153.68	114.723
1157.37	104.789
1161.06	95.312
1164.74	128.814
1168.42	117.356
1172.1	111.818
1175.78	80.398
1179.46	86.692
1183.14	51.246
1186.81	43.166
1190.48	26.876
1194.15	13.614
1197.83	15.237
1201.49	60.307
1205.16	84.635
1208.82	63.272
1212.49	99.526
1216.15	75.575
1219.81	96.409
1223.46	133.015
1227.12	81.381
1230.78	126.502
1234.43	116.363
1238.08	146.974
1241.73	159.369
1245.38	117.874
1249.03	129.061
1252.67	169.579
1256.31	174.454
1259.95	171.801
1263.6	150.109
1267.23	206.375
1270.87	145.411
1274.51	149.488
1278.14	186.6
1281.77	190.821
1285.4	196.848
1289.03	133
1292.66	128.699
1296.28	142.715
1299.91	123.405
1303.53	116.33
1307.15	103.932
1310.77	62.406
1314.38	45.064
1318	38.865
1321.61	105.114
1325.23	37.899
1328.84	14.078
1332.45	8.018
1336.06	31.102
1339.66	33.986
1343.27	46.85
1346.87	98.38
1350.47	137.555
1354.07	156.395
1357.67	208.981
1361.26	195.745
1364.86	221.155
1368.45	251.126
1372.04	229.847
1375.63	164.258
1379.22	179.263
1382.81	143.028
1386.39	111.891
1389.98	143.76
1393.56	104.279
1397.14	184.036
1400.72	104.569
1404.3	64.88
1407.87	102.326
1411.45	108.286
1415.02	57.462
1418.59	73.098
1422.16	76.399
1425.73	35.265
1429.29	12.366
1432.86	6.562
1436.42	24.768
1439.98	29.232
1443.54	138.811
1447.1	67.013
1450.66	83.736
1454.21	49.88
1457.77	42.902
1461.32	59.536
1464.87	10.819
1468.42	55.064
1471.96	17.324
1475.51	23.108
1479.06	23.547
1482.6	48.944
1486.14	72.165
1489.68	10.706
1493.22	62.835
1496.75	4.548
1500.29	66.657
1503.82	34.791
1507.35	1.13
1510.88	14.473
1514.41	7.689
1517.94	16.433
1521.46	17.35
