Measurement: Raman, 514 nm, ccw, Raman Data Processed
Mineral: Epidote
Rruff sample: R050191
Ideal chemistry: Ca_2_Fe^3+^Al_2_(Si_2_O_7_)(SiO_4_)O(OH)
Locality: Pampa Blanca, Castrovirreyna Province, Huancavelica Department, Peru
Source: Dave Bunk Minerals
Description: Cluster of green elongated prismatic crystals
Measured chemistry: Ca_2.00_Al_2.00_(Fe^3+^_0.84_Al_0.16_)(SiO_4_)(Si_2_O_7_)O(OH)
Pin_id: L00883
Orientation: Laser parallel to (1 0 1). Fiducial mark perpendicular to laser is parallel to b [0 1 0]
Raman shift (cm-1)	intensity
53.91	0
58.864	138.47
63.817	17.552
68.767	10.5092
73.714	94.7656
78.659	619.966
83.602	2314.93
88.542	4678.5
93.48	5223.95
98.416	4083.56
103.349	3265.93
108.28	3386.67
113.208	2621.96
118.134	2779.44
123.058	2761.26
127.979	2708.63
132.898	2810.69
137.814	2525.83
142.728	2239.87
147.639	2365.9
152.549	2320.94
157.455	1994.56
162.359	1795.91
167.261	1775.07
172.161	1581.09
177.058	1345.01
181.952	1254.84
186.845	1779.58
191.734	2641.25
196.622	3757.02
201.507	4737.08
206.389	4597.81
211.269	3344.06
216.147	2737.5
221.022	2948.22
225.895	3062.2
230.765	3492.18
235.633	4442.56
240.498	5076.84
245.361	5566.18
250.222	3781.56
255.08	2665.84
259.936	3737.93
264.789	6946.73
269.64	10882.2
274.488	13806.2
279.334	12906.7
284.178	6368.72
289.019	5981.25
293.857	7007.2
298.693	7804.51
303.527	6464.19
308.358	3567.25
313.187	1912.69
318.013	1261.52
322.837	848.76
327.659	393.4
332.478	45.4477
337.294	224.167
342.108	41.9507
346.92	151.803
351.729	157.185
356.535	127.433
361.34	198.606
366.141	85.5586
370.94	210.943
375.737	335.127
380.531	289.053
385.323	26.9443
390.113	225.374
394.9	656.38
399.684	872.944
404.466	1730.05
409.245	3898.68
414.022	9275.83
418.797	16978.5
423.569	23651.6
428.338	24790.2
433.105	19491.4
437.87	22079.6
442.632	32737.8
447.391	48433.2
452.149	58395
456.903	54443.2
461.655	37036.8
466.405	18625.7
471.152	9667.69
475.897	5743.46
480.639	4198.87
485.378	3938.46
490.116	4343.35
494.85	5129.18
499.582	5444.19
504.312	4612.45
509.039	3477.98
513.764	2748.14
518.486	1932.23
523.206	1644.22
527.923	936.248
532.638	125.686
537.35	88.1533
542.059	534.611
546.766	1635.02
551.471	4320.34
556.173	11815.5
560.873	19134.6
565.57	23039.4
570.264	12270.6
574.957	6075.83
579.646	6410.96
584.333	8937.7
589.018	12393.7
593.7	15738
598.379	17611.4
603.056	14877.2
607.73	10905.2
612.402	8400.11
617.072	6158.89
621.739	3620.34
626.403	2166.88
631.065	1225.44
635.724	820.819
640.381	561.605
645.035	304.682
649.687	321.777
654.336	243.436
658.983	364.896
663.627	382.137
668.268	501.017
672.907	678.385
677.544	1261.23
682.178	2044.53
686.809	2664.26
691.438	2383.38
696.065	1319.88
700.688	667.734
705.31	337.919
709.929	1.40967
714.545	92.3618
719.158	63.9507
723.77	103.015
728.378	178.68
732.984	150.535
737.588	134.188
742.189	140.607
746.787	74.6953
751.383	10.9238
755.976	126.095
760.567	404.407
765.155	592.984
769.741	516.842
774.324	296.416
778.904	61.5386
783.482	23.9487
788.058	45.6045
792.631	47.395
797.201	77.876
801.769	88.4995
806.334	211.514
810.897	249.958
815.457	485.86
820.014	708.249
824.569	990.152
829.122	1437.6
833.671	1410.62
838.219	1495.24
842.763	1601.5
847.306	1963.96
851.845	2565.98
856.382	3576.85
860.917	5149.34
865.448	6680.69
869.978	7513.79
874.505	7772.48
879.029	7864.87
883.55	7519
888.069	6507.96
892.586	5395.66
897.1	5505.32
901.611	6886.33
906.12	9491.09
910.626	12556.5
915.129	12960.5
919.63	10249.8
924.129	6213.51
928.625	3459.28
933.118	2138.35
937.609	1476.38
942.097	1149.71
946.582	1146.09
951.065	1267.48
955.546	1464.75
960.023	1701.88
964.499	2154.96
968.971	3605.99
973.441	6575.98
977.909	9627.9
982.374	8989.82
986.836	5058.08
991.295	2547.92
995.753	1131.42
1000.21	840.88
1004.66	526.317
1009.11	522.766
1013.55	603.449
1018	1096.71
1022.44	1347.72
1026.88	1961.64
1031.32	3460.63
1035.75	5578.88
1040.18	6932.94
1044.61	6167.82
1049.04	4610.97
1053.46	4125.1
1057.88	4891.06
1062.3	5397.97
1066.71	4927.96
1071.13	5498.53
1075.54	8428.92
1079.94	14514.8
1084.35	20153.9
1088.75	17162.9
1093.15	7395.24
1097.55	2650.8
1101.94	1512.74
1106.34	879.522
1110.73	645.565
1115.11	718.729
1119.5	1055.65
1123.88	1046.03
1128.26	594.373
1132.63	277.791
1137.01	154.71
1141.38	41.251
1145.75	19.2661
1150.12	56.8091
1154.48	91.3897
1158.84	138.828
1163.2	52.6621
1167.55	62.4273
1171.91	52.6084
1176.26	25.6792
1180.61	104.311
1184.95	52.5117
1189.29	6.09521
1193.63	45.8457
1197.97	40.7114
1202.31	28.9429
1206.64	27.252
1210.97	6.57812
1215.29	105.281
1219.62	63.7046
1223.94	105.63
1228.26	72.0078
1232.57	53.8291
1236.89	148.102
1241.2	182.931
1245.51	237.225
1249.81	195.97
1254.12	101.159
1258.42	125.756
1262.72	202.808
1267.01	198.3
1271.3	262.353
1275.59	243.168
1279.88	184.884
1284.17	159.456
1288.45	94.5044
1292.73	225.83
1297.01	179.593
1301.28	249.079
1305.55	177.005
1309.82	174.054
1314.09	159.772
1318.35	187.49
1322.61	227.502
1326.87	118.426
1331.13	138.644
1335.38	113.843
1339.63	173.91
1343.88	175.234
1348.12	262.671
1352.37	260.106
1356.61	262.234
1360.85	295.692
1365.08	206.55
1369.31	264.75
1373.54	181.571
1377.77	204.808
1381.99	196.882
1386.22	209.056
1390.43	268.52
1394.65	131.669
1398.87	136.966
1403.08	160.487
1407.29	102.167
1411.49	151.459
1415.69	121.111
1419.89	92.9131
1424.09	23.9663
1428.29	203.045
1432.48	106.958
1436.67	107.761
1440.86	150.136
1445.04	111.64
1449.23	133.509
1453.4	160.628
1457.58	80.8462
1461.76	128.725
1465.93	132.578
1470.1	109.44
1474.26	145.14
1478.43	121.85
1482.59	78.5688
1486.75	89.1113
1490.9	108.909
1495.06	74.8638
1499.21	20.9971
1503.35	94.0391
1507.5	17.5234
1511.64	99.9761
1515.78	35.4473
1519.92	182.589
1524.05	107.224
1528.18	124.277
1532.31	87.3691
1536.44	105.922
1540.56	62.3828
1544.69	57.5317
1548.8	133.615
1552.92	255.287
1557.03	128.219
1561.14	53.2783
1565.25	15.5952
1569.36	87.5371
