Measurement: Raman, 514 nm, ccw, Raman Data Processed
Mineral: Epidote
Rruff sample: R050131
Ideal chemistry: Ca_2_Fe^3+^Al_2_(Si_2_O_7_)(SiO_4_)O(OH)
Locality: Calumet mine, Chaffee County, Colorado, USA
Source: Dave Bunk Minerals
Description: Green prismatic crystal
Measured chemistry: Ca_2.00_Al_2.00_(Fe^3+^_0.75_Al_0.25_)(SiO_4_)(Si_2_O_7_)O(OH)
Pin_id: L00405
Orientation: Laser parallel to b* (0 1 0). Fiducial mark perpendicular to laser is parallel to c [0 0 1]
Raman shift (cm-1)	intensity
121.31	0
125.482	24.328
129.653	473.289
133.821	1958.41
137.987	2049.14
142.152	1232.11
146.314	2684.23
150.474	3421.28
154.633	1867.18
158.789	3223.43
162.943	8262.93
167.095	12465.3
171.246	8598.91
175.394	4882.86
179.54	2841.53
183.684	1510.63
187.826	842.345
191.967	571.365
196.105	358.45
200.241	407.566
204.375	545.957
208.507	291.424
212.638	156.55
216.766	230.933
220.892	105.855
225.016	361.544
229.139	728.132
233.259	1789.6
237.377	4332.94
241.493	8490.18
245.608	13467.3
249.72	12954.9
253.83	7766.12
257.939	3927.01
262.045	2166.99
266.15	1830.22
270.252	2013.49
274.353	2327.11
278.451	2185.05
282.548	2078.34
286.642	2729.84
290.735	3976.97
294.826	6355.19
298.914	7079.24
303.001	4267.47
307.086	2356.58
311.168	1138.37
315.249	850.358
319.328	1032.72
323.405	1264.65
327.48	1907.25
331.553	2950.19
335.624	4268.78
339.693	5755
343.76	9401.44
347.826	17988.1
351.889	22374.9
355.95	13961.8
360.01	6858.76
364.067	3563.55
368.123	1796.58
372.176	621.407
376.228	109.456
380.277	106.515
384.325	169.783
388.371	214.039
392.415	114.231
396.457	60.383
400.497	81.988
404.535	43.698
408.571	24.682
412.605	370.084
416.638	1031.38
420.668	2176.07
424.697	4551.96
428.723	6909.4
432.748	8026.31
436.77	9413.49
440.791	10920.9
444.81	14328.5
448.827	24456.1
452.842	28133.8
456.855	22221.4
460.867	18959
464.876	15566.6
468.883	10794
472.889	6681.42
476.892	5108.77
480.894	4735.17
484.894	4837.36
488.892	4802.22
492.888	5003.88
496.882	6110.39
500.874	7628.58
504.865	8716.22
508.853	8693.44
512.84	8050.68
516.824	5358.07
520.807	3634.26
524.788	3446.44
528.767	2752.59
532.744	1593.71
536.719	864.474
540.693	507.386
544.664	310.627
548.634	423.164
552.601	905.029
556.567	1791.71
560.531	3469.94
564.493	8621.88
568.453	15007.7
572.412	7871.97
576.368	3110.84
580.323	2139.45
584.275	2424.76
588.226	3452.19
592.175	4243.16
596.122	5812.83
600.068	8082.77
604.011	8120.53
607.952	6317.85
611.892	4310.01
615.83	3059.98
619.766	2017.78
623.7	1287.4
627.632	784.823
631.563	508.409
635.491	236.692
639.418	144.372
643.343	137.943
647.266	150.334
651.187	157.815
655.106	43.021
659.024	174.675
662.939	326.1
666.853	300.3
670.765	283.277
674.675	257.022
678.583	501.536
682.49	829.818
686.394	1288.87
690.297	1394.67
694.198	1054.24
698.097	728.701
701.995	688.432
705.89	504.469
709.784	226.628
713.675	9.685
717.565	25.577
721.453	55.34
725.34	66.973
729.224	166.62
733.107	186.502
736.988	191.695
740.867	123.119
744.744	4.659
748.62	55.035
752.493	33.222
756.365	188.006
760.235	497.498
764.103	1025.72
767.969	1466.67
771.834	1536.36
775.697	1051.79
779.558	626.958
783.417	297.868
787.274	183.521
791.13	76.9
794.983	55.439
798.835	38.433
802.686	68.372
806.534	197.182
810.38	267.382
814.225	267.716
818.068	226.059
821.909	351.372
825.749	342.461
829.586	447.163
833.422	517.851
837.256	516.341
841.088	594.655
844.919	901.778
848.748	1182.72
852.575	1564.48
856.4	1886.08
860.223	2240.55
864.045	3099.14
867.864	4428.25
871.682	6164.98
875.499	8500.94
879.313	9508.94
883.126	7893.36
886.937	5987.05
890.746	4809.83
894.553	3786.43
898.359	2933.95
902.163	2526.61
905.965	2717.82
909.765	3333.88
913.564	4137.28
917.361	3983.73
921.156	2978.19
924.949	1866.69
928.74	1192.22
932.53	865.792
936.318	734.419
940.104	604.618
943.889	438.696
947.672	304.611
951.453	248.538
955.232	334.701
959.01	345.026
962.785	394.957
966.559	444.304
970.332	635.77
974.102	938.355
977.871	1792.05
981.638	3027.84
985.404	3006.76
989.167	1800.17
992.929	911.322
996.689	475.618
1000.45	138.261
1004.2	94.482
1007.96	110.383
1011.71	69.502
1015.46	116.637
1019.21	28.358
1022.96	191.982
1026.71	224.886
1030.45	324.438
1034.19	566.853
1037.94	901.963
1041.68	1227
1045.41	1267.01
1049.15	1083.46
1052.88	949.834
1056.62	857.435
1060.35	906.187
1064.08	877.968
1067.8	744.944
1071.53	770.678
1075.25	957.832
1078.97	1586.06
1082.7	2520.72
1086.41	3744.76
1090.13	4267.4
1093.85	2798.97
1097.56	1281.61
1101.27	647.557
1104.98	441.923
1108.69	394.905
1112.4	411.91
1116.1	299.882
1119.81	246.297
1123.51	305.356
1127.21	131.708
1130.91	0.489
1134.61	19.676
1138.3	8.532
1141.99	52.962
1145.68	120.184
1149.38	37.504
1153.06	4.846
1156.75	118.279
1160.43	28.962
1164.12	21.986
1167.8	11.375
1171.48	30.405
1175.16	33.995
1178.83	60.471
1182.51	24.988
1186.18	24.163
1189.85	11.375
1193.52	34.744
1197.19	142.059
1200.86	109.979
1204.52	77.899
1208.19	2.662
1211.85	28.537
1215.51	11.848
1219.17	7.989
1222.82	37.118
1226.48	143.275
1230.13	152.34
1233.78	93.917
1237.43	19.829
1241.08	14.199
1244.73	5.413
1248.37	6.354
1252.01	74.235
1255.66	146.905
1259.3	74.297
1262.93	22.519
1266.57	55.47
1270.21	55.268
1273.84	52.802
1277.47	15.649
1281.1	31.298
1284.73	39.708
1288.36	84.386
1291.98	128.675
1295.6	97.566
1299.23	106.911
1302.85	120.552
1306.46	6.26
1310.08	8.618
1313.7	16.418
1317.31	11.067
1320.92	63.612
1324.53	94.799
1328.14	123.526
1331.75	102.585
1335.35	85.273
1338.96	118.274
1342.56	173.396
1346.16	89.468
1349.76	104.355
1353.36	87.831
1356.95	143.653
1360.55	179.934
1364.14	171.896
1367.73	192.673
1371.32	169.245
1374.91	99.17
1378.49	5.125
1382.08	92.883
1385.66	149.235
1389.24	165.591
1392.82	226.979
1396.4	218.361
1399.97	175.807
1403.55	141.047
1407.12	91.5
1410.69	104.434
1414.26	68.791
1417.83	23.336
1421.4	79.309
1424.96	113.672
1428.53	64.533
1432.09	143.356
1435.65	149.286
1439.21	105.376
1442.76	80.924
1446.32	83.468
1449.87	25.73
1453.43	109.635
1456.98	48.711
1460.53	6.503
1464.07	5.502
1467.62	126.323
1471.16	172.022
1474.71	140.716
1478.25	168.062
1481.79	98.655
1485.32	79.348
1488.86	83.136
1492.39	105.223
1495.93	12.546
1499.46	5.976
1502.99	7.17
1506.52	102.905
1510.05	118.82
1513.57	97.658
1517.09	91.837
