Measurement: Raman, 514 nm, ccw, Raman Data Processed
Mineral: Epidote
Rruff sample: R040089
Ideal chemistry: Ca_2_Fe^3+^Al_2_(Si_2_O_7_)(SiO_4_)O(OH)
Locality: Grafton County, New Hampshire, USA
Source: University of Arizona Mineral Museum
Description: Dark green coarsely crystalline massive
Measured chemistry: Ca_2.00_(Al_2.36_Fe^3+^_0.64_)[Si_2.00_O_7_][Si_1.00_O_4_]O(OH)
Pin_id: M00420
Orientation: Laser parallel to [1 0 1]. Fiducial mark perpendicular to laser is parallel to b* (0 1 0)
Raman shift (cm-1)	intensity
186.563	0
190.684	47.593
194.803	119.188
198.921	205.311
203.037	130.357
207.15	436.379
211.262	739.638
215.373	475.591
219.481	15.23
223.588	91.604
227.692	54.842
231.795	346.613
235.896	990.267
239.995	1274.73
244.093	1880.77
248.188	2789.13
252.282	3748.37
256.374	3338.47
260.464	1989.41
264.552	1297.19
268.638	1470.77
272.723	2496.71
276.806	4719.8
280.887	5433.12
284.966	3208.12
289.043	2044.13
293.118	1585.38
297.192	1486.08
301.264	1635.57
305.334	2198.87
309.402	2335.62
313.469	1723.88
317.533	1517.64
321.596	1743.93
325.657	1321.74
329.716	941.038
333.774	1124.82
337.829	2047.06
341.883	1804.75
345.935	1302.88
349.985	1562.15
354.034	2275.74
358.08	1782.34
362.125	979.909
366.168	869.849
370.209	978.821
374.249	849.587
378.286	379.917
382.322	443.46
386.356	507.57
390.388	66.188
394.419	482.178
398.447	709.552
402.474	318.29
406.499	124.62
410.523	221.308
414.544	52.226
418.564	872.213
422.582	2572.65
426.598	6116.62
430.613	9761.19
434.625	8416.34
438.636	6421.93
442.646	6307.94
446.653	8734.32
450.658	13001.1
454.662	18118.1
458.664	19665.5
462.665	19152.8
466.663	17790.4
470.66	15598.2
474.655	11866.2
478.648	8414.34
482.64	6062.65
486.629	4801.07
490.617	3710.02
494.603	2898.87
498.588	2281.58
502.571	2133.13
506.552	2371.67
510.531	2793.21
514.508	2741.78
518.484	1891.39
522.458	902.033
526.43	392.72
530.4	120.41
534.369	191.914
538.336	79.757
542.301	28.75
546.265	32.006
550.226	186.213
554.186	639.348
558.145	1289.61
562.101	2271.9
566.056	4593.77
570.009	10891
573.96	11172.6
577.91	4441.76
581.858	2198.14
585.804	1784.11
589.748	2236.76
593.691	3219.07
597.632	4240.88
601.571	6068.69
605.508	8300.64
609.444	8100.11
613.378	5869.26
617.311	4568.14
621.241	3042.02
625.17	1955.58
629.097	1394.41
633.023	1077.27
636.946	668.13
640.868	428.787
644.789	261.561
648.707	334.797
652.624	451.476
656.539	456.359
660.453	585.806
664.364	750.813
668.274	842.379
672.183	814.498
676.089	762.166
679.994	710.378
683.898	952.132
687.799	1396.42
691.699	1588.83
695.597	1405.77
699.493	1080.52
703.388	862.084
707.281	675.099
711.172	548.664
715.062	229.778
718.95	105.417
722.836	60.554
726.721	19.723
730.604	25.325
734.485	24.471
738.364	61.22
742.242	151.061
746.118	41.219
749.993	13.434
753.866	24.432
757.737	52.551
761.606	107.407
765.474	64.115
769.34	14.604
773.204	31.136
777.067	45.853
780.928	72.514
784.787	1.888
788.645	67.215
792.501	40.805
796.355	194.866
800.208	136.191
804.059	98.274
807.908	260.878
811.756	424.313
815.602	512.591
819.446	607.565
823.289	684.244
827.13	860.641
830.969	937.763
834.807	1150.62
838.643	1253.23
842.477	1338.59
846.31	1453.77
850.141	1748.03
853.971	2023.34
857.798	2451.55
861.624	3126.61
865.449	4189.49
869.272	5581.67
873.093	6832.32
876.912	7080.9
880.73	7513.98
884.546	8122.91
888.361	9049.6
892.174	10448.5
895.985	11228.4
899.795	9613.03
903.603	7356.68
907.409	6045.02
911.214	6050.59
915.017	6682.94
918.818	6803.77
922.618	5985.14
926.416	5055.45
930.213	3996.67
934.008	3408.24
937.801	2736.42
941.593	2394.6
945.383	2323.53
949.171	1998.22
952.958	1804.69
956.743	1921.57
960.526	2020.28
964.308	2299.23
968.089	2284.39
971.867	2113.81
975.644	2415.52
979.42	3271.52
983.193	5037.76
986.966	5901.55
990.736	4931.05
994.505	2888.11
998.272	1813.5
1002.04	1256.23
1005.8	868.854
1009.57	536.514
1013.33	555.366
1017.09	713.359
1020.84	1021.39
1024.6	1454.35
1028.35	1743.46
1032.11	1642.32
1035.86	1548.34
1039.61	1836.12
1043.36	2230.81
1047.1	2540
1050.85	2548.53
1054.59	2267.48
1058.33	1955.37
1062.07	1826.83
1065.81	1612.72
1069.55	1501.78
1073.28	1643.09
1077.02	2226.73
1080.75	3224.63
1084.48	5132.14
1088.21	7869.94
1091.93	10928.1
1095.66	11227.6
1099.38	6576.53
1103.11	3087.29
1106.83	1615.36
1110.55	1035.12
1114.26	698.984
1117.98	514.785
1121.69	349.303
1125.41	317.967
1129.12	311.467
1132.83	274.031
1136.54	322.316
1140.24	218.294
1143.95	109.844
1147.65	44.737
1151.36	49.866
1155.06	67.728
1158.76	141.184
1162.45	65.993
1166.15	37.162
1169.84	34.331
1173.53	28.442
1177.22	4.349
1180.91	35.131
1184.6	43.812
1188.29	161.363
1191.97	86.893
1195.66	99.893
1199.34	40.68
1203.02	58.008
1206.7	77.525
1210.37	36.875
1214.05	9.941
1217.72	90.606
1221.4	159.025
1225.07	34.209
1228.74	187.069
1232.4	84.169
1236.07	46.656
1239.73	32.681
1243.4	44.08
1247.06	101.108
1250.72	152.209
1254.38	134.038
1258.03	97.596
1261.69	114.756
1265.34	1.275
1268.99	42.393
1272.65	10.385
1276.3	134.667
1279.94	143.278
1283.59	145.499
1287.23	315.35
1290.88	261.654
1294.52	11.131
1298.16	74.687
1301.8	28.253
1305.43	52.048
1309.07	57.324
1312.7	157.505
1316.33	219.902
1319.96	230.855
1323.59	226.825
1327.22	266.227
1330.85	104.125
1334.47	20.357
1338.1	55.454
1341.72	32.401
1345.34	135.518
1348.96	285.252
1352.57	266.954
1356.19	335.144
1359.8	295.201
1363.41	242.929
1367.03	134.394
1370.63	171.419
1374.24	129.038
1377.85	44.598
1381.45	125.64
1385.06	355.152
1388.66	394.594
1392.26	366.207
1395.86	417.619
1399.46	330.592
1403.05	196.602
1406.65	215.374
1410.24	135.302
1413.83	85.359
1417.42	142.304
1421.01	298.659
1424.6	265.909
1428.18	287.627
1431.77	331.902
1435.35	281.702
1438.93	285.406
1442.51	151.665
1446.09	80.665
1449.66	102.977
1453.24	137.632
1456.81	161.531
1460.38	208.195
1463.95	295.656
1467.52	475.298
1471.09	442.521
1474.65	437.617
1478.22	385.899
1481.78	289.299
1485.34	223.473
1488.9	245.2
1492.46	170.272
1496.02	65.524
1499.58	208.578
1503.13	208.477
1506.68	333.726
1510.23	423.42
1513.78	501.698
1517.33	433.105
1520.88	497.71
1524.42	289.478
1527.97	296.665
