Measurement: Raman, 514 nm, ccw, Raman Data Processed
Mineral: Epidote
Rruff sample: R050191
Ideal chemistry: Ca_2_Fe^3+^Al_2_(Si_2_O_7_)(SiO_4_)O(OH)
Locality: Pampa Blanca, Castrovirreyna Province, Huancavelica Department, Peru
Source: Dave Bunk Minerals
Description: Cluster of green elongated prismatic crystals
Measured chemistry: Ca_2.00_Al_2.00_(Fe^3+^_0.84_Al_0.16_)(SiO_4_)(Si_2_O_7_)O(OH)
Pin_id: L01410
Orientation: Laser parallel to c* (0 0 1). Fiducial mark perpendicular to laser is parallel to -a [-1 0 0]
Raman shift (cm-1)	intensity
53.91	0
58.864	348.45
63.817	36.0674
68.767	203.863
73.714	1396.42
78.659	5997.54
83.602	18471.8
88.542	33285.4
93.48	44204
98.416	27878.3
103.349	11378.6
108.28	7979.1
113.208	4037.74
118.134	3407.06
123.058	4686.99
127.979	7779.06
132.898	7188.37
137.814	4610.13
142.728	3026.34
147.639	2566.07
152.549	3105.14
157.455	4931.68
162.359	7437.47
167.261	9648.06
172.161	8303.5
177.058	5381.8
181.952	5624.91
186.845	6184.79
191.734	4169.39
196.622	4631.95
201.507	5549.86
206.389	4691.88
211.269	5388.36
216.147	8337.36
221.022	14067.5
225.895	18666.3
230.765	14077.5
235.633	10011.2
240.498	9857.7
245.361	8888.71
250.222	9588.81
255.08	9023.86
259.936	6808.6
264.789	7798.91
269.64	13945
274.488	15519.7
279.334	8595.87
284.178	4752.45
289.019	3972.39
293.857	4332.44
298.693	4282.53
303.527	4702.64
308.358	6257.71
313.187	6024.72
318.013	3919.62
322.837	3183.4
327.659	1209.02
332.478	395.92
337.294	197.427
342.108	1860.86
346.92	4062.03
351.729	2595.91
356.535	628.822
361.34	67.2783
366.141	328.32
370.94	937.424
375.737	676.859
380.531	891.825
385.323	3832.32
390.113	3281.82
394.9	941.266
399.684	6.50391
404.466	74.5186
409.245	1893.73
414.022	7755.65
418.797	19121.2
423.569	25164.6
428.338	21166.3
433.105	18485.6
437.87	14150.7
442.632	14997.8
447.391	20821.9
452.149	21182.8
456.903	15665.5
461.655	9212.8
466.405	5666.52
471.152	3149.3
475.897	1157.41
480.639	938.824
485.378	1701.87
490.116	3846.92
494.85	7720.88
499.582	11722.7
504.312	12584.1
509.039	11557.8
513.764	11230.1
518.486	14153.5
523.206	10589.8
527.923	4080.38
532.638	1037.46
537.35	316.533
542.059	548.919
546.766	1585.95
551.471	4451.23
556.173	13643.8
560.873	30261.3
565.57	24190.2
570.264	10662.3
574.957	7304.42
579.646	10034.4
584.333	15312.3
589.018	21353.7
593.7	30456.4
598.379	31140.5
603.056	22632.7
607.73	17108.8
612.402	13214.1
617.072	8348.54
621.739	4567.58
626.403	2507.51
631.065	1707.02
635.724	1139.48
640.381	699.688
645.035	568.512
649.687	481.202
654.336	564.901
658.983	661.014
663.627	656.22
668.268	717.045
672.907	936.409
677.544	1227.26
682.178	1244.64
686.809	1115
691.438	700.826
696.065	222.565
700.688	200.167
705.31	8.01416
709.929	68.6367
714.545	205.511
719.158	197.266
723.77	198.163
728.378	146.202
732.984	154.135
737.588	166.032
742.189	89.8115
746.787	98.9067
751.383	71.7822
755.976	92.0254
760.567	248.23
765.155	328.278
769.741	242.298
774.324	229.319
778.904	246.287
783.482	277.244
788.058	247.298
792.631	349.552
797.201	490.091
801.769	687.93
806.334	925.104
810.897	1370.66
815.457	1943.63
820.014	3194.09
824.569	4791.05
829.122	5573.57
833.671	4649.56
838.219	3653.81
842.763	3333.54
847.306	3476.9
851.845	3975.24
856.382	4954.57
860.917	6085.03
865.448	7214.1
869.978	8095.78
874.505	7419.4
879.029	7172.27
883.55	7707.59
888.069	8332.04
892.586	9945.39
897.1	14131.8
901.611	21543
906.12	33470.8
910.626	48793
915.129	53882.5
919.63	39621.2
924.129	22665.7
928.625	12767.3
933.118	7925.43
937.609	5427.37
942.097	3953.19
946.582	3537.93
951.065	4051.6
955.546	4711.23
960.023	4367.84
964.499	3561.47
968.971	4002.16
973.441	6161.07
977.909	8925.53
982.374	7046.17
986.836	3870.28
991.295	2153.19
995.753	1121.02
1000.21	630.722
1004.66	101.263
1009.11	107.146
1013.55	242.917
1018	492.126
1022.44	865.196
1026.88	1472.52
1031.32	2900.35
1035.75	4442.9
1040.18	5476.3
1044.61	4652.56
1049.04	3825.54
1053.46	3974.24
1057.88	5285.38
1062.3	5183.12
1066.71	4297.06
1071.13	5215.95
1075.54	8346.3
1079.94	15269.5
1084.35	23107.3
1088.75	16139.3
1093.15	6506.12
1097.55	2454
1101.94	1301.33
1106.34	831.58
1110.73	738.633
1115.11	885.984
1119.5	1941.84
1123.88	1827.05
1128.26	621.252
1132.63	255.023
1137.01	79.1709
1141.38	94.6187
1145.75	19.4971
1150.12	188.678
1154.48	84.7817
1158.84	120.474
1163.2	193.93
1167.55	101.347
1171.91	77.3857
1176.26	22.3613
1180.61	34.9888
1184.95	55.1318
1189.29	1.12647
1193.63	141.186
1197.97	21.1597
1202.31	69.3457
1206.64	183.344
1210.97	167.351
1215.29	131.894
1219.62	155.369
1223.94	280.143
1228.26	270.482
1232.57	268.1
1236.89	244.14
1241.2	154.364
1245.51	162.845
1249.81	183.555
1254.12	273.628
1258.42	240.139
1262.72	212.474
1267.01	252.235
1271.3	187.22
1275.59	194.788
1279.88	174.773
1284.17	308.491
1288.45	277.063
1292.73	316.43
1297.01	186.239
1301.28	201.589
1305.55	220.222
1309.82	202.204
1314.09	159.725
1318.35	175.294
1322.61	189.797
1326.87	132.292
1331.13	177.307
1335.38	116.298
1339.63	139.986
1343.88	149.318
1348.12	178.819
1352.37	132.807
1356.61	261.964
1360.85	181.971
1365.08	304.151
1369.31	264.264
1373.54	254.269
1377.77	240.833
1381.99	152.737
1386.22	149.562
1390.43	48.2432
1394.65	89.625
1398.87	122.759
1403.08	37.187
1407.29	38.6211
1411.49	28.0127
1415.69	45.7871
1419.89	15.605
1424.09	82.6094
1428.29	44.186
1432.48	107.156
1436.67	171.084
1440.86	108.136
1445.04	163.393
1449.23	269.494
1453.4	206.718
1457.58	214.873
1461.76	175.898
1465.93	195.086
1470.1	174.952
1474.26	231.898
1478.43	93.6011
1482.59	147.139
1486.75	83.9072
1490.9	166.765
1495.06	93.7617
1499.21	224.103
1503.35	123.359
1507.5	175.371
1511.64	172.928
1515.78	95.6499
1519.92	185.32
1524.05	89.4985
1528.18	119.119
1532.31	153.133
1536.44	42.7207
1540.56	46.2632
1544.69	126.601
1548.8	102.651
1552.92	251.199
1557.03	114.882
1561.14	113.921
1565.25	9.61377
1569.36	82.5659
