Measurement: Raman, 514 nm, ccw, Raman Data Processed
Mineral: Epididymite
Rruff sample: R070580
Ideal chemistry: Na_2_Be_2_Si_6_O_15_H_2_O
Locality: Narsarsuk, Narsaq, Kitaa, Greenland
Source: James Shigley
Description: A translucent to white elongated prism.
Measured chemistry: (Na_1.97_K_0.03_)_Σ=2_Be_2_Si_6.00_O_15_·H_2_O; trace amounts of Al; Be and H_2_O assumed by stoichiometry
Pin_id: M01755
Orientation: Laser parallel to -a* (-1 0 0). Fiducial mark perpendicular to laser is parallel to b [0 1 0]
Raman shift (cm-1)	intensity
111.206	0
116.155	1456.85
121.101	1689.7
126.045	2694.14
130.985	7919.73
135.923	6995.05
140.858	4140.75
145.79	5198.52
150.719	1825.39
155.646	402.168
160.569	137.294
165.49	33.8486
170.408	33.6416
175.324	14.3262
180.237	100.734
185.146	96.7715
190.053	844.178
194.958	2215.21
199.859	2283.09
204.758	1378.73
209.654	604.626
214.547	546.84
219.438	511.904
224.326	903.481
229.211	1602.95
234.093	2870.85
238.972	4772.1
243.849	4731.9
248.723	2315.07
253.594	1144.87
258.462	854.114
263.328	650.465
268.191	258.59
273.051	40.9717
277.908	113.269
282.763	171.116
287.615	196.099
292.464	13.4883
297.31	77.4443
302.154	36.3301
306.995	97.7676
311.833	153.71
316.668	32.1172
321.501	56.0772
326.331	141.077
331.158	308.457
335.983	289.824
340.804	405.368
345.623	618.275
350.44	242.303
355.253	151.267
360.064	138.502
364.872	311.006
369.677	300.266
374.48	891.387
379.28	1934.38
384.077	2350.2
388.872	1697.87
393.663	1742.43
398.452	2530.95
403.239	5854.41
408.022	12427.7
412.803	5198.7
417.581	1075.5
422.357	679.008
427.129	786.939
431.899	1353.13
436.667	1384.72
441.431	496.255
446.193	83.7188
450.952	80.0156
455.709	240.837
460.463	464.114
465.214	428.194
469.962	1324.65
474.708	3021.18
479.451	3709.86
484.191	5105.57
488.929	4257.29
493.663	1360.97
498.396	1143
503.125	1586.91
507.852	3561.46
512.576	10890.1
517.298	26355
522.016	30336.7
526.732	10302.5
531.446	3460.61
536.156	1590.9
540.865	967.601
545.57	415.9
550.273	367.091
554.973	104.342
559.67	146.129
564.364	122.413
569.056	163.862
573.746	408.932
578.432	1060.34
583.116	2800.32
587.798	2374.29
592.476	890.231
597.152	400.907
601.825	151.033
606.496	107.616
611.164	111.03
615.829	128.501
620.492	293.894
625.152	377.284
629.809	982.488
634.464	1205.1
639.116	877.064
643.765	527.459
648.412	224.867
653.056	196.139
657.697	103.127
662.336	15.8438
666.972	93.4531
671.605	6.90625
676.236	252.893
680.864	285.75
685.49	78.6348
690.113	166.453
694.733	111.047
699.351	16.0898
703.965	82.4902
708.578	46.4121
713.187	65.0508
717.794	53.707
722.399	87.1816
727.001	101.562
731.6	11.5469
736.196	103.32
740.79	179.664
745.381	85.4941
749.97	110.92
754.556	98.4668
759.139	300.254
763.72	198.461
768.298	121.203
772.874	223.994
777.447	26.8027
782.017	92.2168
786.585	51.6113
791.15	79.6465
795.712	31.7266
800.272	191.752
804.829	97.293
809.384	343.887
813.936	861.346
818.485	1094.84
823.032	614.031
827.576	419.51
832.118	386.051
836.657	126.258
841.193	331.451
845.727	310.943
850.258	74.0059
854.787	305.053
859.313	355.283
863.836	151.984
868.357	271.17
872.875	365.6
877.391	403.445
881.904	432.914
886.414	30.7773
890.922	242.19
895.427	210.666
899.93	93.7441
904.43	220.652
908.927	119.066
913.422	185.721
917.914	186.576
922.404	49.9941
926.891	112.041
931.376	148.934
935.858	46.2559
940.337	155.4
944.814	119.182
949.289	116.045
953.76	101.555
958.229	102.666
962.696	12.4375
967.16	183.551
971.621	23.3848
976.08	130.926
980.537	183.287
984.99	116.404
989.442	147.785
993.89	217.215
998.336	243.773
1002.78	150.461
1007.22	233.221
1011.66	153.137
1016.1	205.19
1020.53	216.935
1024.96	265.172
1029.39	542.508
1033.81	439.084
1038.24	686.443
1042.66	1152.77
1047.07	1536.85
1051.49	1483.23
1055.9	1354.39
1060.31	1284.01
1064.72	1104.04
1069.13	1198.92
1073.53	871.621
1077.93	571.26
1082.33	569.832
1086.72	888.773
1091.12	434.768
1095.51	374.924
1099.89	440.783
1104.28	477.096
1108.66	691.904
1113.04	666.891
1117.42	1225.39
1121.79	1692.92
1126.16	2431.63
1130.53	3655.52
1134.9	5426.96
1139.27	5907.97
1143.63	4284.48
1147.99	2553.28
1152.35	1328.06
1156.7	756.574
1161.05	558.951
1165.4	518.43
1169.75	300.459
1174.09	249.766
1178.44	57.2695
1182.78	120.053
1187.11	155.049
1191.45	106.219
1195.78	72.8438
1200.11	72.1289
1204.44	215.916
1208.76	113.906
1213.08	9.07812
1217.4	132.465
1221.72	99.8047
1226.03	18.084
1230.35	226.75
1234.66	132.775
1238.96	198.004
1243.27	265.346
1247.57	82.7598
1251.87	156.353
1256.17	173.109
1260.46	8.0957
1264.75	5.83398
1269.04	142.295
1273.33	177.697
1277.62	35.2402
1281.9	254.248
1286.18	64.3086
1290.45	310.492
1294.73	309.781
1299	475.531
1303.27	237.652
1307.54	321.625
1311.8	289.057
1316.07	325.615
1320.33	308.957
1324.58	340.766
1328.84	202.684
1333.09	123.74
1337.34	247.928
1341.59	236.838
1345.83	340.098
1350.08	236.85
1354.32	219.025
1358.55	197.783
1362.79	154.664
1367.02	111.318
1371.25	83.7441
1375.48	219.309
1379.71	138.984
1383.93	312.768
1388.15	153.654
1392.37	73.2637
1396.58	84.9141
1400.8	108.035
1405.01	57.291
1409.21	68.7031
1413.42	139.375
1417.62	22.9414
1421.83	142.156
1426.02	321.273
1430.22	191.322
1434.41	242.797
1438.61	417.875
1442.79	310.857
1446.98	260.984
1451.16	355.246
1455.35	254.785
1459.52	47.6914
1463.7	400.916
1467.87	251.441
1472.05	403.406
1476.21	329.541
1480.38	434.16
1484.55	78.6856
1488.71	69.0332
1492.87	314.609
1497.03	71.6992
1501.18	183.984
1505.33	176.315
1509.48	378.728
1513.63	203.137
1517.77	74.4082
1521.92	332.523
1526.06	415.834
1530.19	294.988
1534.33	464.914
1538.46	230.391
1542.59	134.529
1546.72	229.103
1550.85	437.428
1554.97	409.277
1559.09	319.693
