Measurement: Raman, 514 nm, ccw, Raman Data Processed
Mineral: Epididymite
Rruff sample: R070580
Ideal chemistry: Na_2_Be_2_Si_6_O_15_H_2_O
Locality: Narsarsuk, Narsaq, Kitaa, Greenland
Source: James Shigley
Description: A translucent to white elongated prism.
Measured chemistry: (Na_1.97_K_0.03_)_Σ=2_Be_2_Si_6.00_O_15_·H_2_O; trace amounts of Al; Be and H_2_O assumed by stoichiometry
Pin_id: M01011
Orientation: Laser parallel to c* (0 0 1). Fiducial mark perpendicular to laser is parallel to a [1 0 0]
Raman shift (cm-1)	intensity
111.206	0
116.155	815.938
121.101	1822.83
126.045	2487.81
130.985	3984.85
135.923	3165.06
140.858	566.341
145.79	1.30176
150.719	154.462
155.646	72.937
160.569	87.5029
165.49	466.438
170.408	561.239
175.324	108.325
180.237	29.9297
185.146	214.736
190.053	713.486
194.958	1127.03
199.859	1480.65
204.758	987.824
209.654	472.791
214.547	344.654
219.438	401.973
224.326	687.768
229.211	1220.05
234.093	1880.82
238.972	2709.56
243.849	2822.24
248.723	1735.88
253.594	1245.49
258.462	1033.1
263.328	927.193
268.191	534.516
273.051	273.101
277.908	83.23
282.763	19.4282
287.615	71.8633
292.464	7.3208
297.31	14.7144
302.154	16.0918
306.995	50.7329
311.833	226.699
316.668	171.311
321.501	554.73
326.331	868.795
331.158	1232.91
335.983	1645.96
340.804	1808.25
345.623	2163.49
350.44	1301.88
355.253	572.227
360.064	605.106
364.872	565.913
369.677	852.736
374.48	1839.56
379.28	3046.39
384.077	2995.26
388.872	1909.17
393.663	929.107
398.452	1417.05
403.239	3565.97
408.022	6407.89
412.803	3434.79
417.581	528.866
422.357	236.102
427.129	37.1201
431.899	230.341
436.667	432.4
441.431	0.99707
446.193	55.8926
450.952	74.6777
455.709	124.87
460.463	233.668
465.214	614.398
469.962	1188.33
474.708	2382.49
479.451	2127.17
484.191	2065.86
488.929	1691.31
493.663	754.689
498.396	559.036
503.125	1065.35
507.852	2453.68
512.576	7597.07
517.298	15909.4
522.016	18231.9
526.732	6981.83
531.446	2199.97
536.156	1012.62
540.865	471.847
545.57	410.721
550.273	154.001
554.973	168.924
559.67	233.416
564.364	216.826
569.056	193.949
573.746	521.624
578.432	1329.7
583.116	2296.17
587.798	1844.88
592.476	729.468
597.152	258.602
601.825	99.9922
606.496	130.495
611.164	83.5527
615.829	76.6289
620.492	56.2363
625.152	331.57
629.809	421.317
634.464	659.987
639.116	367.866
643.765	203.19
648.412	8.44531
653.056	58.7783
657.697	35.0566
662.336	85.3838
666.972	33.9092
671.605	37.3916
676.236	103.738
680.864	275.639
685.49	131.378
690.113	27.9404
694.733	102.141
699.351	32.9199
703.965	141.311
708.578	77.8291
713.187	34.165
717.794	44.8008
722.399	173.819
727.001	33.4062
731.6	131.776
736.196	60.8711
740.79	125.58
745.381	91.0449
749.97	158.994
754.556	176.147
759.139	241.367
763.72	103.946
768.298	249.779
772.874	152.823
777.447	194.763
782.017	277.465
786.585	115.756
791.15	216.24
795.712	115.793
800.272	287.01
804.829	184.126
809.384	242.499
813.936	254.467
818.485	521.859
823.032	236.243
827.576	188.044
832.118	205.768
836.657	188.384
841.193	56.4111
845.727	94.8672
850.258	243.541
854.787	127.814
859.313	384.068
863.836	188.642
868.357	345.192
872.875	449.468
877.391	311.206
881.904	290.14
886.414	256.34
890.922	174.587
895.427	40.7539
899.93	167.409
904.43	76.582
908.927	121.019
913.422	221.683
917.914	7.7334
922.404	115.347
926.891	23.8184
931.376	38.5127
935.858	88.0342
940.337	38.4131
944.814	197.004
949.289	106.684
953.76	88.0967
958.229	3.42578
962.696	52.1924
967.16	39.5928
971.621	66.9629
976.08	32.9248
980.537	122.213
984.99	14.1826
989.442	158.269
993.89	161.05
998.336	117.502
1002.78	77.7256
1007.22	199.653
1011.66	203.304
1016.1	191.683
1020.53	221.595
1024.96	640.391
1029.39	704.28
1033.81	938.385
1038.24	1410
1042.66	1439.57
1047.07	1361.06
1051.49	1092.94
1055.9	930.757
1060.31	824.14
1064.72	998.538
1069.13	780.269
1073.53	588.016
1077.93	530.227
1082.33	401.682
1086.72	163.019
1091.12	210.484
1095.51	280.547
1099.89	469.035
1104.28	664.477
1108.66	682.549
1113.04	1031.69
1117.42	1083.43
1121.79	1978.18
1126.16	2564.48
1130.53	3685.57
1134.9	4790.72
1139.27	5197
1143.63	4054.63
1147.99	2361.18
1152.35	1346.36
1156.7	668.381
1161.05	350.211
1165.4	156.213
1169.75	338.734
1174.09	263.131
1178.44	150.203
1182.78	100.887
1187.11	229.121
1191.45	101.934
1195.78	20.752
1200.11	271.049
1204.44	200.762
1208.76	109.709
1213.08	72.3809
1217.4	3.41797
1221.72	143.881
1226.03	118.418
1230.35	136.33
1234.66	183.815
1238.96	36.2891
1243.27	48.0293
1247.57	7.88281
1251.87	23.7969
1256.17	218.656
1260.46	17.4395
1264.75	110.012
1269.04	65.7754
1273.33	88.8613
1277.62	235.519
1281.9	1.23047
1286.18	195.174
1290.45	54.2363
1294.73	354.867
1299	295.723
1303.27	252.615
1307.54	261.234
1311.8	226.018
1316.07	235.002
1320.33	416.281
1324.58	261.315
1328.84	343.09
1333.09	70.8848
1337.34	238.613
1341.59	145.176
1345.83	52.6719
1350.08	356.094
1354.32	121.279
1358.55	238.062
1362.79	26.8066
1367.02	244.674
1371.25	247.662
1375.48	170.818
1379.71	334.293
1383.93	166.451
1388.15	194.154
1392.37	17.6055
1396.58	66.2109
1400.8	6.58594
1405.01	46.1113
1409.21	305.406
1413.42	15.1973
1417.62	180.029
1421.83	425.062
1426.02	290.699
1430.22	478.719
1434.41	688.004
1438.61	592.367
1442.79	558.092
1446.98	542.654
1451.16	613.125
1455.35	446.492
1459.52	389.188
1463.7	265.648
1467.87	474.543
1472.05	213.322
1476.21	422.672
1480.38	451.842
1484.55	176.598
1488.71	395.809
1492.87	328.016
1497.03	158.228
1501.18	376.385
1505.33	156.746
1509.48	150.58
1513.63	209.93
1517.77	248.019
1521.92	316.912
1526.06	242.133
1530.19	143.856
1534.33	101.119
1538.46	264.383
1542.59	225.344
1546.72	34.0664
1550.85	223.611
1554.97	426.025
1559.09	265.734
