Measurement: Raman, 514 nm, ccw, Raman Data Processed
Mineral: Epididymite
Rruff sample: R060773
Ideal chemistry: Na_2_Be_2_Si_6_O_15_H_2_O
Locality: unknown
Source: Michael Scott
Description: Colorless platy crystals forming a pseudohexagonal aggregate
Pin_id: M00395
Orientation: Laser parallel to b* (0 1 0). Fiducial mark perpendicular to laser is parallel to -c [0 0 -1]
Raman shift (cm-1)	intensity
102.116	0
107.047	1375.99
111.976	182.883
116.903	676.078
121.827	3335.39
126.749	4939.25
131.668	8641.26
136.585	8036.42
141.5	2388.72
146.412	1458.2
151.321	2188.04
156.229	986.807
161.134	168.63
166.036	6.36328
170.936	136.468
175.834	26.998
180.729	136.633
185.622	337.639
190.512	1239.3
195.4	2160.12
200.286	2589.35
205.169	1524.9
210.049	547.182
214.928	435.969
219.803	467.76
224.677	479.607
229.548	1436.53
234.416	3007.28
239.282	6081.86
244.146	7925.52
249.007	5361.34
253.866	4893.59
258.722	5354.4
263.576	5905.49
268.427	6022.96
273.276	3347.75
278.123	1143.57
282.967	541.635
287.809	401.898
292.648	79.6894
297.485	90.5195
302.319	210.703
307.151	161
311.98	383.693
316.807	662.051
321.631	1055.09
326.454	1505.33
331.273	2125.8
336.09	2829.63
340.905	4070.05
345.717	5939.06
350.527	4260.57
355.334	2657.25
360.139	1833.98
364.941	1773.94
369.741	1720.58
374.538	2746.09
379.333	5395.65
384.126	5957.27
388.916	3153.98
393.703	1464.79
398.488	1697.28
403.271	4241.55
408.051	11274.9
412.828	5419.3
417.603	1032.74
422.376	77.4961
427.146	109.141
431.914	59.0801
436.679	35.6367
441.442	20.4727
446.202	221.049
450.96	31.084
455.715	83.4883
460.467	776.121
465.218	1718.41
469.965	2671.97
474.711	7165.66
479.454	6456.33
484.194	2571.89
488.932	1756.35
493.667	767.705
498.4	928.953
503.13	1464.14
507.858	3801.29
512.583	10491.4
517.306	28018.3
522.026	37911.2
526.744	13291.1
531.459	4336.94
536.172	2153.1
540.882	1198.27
545.59	646.826
550.295	566.242
554.998	491.723
559.698	369.127
564.396	536.102
569.091	480.023
573.784	671.699
578.474	1508.66
583.162	3858.59
587.847	3415.95
592.529	1179.04
597.209	828.926
601.887	598.262
606.562	653.758
611.235	451.441
615.905	686.688
620.572	1423.48
625.237	2235.81
629.9	1747.68
634.56	1570.07
639.217	1228.98
643.872	1280.4
648.524	884.316
653.174	932.731
657.821	538.633
662.466	305.014
667.108	336.852
671.748	206.098
676.385	144.506
681.02	151.861
685.652	3.21289
690.281	137.525
694.908	242.234
699.533	65.0644
704.155	51.5586
708.774	134.568
713.391	135.684
718.005	25.4004
722.617	188.084
727.226	92.1055
731.833	220.559
736.437	254.008
741.039	284.152
745.638	392.125
750.234	750.564
754.828	658.482
759.419	974.883
764.008	728.777
768.595	774.166
773.178	774.059
777.759	707.465
782.338	574.391
786.914	772.844
791.488	706.836
796.059	1421.38
800.627	1338.27
805.193	985.764
809.756	561.029
814.317	866.688
818.875	1025.05
823.431	811.764
827.984	826.814
832.534	561.068
837.082	510.672
841.627	972.986
846.17	997.438
850.71	1077.95
855.248	1127.84
859.783	1569.89
864.316	1293.91
868.846	884.885
873.373	907.969
877.898	805.832
882.42	977.918
886.94	527.234
891.457	573.465
895.971	693.621
900.483	605.719
904.993	455.772
909.5	664.791
914.004	297.799
918.505	479.803
923.004	344.818
927.501	324.861
931.995	41.9531
936.486	491.109
940.975	66.3672
945.461	171.922
949.945	99.0273
954.426	267.529
958.904	80.3496
963.38	90.6523
967.853	97.5273
972.324	183.647
976.792	6.05469
981.258	15.5195
985.72	5.47656
990.181	6.23633
994.639	231.463
999.094	725.428
1003.55	1836.65
1008	1243.13
1012.44	932.877
1016.89	588.891
1021.33	824.18
1025.77	243.748
1030.21	482.602
1034.64	262.758
1039.07	383.219
1043.5	710.619
1047.93	1300.09
1052.35	1226.51
1056.78	974.269
1061.19	753.375
1065.61	976.809
1070.02	927.613
1074.43	675.336
1078.84	822.769
1083.25	1052.62
1087.65	640.832
1092.05	398.383
1096.45	495.352
1100.85	402.418
1105.24	750.195
1109.63	951.805
1114.02	1450.73
1118.4	1893
1122.78	2160.52
1127.16	3425.27
1131.54	4941.42
1135.92	7184.98
1140.29	7586.96
1144.66	5744.39
1149.02	3078.27
1153.39	1718.56
1157.75	1267.23
1162.11	809.262
1166.46	333.738
1170.82	462.656
1175.17	490.102
1179.52	351.949
1183.86	225.144
1188.21	354.688
1192.55	45.5742
1196.89	107.766
1201.22	173.289
1205.55	29.9453
1209.88	10.6641
1214.21	22.2539
1218.54	181.727
1222.86	223.949
1227.18	232.481
1231.5	34.8516
1235.81	233.394
1240.12	467.527
1244.43	521.32
1248.74	376.137
1253.04	144.625
1257.34	497.391
1261.64	580.371
1265.94	602.566
1270.23	759.57
1274.52	608.75
1278.81	524.144
1283.1	631.211
1287.38	443.602
1291.66	401.16
1295.94	794.902
1300.21	412.004
1304.48	733.316
1308.75	879.41
1313.02	1075.62
1317.29	1066.11
1321.55	1036.41
1325.81	557.969
1330.06	171.664
1334.32	534.184
1338.57	246.988
1342.82	212.938
1347.06	173.902
1351.31	200.352
1355.55	6.99219
1359.79	137.027
1364.02	35.8516
1368.26	205.617
1372.49	211.504
1376.71	159.664
1380.94	196.172
1385.16	224.773
1389.38	502.332
1393.6	499.16
1397.81	347.516
1402.02	0.542969
1406.23	150.312
1410.44	84.082
1414.64	159.648
1418.85	70.2188
1423.04	36.4219
1427.24	121.188
1431.43	491.848
1435.62	762.25
1439.81	1337.16
1444	1703.65
1448.18	1979.23
1452.36	2163.33
1456.54	2147.92
1460.71	1624.11
1464.89	1432.01
1469.06	980.535
1473.22	725.324
1477.39	842.91
1481.55	456.344
1485.71	703.008
1489.86	698.805
1494.02	60.5859
1498.17	55.75
1502.32	65.6797
1506.46	131.168
1510.61	16.4492
1514.75	147.359
1518.88	80.5508
1523.02	271.027
1527.15	223.106
1531.28	273.559
1535.41	520.371
1539.53	414.465
1543.66	218.789
1547.78	147.949
1551.89	296.965
1556.01	92.793
1560.12	172.191
1564.23	151.324
1568.33	162.664
