Measurement: Raman, 514 nm, ccw, Raman Data Processed
Mineral: Epidote
Rruff sample: R050064
Ideal chemistry: Ca_2_Fe^3+^Al_2_(Si_2_O_7_)(SiO_4_)O(OH)
Locality: East Xichang City, Meigu County, Sichuan Province, China
Source: Rock Currier
Description: Green prismatic crystals
Measured chemistry: (Ca_1.99_Mn_0.01_)_Î£=2_Fe^3+^_1.00_Al_2.00_(Si_2.00_O_7_)(Si_1.00_O_4_)O(OH);
Pin_id: L00177
Orientation: Laser parallel to -c* (0 0 -1). Fiducial mark perpendicular to laser is parallel to a [1 0 0]
Raman shift (cm-1)	intensity
84.529	0
88.728	398.589
92.926	2614.44
97.121	5952.85
101.314	3779.11
105.505	1468.89
109.694	728.346
113.881	461.148
118.066	153.833
122.249	344.032
126.43	624.155
130.608	428.229
134.785	60.751
138.959	72.009
143.131	43.892
147.301	44.921
151.469	27.555
155.635	230.774
159.799	966.771
163.961	2280.39
168.121	2518.63
172.278	1630.35
176.434	552.007
180.587	15.806
184.739	5.219
188.888	99.931
193.035	429.331
197.18	1732.61
201.324	2615.11
205.465	2108.44
209.603	1270.42
213.74	1368.39
217.875	2066.74
222.008	3450.05
226.139	4977
230.267	4243.58
234.394	2840.76
238.518	3134.09
242.641	3373.95
246.761	2071.33
250.879	1335.66
254.996	1154.54
259.11	1225.84
263.222	2062.79
267.332	5390.66
271.44	13473.1
275.546	17933.2
279.65	10292.9
283.752	5235.6
287.852	4186.83
291.95	5560.67
296.046	8325.09
300.14	7436.93
304.231	4808.67
308.321	4281.09
312.409	4237.24
316.495	2866.1
320.578	1930.71
324.66	1943.95
328.739	1488.48
332.817	653.309
336.892	151.547
340.966	420.454
345.037	212.891
349.107	119.842
353.174	115.947
357.24	175.043
361.303	695.461
365.365	1166.2
369.424	895.27
373.481	147.657
377.537	172.251
381.59	118.602
385.642	554.134
389.691	678.24
393.738	285.731
397.784	17.29
401.827	195.197
405.868	682.74
409.908	1806.99
413.945	4309.96
417.98	11088.7
422.014	23038.2
426.045	23038.4
430.075	15119.2
434.102	11990.7
438.127	11422.7
442.151	13955.4
446.172	23138.6
450.192	36622.3
454.209	46716.4
458.225	38441
462.238	21595.9
466.25	10991.1
470.259	6211.77
474.267	3843.72
478.273	2541.95
482.276	2005.43
486.278	1926.11
490.278	2382
494.276	3541.07
498.271	4867.92
502.265	4927.14
506.257	4723.23
510.247	4492.59
514.235	4188.69
518.221	6032.98
522.205	7947.45
526.187	4806.08
530.167	1990.87
534.145	901.812
538.122	580.065
542.096	662.538
546.068	991.946
550.039	1628.03
554.007	3409.6
557.973	8637.31
561.938	23196.3
565.901	25909.8
569.861	11638.3
573.82	5728.89
577.777	4947.46
581.732	6805.44
585.685	9324.85
589.636	11199.3
593.585	16022.9
597.532	19463.5
601.477	16302.6
605.42	12499.1
609.361	11249.4
613.301	10081.5
617.238	7058.51
621.174	4186.77
625.108	2504.53
629.039	1701.59
632.969	1236.74
636.897	937.609
640.823	647.59
644.747	507.317
648.669	385.791
652.589	404.006
656.508	351.998
660.424	408.316
664.339	426.161
668.251	468.917
672.162	536.566
676.071	705.553
679.978	987.422
683.883	1596.99
687.786	1866.24
691.687	1346.17
695.586	756.938
699.484	358.742
703.379	132.315
707.273	57.548
711.165	40.644
715.055	60.537
718.943	66.271
722.829	85.93
726.713	61.675
730.595	121.436
734.476	107.329
738.354	97.307
742.231	87.327
746.106	85.351
749.978	52.362
753.849	112.281
757.719	59.118
761.586	3.744
765.451	87.038
769.315	9.064
773.177	15.437
777.036	36.553
780.894	3.292
784.75	32.673
788.605	39.75
792.457	85.534
796.307	165.048
800.156	214.306
804.003	190.317
807.848	369.087
811.691	460.625
815.532	666.099
819.371	992.008
823.209	1507.85
827.045	2205.48
830.878	2528.89
834.71	2321.09
838.54	2065.1
842.369	1904.92
846.195	2137.56
850.02	2577.03
853.842	3306.34
857.663	4626.52
861.482	6395.32
865.299	8432.81
869.115	9491.54
872.928	8796.98
876.74	8657.09
880.55	10655.2
884.358	13412.9
888.164	12967.5
891.969	10148.6
895.771	8638.35
899.572	9339.71
903.371	12024.1
907.168	16915.7
910.963	22836
914.757	27099.2
918.548	23380.2
922.338	15549.4
926.126	9463.96
929.912	5964.46
933.697	3946.73
937.479	2863.6
941.26	2223.05
945.039	1921.95
948.816	1822.52
952.591	1956.35
956.365	2266.43
960.136	2455.79
963.906	2347.42
967.674	2604.33
971.441	3936.53
975.205	7104.03
978.968	10852.8
982.729	9683.9
986.488	5618.28
990.245	3283.97
994	2029.97
997.754	1385.3
1001.51	1074.11
1005.26	867.567
1009	844.263
1012.75	1132.96
1016.5	1700.78
1020.24	2027.09
1023.98	1921.56
1027.72	2151.96
1031.46	3398.04
1035.19	5505.64
1038.93	8589.2
1042.66	9154.16
1046.39	7281.49
1050.12	5183.01
1053.85	4590.64
1057.57	5806.42
1061.29	7308.42
1065.02	5932.15
1068.74	5005.71
1072.45	5352.15
1076.17	7584.59
1079.88	12421.1
1083.6	21714.9
1087.31	19320.9
1091.02	9376.72
1094.72	3974.73
1098.43	2091.78
1102.13	1330.65
1105.84	957.438
1109.54	708.024
1113.24	576.733
1116.93	479.427
1120.63	486.293
1124.32	466.156
1128.01	370.329
1131.7	280.631
1135.39	192.584
1139.08	176.466
1142.76	66.935
1146.45	41.243
1150.13	3.991
1153.81	26.882
1157.48	5.498
1161.16	62.743
1164.84	45.606
1168.51	67.562
1172.18	65.615
1175.85	54.144
1179.52	31.344
1183.18	63.268
1186.85	20.962
1190.51	12.219
1194.17	50.114
1197.83	36.053
1201.48	16.578
1205.14	41.62
1208.79	49.974
1212.44	6.734
1216.09	56.155
1219.74	8.17
1223.39	4.235
1227.03	64.395
1230.68	37.366
1234.32	39.141
1237.96	41.686
1241.6	43.028
1245.23	88.172
1248.87	61.125
1252.5	66.099
1256.13	91.654
1259.76	97.031
1263.39	96.134
1267.02	121.17
1270.64	113.783
1274.26	136.562
1277.88	136.707
1281.5	98.233
1285.12	106.639
1288.74	106.713
1292.35	98.332
1295.96	81.415
1299.57	103.544
1303.18	102.371
1306.79	49.913
1310.4	86.967
1314	71.054
1317.6	105.346
1321.2	112.593
1324.8	91.117
1328.4	75.691
1331.99	93.609
1335.59	69.799
1339.18	110.42
1342.77	142.162
1346.36	164.515
1349.95	129.29
1353.53	149.205
1357.12	170.931
1360.7	165.263
1364.28	194.116
1367.86	146.882
1371.44	162.815
1375.01	166.071
1378.59	154.603
1382.16	155.637
1385.73	122.366
1389.3	103.078
1392.87	50.373
1396.43	61.414
1399.99	294.022
1403.56	185.172
1407.12	80.407
1410.68	65.489
1414.23	26.03
1417.79	38.963
1421.34	41.401
1424.9	32.12
1428.45	15.962
1431.99	25.843
1435.54	48.655
1439.09	23.879
1442.63	46.143
1446.17	78.33
1449.71	67.248
1453.26	61.776
1456.79	34.297
1460.33	93.677
1463.86	50.282
1467.39	16.784
1470.92	61.892
1474.45	6.151
1477.98	58.842
1481.51	42.358
1485.03	25.948
1488.56	48.708
1492.08	65.584
1495.6	69.53
1499.11	32.749
1502.63	50.188
1506.14	38.013
1509.66	84.964
1513.17	75.743
1516.68	0
