Measurement: Raman, 514 nm, ccw, Raman Data Processed
Mineral: Epidote
Rruff sample: R050191
Ideal chemistry: Ca_2_Fe^3+^Al_2_(Si_2_O_7_)(SiO_4_)O(OH)
Locality: Pampa Blanca, Castrovirreyna Province, Huancavelica Department, Peru
Source: Dave Bunk Minerals
Description: Cluster of green elongated prismatic crystals
Measured chemistry: Ca_2.00_Al_2.00_(Fe^3+^_0.84_Al_0.16_)(SiO_4_)(Si_2_O_7_)O(OH)
Pin_id: L01284
Orientation: Laser parallel to -a* (-1 0 0). Fiducial mark perpendicular to laser is parallel to b [0 1 0]
Raman shift (cm-1)	intensity
53.91	0
58.864	468.772
63.817	213.975
68.767	54.6882
73.714	127.125
78.659	741.288
83.602	4005.93
88.542	9433.74
93.48	11838.8
98.416	13375.4
103.349	6403.07
108.28	4401.19
113.208	2215.78
118.134	2123.11
123.058	2295.34
127.979	2959.58
132.898	3390.34
137.814	2609.84
142.728	2701.55
147.639	3637.08
152.549	3587.94
157.455	5307.88
162.359	10183.4
167.261	14293.1
172.161	13090
177.058	7661.67
181.952	3839.7
186.845	2593.51
191.734	1626.49
196.622	1404.39
201.507	2138.76
206.389	1116.96
211.269	17.2715
216.147	46.3379
221.022	1007.36
225.895	3272.58
230.765	6597
235.633	9285.38
240.498	14474
245.361	14630.8
250.222	7897.85
255.08	4723.75
259.936	4256.77
264.789	2852.22
269.64	3826.13
274.488	6046.29
279.334	5762.56
284.178	5284.92
289.019	6696.54
293.857	8241.83
298.693	5719.25
303.527	4019.97
308.358	3895.54
313.187	5932.16
318.013	6531.35
322.837	7101.04
327.659	9678.16
332.478	10745.6
337.294	9909.42
342.108	14072.4
346.92	22332.5
351.729	21219.4
356.535	11206.4
361.34	5925.17
366.141	5260.74
370.94	3221.09
375.737	691.077
380.531	472.475
385.323	352.373
390.113	1404.29
394.9	569.507
399.684	448.699
404.466	606.274
409.245	177.828
414.022	1872.47
418.797	4035.59
423.569	8568.12
428.338	12076
433.105	16718.2
437.87	19070.3
442.632	19869.6
447.391	28699.5
452.149	32600.9
456.903	28341.8
461.655	19427.9
466.405	10291.8
471.152	4891.35
475.897	3035.78
480.639	2689.78
485.378	3177.1
490.116	5017.64
494.85	7894.31
499.582	11040
504.312	10728.6
509.039	9181.04
513.764	5348.26
518.486	2366.33
523.206	1847.07
527.923	793.107
532.638	52.9858
537.35	266.947
542.059	302.759
546.766	90.3188
551.471	1107.18
556.173	3981.11
560.873	10769
565.57	17721.8
570.264	8933.57
574.957	4268.53
579.646	4806.36
584.333	7600.01
589.018	11299.6
593.7	16552.8
598.379	22250.1
603.056	19611
607.73	16152.6
612.402	14943.1
617.072	10145.5
621.739	5412.99
626.403	2866.06
631.065	1887.54
635.724	1393.37
640.381	986.51
645.035	857.925
649.687	785.082
654.336	763.892
658.983	685.077
663.627	619.249
668.268	841.892
672.907	826.39
677.544	1056.84
682.178	1385.58
686.809	1823.59
691.438	1646.72
696.065	1168.28
700.688	860.121
705.31	535.221
709.929	294.524
714.545	55.606
719.158	188.565
723.77	196.176
728.378	248.681
732.984	125.334
737.588	149.836
742.189	113.698
746.787	141.542
751.383	133.178
755.976	190.697
760.567	676.446
765.155	1362.72
769.741	1386.55
774.324	933.005
778.904	467.123
783.482	239.958
788.058	77.4985
792.631	71.667
797.201	176.006
801.769	321.082
806.334	484.742
810.897	729.91
815.457	955.532
820.014	1128.27
824.569	1388.72
829.122	1720.67
833.671	2094.88
838.219	2482.41
842.763	2929.31
847.306	3866.27
851.845	5423.04
856.382	8211.02
860.917	13763.9
865.448	17918.3
869.978	19414.5
874.505	23457.7
879.029	32311.5
883.55	43714.2
888.069	49151.6
892.586	36966.8
897.1	22564.8
901.611	16797.8
906.12	16651.6
910.626	20252.4
915.129	23858.3
919.63	21095.2
924.129	13240.4
928.625	7871.81
933.118	4713.43
937.609	3091.65
942.097	2010.07
946.582	1355.69
951.065	1082.4
955.546	940.242
960.023	908.169
964.499	893.191
968.971	1017.35
973.441	2008.83
977.909	3473.17
982.374	3816.03
986.836	2232.58
991.295	1001.38
995.753	542.857
1000.21	430.268
1004.66	538.654
1009.11	1112.56
1013.55	2841.38
1018	5586.35
1022.44	5735.88
1026.88	3171.16
1031.32	1923.14
1035.75	1768.5
1040.18	1774.07
1044.61	1720.74
1049.04	1341.5
1053.46	974.454
1057.88	976.675
1062.3	913.278
1066.71	953.864
1071.13	1072.24
1075.54	1902.26
1079.94	3778.07
1084.35	6933.67
1088.75	7512.88
1093.15	3823.45
1097.55	1500.85
1101.94	770.302
1106.34	422.028
1110.73	280.211
1115.11	330.065
1119.5	435.378
1123.88	555.058
1128.26	139.797
1132.63	6.73242
1137.01	164.48
1141.38	92.6231
1145.75	185.141
1150.12	38.4746
1154.48	93.3096
1158.84	67.7402
1163.2	32.5884
1167.55	83.1118
1171.91	56.5703
1176.26	47.3066
1180.61	0.486816
1184.95	34.6299
1189.29	34.895
1193.63	35.9404
1197.97	69.3311
1202.31	130.876
1206.64	225.111
1210.97	168.144
1215.29	56.9951
1219.62	193.939
1223.94	110.254
1228.26	230.037
1232.57	214.965
1236.89	131.171
1241.2	73.5303
1245.51	39.8965
1249.81	126.145
1254.12	169.542
1258.42	219.128
1262.72	98.6538
1267.01	248.606
1271.3	230.005
1275.59	189.106
1279.88	229.387
1284.17	195.382
1288.45	174.832
1292.73	238.809
1297.01	118.947
1301.28	172.273
1305.55	191.199
1309.82	285.217
1314.09	297.872
1318.35	145.626
1322.61	102.697
1326.87	168.226
1331.13	259.392
1335.38	115.014
1339.63	218.988
1343.88	204.348
1348.12	278.114
1352.37	185.505
1356.61	277.927
1360.85	279.747
1365.08	242.026
1369.31	296.229
1373.54	243.227
1377.77	214.998
1381.99	167.88
1386.22	199.273
1390.43	158.337
1394.65	170.925
1398.87	169.478
1403.08	105.871
1407.29	149.989
1411.49	138.598
1415.69	146.602
1419.89	247.496
1424.09	99.7554
1428.29	155.467
1432.48	28.4194
1436.67	175.906
1440.86	33.647
1445.04	125.814
1449.23	137.493
1453.4	116.784
1457.58	75.7593
1461.76	111.71
1465.93	59.9673
1470.1	147.981
1474.26	214.991
1478.43	106.292
1482.59	128.374
1486.75	45.3862
1490.9	128.978
1495.06	44.5244
1499.21	67.4946
1503.35	80.4492
1507.5	91.6475
1511.64	124.373
1515.78	109.207
1519.92	128.659
1524.05	40.9868
1528.18	56.5464
1532.31	106.41
1536.44	7.50977
1540.56	95.3335
1544.69	53.3491
1548.8	7.9375
1552.92	129.305
1557.03	110.146
1561.14	75.8227
1565.25	79.5664
1569.36	13.5796
