Measurement: Raman, 514 nm, ccw, Raman Data Processed
Mineral: Epididymite
Rruff sample: R060773
Ideal chemistry: Na_2_Be_2_Si_6_O_15_H_2_O
Locality: unknown
Source: Michael Scott
Description: Colorless platy crystals forming a pseudohexagonal aggregate
Pin_id: M00206
Orientation: Laser parallel to a* (1 0 0). Fiducial mark perpendicular to laser is parallel to b [0 1 0]
Raman shift (cm-1)	intensity
102.116	0
107.047	442.184
111.976	735.061
116.903	1203.47
121.827	2838.56
126.749	4263.75
131.668	4982.15
136.585	2277.18
141.5	299.15
146.412	188.619
151.321	203.162
156.229	76.7559
161.134	337.894
166.036	469.84
170.936	666.004
175.834	44.2129
180.729	304.66
185.622	728.268
190.512	1557.23
195.4	2109.98
200.286	1849.35
205.169	1186.11
210.049	568.441
214.928	525.748
219.803	981.856
224.677	1533.92
229.548	2734.84
234.416	4259.82
239.282	5033.09
244.146	3836
249.007	1995.7
253.866	1098.21
258.722	1102.97
263.576	690.519
268.427	326.676
273.276	344.6
278.123	62.5527
282.967	183.812
287.809	70.2969
292.648	177.398
297.485	40.291
302.319	107.693
307.151	37.1934
311.98	112.834
316.807	110.498
321.631	436.492
326.454	582.406
331.273	454.67
336.09	695.062
340.905	570.266
345.717	234.449
350.527	139.309
355.334	106.814
360.139	31.1582
364.941	102.889
369.741	119.242
374.538	434.162
379.333	854.644
384.126	1285.73
388.916	1526.61
393.703	1794.26
398.488	4956.29
403.271	9761.73
408.051	9398.66
412.828	3015.22
417.603	646.693
422.376	346.037
427.146	909.611
431.914	943.049
436.679	710.08
441.442	120.467
446.202	0.253906
450.96	293.26
455.715	433.693
460.467	281.637
465.218	1325.63
469.965	2526.43
474.711	3975.96
479.454	4817.31
484.194	5054.45
488.932	3046.2
493.667	1394.52
498.4	1552.19
503.13	2780.13
507.858	7675.65
512.583	20460.5
517.306	31409.2
522.026	21674.3
526.744	7083.22
531.459	2755.53
536.172	1441.59
540.882	938.445
545.59	995.863
550.295	577.578
554.998	675.332
559.698	340.586
564.396	230.535
569.091	745.953
573.784	1511.18
578.474	3033.5
583.162	4151.92
587.847	2958.92
592.529	1516.89
597.209	1059.08
601.887	887.789
606.562	964.176
611.235	890.746
615.905	1259.66
620.572	1966.37
625.237	3662.52
629.9	3267.22
634.56	2099.54
639.217	1791.47
643.872	1834.06
648.524	2186.3
653.174	2177.17
657.821	1190.62
662.466	806.613
667.108	547.133
671.748	323.172
676.385	127.688
681.02	172.644
685.652	295.598
690.281	3.76172
694.908	204.707
699.533	122.809
704.155	195.523
708.774	179.867
713.391	152.773
718.005	113.977
722.617	249.746
727.226	35.7969
731.833	435.465
736.437	299.164
741.039	377.539
745.638	294.356
750.234	535.625
754.828	592.359
759.419	404.566
764.008	554.258
768.595	311.438
773.178	569.125
777.759	535.324
782.338	466.039
786.914	632.285
791.488	462.074
796.059	920.406
800.627	438.309
805.193	929.141
809.756	1268.71
814.317	1639.19
818.875	1304.46
823.431	1228.97
827.984	1085.28
832.534	1217.45
837.082	1019.61
841.627	1423.48
846.17	1525.09
850.71	1890.1
855.248	2441.31
859.783	3001.57
864.316	2428.7
868.846	1672.11
873.373	1490.52
877.898	1140.91
882.42	1334.78
886.94	1075
891.457	922.543
895.971	839.93
900.483	831.57
904.993	913.383
909.5	513.324
914.004	652.41
918.505	465.664
923.004	302.094
927.501	167.731
931.995	227.785
936.486	288.402
940.975	17.4922
945.461	353.945
949.945	359.941
954.426	366.453
958.904	377.606
963.38	13.1914
967.853	174.883
972.324	138.359
976.792	69.8906
981.258	138.738
985.72	301.762
990.181	479.758
994.639	532.293
999.094	853.348
1003.55	2005.88
1008	691.836
1012.44	362.246
1016.89	446.117
1021.33	782.453
1025.77	1161.27
1030.21	1099.56
1034.64	1115.34
1039.07	1483.63
1043.5	1424.42
1047.93	1827.72
1052.35	1399.54
1056.78	1061.89
1061.19	1231.44
1065.61	1203.85
1070.02	674.32
1074.43	957.598
1078.84	1129.12
1083.25	1150.98
1087.65	1091.9
1092.05	1037.31
1096.45	904.199
1100.85	757.57
1105.24	886.875
1109.63	1330.92
1114.02	1529.17
1118.4	2213.41
1122.78	2618.52
1127.16	3994.41
1131.54	5305.27
1135.92	6531.64
1140.29	5809.52
1144.66	3814.93
1149.02	2105.88
1153.39	980.391
1157.75	579.551
1162.11	545.231
1166.46	516.461
1170.82	662.293
1175.17	274.648
1179.52	497.519
1183.86	101.91
1188.21	173.816
1192.55	107.211
1196.89	20.5273
1201.22	74.2383
1205.55	28.1172
1209.88	75.2539
1214.21	443.356
1218.54	445.234
1222.86	20.6289
1227.18	232.531
1231.5	241.945
1235.81	713.016
1240.12	677.977
1244.43	426.684
1248.74	714.492
1253.04	783.922
1257.34	275.945
1261.64	621.562
1265.94	1413.86
1270.23	1006.76
1274.52	1399.44
1278.81	864.348
1283.1	369.059
1287.38	574.953
1291.66	994.328
1295.94	1281.75
1300.21	1017.05
1304.48	885.785
1308.75	1251.14
1313.02	1347.59
1317.29	1574.64
1321.55	1038.84
1325.81	1081.34
1330.06	432.184
1334.32	607.727
1338.57	372.5
1342.82	435.797
1347.06	364.102
1351.31	201.894
1355.55	284.199
1359.79	305.012
1364.02	141.305
1368.26	477.902
1372.49	510.769
1376.71	712.004
1380.94	283.699
1385.16	571.699
1389.38	149.805
1393.6	116.891
1397.81	145.019
1402.02	41.0703
1406.23	79.5859
1410.44	143.293
1414.64	318.215
1418.85	136.352
1423.04	329.496
1427.24	390.637
1431.43	726.633
1435.62	1146.97
1439.81	2016.7
1444	3192.78
1448.18	2990.82
1452.36	3537.88
1456.54	3645.33
1460.71	2865.25
1464.89	2374.93
1469.06	1725.3
1473.22	1311.13
1477.39	1171.02
1481.55	1206.35
1485.71	1146.09
1489.86	794.414
1494.02	128.566
1498.17	71.043
1502.32	135.223
1506.46	35.75
1510.61	229.566
1514.75	56.082
1518.88	338.047
1523.02	291.859
1527.15	357.383
1531.28	676.684
1535.41	578.223
1539.53	214.023
1543.66	527.496
1547.78	390.367
1551.89	202.684
1556.01	465.824
1560.12	218.727
1564.23	373.106
1568.33	131.465
