Measurement: Raman, 514 nm, ccw, Raman Data Processed
Mineral: Epididymite
Rruff sample: R060773
Ideal chemistry: Na_2_Be_2_Si_6_O_15_H_2_O
Locality: unknown
Source: Michael Scott
Description: Colorless platy crystals forming a pseudohexagonal aggregate
Pin_id: M00395
Orientation: Laser parallel to b* (0 1 0). Fiducial mark perpendicular to laser is parallel to -c [0 0 -1]
Raman shift (cm-1)	intensity
102.116	0
107.047	293.79
111.976	399.721
116.903	1501.32
121.827	4434.58
126.749	4986.54
131.668	7952.9
136.585	10365.7
141.5	1738.53
146.412	483.447
151.321	880.54
156.229	459.234
161.134	12.7622
166.036	50.3364
170.936	103.807
175.834	10.0874
180.729	34.7305
185.622	452.87
190.512	1351.33
195.4	2800.18
200.286	4011.46
205.169	2681.36
210.049	1367.72
214.928	718.707
219.803	504.721
224.677	551.653
229.548	1239.4
234.416	2264.92
239.282	4948.2
244.146	6620.28
249.007	4122.97
253.866	2635.74
258.722	2546.85
263.576	1890.48
268.427	1021.8
273.276	260.188
278.123	227.974
282.967	181.221
287.809	219.119
292.648	24.5889
297.485	86.5439
302.319	12.5039
307.151	75.8223
311.98	167.091
316.807	296.593
321.631	341.433
326.454	568.133
331.273	750.988
336.09	1628.93
340.905	3383.52
345.717	8855.55
350.527	5440.21
355.334	2246.45
360.139	1891.53
364.941	2103.53
369.741	3093.43
374.538	5191.24
379.333	10506
384.126	12187.6
388.916	5517.13
393.703	2493.57
398.488	2592.7
403.271	5606.43
408.051	16679.8
412.828	9236.89
417.603	1658.42
422.376	500.532
427.146	17.9888
431.914	33.584
436.679	217.69
441.442	62.4526
446.202	85.4839
450.96	227.155
455.715	139.723
460.467	509.928
465.218	476.432
469.965	835.413
474.711	2113.11
479.454	2785.79
484.194	2674.34
488.932	2893.75
493.667	1160.05
498.4	1381.24
503.13	2169.31
507.858	4384.28
512.583	11483.1
517.306	31696.9
522.026	48662.5
526.744	17286
531.459	5811.88
536.172	2832.91
540.882	1704.11
545.59	1237.8
550.295	837.823
554.998	631.411
559.698	755.316
564.396	625.129
569.091	975.218
573.784	1347.4
578.474	2976.66
583.162	7358.86
587.847	7064.84
592.529	2607.6
597.209	1303.65
601.887	952.838
606.562	602.952
611.235	570.73
615.905	788.291
620.572	1156.63
625.237	2204.75
629.9	2516.64
634.56	2797.31
639.217	1856.74
643.872	1460.94
648.524	1523.9
653.174	1290.62
657.821	682.098
662.466	343.329
667.108	164.315
671.748	170.039
676.385	29.5049
681.02	93.6455
685.652	75.4775
690.281	157.916
694.908	92.875
699.533	133.587
704.155	9.27344
708.774	106.571
713.391	69.6318
718.005	47.4902
722.617	52.8105
727.226	91.0156
731.833	56.4863
736.437	154.947
741.039	322.15
745.638	198.083
750.234	415.743
754.828	436.14
759.419	457.274
764.008	310.152
768.595	402.775
773.178	300.147
777.759	261.271
782.338	306.151
786.914	289.792
791.488	323.197
796.059	427.375
800.627	512.324
805.193	494.022
809.756	496.399
814.317	448.247
818.875	507.745
823.431	536.779
827.984	730.719
832.534	537.816
837.082	562.771
841.627	782.965
846.17	823.492
850.71	1019.87
855.248	1134.91
859.783	1473.03
864.316	1550.42
868.846	1120.89
873.373	826.273
877.898	913.935
882.42	819.424
886.94	729
891.457	764.547
895.971	609.071
900.483	599.584
904.993	605.089
909.5	547.599
914.004	478.12
918.505	254.66
923.004	233.228
927.501	228.831
931.995	231.485
936.486	269.212
940.975	214.023
945.461	159.13
949.945	252.5
954.426	87.0107
958.904	161.644
963.38	13.5361
967.853	29.6387
972.324	11.666
976.792	103.182
981.258	44.8897
985.72	39.5791
990.181	19.9482
994.639	80.8848
999.094	572.033
1003.55	1686.37
1008	538.894
1012.44	556.595
1016.89	321.478
1021.33	456.552
1025.77	606.84
1030.21	403.295
1034.64	420.978
1039.07	587.877
1043.5	907.995
1047.93	1305.34
1052.35	1357.91
1056.78	886.713
1061.19	903.757
1065.61	895.436
1070.02	997.76
1074.43	771.082
1078.84	897.431
1083.25	849.017
1087.65	801.508
1092.05	660.235
1096.45	502.204
1100.85	581.918
1105.24	1068.63
1109.63	1500.05
1114.02	1995.89
1118.4	2930.87
1122.78	3963.98
1127.16	5512.04
1131.54	8605.38
1135.92	12288
1140.29	13059.9
1144.66	9619.04
1149.02	5461.48
1153.39	3009.27
1157.75	1711.49
1162.11	1073.02
1166.46	745.826
1170.82	648.915
1175.17	544.279
1179.52	219.916
1183.86	264.826
1188.21	275.005
1192.55	94.4522
1196.89	48.1514
1201.22	102.06
1205.55	158.845
1209.88	51.96
1214.21	41.7959
1218.54	72.8643
1222.86	16.1865
1227.18	22.7764
1231.5	69.6123
1235.81	139.586
1240.12	385.228
1244.43	338.391
1248.74	273.035
1253.04	423.071
1257.34	330.404
1261.64	313.03
1265.94	658.012
1270.23	648.249
1274.52	676.697
1278.81	560.949
1283.1	611.829
1287.38	384.102
1291.66	485.92
1295.94	714.311
1300.21	456.849
1304.48	596.528
1308.75	607.338
1313.02	714.269
1317.29	987.313
1321.55	742.477
1325.81	543.365
1330.06	473.019
1334.32	229.388
1338.57	203.217
1342.82	141.851
1347.06	268.706
1351.31	130.702
1355.55	192.868
1359.79	113.196
1364.02	117.416
1368.26	243.678
1372.49	231.708
1376.71	291.579
1380.94	312.736
1385.16	174.73
1389.38	223.803
1393.6	172.312
1397.81	22.3027
1402.02	46.1572
1406.23	139.948
1410.44	10.7305
1414.64	4.63086
1418.85	84.5586
1423.04	31.833
1427.24	196.882
1431.43	418.649
1435.62	626.175
1439.81	1280.39
1444	1564.48
1448.18	1670.64
1452.36	2109.6
1456.54	2165.17
1460.71	1733.36
1464.89	1467.73
1469.06	1091.06
1473.22	827.07
1477.39	773.061
1481.55	769.946
1485.71	489.119
1489.86	295.545
1494.02	282.82
1498.17	142.211
1502.32	16.1172
1506.46	143.155
1510.61	110.029
1514.75	62.0147
1518.88	108.614
1523.02	85.917
1527.15	142.619
1531.28	160.165
1535.41	396.01
1539.53	296.622
1543.66	337.223
1547.78	106.49
1551.89	822.252
1556.01	289.709
1560.12	106.691
1564.23	76.7793
1568.33	3.33789
