Measurement: Raman, 514 nm, ccw, Raman Data Processed
Mineral: Epidote
Rruff sample: R040089
Ideal chemistry: Ca_2_Fe^3+^Al_2_(Si_2_O_7_)(SiO_4_)O(OH)
Locality: Grafton County, New Hampshire, USA
Source: University of Arizona Mineral Museum
Description: Dark green coarsely crystalline massive
Measured chemistry: Ca_2.00_(Al_2.36_Fe^3+^_0.64_)[Si_2.00_O_7_][Si_1.00_O_4_]O(OH)
Pin_id: L00423
Orientation: Laser parallel to c [0 0 1]. Fiducial mark perpendicular to laser is parallel to b* (0 1 0)
Raman shift (cm-1)	intensity
53.228	0
57.445	210.754
61.659	97.771
65.871	691.963
70.081	1425.62
74.288	3540.85
78.494	6484.12
82.697	7364.79
86.898	9403.36
91.097	12036.2
95.293	14443.5
99.488	14925.9
103.68	22397.8
107.87	20214.8
112.057	8240.69
116.243	4216.91
120.426	2689.29
124.608	1562.25
128.787	1387.02
132.963	2539.01
137.138	4220.79
141.311	4920.11
145.481	3085.28
149.649	1884.6
153.815	1096.55
157.979	939.487
162.14	792.04
166.3	1223.33
170.457	1302.47
174.612	887.215
178.765	243.161
182.915	996.964
187.064	564.562
191.21	1355.04
195.355	1477.59
199.497	4.113
203.637	272.248
207.774	1198.39
211.91	1673.68
216.043	1955.73
220.175	2764.05
224.304	4151.47
228.431	5951.54
232.556	8381.29
236.678	9095.88
240.799	7123.57
244.917	6774.07
249.034	9381.21
253.148	11187.1
257.26	10704.5
261.37	9062.15
265.477	7674.04
269.583	8109.99
273.686	12008.7
277.788	16971.3
281.887	12087.9
285.984	6865.44
290.079	4977.01
294.172	4711.19
298.263	4646.22
302.351	4357.87
306.438	3931.69
310.522	3413.32
314.604	2949.95
318.684	2530.08
322.762	2355.61
326.838	2389.45
330.912	2491.12
334.984	2259.94
339.053	1942.55
343.121	1705.05
347.186	1977.56
351.25	3247.76
355.311	4171.2
359.37	2527.72
363.427	842.564
367.482	34.252
371.535	347.505
375.585	613.761
379.634	716.841
383.68	330.625
387.725	549.059
391.767	2766.97
395.808	4543.41
399.846	4208.43
403.882	1802.14
407.916	684.706
411.948	1496.34
415.978	4607.36
420.006	5328.11
424.031	13048.8
428.055	23879.6
432.077	24800.7
436.096	18032.1
440.114	14169.6
444.129	13906.1
448.142	16038.8
452.154	21062.2
456.163	22656.6
460.17	20361.7
464.175	17757.4
468.178	15903.5
472.179	13719.8
476.178	11566.4
480.175	9373.43
484.17	6709.75
488.163	5527.24
492.153	5555.96
496.142	5574.84
500.129	5871.36
504.113	7096.86
508.096	9466.82
512.077	11263.2
516.055	10961.2
520.032	9309.35
524.006	9563.41
527.978	12466.2
531.949	10380.5
535.917	5336.18
539.883	3148.64
543.848	2659.16
547.81	2790.21
551.77	3781.45
555.728	5023.22
559.685	7048.66
563.639	11707.5
567.591	24266.2
571.541	38611.6
575.489	24203.4
579.435	10561
583.38	6747.25
587.322	6800.47
591.262	8988.91
595.2	12466.3
599.136	18553.7
603.07	26566.1
607.002	29624.3
610.932	23304.5
614.86	15266.8
618.786	10497.9
622.71	7477.23
626.632	5163.51
630.552	3756.06
634.471	2754.77
638.387	2038.11
642.301	1472.68
646.213	1208.91
650.123	896.802
654.031	1081.05
657.937	1419.77
661.842	2077.97
665.744	2855.61
669.644	3274.58
673.542	2505.85
677.438	2453.39
681.333	2745.22
685.225	3198.46
689.115	3479.41
693.004	3142.64
696.89	2495.64
700.775	1974.31
704.657	1438.69
708.538	908.27
712.416	470.978
716.293	156.74
720.167	25.458
724.04	2.099
727.911	185.229
731.78	203.487
735.646	298.144
739.511	264.413
743.374	292.387
747.235	225.319
751.094	294.051
754.951	194.526
758.806	205.522
762.659	114.083
766.511	88.922
770.36	20.943
774.207	60.817
778.053	97.486
781.896	21.858
785.738	39.366
789.577	99.39
793.415	177.336
797.251	297.612
801.084	395.279
804.916	606.387
808.746	741.66
812.574	973.118
816.4	1380.77
820.224	1871.63
824.047	2670.72
827.867	3850.04
831.685	5149.62
835.502	5530.46
839.316	5260.59
843.129	4800.01
846.94	4648.73
850.749	4806.74
854.556	5264.06
858.361	5740.67
862.164	6566.62
865.965	7410.65
869.764	8450.27
873.562	9166.96
877.357	9551.26
881.151	9747.43
884.942	9909.29
888.732	10330.6
892.52	11441
896.306	13260.5
900.09	15640.6
903.872	19503.3
907.653	25036.4
911.431	32157.5
915.208	38939.2
918.982	39874.8
922.755	37120.8
926.526	30331.2
930.295	23793.4
934.062	18695.6
937.827	14970
941.59	12525.3
945.352	10613.3
949.112	9713.04
952.869	9414.86
956.625	9719.09
960.379	9794.08
964.131	9479.41
967.881	8005.08
971.63	7171.11
975.376	7577.51
979.121	9584.27
982.864	13141.4
986.605	13239
990.344	9097.01
994.081	5835.45
997.816	3994.34
1001.55	2651.7
1005.28	1717.53
1009.01	1213.88
1012.74	906.25
1016.47	965.429
1020.19	1166.93
1023.91	1647.61
1027.63	2066.95
1031.35	2587.62
1035.07	3461.18
1038.78	4807.65
1042.49	6304.85
1046.21	7224.51
1049.92	6968.45
1053.62	6277.16
1057.33	5446.53
1061.03	5006.45
1064.73	4697.26
1068.44	4780.13
1072.13	5820.07
1075.83	8175.18
1079.53	11778
1083.22	17300.7
1086.91	25396.9
1090.6	33324.1
1094.29	29310.9
1097.97	15008.4
1101.66	6956.74
1105.34	4156.74
1109.02	2160.62
1112.7	1525.59
1116.37	1104.98
1120.05	996.08
1123.72	759.157
1127.39	691.9
1131.06	554.875
1134.73	517.157
1138.39	433.44
1142.06	369.999
1145.72	297.429
1149.38	155.405
1153.04	73.001
1156.69	59.601
1160.35	74.999
1164	109.286
1167.65	100.303
1171.3	62.539
1174.95	127.648
1178.6	72.163
1182.24	42.762
1185.88	115.775
1189.52	63.492
1193.16	8.679
1196.8	94.356
1200.43	61.591
1204.07	4.718
1207.7	35.531
1211.33	5.014
1214.96	77.108
1218.58	17.177
1222.21	35.998
1225.83	39.779
1229.45	67.502
1233.07	71.201
1236.69	63.453
1240.3	52.264
1243.92	69.597
1247.53	83.637
1251.14	79.209
1254.75	107.511
1258.35	116.199
1261.96	122.571
1265.56	177.522
1269.16	172.799
1272.76	175
1276.36	249.666
1279.96	241.702
1283.55	205.549
1287.14	167.14
1290.73	208.281
1294.32	211.823
1297.91	156.797
1301.5	226.357
1305.08	237.775
1308.66	153.346
1312.24	172.283
1315.82	177.278
1319.4	183.314
1322.97	134.011
1326.55	132.74
1330.12	142.229
1333.69	151.582
1337.26	197.346
1340.82	199.701
1344.39	173.559
1347.95	265.766
1351.51	230.346
1355.07	218.881
1358.63	242.725
1362.18	294.362
1365.74	247.478
1369.29	279.422
1372.84	300.563
1376.39	277.471
1379.94	266.599
1383.48	285.973
1387.03	256.639
1390.57	182.532
1394.11	150.682
1397.65	195.906
1401.19	67.714
1404.72	457.11
1408.26	388.224
1411.79	133.615
1415.32	187.431
1418.85	156.859
1422.37	184.822
1425.9	99.738
1429.42	49.365
1432.94	57.657
1436.46	40.438
1439.98	60.831
1443.5	120.012
1447.01	136.69
1450.53	116.962
1454.04	110.117
1457.55	121.983
1461.05	122.483
1464.56	79.811
1468.07	128.253
1471.57	57.115
1475.07	40.262
1478.57	48.771
1482.07	4.336
1485.56	71.9
1489.06	74.832
1492.55	33.342
1496.04	95.131
1499.53	136.395
1503.02	116.062
1506.5	127.532
1509.99	60.496
1513.47	0.433
