Measurement: Raman, 514 nm, ccw, Raman Data Processed
Mineral: Epidote
Rruff sample: R040092
Ideal chemistry: Ca_2_Fe^3+^Al_2_(Si_2_O_7_)(SiO_4_)O(OH)
Locality: Nahant, Massachusetts, USA
Source: University of Arizona Mineral Museum
Description: Green prismatic crystals imbedded in quartz
Measured chemistry: Ca_2.01_Al_2.00_Fe_1.00_(Si_1.00_O_4_)(Si_1.97_Fe_0.02_Al_0.01_Ti_0.01_O_7_)O(OH)
Pin_id: M00265
Orientation: Laser parallel to -a [-1 0 0]. Fiducial mark perpendicular to laser is parallel to -b* (0 -1 0)
Raman shift (cm-1)	intensity
51.466	0
55.666	650.017
59.863	1197.99
64.059	1336.64
68.253	225.948
72.445	38.103
76.635	491.524
80.823	2491.4
85.009	6466.4
89.193	10919.1
93.375	8567.85
97.554	4152.46
101.732	1961.35
105.908	1512.36
110.082	887.509
114.254	1073.56
118.424	814.23
122.592	379.42
126.758	17.153
130.922	58.549
135.083	107.905
139.243	25.974
143.401	42.169
147.557	254.642
151.711	698.897
155.863	1622.54
160.013	2975.96
164.161	6650
168.308	12900.8
172.452	18150.2
176.594	13083.8
180.734	6660.19
184.872	3584.48
189.008	2380.85
193.143	1793.32
197.275	1927.1
201.405	2401.63
205.534	2201.5
209.66	2088.53
213.784	1629.27
217.907	2965.89
222.027	5495.89
226.146	9439.39
230.263	11864.7
234.377	10105.9
238.49	9662.92
242.601	9466.36
246.709	5277.81
250.816	2202.24
254.921	1145.16
259.024	611.473
263.125	745.152
267.224	1819.62
271.321	4256.09
275.416	6622.52
279.51	3506.93
283.601	1183.29
287.69	961.945
291.778	1242.69
295.863	1496.14
299.947	1400.94
304.029	1076.36
308.108	895.013
312.186	515.081
316.262	456.677
320.336	748.151
324.408	855.502
328.478	1042.73
332.546	1470.84
336.612	2770.82
340.677	5581.68
344.739	11258.4
348.799	15595.1
352.858	12300.6
356.915	6102.97
360.969	2819.23
365.022	1089.34
369.073	115.299
373.122	325.953
377.169	363.832
381.215	178.999
385.258	1483.23
389.299	2391.13
393.339	1323.87
397.376	366.667
401.412	92.071
405.446	116.446
409.478	282.629
413.508	1386.46
417.536	3445.9
421.562	6830.71
425.586	11620.9
429.609	17580.4
433.629	26471.2
437.648	24652.3
441.665	16260.6
445.68	14848.1
449.693	17494.5
453.704	18243
457.713	15959.4
461.721	9578.01
465.726	4877.65
469.73	2338.14
473.731	1373.42
477.731	855.441
481.729	892.138
485.725	1143.48
489.72	1903.46
493.712	3857.05
497.703	6345.24
501.691	7895
505.678	8262.33
509.663	8208.19
513.646	4944.58
517.627	2294.48
521.607	893.862
525.584	316.714
529.56	166.016
533.534	94.546
537.506	292.454
541.476	391.83
545.444	693.818
549.41	1369.01
553.375	2331.86
557.337	4524.59
561.298	9292.92
565.257	11997.7
569.214	7131.02
573.17	5323.8
577.123	6237.9
581.075	9412.39
585.024	13589.2
588.972	17924.8
592.918	23584.5
596.863	29544.8
600.805	26315.7
604.746	21286.5
608.685	19328.3
612.621	19299.9
616.557	15943.2
620.49	10007.9
624.421	6234.46
628.351	4034.47
632.279	3006.16
636.205	2380.9
640.129	1798.57
644.051	1465.53
647.972	1157.14
651.89	869.375
655.807	660.292
659.722	519.665
663.636	453.69
667.547	374.283
671.457	339.427
675.365	449.111
679.271	389.321
683.175	337.042
687.077	276.265
690.978	232.107
694.877	218.85
698.774	244.365
702.669	116.348
706.562	79.75
710.454	26.578
714.344	107.903
718.232	17.598
722.118	101.551
726.002	65.015
729.885	110.992
733.766	79.608
737.645	75.859
741.522	121.682
745.397	121.122
749.271	86.129
753.143	36.721
757.013	43.339
760.881	11.648
764.748	8.412
768.613	44.572
772.476	68.75
776.337	78.155
780.196	92.814
784.054	94.733
787.91	151.93
791.764	160.469
795.616	327.408
799.467	374.776
803.316	498.584
807.163	635.841
811.008	735.556
814.851	950.739
818.693	1291.29
822.533	1705.56
826.371	2289.22
830.208	2744.39
834.042	2929.09
837.875	2873.32
841.706	2931.34
845.536	2946.48
849.363	3414.45
853.189	3937.01
857.013	4969.08
860.836	6179.55
864.656	7044.7
868.475	7192.94
872.292	7890.5
876.108	9532.64
879.922	12844.3
883.733	15649.7
887.544	15846.7
891.352	13852.6
895.159	13253.9
898.964	15346.4
902.767	19931
906.568	27734.7
910.368	38492.3
914.166	48596.8
917.962	43971.7
921.757	29481.4
925.55	18685.4
929.341	12092.3
933.13	8223.39
936.918	5990.61
940.703	4544.73
944.488	3632.98
948.27	3049.51
952.051	2801.3
955.83	2536.38
959.607	2340.81
963.383	1985.59
967.156	1820.73
970.928	1971.26
974.699	2445.13
978.468	2909.35
982.234	2518.93
986	1530.84
989.763	1013.62
993.525	832.646
997.285	769.755
1001.04	670.792
1004.8	746.529
1008.55	747.391
1012.31	1374.51
1016.06	2159.7
1019.81	2307.79
1023.56	1850.85
1027.31	1393.28
1031.05	1505.52
1034.79	1907.17
1038.53	2300.36
1042.27	2231.48
1046.01	1845.5
1049.75	1456.44
1053.48	1223.25
1057.22	1020.83
1060.95	996.501
1064.68	849.839
1068.4	775.421
1072.13	1079.51
1075.86	1877.06
1079.58	3680.05
1083.3	7288.52
1087.02	8928.38
1090.74	5292.87
1094.45	2480.21
1098.17	1224.51
1101.88	789.328
1105.59	485.028
1109.3	332.977
1113.01	234.671
1116.71	212.602
1120.42	275.609
1124.12	476.969
1127.82	108.671
1131.52	75.157
1135.22	56.742
1138.91	35.564
1142.61	16.331
1146.3	57.243
1149.99	42.699
1153.68	76.112
1157.37	83.812
1161.06	56.674
1164.74	29.317
1168.42	30.689
1172.1	10.332
1175.78	41.611
1179.46	21.013
1183.14	58.932
1186.81	103.05
1190.48	120.24
1194.15	47.389
1197.83	92.742
1201.49	127.161
1205.16	49.815
1208.82	44.871
1212.49	36.523
1216.15	36.429
1219.81	31.092
1223.46	70.438
1227.12	10.905
1230.78	37.057
1234.43	45.536
1238.08	6.958
1241.73	31.606
1245.38	10.117
1249.03	4.537
1252.67	21.452
1256.31	28.985
1259.95	14.897
1263.6	13.808
1267.23	31.44
1270.87	33.123
1274.51	12.147
1278.14	43.647
1281.77	71.624
1285.4	74.135
1289.03	26.184
1292.66	56.599
1296.28	83.278
1299.91	118.981
1303.53	8.861
1307.15	54.989
1310.77	63.017
1314.38	5.222
1318	70.598
1321.61	6.442
1325.23	52.508
1328.84	65.191
1332.45	71.776
1336.06	69.48
1339.66	77.257
1343.27	96.331
1346.87	96.985
1350.47	121.226
1354.07	128.064
1357.67	149.816
1361.26	138.89
1364.86	170.655
1368.45	165.026
1372.04	135.026
1375.63	207.409
1379.22	192.321
1382.81	159.139
1386.39	214.613
1389.98	183.626
1393.56	163.634
1397.14	131.599
1400.72	135.594
1404.3	153.829
1407.87	204.156
1411.45	148.336
1415.02	202.05
1418.59	175.568
1422.16	187.456
1425.73	215.31
1429.29	144.905
1432.86	167.319
1436.42	220.767
1439.98	220.261
1443.54	214.556
1447.1	194.873
1450.66	184.657
1454.21	156.737
1457.77	163.976
1461.32	192.056
1464.87	157.598
1468.42	151.847
1471.96	204.271
1475.51	125.598
1479.06	67.482
1482.6	78.698
1486.14	80.839
1489.68	145.965
1493.22	112.356
1496.75	82.233
1500.29	58.755
1503.82	42.81
1507.35	63.585
1510.88	34.492
1514.41	40.958
1517.94	1.426
1521.46	0.555
