Measurement: Raman, 514 nm, ccw, Raman Data Processed
Mineral: Epidote
Rruff sample: R050191
Ideal chemistry: Ca_2_Fe^3+^Al_2_(Si_2_O_7_)(SiO_4_)O(OH)
Locality: Pampa Blanca, Castrovirreyna Province, Huancavelica Department, Peru
Source: Dave Bunk Minerals
Description: Cluster of green elongated prismatic crystals
Measured chemistry: Ca_2.00_Al_2.00_(Fe^3+^_0.84_Al_0.16_)(SiO_4_)(Si_2_O_7_)O(OH)
Pin_id: L00883
Orientation: Laser parallel to (1 0 1). Fiducial mark perpendicular to laser is parallel to b [0 1 0]
Raman shift (cm-1)	intensity
53.91	0
58.864	349.632
63.817	8.41315
68.767	175.095
73.714	866.757
78.659	3815.32
83.602	12633.3
88.542	25792.8
93.48	34443.4
98.416	22472.9
103.349	10657.5
108.28	10365.1
113.208	4313
118.134	4099.66
123.058	4301.76
127.979	3910.68
132.898	3144.56
137.814	2857.79
142.728	2530.95
147.639	2480.07
152.549	3029.33
157.455	3583.32
162.359	6637.93
167.261	9197.93
172.161	7265.34
177.058	4370.18
181.952	2343.38
186.845	1864.84
191.734	2419.43
196.622	3280.05
201.507	3774.95
206.389	2786.28
211.269	2032.96
216.147	2926.58
221.022	5413.69
225.895	6839.09
230.765	6702.61
235.633	7005.87
240.498	6131.45
245.361	4381.7
250.222	2518.01
255.08	1876.84
259.936	3985.55
264.789	7031.36
269.64	12235
274.488	14149.1
279.334	12450.5
284.178	7673.38
289.019	6331.56
293.857	6946.96
298.693	7516.42
303.527	9142.69
308.358	10679.6
313.187	9339.01
318.013	7659.93
322.837	7223.27
327.659	6011
332.478	3980.03
337.294	4040.3
342.108	5992.73
346.92	6738.32
351.729	4834.13
356.535	3967.5
361.34	4354.52
366.141	3546.67
370.94	1553.74
375.737	100.431
380.531	342.844
385.323	185.612
390.113	300.445
394.9	715.308
399.684	637.363
404.466	102.174
409.245	2246.68
414.022	7753.9
418.797	15864.8
423.569	22939.2
428.338	27185.3
433.105	24525.1
437.87	23768.1
442.632	30648.5
447.391	42656.7
452.149	47965.7
456.903	41063.5
461.655	25689.9
466.405	12673
471.152	6263.43
475.897	3554.91
480.639	2517.97
485.378	2875.01
490.116	4426.5
494.85	6434.35
499.582	7943.49
504.312	7620.82
509.039	5627.33
513.764	3361.83
518.486	1880.17
523.206	1348.7
527.923	433.847
532.638	80
537.35	135.408
542.059	259.717
546.766	1297.48
551.471	4050.47
556.173	12013.9
560.873	19555.7
565.57	19175.1
570.264	11201
574.957	7709.36
579.646	10351.5
584.333	15007
589.018	21179.9
593.7	27065.1
598.379	27523.1
603.056	23952.1
607.73	20501.5
612.402	16258.4
617.072	10538.4
621.739	6174.19
626.403	3785.84
631.065	2776.02
635.724	1993.51
640.381	1391.29
645.035	1120.65
649.687	938.065
654.336	854.564
658.983	763.593
663.627	791.095
668.268	956.487
672.907	1003.92
677.544	1456.72
682.178	2055.55
686.809	2302.41
691.438	2119.49
696.065	1269.61
700.688	807.742
705.31	298.84
709.929	112.552
714.545	5.20654
719.158	66.9619
723.77	159.703
728.378	249.773
732.984	156.566
737.588	210.801
742.189	307.562
746.787	235.805
751.383	34.9268
755.976	11.1558
760.567	243.443
765.155	370.711
769.741	315.19
774.324	154.908
778.904	60.831
783.482	34.0547
788.058	79.1567
792.631	90.7568
797.201	124.912
801.769	407.74
806.334	612.317
810.897	933.965
815.457	1168.63
820.014	1743.84
824.569	2285.03
829.122	2894.18
833.671	2981.37
838.219	3112.68
842.763	3443.61
847.306	4273.24
851.845	6070.32
856.382	8979.84
860.917	12377.2
865.448	14385.9
869.978	16790.3
874.505	22379.3
879.029	31821.2
883.55	37214.9
888.069	31155.1
892.586	22036.3
897.1	18665.3
901.611	20208.9
906.12	27268.1
910.626	35223.3
915.129	35369
919.63	25970.2
924.129	15582.8
928.625	9049.1
933.118	5432.6
937.609	3583.82
942.097	2650.62
946.582	2148.1
951.065	2333.24
955.546	2749.01
960.023	2603.47
964.499	2765.61
968.971	3892.47
973.441	6870.06
977.909	9376.45
982.374	8259.91
986.836	4839.86
991.295	2600.74
995.753	1621.85
1000.21	1432.66
1004.66	1473.27
1009.11	1886.24
1013.55	3377.93
1018	4226.77
1022.44	3238.04
1026.88	3330.67
1031.32	4635.6
1035.75	6377.03
1040.18	7556.38
1044.61	6597.47
1049.04	5053.46
1053.46	4719.52
1057.88	5023.68
1062.3	5356.21
1066.71	5015.79
1071.13	5749.25
1075.54	9319.97
1079.94	16984.2
1084.35	22375.5
1088.75	17363
1093.15	7567.87
1097.55	3044.21
1101.94	1486.61
1106.34	941.907
1110.73	772.2
1115.11	1270.48
1119.5	2463.06
1123.88	2748.4
1128.26	1286.56
1132.63	173.95
1137.01	25.2461
1141.38	59.791
1145.75	132.214
1150.12	101.549
1154.48	125.247
1158.84	273.349
1163.2	143.46
1167.55	21.6465
1171.91	128.75
1176.26	14.8955
1180.61	63.3994
1184.95	26.7539
1189.29	14.6104
1193.63	4.92188
1197.97	3.38184
1202.31	119.669
1206.64	57.4194
1210.97	93.3144
1215.29	176.242
1219.62	71.3897
1223.94	300.666
1228.26	165.337
1232.57	238.976
1236.89	262.74
1241.2	257.76
1245.51	309.895
1249.81	262.799
1254.12	265.658
1258.42	275.495
1262.72	268.216
1267.01	308.981
1271.3	234.91
1275.59	269.228
1279.88	289.035
1284.17	283.678
1288.45	205.233
1292.73	188.866
1297.01	137.702
1301.28	122.781
1305.55	119.751
1309.82	275.651
1314.09	115.51
1318.35	200.298
1322.61	205.307
1326.87	163.267
1331.13	94.4116
1335.38	166.542
1339.63	50.3579
1343.88	254.591
1348.12	226.406
1352.37	275.88
1356.61	317.748
1360.85	252.975
1365.08	259.032
1369.31	264.333
1373.54	254.847
1377.77	201.274
1381.99	262.913
1386.22	153.918
1390.43	96.3755
1394.65	204.744
1398.87	181.559
1403.08	163.262
1407.29	128.576
1411.49	22.3438
1415.69	69.3579
1419.89	177.997
1424.09	215.873
1428.29	94.6426
1432.48	187.558
1436.67	124.674
1440.86	132.894
1445.04	125.809
1449.23	166.157
1453.4	117.008
1457.58	115.29
1461.76	107.291
1465.93	166.876
1470.1	140.285
1474.26	28.3203
1478.43	40.3418
1482.59	138.14
1486.75	125.085
1490.9	55.8662
1495.06	152.411
1499.21	4.16406
1503.35	147.446
1507.5	113.178
1511.64	129.075
1515.78	140.062
1519.92	139.64
1524.05	88.0835
1528.18	125.191
1532.31	77.9898
1536.44	52.627
1540.56	83.6514
1544.69	129.989
1548.8	71.4609
1552.92	420.257
1557.03	202.006
1561.14	157.33
1565.25	14.5112
1569.36	91.0523
