Measurement: Raman, 514 nm, ccw, Raman Data Processed
Mineral: Epididymite
Rruff sample: R070580
Ideal chemistry: Na_2_Be_2_Si_6_O_15_H_2_O
Locality: Narsarsuk, Narsaq, Kitaa, Greenland
Source: James Shigley
Description: A translucent to white elongated prism.
Measured chemistry: (Na_1.97_K_0.03_)_Σ=2_Be_2_Si_6.00_O_15_·H_2_O; trace amounts of Al; Be and H_2_O assumed by stoichiometry
Pin_id: M01839
Orientation: Laser parallel to b* (0 1 0). Fiducial mark perpendicular to laser is parallel to -c [0 0 -1]
Raman shift (cm-1)	intensity
111.206	0
116.155	335
121.101	1729.4
126.045	2893.48
130.985	4135.85
135.923	3637.53
140.858	1285.03
145.79	884.781
150.719	1041.24
155.646	584.108
160.569	71.1436
165.49	24.8896
170.408	99.1455
175.324	47.1357
180.237	29.1714
185.146	252.675
190.053	707.711
194.958	1000.31
199.859	1187.51
204.758	672.306
209.654	313.967
214.547	210.871
219.438	116.487
224.326	433.046
229.211	1034.08
234.093	2032.56
238.972	3346.43
243.849	3932.68
248.723	2876.31
253.594	2754.32
258.462	2881.17
263.328	3152.12
268.191	2933.18
273.051	1620.95
277.908	687.518
282.763	213.441
287.615	200.879
292.464	31.8818
297.31	3.04394
302.154	5.55176
306.995	151.698
311.833	138.82
316.668	426.586
321.501	644.756
326.331	907.781
331.158	1406.54
335.983	1719.52
340.804	2346.7
345.623	2880.06
350.44	2234.48
355.253	1428.81
360.064	1058.46
364.872	860.873
369.677	1038.71
374.48	1810.77
379.28	2587.13
384.077	2599.67
388.872	1435.44
393.663	653.434
398.452	1248.59
403.239	2579.94
408.022	4983.62
412.803	2634.42
417.581	353.326
422.357	4.61816
427.129	57.294
431.899	94.9131
436.667	14.1865
441.431	174.316
446.193	158.213
450.952	23.4639
455.709	103.914
460.463	281.021
465.214	1040.96
469.962	2130.75
474.708	3643.15
479.451	3347.56
484.191	1442.96
488.929	778.35
493.663	330.718
498.396	450.065
503.125	920.405
507.852	2584.09
512.576	7924.14
517.298	15351.1
522.016	18280.6
526.732	6645.98
531.446	2388.47
536.156	1105.96
540.865	595.801
545.57	412.338
550.273	165.764
554.973	182.951
559.67	257.727
564.364	290.786
569.056	288.232
573.746	339.528
578.432	968.312
583.116	1618.71
587.798	1359.76
592.476	604.571
597.152	135.177
601.825	13.7285
606.496	123.263
611.164	150.304
615.829	275.501
620.492	365.63
625.152	512.91
629.809	567.936
634.464	514.714
639.116	290.226
643.765	142.465
648.412	122.415
653.056	37.9307
657.697	30.9844
662.336	143.968
666.972	22.2861
671.605	47.3223
676.236	98.4912
680.864	4.7793
685.49	56.501
690.113	122.089
694.733	47.5488
699.351	78.3106
703.965	101.384
708.578	152.233
713.187	196.135
717.794	130.745
722.399	129.904
727.001	99.7188
731.6	5.74707
736.196	221.47
740.79	277.341
745.381	314.611
749.97	309.421
754.556	528.381
759.139	571.035
763.72	386.391
768.298	466.568
772.874	383.327
777.447	350.207
782.017	328.32
786.585	455.712
791.15	695.004
795.712	603.577
800.272	561.756
804.829	275.185
809.384	305.699
813.936	308.69
818.485	375.248
823.032	316.312
827.576	327.175
832.118	124.383
836.657	241.439
841.193	110.13
845.727	229.939
850.258	249.013
854.787	169.217
859.313	151.885
863.836	151.931
868.357	54.1797
872.875	190.705
877.391	110.365
881.904	326.664
886.414	102.094
890.922	233.405
895.427	234.61
899.93	203.712
904.43	99.6953
908.927	5.57129
913.422	37.3486
917.914	161.051
922.404	160.696
926.891	114.383
931.376	59.1006
935.858	75.8818
940.337	62.6191
944.814	90.4902
949.289	13.3867
953.76	105.28
958.229	107.664
962.696	50.044
967.16	70.3213
971.621	33.8213
976.08	25.5293
980.537	5.78223
984.99	56.9121
989.442	228.964
993.89	86.9375
998.336	253.002
1002.78	323.149
1007.22	654.446
1011.66	669.842
1016.1	274.33
1020.53	197.908
1024.96	62.583
1029.39	94.3603
1033.81	102.247
1038.24	220.219
1042.66	276.001
1047.07	677.188
1051.49	712.582
1055.9	388.116
1060.31	438.797
1064.72	483.628
1069.13	483.644
1073.53	441.78
1077.93	230.077
1082.33	242.545
1086.72	262.383
1091.12	273.351
1095.51	49.1016
1099.89	112.995
1104.28	218.864
1108.66	408.446
1113.04	659.074
1117.42	1121.2
1121.79	1177.13
1126.16	1723.76
1130.53	2520.9
1134.9	3665.95
1139.27	3716.59
1143.63	2776.07
1147.99	1744.76
1152.35	966.848
1156.7	691.801
1161.05	331.16
1165.4	156.787
1169.75	248.662
1174.09	223.863
1178.44	376.291
1182.78	292.949
1187.11	104.832
1191.45	40.9395
1195.78	186.815
1200.11	169.85
1204.44	202.656
1208.76	131.69
1213.08	150.838
1217.4	16.0879
1221.72	27.8438
1226.03	24.2129
1230.35	264.631
1234.66	30.2871
1238.96	65.0644
1243.27	65.7715
1247.57	178.018
1251.87	174.533
1256.17	157.26
1260.46	285.15
1264.75	31.4473
1269.04	65.6894
1273.33	248.106
1277.62	102.719
1281.9	158.887
1286.18	108.897
1290.45	21.9258
1294.73	124.014
1299	209.924
1303.27	160.719
1307.54	28.6973
1311.8	348.824
1316.07	280.088
1320.33	244.519
1324.58	169.113
1328.84	109.41
1333.09	227.65
1337.34	219.607
1341.59	189.668
1345.83	146.783
1350.08	141.06
1354.32	224.549
1358.55	261.185
1362.79	151.435
1367.02	193.139
1371.25	143.816
1375.48	57.8867
1379.71	152.701
1383.93	184.637
1388.15	133.318
1392.37	82.4883
1396.58	20.4043
1400.8	106.82
1405.01	108.359
1409.21	71.8731
1413.42	27.7461
1417.62	27.666
1421.83	115.211
1426.02	185.131
1430.22	300.027
1434.41	403.244
1438.61	264.69
1442.79	666.883
1446.98	530.219
1451.16	732.701
1455.35	515.984
1459.52	429.574
1463.7	395.293
1467.87	420.699
1472.05	274.857
1476.21	300.19
1480.38	368.41
1484.55	171.113
1488.71	295.277
1492.87	93.9648
1497.03	0.685547
1501.18	255.232
1505.33	162.299
1509.48	101.492
1513.63	115.033
1517.77	123.984
1521.92	180.043
1526.06	151.043
1530.19	110.795
1534.33	285.098
1538.46	13.6328
1542.59	174.373
1546.72	264.838
1550.85	214.123
1554.97	63.3594
1559.09	52.4902
