Measurement: Raman, 514 nm, ccw, Raman Data Processed
Mineral: Epididymite
Rruff sample: R060773
Ideal chemistry: Na_2_Be_2_Si_6_O_15_H_2_O
Locality: unknown
Source: Michael Scott
Description: Colorless platy crystals forming a pseudohexagonal aggregate
Pin_id: M00148
Orientation: Laser parallel to c* (0 0 1). Fiducial mark perpendicular to laser is parallel to a [1 0 0]
Raman shift (cm-1)	intensity
102.116	0
107.047	456.372
111.976	1159.44
116.903	3228.55
121.827	6826.56
126.749	7058.96
131.668	13027.7
136.585	7108.18
141.5	1535.53
146.412	830.847
151.321	1069.31
156.229	394.56
161.134	54.166
166.036	162
170.936	171.413
175.834	13.9951
180.729	326.6
185.622	991.342
190.512	2161.32
195.4	3544.9
200.286	3848.78
205.169	2064.74
210.049	903.91
214.928	734.161
219.803	372.918
224.677	820.482
229.548	1570.41
234.416	3569.53
239.282	6441.88
244.146	6047.48
249.007	3680
253.866	2547.92
258.722	2359.64
263.576	1351.71
268.427	619.926
273.276	65.1426
278.123	109.455
282.967	93.042
287.809	105.353
292.648	76.8213
297.485	90.7568
302.319	114.707
307.151	18.3457
311.98	122.677
316.807	390.695
321.631	499.966
326.454	883.28
331.273	1750.84
336.09	3250.53
340.905	6769.16
345.717	9796.69
350.527	5313.36
355.334	3510.99
360.139	3526.06
364.941	3654.31
369.741	5442.19
374.538	9220.71
379.333	14355.9
384.126	10851.7
388.916	5344.24
393.703	3124.45
398.488	5100.4
403.271	10749.9
408.051	16922
412.828	6488.65
417.603	1420.54
422.376	708.898
427.146	448.268
431.914	267.328
436.679	204.482
441.442	144.7
446.202	63.3545
450.96	31.1768
455.715	316.464
460.467	489.977
465.218	774.073
469.965	1707.87
474.711	3146.37
479.454	3037.59
484.194	3254.57
488.932	2546.35
493.667	1872
498.4	2391.55
503.13	3908.01
507.858	8280.39
512.583	21865.7
517.306	45028.9
522.026	38646.1
526.744	12968.2
531.459	4780.32
536.172	2344.62
540.882	1502.62
545.59	1020.14
550.295	572.176
554.998	593.346
559.698	486
564.396	562.633
569.091	769.91
573.784	2034.46
578.474	4593.69
583.162	8336.64
587.847	5335.78
592.529	1842.52
597.209	885.205
601.887	740.121
606.562	835.939
611.235	635.686
615.905	770.357
620.572	688.957
625.237	1349.48
629.9	1981.93
634.56	2040.35
639.217	1108.64
643.872	694.957
648.524	612.258
653.174	560.793
657.821	285.295
662.466	134.731
667.108	335.156
671.748	313.547
676.385	143.045
681.02	203.594
685.652	83.9707
690.281	197.047
694.908	61.2715
699.533	13.4941
704.155	100.428
708.774	62.6055
713.391	144.766
718.005	120.34
722.617	94.0566
727.226	108.832
731.833	217.676
736.437	133.318
741.039	305.682
745.638	333.768
750.234	459.582
754.828	458.121
759.419	599.385
764.008	415.371
768.595	141.08
773.178	356.512
777.759	369.666
782.338	349.982
786.914	533.719
791.488	484.402
796.059	467.397
800.627	257.551
805.193	650.668
809.756	572.414
814.317	541.455
818.875	691.324
823.431	585.646
827.984	838.646
832.534	569.697
837.082	676.449
841.627	657.316
846.17	758.891
850.71	1392.89
855.248	2266.85
859.783	2606.86
864.316	1963.16
868.846	1260.83
873.373	807.682
877.898	701.383
882.42	665.141
886.94	508.807
891.457	297.391
895.971	341.897
900.483	165.342
904.993	243.684
909.5	29.0254
914.004	75.6699
918.505	254.275
923.004	116.943
927.501	61.168
931.995	24.7539
936.486	62.3047
940.975	44.7324
945.461	103.672
949.945	90.9883
954.426	96.5703
958.904	11.2461
963.38	31.1816
967.853	103.519
972.324	273.379
976.792	148.619
981.258	523.539
985.72	421.144
990.181	515.393
994.639	631.93
999.094	889.691
1003.55	1514.63
1008	1111.76
1012.44	1077.07
1016.89	1194.57
1021.33	1117.27
1025.77	1397.17
1030.21	1469.29
1034.64	1903.62
1039.07	2300.17
1043.5	2193.96
1047.93	2353.87
1052.35	2105.79
1056.78	1745.67
1061.19	1715.58
1065.61	1632.77
1070.02	1587.42
1074.43	1229.77
1078.84	1202.27
1083.25	1058.31
1087.65	770.547
1092.05	929.707
1096.45	1248.19
1100.85	1579
1105.24	2069.3
1109.63	2726.52
1114.02	4038.4
1118.4	4825.56
1122.78	5770
1127.16	7660.7
1131.54	10984.7
1135.92	14538.9
1140.29	14173.4
1144.66	9781.19
1149.02	5751.24
1153.39	3430.56
1157.75	2358.14
1162.11	1682
1166.46	1190.13
1170.82	939.537
1175.17	418.205
1179.52	383.164
1183.86	253.555
1188.21	321.338
1192.55	165.648
1196.89	121.174
1201.22	77.8789
1205.55	145.264
1209.88	30.4277
1214.21	21.0742
1218.54	28.6934
1222.86	182.719
1227.18	206.006
1231.5	105.418
1235.81	325.291
1240.12	303.066
1244.43	345.334
1248.74	407.51
1253.04	214.906
1257.34	134.5
1261.64	513.33
1265.94	435.394
1270.23	543.648
1274.52	496.539
1278.81	558.75
1283.1	351.568
1287.38	386.566
1291.66	353.26
1295.94	326.611
1300.21	434.18
1304.48	421.912
1308.75	296.801
1313.02	237.834
1317.29	344.994
1321.55	418.264
1325.81	117.777
1330.06	309.272
1334.32	28.2246
1338.57	40.8809
1342.82	44.0586
1347.06	45.0352
1351.31	68.8926
1355.55	229.367
1359.79	40.9082
1364.02	210.478
1368.26	227.434
1372.49	188.496
1376.71	110.455
1380.94	96.3574
1385.16	99.5684
1389.38	129.731
1393.6	357.197
1397.81	157.734
1402.02	221.56
1406.23	280.541
1410.44	154.82
1414.64	179.066
1418.85	282.346
1423.04	141.91
1427.24	560.541
1431.43	667.688
1435.62	1116.65
1439.81	1807.99
1444	2089.55
1448.18	2152.87
1452.36	2277.57
1456.54	2390.22
1460.71	1855.03
1464.89	1225.44
1469.06	872.293
1473.22	919.01
1477.39	644.201
1481.55	400.426
1485.71	450.615
1489.86	139.871
1494.02	28.1543
1498.17	199.762
1502.32	21.9668
1506.46	79.3867
1510.61	7.98633
1514.75	178.877
1518.88	252.246
1523.02	193.902
1527.15	114.025
1531.28	232.691
1535.41	361.566
1539.53	355.91
1543.66	130.102
1547.78	211.75
1551.89	305.961
1556.01	428.225
1560.12	144.57
1564.23	72.1992
1568.33	83.5019
