Measurement: Raman, 514 nm, ccw, Raman Data Processed
Mineral: Epidote
Rruff sample: R040089
Ideal chemistry: Ca_2_Fe^3+^Al_2_(Si_2_O_7_)(SiO_4_)O(OH)
Locality: Grafton County, New Hampshire, USA
Source: University of Arizona Mineral Museum
Description: Dark green coarsely crystalline massive
Measured chemistry: Ca_2.00_(Al_2.36_Fe^3+^_0.64_)[Si_2.00_O_7_][Si_1.00_O_4_]O(OH)
Pin_id: M00263
Orientation: Laser parallel to -b* (0 -1 0). Fiducial mark perpendicular to laser is parallel to c [0 0 1]
Raman shift (cm-1)	intensity
127.288	0
131.436	157.438
135.582	1588.86
139.726	3398.63
143.868	3140.64
148.008	2918.43
152.147	4233.64
156.284	3229.3
160.418	3376.92
164.551	6791.24
168.683	12836.6
172.812	13780.6
176.939	9050.75
181.065	5197
185.188	3118.88
189.31	2053.08
193.43	1131.37
197.549	571.345
201.665	366.795
205.779	354.2
209.892	160.411
214.003	92.645
218.112	384.911
222.219	301.652
226.324	132.343
230.428	429.603
234.529	1651.72
238.629	3633.36
242.727	7284.51
246.823	13445.2
250.917	19445.2
255.01	16877.4
259.101	9762.21
263.189	5739.74
267.276	4048.88
271.362	3339.62
275.445	3458.24
279.526	3634.27
283.606	3140.57
287.684	3147.14
291.76	3982.64
295.834	6145.76
299.907	8173.55
303.978	6722
308.046	3909.82
312.113	2306.5
316.179	1271.5
320.242	1274.07
324.304	1804.8
328.363	2414.04
332.421	3311.63
336.478	4815.79
340.532	7322.82
344.585	10208.1
348.635	16463.5
352.684	24989.1
356.731	24284.8
360.777	14810.2
364.82	7482.48
368.862	3882.88
372.902	2031.2
376.94	950.133
380.977	36.164
385.012	318.079
389.044	264.737
393.075	29.138
397.105	91.578
401.132	3.237
405.158	70.973
409.182	22.163
413.204	31.886
417.224	324.971
421.243	1521.07
425.26	3742.26
429.275	6603.61
433.288	7834.98
437.3	9316.55
441.309	12118.5
445.317	15930.9
449.323	23503.7
453.328	34576.9
457.331	32970.1
461.331	26513.3
465.33	21126.5
469.328	16399.6
473.323	12292.7
477.317	9005.79
481.309	7098.91
485.3	6422.14
489.288	6455.33
493.275	6729.89
497.26	6543.07
501.243	7105.46
505.225	8487.82
509.205	10570.1
513.183	11982.4
517.159	10104.6
521.133	6756.72
525.106	5588.78
529.077	5510.82
533.046	3362.86
537.014	1717.14
540.98	879.548
544.944	627.082
548.906	491.58
552.867	658.398
556.825	1292.55
560.783	2783.39
564.738	6397.06
568.692	14935.9
572.643	16969.8
576.594	7273.44
580.542	3354.37
584.489	2617.02
588.434	2769.71
592.377	3870.75
596.318	5483.35
600.258	8426.4
604.196	11921.9
608.132	9923.62
612.067	6953.34
616	4766.68
619.931	3378.72
623.861	2085.52
627.788	1049.82
631.714	708.96
635.639	583.93
639.561	413.26
643.482	327.21
647.401	129.49
651.319	177.085
655.234	433.12
659.148	718.045
663.061	596.052
666.971	482.011
670.88	666.955
674.787	594.495
678.693	793.644
682.597	797.396
686.499	1202.74
690.399	1784.69
694.298	1820.21
698.195	1528.34
702.09	1197.31
705.984	963.597
709.876	624.969
713.766	500.11
717.654	142.879
721.541	40.111
725.426	18.09
729.31	62.273
733.191	23.825
737.071	26.327
740.95	114.619
744.827	199.979
748.702	40.52
752.575	88.963
756.447	31.428
760.316	63.181
764.185	108.947
768.051	100.693
771.916	6.428
775.78	13.833
779.641	44.916
783.501	161.619
787.359	119.409
791.216	47.165
795.071	187.112
798.924	141.527
802.775	53.439
806.625	39.253
810.474	162.195
814.32	250.728
818.165	436.761
822.008	358.316
825.85	334.419
829.69	543.079
833.528	867.303
837.364	1120.1
841.199	1123.47
845.033	1335.44
848.864	1428
852.694	1887.22
856.523	2696.1
860.349	3324.58
864.174	4242.71
867.998	5430.43
871.819	7216.17
875.639	9847.24
879.458	12628.2
883.274	13876.3
887.09	11407.5
890.903	8646.17
894.715	6997.36
898.525	5688.31
902.334	4816.03
906.14	4726.32
909.946	5130.99
913.749	5927.79
917.551	6400.57
921.352	5558.35
925.15	4197.53
928.947	2942.97
932.743	1868.45
936.537	1308.52
940.329	834.41
944.119	721.081
947.908	638.476
951.696	878.639
955.481	558.965
959.265	429.975
963.048	461.745
966.829	614.141
970.608	887.112
974.385	1210.43
978.161	1864.49
981.936	2988.62
985.708	4052.84
989.479	3657.16
993.249	2161.59
997.017	1267.35
1000.78	826.163
1004.55	444.472
1008.31	319.307
1012.07	96.549
1015.83	255.969
1019.59	471.552
1023.35	777.575
1027.1	939.581
1030.86	886.545
1034.61	843.587
1038.36	1290.52
1042.11	1667.89
1045.85	2245.57
1049.6	2275.21
1053.34	1818.69
1057.08	1431.9
1060.82	1111.77
1064.56	1171.89
1068.3	1402.33
1072.04	1413.21
1075.77	1574.16
1079.5	1825.74
1083.23	2246.2
1086.96	3407.75
1090.69	4546.82
1094.42	5249.77
1098.14	3692.92
1101.87	1886.64
1105.59	1186.77
1109.31	880.688
1113.03	484.699
1116.74	359.885
1120.46	387.166
1124.17	506.232
1127.88	490.548
1131.59	244.874
1135.3	174.469
1139.01	63.778
1142.71	62.196
1146.42	182.331
1150.12	206.81
1153.82	239.777
1157.52	292.336
1161.22	147.562
1164.92	35.265
1168.61	1.483
1172.3	77.716
1175.99	116.146
1179.68	350.523
1183.37	469.042
1187.06	364.9
1190.75	130.348
1194.43	24.268
1198.11	240.727
1201.79	65.775
1205.47	137.991
1209.15	370.355
1212.83	362.889
1216.5	405.03
1220.17	356.953
1223.84	68.733
1227.51	117.808
1231.18	126.357
1234.85	184.602
1238.51	578.254
1242.18	558.804
1245.84	599.176
1249.5	449.016
1253.16	128.86
1256.82	108.597
1260.47	37.751
1264.12	2.972
1267.78	415.616
1271.43	623.953
1275.08	641.778
1278.73	628.98
1282.37	526.166
1286.02	362.416
1289.66	157.043
1293.3	175.72
1296.94	197.173
1300.58	228.851
1304.22	594.121
1307.86	346.354
1311.49	285.928
1315.12	189.49
1318.76	269.204
1322.38	118.923
1326.01	9.679
1329.64	111.542
1333.27	343.018
1336.89	784.016
1340.51	973.188
1344.13	899.656
1347.75	606.039
1351.37	425.821
1354.98	214.498
1358.6	272.893
1362.21	311.105
1365.82	581.185
1369.43	728.457
1373.04	1047.15
1376.65	914.641
1380.25	693.309
1383.86	792.204
1387.46	542.47
1391.06	318.552
1394.66	220.723
1398.26	187.91
1401.85	403.727
1405.45	628.433
1409.04	833.266
1412.63	952.789
1416.22	970.654
1419.81	826.779
1423.4	638.146
1426.99	483.389
1430.57	218.705
1434.15	22.29
1437.73	88.501
1441.32	281.132
1444.89	604.709
1448.47	698.428
1452.05	917.918
1455.62	1004.91
1459.19	726.49
1462.76	708.139
1466.33	378.649
1469.9	308.462
1473.47	129.054
1477.03	160.779
1480.6	295.123
1484.16	488.643
1487.72	849.175
1491.28	972.374
1494.83	1183.31
1498.39	1020.89
1501.94	840.088
1505.5	759.273
1509.05	417.348
1512.6	144.95
1516.15	209.122
1519.69	12.479
1523.24	75.974
1526.79	0
