Measurement: Raman, 514 nm, ccw, Raman Data Processed
Mineral: Epidote
Rruff sample: R050064
Ideal chemistry: Ca_2_Fe^3+^Al_2_(Si_2_O_7_)(SiO_4_)O(OH)
Locality: East Xichang City, Meigu County, Sichuan Province, China
Source: Rock Currier
Description: Green prismatic crystals
Measured chemistry: (Ca_1.99_Mn_0.01_)_Î£=2_Fe^3+^_1.00_Al_2.00_(Si_2.00_O_7_)(Si_1.00_O_4_)O(OH);
Pin_id: L00201
Orientation: Laser parallel to -b* (0 -1 0). Fiducial mark perpendicular to laser is parallel to -c [0 0 -1]
Raman shift (cm-1)	intensity
73.319	0
77.525	99.064
81.728	0.835
85.929	246.544
90.128	1124.66
94.324	1180.24
98.519	684.376
102.712	252.426
106.902	100.125
111.09	25.848
115.277	27.422
119.461	32.331
123.643	417.269
127.823	1762.57
132.001	2854
136.176	1945.31
140.35	2361.36
144.521	4241.05
148.691	4064.29
152.858	4152.04
157.024	8510.13
161.187	18487.4
165.348	24734.8
169.507	17372.1
173.664	9829.56
177.819	4867.84
181.971	2385.71
186.122	1195.98
190.271	894.842
194.417	1558.35
198.562	3203.55
202.704	3550.45
206.844	1912.09
210.983	859.459
215.119	702.587
219.253	922.482
223.385	1617.15
227.515	2981.41
231.643	6154.46
235.769	14903.2
239.893	27061.9
244.014	23724
248.134	11475.5
252.252	4612.16
256.367	2110.67
260.481	1106.5
264.592	964.397
268.702	1534.22
272.809	2985.88
276.915	3407.21
281.018	3408.5
285.119	6445.46
289.218	14740.1
293.316	19507.2
297.411	13365.2
301.504	7253.85
305.595	3384.26
309.684	1728.38
313.771	1463.19
317.856	2182.67
321.939	4210.74
326.02	5470.37
330.099	5573.56
334.176	7007.31
338.251	11461.6
342.323	21796.5
346.394	36702
350.463	36178.1
354.53	21344.7
358.594	10072
362.657	4643.78
366.718	2214.16
370.777	763.107
374.833	11.391
378.888	331.486
382.941	279.617
386.992	19.691
391.04	39.46
395.087	102.868
399.132	215.953
403.174	158.12
407.215	69.968
411.254	835.865
415.29	2477.63
419.325	6381.27
423.358	11004.8
427.389	12999.2
431.417	17974.5
435.444	23040.8
439.469	21968
443.492	29756.2
447.512	49915.5
451.531	56135.6
455.548	48926.4
459.563	32077.9
463.576	16810.1
467.587	9222.92
471.596	5656.29
475.603	4429.21
479.608	4053.63
483.611	4785.53
487.612	6434.88
491.611	10660.7
495.608	18546.9
499.603	22283.5
503.596	17210.5
507.587	12807.9
511.577	7795.62
515.564	4099.71
519.549	3957.13
523.533	3881.89
527.514	2046.95
531.493	898.308
535.471	441.323
539.447	231.684
543.42	288.981
547.392	747.01
551.362	1665.76
555.329	4028.66
559.295	12106.4
563.259	25597.3
567.221	18624.3
571.181	7276.42
575.139	4095.82
579.095	4589.74
583.049	6726.63
587.002	8968.24
590.952	11428.7
594.9	16730.5
598.847	18187.6
602.792	12724.6
606.734	9288.94
610.675	8053.37
614.614	6671.61
618.55	4086.56
622.485	2357.15
626.418	1410.78
630.349	856.368
634.279	569.486
638.206	388.597
642.131	209.617
646.055	179.745
649.976	103.13
653.896	68.948
657.814	63.23
661.729	128.972
665.643	159.459
669.555	255.665
673.465	332.583
677.373	687.204
681.28	1304.52
685.184	2223.51
689.087	2648.17
692.987	1771.5
696.886	974.784
700.783	598.337
704.677	342.453
708.57	170
712.462	74.091
716.351	2.614
720.238	58.362
724.124	52.8
728.007	64.193
731.889	75.577
735.769	76.992
739.647	73.429
743.523	99.859
747.397	120.387
751.269	49.139
755.139	86.006
759.008	36.02
762.875	5.936
766.739	22.994
770.602	22.807
774.463	20.521
778.323	5.129
782.18	52.016
786.035	110.263
789.889	56.9
793.741	90.971
797.591	128.511
801.439	161.546
805.285	233.095
809.129	227.172
812.971	286.787
816.812	304.955
820.651	371.683
824.488	453.976
828.323	670.839
832.156	788.277
835.987	955.297
839.817	1103.9
843.644	1387.1
847.47	1691.9
851.294	2203.3
855.116	2854.31
858.936	4003.92
862.755	5642.15
866.571	7901.61
870.386	10618.4
874.199	13796
878.01	14289.8
881.82	10619.3
885.627	7583.34
889.433	5448.44
893.236	4135.76
897.038	3783.38
900.838	3888.45
904.637	4791.75
908.433	6045.89
912.228	7234.39
916.021	7006.93
919.812	5168.78
923.601	3119.48
927.388	2051.79
931.174	1376.05
934.958	978.328
938.739	820.646
942.52	633.92
946.298	605.145
950.074	519.158
953.849	506.75
957.622	524.03
961.393	642.383
965.162	887.224
968.93	1263.32
972.696	2157.48
976.459	3833.76
980.222	4688.18
983.982	3214.71
987.74	1650.34
991.497	861.061
995.252	522.894
999.005	276.839
1002.76	146.931
1006.51	123.428
1010.25	106.334
1014	126.871
1017.74	286.1
1021.49	312.015
1025.23	371.71
1028.96	607.33
1032.7	1240.43
1036.44	1852.99
1040.17	2456.05
1043.9	2317.55
1047.63	1663.49
1051.36	1262.96
1055.09	1193.96
1058.81	1497.47
1062.54	1466.47
1066.26	1276.92
1069.97	1295.72
1073.69	1738.92
1077.41	2672.47
1081.12	4429.32
1084.84	6975.47
1088.55	5012.71
1092.25	2318
1095.96	1180.23
1099.67	721.406
1103.37	503.053
1107.07	412.048
1110.77	344.389
1114.47	284.932
1118.16	254.332
1121.86	382.644
1125.55	248.42
1129.24	156.38
1132.93	97.98
1136.62	59.148
1140.31	39.315
1143.99	63.158
1147.67	22.264
1151.35	6.285
1155.03	6.3
1158.71	17.792
1162.39	33.57
1166.06	0.107
1169.73	29.689
1173.4	67.469
1177.07	21.49
1180.74	38.942
1184.4	44.449
1188.07	35.754
1191.73	56.843
1195.39	54.913
1199.05	24.864
1202.7	41.745
1206.36	49.618
1210.01	42.474
1213.66	64.304
1217.31	14.1
1220.96	10.853
1224.6	22.555
1228.25	39.203
1231.89	5.786
1235.53	13.735
1239.17	1.386
1242.81	42.209
1246.44	19.236
1250.08	22.466
1253.71	14.949
1257.34	15.663
1260.97	29.557
1264.6	24.655
1268.22	22.009
1271.85	23.423
1275.47	1.513
1279.09	20.383
1282.71	0.123
1286.33	26.002
1289.94	13.238
1293.56	33.409
1297.17	0.718
1300.78	10.195
1304.39	31.831
1307.99	23.598
1311.6	19.706
1315.2	20.019
1318.8	20.47
1322.4	16.86
1326	34.333
1329.6	57.835
1333.19	108.666
1336.79	87.18
1340.38	89.412
1343.97	130.555
1347.56	128.358
1351.14	192.972
1354.73	195.385
1358.31	216.584
1361.89	219.523
1365.47	219.37
1369.05	253.978
1372.63	202.583
1376.2	160.714
1379.78	178.339
1383.35	153.52
1386.92	211.412
1390.49	181.857
1394.05	142.76
1397.62	169.65
1401.18	151.391
1404.74	170.674
1408.3	150.565
1411.86	110.138
1415.42	113.811
1418.97	87.708
1422.53	87.972
1426.08	61.993
1429.63	65.04
1433.18	49.473
1436.72	34.469
1440.27	95.006
1443.81	22.063
1447.36	32.599
1450.89	53.707
1454.43	93.313
1457.97	50.681
1461.51	21.721
1465.04	55.872
1468.57	37.265
1472.1	14.65
1475.63	40.811
1479.16	38.72
1482.68	5.719
1486.21	72.125
1489.73	29.129
1493.25	49.629
1496.77	46.166
1500.29	26.334
1503.8	29.456
1507.32	45.963
1510.83	1.532
1514.34	1.578
