Measurement: Raman, 514 nm, ccw, Raman Data Processed
Mineral: Epidote
Rruff sample: R050131
Ideal chemistry: Ca_2_Fe^3+^Al_2_(Si_2_O_7_)(SiO_4_)O(OH)
Locality: Calumet mine, Chaffee County, Colorado, USA
Source: Dave Bunk Minerals
Description: Green prismatic crystal
Measured chemistry: Ca_2.00_Al_2.00_(Fe^3+^_0.75_Al_0.25_)(SiO_4_)(Si_2_O_7_)O(OH)
Pin_id: L00140
Orientation: Laser parallel to -a* (-1 0 0). Fiducial mark perpendicular to laser is parallel to b [0 1 0]
Raman shift (cm-1)	intensity
120.855	0
125.036	56
129.216	683.024
133.393	979.461
137.568	551.7
141.741	233.421
145.911	520.994
150.08	459.293
154.247	283.728
158.411	866.598
162.574	2436.64
166.734	4053.28
170.893	3705.21
175.049	2987.48
179.203	1576.14
183.355	863.977
187.505	697.759
191.653	339.346
195.799	25.15
199.943	35.112
204.084	97.081
208.224	28.018
212.362	124.965
216.497	124.018
220.631	97.671
224.762	577.943
228.891	1289.61
233.018	1770.49
237.144	2378.57
241.267	3785.85
245.388	4671.96
249.507	3633.97
253.624	2532.39
257.739	2107.67
261.852	1566.32
265.962	1298.48
270.071	1475.76
274.178	1835.38
278.283	1791.38
282.385	1450.73
286.486	1466.06
290.584	1916.93
294.681	2721.91
298.775	2074.03
302.868	1175.98
306.958	886.638
311.047	1306.82
315.133	2046.37
319.217	2182.52
323.299	2423.31
327.38	3248.34
331.458	3991.62
335.534	3858.66
339.608	3341.76
343.681	4337.18
347.751	6911.91
351.819	7542.94
355.885	4790.25
359.949	2717.55
364.011	2016.83
368.071	1953.92
372.129	1362.15
376.185	705.282
380.239	196.929
384.291	226.902
388.341	662.448
392.389	909.724
396.435	662.177
400.479	230.813
404.521	26.336
408.561	17.257
412.599	346.093
416.636	764.754
420.67	1139.69
424.702	2026.97
428.732	2800.54
432.76	3968.37
436.786	5338.45
440.81	5129.81
444.832	5347.41
448.852	7688.28
452.87	7855.32
456.887	6216.51
460.901	4620.78
464.913	3041.1
468.923	1750.46
472.931	1060.86
476.938	691.292
480.942	610.76
484.944	605.265
488.945	868.894
492.943	1261.82
496.94	2117.12
500.934	3108.4
504.927	3475.09
508.917	3395.46
512.906	2845.87
516.892	1583.35
520.877	761.341
524.86	500.428
528.841	238.556
532.82	2.282
536.796	70.961
540.771	134.546
544.744	134.433
548.715	13.318
552.684	223.442
556.652	662.23
560.617	1675.08
564.58	4390.73
568.541	5234.85
572.501	2455.49
576.458	1263.77
580.414	1202.57
584.367	1852.06
588.319	2748.9
592.268	3760.23
596.216	5243.51
600.162	6753.22
604.106	6430.76
608.048	5283.99
611.988	5045.65
615.926	4126.84
619.862	2533.01
623.797	1483.34
627.729	914.977
631.659	566.194
635.588	408.901
639.515	353.375
643.439	251.038
647.362	204.333
651.283	141.327
655.202	156.073
659.119	114.567
663.034	143.801
666.947	210.774
670.859	122.488
674.768	194.934
678.676	236.125
682.581	327.061
686.485	429.737
690.387	431.034
694.287	366.292
698.185	278.396
702.081	259.317
705.975	175.456
709.868	91.568
713.758	32.401
717.647	20.07
721.533	0.053
725.418	35.235
729.301	33.06
733.182	23.413
737.061	59.296
740.939	34.83
744.814	3.947
748.688	41.554
752.559	32.711
756.429	50.382
760.297	29.597
764.163	8.359
768.027	19.234
771.89	0.265
775.75	35.719
779.609	48.428
783.465	48.865
787.32	82.049
791.173	89.991
795.024	83.7
798.873	103.186
802.721	176.374
806.566	215.873
810.41	236.139
814.252	275.063
818.092	328.756
821.93	430.759
825.766	562.989
829.601	694.666
833.433	798.48
837.264	874.137
841.093	1018.64
844.92	1265.01
848.745	1501.33
852.568	1945.78
856.39	2603.32
860.209	3689.91
864.027	5294.62
867.843	6340.44
871.657	6513.96
875.47	7277.95
879.28	9294.85
883.089	12191.9
886.896	15301.7
890.701	16095
894.504	12259.2
898.305	8222.32
902.105	6419.53
905.902	5847.57
909.698	6773.38
913.492	8217.63
917.285	8926.09
921.075	7497.97
924.864	5282.04
928.65	3523.52
932.435	2444.94
936.218	1782.85
940	1348.17
943.779	1006.76
947.557	802.443
951.333	647.786
955.107	666.394
958.879	617.099
962.65	604.929
966.418	543.872
970.185	551.94
973.95	669.86
977.714	945.452
981.475	1208.91
985.235	1057.49
988.993	699.539
992.749	527.5
996.503	407.703
1000.26	383.237
1004.01	360.487
1007.75	545.156
1011.5	738.897
1015.25	1184.67
1018.99	1885.96
1022.73	2181.86
1026.47	1656.85
1030.21	1113.87
1033.95	967.822
1037.68	940.59
1041.41	929.676
1045.15	850.224
1048.88	722.874
1052.6	582.806
1056.33	479.965
1060.05	448.272
1063.78	391.193
1067.5	302.961
1071.21	348.607
1074.93	461.158
1078.65	708.865
1082.36	1202.68
1086.07	1928.59
1089.78	2010.72
1093.49	1180.69
1097.2	576.067
1100.9	343.314
1104.6	248.25
1108.3	148.703
1112	111.965
1115.7	130.338
1119.4	59.503
1123.09	218.215
1126.78	45.042
1130.47	11.238
1134.16	13.878
1137.85	2.968
1141.54	22.247
1145.22	13.77
1148.9	29.145
1152.58	25.613
1156.26	63.25
1159.94	42.243
1163.61	0.527
1167.28	11.416
1170.95	9.812
1174.62	7.149
1178.29	11.338
1181.96	23.196
1185.62	5.069
1189.29	10.039
1192.95	39.653
1196.61	33.352
1200.26	22.364
1203.92	14.338
1207.57	0.931
1211.23	10.735
1214.88	3.571
1218.53	32.451
1222.17	26.469
1225.82	24.356
1229.46	22.156
1233.11	34.883
1236.74	21.658
1240.38	9.225
1244.02	13.253
1247.66	5.09
1251.29	5.35
1254.92	6.539
1258.55	27.689
1262.18	0.296
1265.81	32.429
1269.43	23.984
1273.06	17.667
1276.68	11.954
1280.3	47.109
1283.91	25.79
1287.53	44.561
1291.15	29.31
1294.76	46.554
1298.37	34.081
1301.98	35.331
1305.59	55.403
1309.19	27.83
1312.8	3.955
1316.4	22.097
1320	38.907
1323.6	22.399
1327.2	8.936
1330.8	44.835
1334.39	26.635
1337.98	55.1
1341.58	17.143
1345.16	51.044
1348.75	29.955
1352.34	82.408
1355.92	51.265
1359.51	87.234
1363.09	61.616
1366.67	93.645
1370.24	83.323
1373.82	63.423
1377.39	42.683
1380.97	79.153
1384.54	80.943
1388.11	74.443
1391.68	69.668
1395.24	29.475
1398.81	58.152
1402.37	42.329
1405.93	39.143
1409.49	45.721
1413.05	16.362
1416.6	119.421
1420.16	28.433
1423.71	18.645
1427.26	50.496
1430.81	51.734
1434.36	41.183
1437.91	36.68
1441.45	30.968
1444.99	18.285
1448.54	22.219
1452.08	20.104
1455.61	20.806
1459.15	47.013
1462.68	65.988
1466.22	34.746
1469.75	71.399
1473.28	52.275
1476.81	37.793
1480.33	69.776
1483.86	45.187
1487.38	9.13
1490.9	31.247
1494.42	29.541
1497.94	2.239
1501.46	10.989
1504.97	29.702
1508.49	42.653
1512	23.237
1515.51	33.769
