Measurement: Raman, 514 nm, ccw, Raman Data Processed
Mineral: Epidote
Rruff sample: R050064
Ideal chemistry: Ca_2_Fe^3+^Al_2_(Si_2_O_7_)(SiO_4_)O(OH)
Locality: East Xichang City, Meigu County, Sichuan Province, China
Source: Rock Currier
Description: Green prismatic crystals
Measured chemistry: (Ca_1.99_Mn_0.01_)_Î£=2_Fe^3+^_1.00_Al_2.00_(Si_2.00_O_7_)(Si_1.00_O_4_)O(OH);
Pin_id: L00111
Orientation: Laser parallel to (-1 0 -1). Fiducial mark perpendicular to laser is parallel to -b [0 -1 0]
Raman shift (cm-1)	intensity
95.723	0
99.917	1800.95
104.109	1080.58
108.298	307.096
112.486	5.333
116.672	200.41
120.855	431.873
125.036	811.126
129.216	1462.05
133.393	1486.08
137.568	756.879
141.741	560.445
145.911	1196.8
150.08	1142.83
154.247	591.494
158.411	544.479
162.574	944.4
166.734	935.955
170.893	181.178
175.049	249.747
179.203	216.416
183.355	214.783
187.505	304.048
191.653	337.6
195.799	898.222
199.943	1782.75
204.084	2208.02
208.224	1773.87
212.362	880.354
216.497	343.532
220.631	535.323
224.762	902.322
228.891	1028.92
233.018	1726.41
237.144	3755.62
241.267	6081.04
245.388	5095.7
249.507	2767.39
253.624	1699.26
257.739	1131.98
261.852	1075.76
265.962	2201.7
270.071	5367.03
274.178	9402.83
278.283	8084.06
282.385	4591.06
286.486	3658.2
290.584	3635.33
294.681	5752.67
298.775	7510.34
302.868	5298.25
306.958	2964.16
311.047	2709.21
315.133	3365.06
319.217	2391.69
323.299	1509.07
327.38	1867.17
331.458	2465.99
335.534	1975.51
339.608	1215.66
343.681	1897.49
347.751	3464.46
351.819	3351.28
355.885	1654.55
359.949	1067.76
364.011	1731.54
368.071	1705.88
372.129	741.465
376.185	145.379
380.239	126.754
384.291	7.184
388.341	231.92
392.389	34.808
396.435	472.206
400.479	490.374
404.521	378.699
408.561	717.389
412.599	2226.62
416.636	4856.55
420.67	10317.2
424.702	15478.5
428.732	13180.6
432.76	11073.3
436.786	11766.6
440.81	14210.6
444.832	21705.2
448.852	35070.5
452.87	46416.4
456.887	49402.9
460.901	34939.9
464.913	19567.5
468.923	10415.7
472.931	5664.58
476.938	3853.9
480.942	3473.71
484.944	3093.99
488.945	2674.66
492.943	3068.63
496.94	5090.07
500.934	5963.85
504.927	4709.27
508.917	3592.09
512.906	2348.34
516.892	1332.39
520.877	716.71
524.86	41.249
528.841	214.005
532.82	200.493
536.796	444.694
540.771	20.555
544.744	226.696
548.715	595.543
552.684	2039.16
556.652	3787.71
560.617	9268.92
564.58	19511.3
568.541	14268.5
572.501	6522.54
576.458	3539.49
580.414	3105.42
584.367	5011.81
588.319	7057.58
592.268	8879.78
596.216	11904.4
600.162	12212.3
604.106	10106.4
608.048	8857.66
611.988	8470.91
615.926	6332.94
619.862	3960.27
623.797	2792.77
627.729	2072
631.659	1168.98
635.588	564.354
639.515	388.416
643.439	1000.36
647.362	1049.47
651.283	471.527
655.202	96.173
659.119	187.505
663.034	828.086
666.947	1042.03
670.859	491.806
674.768	311.189
678.676	800.204
682.581	2048.84
686.485	2758.2
690.387	2254.28
694.287	1153.3
698.185	825.104
702.081	1033.46
705.975	740.628
709.868	217.335
713.758	166.673
717.647	11.614
721.533	562.684
725.418	646.204
729.301	318.958
733.182	249.054
737.061	38.105
740.939	452.041
744.814	811.306
748.688	419.693
752.559	132.626
756.429	165.755
760.297	290.22
764.163	785.436
768.027	399.83
771.89	13.476
775.75	243.489
779.609	148.612
783.465	690.06
787.32	650.831
791.173	341.016
795.024	109.253
798.873	89.896
802.721	568.675
806.566	784.174
810.41	670.188
814.252	157.79
818.092	47.922
821.93	549.168
825.766	1263.3
829.601	1449.93
833.433	1036.35
837.264	692.564
841.093	978.802
844.92	1725.21
848.745	2441.83
852.568	2808.65
856.39	3225.35
860.209	4242.08
864.027	6519.03
867.843	8274.64
871.657	8484.04
875.47	7819.13
879.28	8812.98
883.089	12230.2
886.896	15043.3
890.701	14362
894.504	10275.1
898.305	7081.06
902.105	5520.6
905.902	5284.3
909.698	6666.33
913.492	7829.47
917.285	7200.14
921.075	5068.81
924.864	2985.29
928.65	1784.02
932.435	1702.46
936.218	1655.56
940	1490.56
943.779	927.164
947.557	685.517
951.333	514.696
955.107	998.016
958.879	1717.91
962.65	1965.17
966.418	1815.66
970.185	1853.55
973.95	2855.06
977.714	5936.91
981.475	7599.09
985.235	5841.55
988.993	3377.57
992.749	1471.55
996.503	440.578
1000.26	417.94
1004.01	721.967
1007.75	1106.28
1011.5	1563.9
1015.25	1569
1018.99	1841.54
1022.73	1568.41
1026.47	1539.21
1030.21	1840.59
1033.95	2618.88
1037.68	3581.32
1041.41	4166.03
1045.15	3352.85
1048.88	2474.83
1052.6	2276.5
1056.33	2684.49
1060.05	4048
1063.78	4111.68
1067.5	3206.76
1071.21	2781.79
1074.93	3858.32
1078.65	6224.07
1082.36	10670
1086.07	13444.4
1089.78	10013.1
1093.49	4629.46
1097.2	2026.62
1100.9	917.613
1104.6	1083.98
1108.3	1011.08
1112	928.011
1115.7	894.461
1119.4	581.569
1123.09	368.414
1126.78	4.936
1130.47	32.423
1134.16	479.673
1137.85	1066.69
1141.54	1205.99
1145.22	692.376
1148.9	319.206
1152.58	406.829
1156.26	264.254
1159.94	11.344
1163.61	672.006
1167.28	935.798
1170.95	1009.9
1174.62	1084.25
1178.29	139.021
1181.96	215.722
1185.62	0.094
1189.29	106.438
1192.95	803.329
1196.61	1150.79
1200.26	1348.75
1203.92	867.316
1207.57	456.601
1211.23	135.939
1214.88	336.86
1218.53	684.611
1222.17	1144.89
1225.82	1608.9
1229.46	1711.55
1233.11	1185.34
1236.74	519.84
1240.38	112.303
1244.02	39.656
1247.66	570.86
1251.29	907.794
1254.92	1493.44
1258.55	1578.81
1262.18	1358.02
1265.81	872.213
1269.43	421.047
1273.06	63.341
1276.68	146.984
1280.3	633.746
1283.91	1128.08
1287.53	1363.51
1291.15	1715.59
1294.76	1390.33
