Measurement: Raman, 514 nm, ccw, Raman Data Processed
Mineral: Epidote
Rruff sample: R040092
Ideal chemistry: Ca_2_Fe^3+^Al_2_(Si_2_O_7_)(SiO_4_)O(OH)
Locality: Nahant, Massachusetts, USA
Source: University of Arizona Mineral Museum
Description: Green prismatic crystals imbedded in quartz
Measured chemistry: Ca_2.01_Al_2.00_Fe_1.00_(Si_1.00_O_4_)(Si_1.97_Fe_0.02_Al_0.01_Ti_0.01_O_7_)O(OH)
Pin_id: M00463
Orientation: Laser parallel to [-1 0 -1]. Fiducial mark perpendicular to laser is parallel to b* (0 1 0)
Raman shift (cm-1)	intensity
51.466	0
55.666	1295.26
59.863	1309.32
64.059	226.981
68.253	28.416
72.445	208.643
76.635	1170.11
80.823	4109.44
85.009	10096.5
89.193	13711.2
93.375	12221.1
97.554	7980.55
101.732	4435.55
105.908	2769.59
110.082	1325.81
114.254	1355.63
118.424	1451.66
122.592	847.616
126.758	774.279
130.922	1238.48
135.083	1080.16
139.243	817.109
143.401	233.469
147.557	368.972
151.711	612.195
155.863	1294.45
160.013	2725.96
164.161	6063.86
168.308	9618.28
172.452	10402.3
176.594	7538.93
180.734	4690.26
184.872	3370.29
189.008	2335.05
193.143	1454.54
197.275	1065.78
201.405	1147.78
205.534	1163.44
209.66	954.06
213.784	988.608
217.907	2204.92
222.027	4471.17
226.146	7476.72
230.263	8894.12
234.377	8966.59
238.49	9025.78
242.601	8072.85
246.709	5456.26
250.816	3590.87
254.921	2623.57
259.024	1935.13
263.125	1486.57
267.224	1982.76
271.321	3508.64
275.416	3636.15
279.51	1853.24
283.601	597.893
287.69	532.055
291.778	759.695
295.863	747.784
299.947	704.249
304.029	934.961
308.108	1167.93
312.186	1089.17
316.262	917.704
320.336	1136.52
324.408	1062.62
328.478	1605.99
332.546	1994.63
336.612	3082.52
340.677	5523.64
344.739	9914.99
348.799	12503.5
352.858	9967.3
356.915	5387.23
360.969	2431.32
365.022	587.562
369.073	168.071
373.122	736.948
377.169	819.362
381.215	64.082
385.258	1364.7
389.299	2636.8
393.339	2124.31
397.376	780.48
401.412	258.472
405.446	118.271
409.478	827.882
413.508	1881.48
417.536	3618.06
421.562	6313.6
425.586	9779.04
429.609	14158.4
433.629	18772.6
437.648	19274.6
441.665	16138.3
445.68	15799.4
449.693	16526
453.704	15267.8
457.713	12769.8
461.721	8974.91
465.726	5634.1
469.73	3514.31
473.731	1956.48
477.731	1328.56
481.729	1057.51
485.725	1417.27
489.72	2098.83
493.712	3715.14
497.703	5832.19
501.691	7826.96
505.678	8615.41
509.663	7924.52
513.646	5233.27
517.627	2800.63
521.607	1482.57
525.584	787.078
529.56	529.127
533.534	308.712
537.506	289.134
541.476	600.609
545.444	956.771
549.41	1711.45
553.375	3012.9
557.337	5608.86
561.298	10670.9
565.257	12894.8
569.214	8545.89
573.17	5917.08
577.123	6044.19
581.075	8308.1
585.024	11423.5
588.972	15381.6
592.918	19918
596.863	23892.1
600.805	22029.6
604.746	18258.7
608.685	15891.5
612.621	14271.6
616.557	11598.4
620.49	7701.86
624.421	5150.89
628.351	3498.92
632.279	2820.18
636.205	2355.37
640.129	1892.8
644.051	1512.9
647.972	1249.47
651.89	1061.48
655.807	791.909
659.722	692.742
663.636	736.954
667.547	624.525
671.457	636.437
675.365	758.665
679.271	836.197
683.175	716.961
687.077	707.117
690.978	658.124
694.877	641.675
698.774	474.413
702.669	311.438
706.562	228.648
710.454	65.975
714.344	107.787
718.232	44.217
722.118	121.463
726.002	131.841
729.885	58.657
733.766	216.809
737.645	126.475
741.522	173.457
745.397	185.917
749.271	119.842
753.143	49.974
757.013	10.037
760.881	72.817
764.748	16.271
768.613	133.843
772.476	145.699
776.337	124.321
780.196	225.762
784.054	325.11
787.91	309.426
791.764	359.779
795.616	480.206
799.467	658.753
803.316	833.436
807.163	922.263
811.008	1210.24
814.851	1405.39
818.693	1903.72
822.533	2386.25
826.371	2787.97
830.208	3300.92
834.042	3458.09
837.875	3605.53
841.706	3608.28
845.536	3622.36
849.363	4264.75
853.189	4714.49
857.013	5473.58
860.836	6550.02
864.656	7150.56
868.475	7604.21
872.292	8408.55
876.108	10186
879.922	13132.4
883.733	15503.7
887.544	16250.1
891.352	15304.6
895.159	14990.5
898.964	16099.7
902.767	19261.1
906.568	24830.9
910.368	31773.2
914.166	37548.1
917.962	34205.4
921.757	24778.5
925.55	16823.8
929.341	11221.9
933.13	7980.25
936.918	5934.92
940.703	4586.92
944.488	3658.94
948.27	3210.55
952.051	3047.64
955.83	2995.89
959.607	2857.3
963.383	2408.93
967.156	2022.9
970.928	1985.09
974.699	2675.53
978.468	3230.24
982.234	2861.24
986	1858.64
989.763	1416.35
993.525	979.01
997.285	750.106
1001.04	685.611
1004.8	641.088
1008.55	705.568
1012.31	1068.84
1016.06	1739.29
1019.81	2193.08
1023.56	1778.44
1027.31	1523.77
1031.05	1714.73
1034.79	2047.33
1038.53	2330.24
1042.27	2391.38
1046.01	2069.72
1049.75	1672.33
1053.48	1476.1
1057.22	1387.9
1060.95	1215.58
1064.68	979.116
1068.4	904.385
1072.13	1309.27
1075.86	2176.72
1079.58	3800.73
1083.3	6418.25
1087.02	8161.23
1090.74	5765.66
1094.45	2972.62
1098.17	1594.97
1101.88	981.71
1105.59	634.251
1109.3	530.846
1113.01	362.742
1116.71	238.035
1120.42	282.679
1124.12	771.108
1127.82	58.748
1131.52	39.094
1135.22	72.104
1138.91	55.17
1142.61	102.52
1146.3	134.147
1149.99	102.788
1153.68	86.715
1157.37	53.946
1161.06	145.306
1164.74	45.688
1168.42	79.029
1172.1	48.133
1175.78	28.01
1179.46	136.305
1183.14	138.815
1186.81	73.854
1190.48	143.831
1194.15	194.082
1197.83	93.469
1201.49	229.275
1205.16	204.41
1208.82	154.258
1212.49	146.114
1216.15	131.315
1219.81	178.646
1223.46	101.918
1227.12	84.301
1230.78	70.174
1234.43	76.467
1238.08	83.918
1241.73	99.207
1245.38	77.375
1249.03	98.117
1252.67	175.548
1256.31	40.183
1259.95	31.318
1263.6	76.548
1267.23	6.876
1270.87	114.1
1274.51	30.691
1278.14	2.597
1281.77	71.137
1285.4	20.481
1289.03	17.44
1292.66	103.249
1296.28	68.51
1299.91	112.041
1303.53	68.921
1307.15	99.724
1310.77	26.708
1314.38	70.031
1318	9.936
1321.61	0.985
1325.23	34.979
1328.84	17.746
1332.45	77.808
1336.06	3.21
1339.66	97.161
1343.27	50.992
1346.87	188.279
1350.47	108.053
1354.07	194.296
1357.67	252.042
1361.26	196.34
1364.86	231.213
1368.45	147.705
1372.04	217.855
1375.63	245.246
1379.22	233.546
1382.81	247.021
1386.39	255.414
1389.98	264.262
1393.56	235.026
1397.14	196.952
1400.72	201.633
1404.3	333.16
1407.87	262.847
1411.45	359.443
1415.02	280.583
1418.59	374.138
1422.16	254.35
1425.73	259.297
1429.29	228.421
1432.86	295.17
1436.42	299.05
1439.98	255.478
1443.54	286.268
1447.1	386.949
1450.66	293.628
1454.21	422.583
1457.77	296.389
1461.32	327.178
1464.87	306.021
1468.42	292.599
1471.96	253.852
1475.51	243.142
1479.06	130.755
1482.6	230.717
1486.14	149.311
1489.68	180.766
1493.22	325.845
1496.75	142.307
1500.29	39.125
1503.82	142.033
1507.35	77.897
1510.88	204.655
1514.41	7.166
1517.94	70.993
