Measurement: Raman, 514 nm, ccw, Raman Data Processed
Mineral: Epididymite
Rruff sample: R070580
Ideal chemistry: Na_2_Be_2_Si_6_O_15_H_2_O
Locality: Narsarsuk, Narsaq, Kitaa, Greenland
Source: James Shigley
Description: A translucent to white elongated prism.
Measured chemistry: (Na_1.97_K_0.03_)_Σ=2_Be_2_Si_6.00_O_15_·H_2_O; trace amounts of Al; Be and H_2_O assumed by stoichiometry
Pin_id: M01755
Orientation: Laser parallel to -a* (-1 0 0). Fiducial mark perpendicular to laser is parallel to b [0 1 0]
Raman shift (cm-1)	intensity
111.206	0
116.155	1213.01
121.101	3760.7
126.045	2150.24
130.985	2289.95
135.923	1913.21
140.858	1885.99
145.79	2645.8
150.719	1687.14
155.646	560.187
160.569	49.7227
165.49	10.0449
170.408	35.1592
175.324	73.5039
180.237	73.5596
185.146	49.0147
190.053	497.056
194.958	1122.71
199.859	1312.83
204.758	707.877
209.654	346.59
214.547	395.443
219.438	570.956
224.326	1080.54
229.211	1447.37
234.093	3046.47
238.972	5318.03
243.849	5107.99
248.723	2722.75
253.594	1297.48
258.462	665.617
263.328	513.567
268.191	148.144
273.051	237.405
277.908	124.505
282.763	411.43
287.615	189.734
292.464	192.531
297.31	36.583
302.154	15.2246
306.995	124.774
311.833	51.7725
316.668	154.468
321.501	253.992
326.331	345.817
331.158	777.499
335.983	791.625
340.804	457.932
345.623	374.948
350.44	225.101
355.253	101.969
360.064	16.665
364.872	171.963
369.677	303.118
374.48	183.332
379.28	421.704
384.077	701.9
388.872	659.381
393.663	493.791
398.452	1782.24
403.239	4448.72
408.022	8805.11
412.803	3980.4
417.581	764.896
422.357	177.284
427.129	233.019
431.899	573.49
436.667	525.414
441.431	200.718
446.193	44.7725
450.952	131.826
455.709	217.083
460.463	514.601
465.214	785.58
469.962	2484.94
474.708	5571.33
479.451	4717.64
484.191	3391.86
488.929	2160.98
493.663	1062.03
498.396	920.915
503.125	1477.52
507.852	3372.36
512.576	10228.5
517.298	24323.4
522.016	26331.6
526.732	9256.34
531.446	3229.79
536.156	1553.43
540.865	1045.04
545.57	641.777
550.273	371.106
554.973	383.647
559.67	317.234
564.364	170.744
569.056	202.67
573.746	469.85
578.432	1166.71
583.116	1999.96
587.798	1736.62
592.476	989.811
597.152	505.303
601.825	529.871
606.496	375.912
611.164	178.902
615.829	249.295
620.492	161.361
625.152	309.361
629.809	298.049
634.464	517.922
639.116	262.018
643.765	313.107
648.412	115.006
653.056	218.242
657.697	27.0664
662.336	18.2734
666.972	39.7129
671.605	28.3125
676.236	74.2051
680.864	57.8359
685.49	7.91797
690.113	79.8184
694.733	82.9004
699.351	241.287
703.965	7.70117
708.578	98.7969
713.187	11.9844
717.794	73.9688
722.399	189.162
727.001	198.115
731.6	200.857
736.196	155.516
740.79	108.689
745.381	166.57
749.97	203.148
754.556	238.691
759.139	319.773
763.72	162.42
768.298	269.951
772.874	187.904
777.447	119.639
782.017	28.0547
786.585	75.7812
791.15	62.957
795.712	112.287
800.272	122.717
804.829	239.793
809.384	145.928
813.936	288.978
818.485	330.156
823.032	206.236
827.576	200.742
832.118	209.674
836.657	223.644
841.193	262.012
845.727	116.643
850.258	155.75
854.787	377.647
859.313	171.816
863.836	282.529
868.357	287.139
872.875	223.102
877.391	228.592
881.904	180.643
886.414	108.26
890.922	226.121
895.427	204.935
899.93	196.428
904.43	22.8867
908.927	294.791
913.422	364.953
917.914	29.3301
922.404	187.818
926.891	162.566
931.376	359.182
935.858	99.8457
940.337	1.99023
944.814	70.6172
949.289	83.3398
953.76	104.609
958.229	121.061
962.696	175.83
967.16	288.59
971.621	223.887
976.08	324.6
980.537	309.004
984.99	315.391
989.442	489.529
993.89	280.992
998.336	250.377
1002.78	568.469
1007.22	480.838
1011.66	639.092
1016.1	405.299
1020.53	348.295
1024.96	204.361
1029.39	212.404
1033.81	386.57
1038.24	729.633
1042.66	948.781
1047.07	1152.93
1051.49	1273.44
1055.9	1062.63
1060.31	924.941
1064.72	937.947
1069.13	985.061
1073.53	775.42
1077.93	305.602
1082.33	330.266
1086.72	593.941
1091.12	265.113
1095.51	317.012
1099.89	257.242
1104.28	436.047
1108.66	348.357
1113.04	264.719
1117.42	708.273
1121.79	951.115
1126.16	1575.87
1130.53	2059.72
1134.9	3152.67
1139.27	3488.73
1143.63	2746.91
1147.99	1408.21
1152.35	665.621
1156.7	524.42
1161.05	444.361
1165.4	291.459
1169.75	137.69
1174.09	216.065
1178.44	181.572
1182.78	22.2148
1187.11	11.0059
1191.45	22.2656
1195.78	191.434
1200.11	157.289
1204.44	147.742
1208.76	119.137
1213.08	86.2227
1217.4	5.54102
1221.72	68.168
1226.03	24.7402
1230.35	145.402
1234.66	94.832
1238.96	168.205
1243.27	274.123
1247.57	191.772
1251.87	304.551
1256.17	104.465
1260.46	319.522
1264.75	179.719
1269.04	36.0566
1273.33	267
1277.62	87.6231
1281.9	5.39258
1286.18	468.307
1290.45	80.2441
1294.73	353.365
1299	448.713
1303.27	135.217
1307.54	333.867
1311.8	163.65
1316.07	299.559
1320.33	143.588
1324.58	329.881
1328.84	161.635
1333.09	341.461
1337.34	267.057
1341.59	289.897
1345.83	47.3672
1350.08	69.6816
1354.32	211.647
1358.55	318.078
1362.79	337.277
1367.02	267.307
1371.25	23.4902
1375.48	143.762
1379.71	221.998
1383.93	165.578
1388.15	212.322
1392.37	175.231
1396.58	191.152
1400.8	433.238
1405.01	57.5332
1409.21	150.949
1413.42	119.519
1417.62	138.34
1421.83	249.336
1426.02	74.7344
1430.22	245.547
1434.41	225.184
1438.61	217.269
1442.79	218.25
1446.98	300.625
1451.16	314.606
1455.35	302.457
1459.52	276.906
1463.7	87.8711
1467.87	119.594
1472.05	55.1016
1476.21	333.531
1480.38	398.492
1484.55	437.082
1488.71	164.609
1492.87	129.238
1497.03	193.734
1501.18	294.438
1505.33	462.461
1509.48	406.766
1513.63	266.457
1517.77	196.285
1521.92	437.387
1526.06	378.512
1530.19	417.156
1534.33	147.93
1538.46	264.188
1542.59	151.617
1546.72	310.445
1550.85	377.492
1554.97	372.336
1559.09	173.559
