Measurement: Raman, 514 nm, ccw, Raman Data Processed
Mineral: Epidote
Rruff sample: R050303
Ideal chemistry: Ca_2_Fe^3+^Al_2_(Si_2_O_7_)(SiO_4_)O(OH)
Locality: San Martin mine, Zacatecas, Mexico
Source: Eugene Schlepp
Description: Green elongated prismatic crystals
Measured chemistry: Ca_2.00_Al_2.00_(Fe^3+^_0.97_Al_0.03_)(SiO_4_)(Si_2_O_7_)O(OH)
Pin_id: L00691
Orientation: Laser parallel to -b* (0 -1 0). Fiducial mark perpendicular to laser is parallel to -c [0 0 -1]
Raman shift (cm-1)	intensity
53.91	0
58.864	806.401
63.817	180.69
68.767	23.4033
73.714	1067.49
78.659	6435.28
83.602	22112.9
88.542	35406.2
93.48	21396.7
98.416	9656.02
103.349	5571.23
108.28	5471.99
113.208	4570.28
118.134	5647.82
123.058	12036.3
127.979	27213.8
132.898	22223.3
137.814	9301.85
142.728	6797.08
147.639	4879.03
152.549	4784.34
157.455	8506.74
162.359	16081.8
167.261	16185.8
172.161	9125.96
177.058	4150.43
181.952	2372.21
186.845	2325.31
191.734	3684.73
196.622	6770.49
201.507	8680.47
206.389	7274.87
211.269	8777.72
216.147	14412.2
221.022	22931.3
225.895	25554.1
230.765	17557.4
235.633	15807.6
240.498	15803.1
245.361	8473.41
250.222	3357.9
255.08	1705.12
259.936	2904.66
264.789	7307.22
269.64	17913.5
274.488	18010.3
279.334	8397.48
284.178	8230.03
289.019	12657.6
293.857	11054.9
298.693	6461.64
303.527	3234
308.358	1677.93
313.187	2019.43
318.013	5037.49
322.837	6547.09
327.659	3109.21
332.478	1516.81
337.294	3762.87
342.108	9011.34
346.92	11160.2
351.729	6172.49
356.535	1625.62
361.34	535.982
366.141	1410.61
370.94	1750.49
375.737	784.8
380.531	1350.45
385.323	3920.51
390.113	2502.45
394.9	540.202
399.684	378.685
404.466	1808.83
409.245	5797.59
414.022	15889.9
418.797	33498.7
423.569	36801.3
428.338	27714.3
433.105	22806.1
437.87	21718.3
442.632	32163.8
447.391	46002.3
452.149	43502.8
456.903	29998
461.655	15248.1
466.405	7136.56
471.152	3683.36
475.897	2772.06
480.639	3379.07
485.378	5605.21
490.116	10410.3
494.85	16040
499.582	17372.1
504.312	18188.4
509.039	17673.9
513.764	17750.6
518.486	20998
523.206	13828.2
527.923	5694.69
532.638	2080.55
537.35	1335.69
542.059	1881.8
546.766	4059.35
551.471	9910.67
556.173	25473.8
560.873	48237.2
565.57	30625.4
570.264	13343.5
574.957	11344.6
579.646	15475.8
584.333	20375.1
589.018	26107.3
593.7	34061.9
598.379	31746.7
603.056	21383.1
607.73	15856.9
612.402	11946.3
617.072	7173.48
621.739	3941.61
626.403	2285.23
631.065	1303.58
635.724	763.407
640.381	485.618
645.035	299.839
649.687	320.084
654.336	291.933
658.983	307.725
663.627	624.379
668.268	1027.36
672.907	1307.96
677.544	1878.6
682.178	2227.34
686.809	2074.12
691.438	1150.86
696.065	400.483
700.688	14.8389
705.31	72.1025
709.929	283.603
714.545	325.971
719.158	349.796
723.77	189.32
728.378	327.89
732.984	257.673
737.588	236.512
742.189	161.389
746.787	141.84
751.383	117.718
755.976	44.8955
760.567	77.8633
765.155	172.328
769.741	611.634
774.324	217.211
778.904	370.018
783.482	381.191
788.058	476.879
792.631	756.144
797.201	888.963
801.769	1306.32
806.334	1796.27
810.897	2279.84
815.457	3281.09
820.014	4937.08
824.569	6877.86
829.122	7010.5
833.671	5698.05
838.219	5027.38
842.763	4801.91
847.306	5343.43
851.845	6386.4
856.382	8160.07
860.917	10116.9
865.448	11942.8
869.978	12978
874.505	12766.5
879.029	11421.6
883.55	10290.6
888.069	10947
892.586	13670
897.1	19219
901.611	28439.2
906.12	42227.3
910.626	54931.5
915.129	52513.8
919.63	34167.1
924.129	19422.2
928.625	11294.9
933.118	7355.33
937.609	4877.58
942.097	3756.62
946.582	3349.53
951.065	3087.39
955.546	3174.24
960.023	3266.15
964.499	3813.16
968.971	5769.35
973.441	9666.86
977.909	11800.3
982.374	7671.36
986.836	3965.64
991.295	2096.38
995.753	1092.64
1000.21	411.117
1004.66	220.032
1009.11	228.791
1013.55	547.231
1018	1068.29
1022.44	2071.15
1026.88	3643.56
1031.32	6624.36
1035.75	9554.28
1040.18	9636.9
1044.61	7902.7
1049.04	6186.76
1053.46	6580.78
1057.88	7829.45
1062.3	7308.56
1066.71	6695.64
1071.13	8985.4
1075.54	14940.5
1079.94	25614.5
1084.35	27657.3
1088.75	13559.7
1093.15	5385.97
1097.55	2441.26
1101.94	1592.76
1106.34	1008.85
1110.73	596.816
1115.11	542.226
1119.5	603.723
1123.88	421.339
1128.26	282.347
1132.63	105.919
1137.01	15.2969
1141.38	134.983
1145.75	120.694
1150.12	286.116
1154.48	72.6274
1158.84	54.5088
1163.2	145.944
1167.55	1.01269
1171.91	178.89
1176.26	11.2959
1180.61	36.2573
1184.95	95.6489
1189.29	31.5112
1193.63	5.71045
1197.97	118.64
1202.31	292.2
1206.64	113.242
1210.97	159.272
1215.29	257.06
1219.62	171.462
1223.94	218.684
1228.26	197.18
1232.57	227.859
1236.89	324.758
1241.2	250.855
1245.51	251.103
1249.81	299.449
1254.12	201.889
1258.42	388.37
1262.72	414.004
1267.01	375.058
1271.3	298
1275.59	296.769
1279.88	227.742
1284.17	224.78
1288.45	285.129
1292.73	201.063
1297.01	96.2944
1301.28	89.9062
1305.55	65.1738
1309.82	147.435
1314.09	23.9253
1318.35	66.9707
1322.61	18.4863
1326.87	128.042
1331.13	74.8833
1335.38	35.4033
1339.63	229.101
1343.88	158.89
1348.12	310.101
1352.37	212.597
1356.61	367.892
1360.85	271.213
1365.08	426.622
1369.31	339.306
1373.54	293.151
1377.77	280.952
1381.99	307.218
1386.22	231.403
1390.43	195.447
1394.65	187.1
1398.87	250.999
1403.08	176.067
1407.29	99.2915
1411.49	122.356
1415.69	149.296
1419.89	196.697
1424.09	94.4048
1428.29	157.56
1432.48	61.6831
1436.67	68.3804
1440.86	105.361
1445.04	182.077
1449.23	115.405
1453.4	178.57
1457.58	145.399
1461.76	137.291
1465.93	161.082
1470.1	115.976
1474.26	110.335
1478.43	173.303
1482.59	200.823
1486.75	226.671
1490.9	249.457
1495.06	262.04
1499.21	254.006
1503.35	202.513
1507.5	246.615
1511.64	191.019
1515.78	255.089
1519.92	165.516
1524.05	190.922
1528.18	229.478
1532.31	20.5679
1536.44	53.6699
1540.56	81.1245
1544.69	38.8174
1548.8	247.796
1552.92	391.527
1557.03	163.062
1561.14	164.597
1565.25	103.142
1569.36	179.289
