Measurement: Raman, 514 nm, ccw, Raman Data Processed
Mineral: Epididymite
Rruff sample: R070580
Ideal chemistry: Na_2_Be_2_Si_6_O_15_H_2_O
Locality: Narsarsuk, Narsaq, Kitaa, Greenland
Source: James Shigley
Description: A translucent to white elongated prism.
Measured chemistry: (Na_1.97_K_0.03_)_Σ=2_Be_2_Si_6.00_O_15_·H_2_O; trace amounts of Al; Be and H_2_O assumed by stoichiometry
Pin_id: M01839
Orientation: Laser parallel to b* (0 1 0). Fiducial mark perpendicular to laser is parallel to -c [0 0 -1]
Raman shift (cm-1)	intensity
111.206	0
116.155	501.606
121.101	2710.78
126.045	4498
130.985	6791.56
135.923	6217.42
140.858	2392.84
145.79	2018.02
150.719	2881.12
155.646	1551.08
160.569	316.018
165.49	82.7739
170.408	15.3823
175.324	18.7275
180.237	26.793
185.146	16.0947
190.053	519.485
194.958	960.582
199.859	980.627
204.758	675.727
209.654	470.577
214.547	489.437
219.438	718.087
224.326	1328.34
229.211	2744.84
234.093	5506.16
238.972	8495.77
243.849	8974.58
248.723	5247.56
253.594	3116.72
258.462	2049.03
263.328	1389.54
268.191	809.73
273.051	510.555
277.908	712.486
282.763	782.491
287.615	763.294
292.464	229.47
297.31	72.8008
302.154	81.7207
306.995	66.6406
311.833	4.32031
316.668	84.2217
321.501	93.1748
326.331	48.667
331.158	13.46
335.983	66.7647
340.804	24.9717
345.623	200.141
350.44	169.201
355.253	261.691
360.064	163.875
364.872	361.882
369.677	769.933
374.48	1552.96
379.28	2750.15
384.077	2907.49
388.872	2280.04
393.663	1336.76
398.452	2300.8
403.239	4894.06
408.022	8576.38
412.803	4316.6
417.581	863.752
422.357	256.909
427.129	41.9805
431.899	103.107
436.667	112.449
441.431	142.155
446.193	73.9209
450.952	115.566
455.709	232.453
460.463	846.151
465.214	2472.14
469.962	6663.57
474.708	11850.4
479.451	10322.1
484.191	3177.85
488.929	1739.21
493.663	1160.68
498.396	1164.26
503.125	1982.97
507.852	5297.8
512.576	16436.8
517.298	30416.9
522.016	35407.1
526.732	13072.5
531.446	4417.56
536.156	2166.04
540.865	1337.52
545.57	810.81
550.273	635.746
554.973	337.494
559.67	414.827
564.364	281.742
569.056	396.972
573.746	459.703
578.432	693
583.116	936.632
587.798	917.595
592.476	422.312
597.152	151.481
601.825	36.792
606.496	49.249
611.164	63.9287
615.829	41.6934
620.492	239.603
625.152	301.512
629.809	227.36
634.464	272.139
639.116	188.843
643.765	117.467
648.412	145.005
653.056	251.459
657.697	149.816
662.336	113.085
666.972	35.8057
671.605	21.0723
676.236	96.7607
680.864	31.9697
685.49	27.0459
690.113	19.6846
694.733	67.6631
699.351	13.5918
703.965	73.4609
708.578	43.8682
713.187	33.7441
717.794	1.28711
722.399	80.3594
727.001	172.041
731.6	268.215
736.196	238.16
740.79	244.925
745.381	244.501
749.97	687.887
754.556	782.081
759.139	642.792
763.72	391.628
768.298	411.266
772.874	277.708
777.447	247.956
782.017	211.273
786.585	208.922
791.15	284.942
795.712	74.4365
800.272	214.829
804.829	285.433
809.384	413.271
813.936	660.319
818.485	683.139
823.032	431.721
827.576	403.106
832.118	99.0938
836.657	171.902
841.193	169.728
845.727	175.645
850.258	224.159
854.787	336.736
859.313	328.998
863.836	339.989
868.357	275.57
872.875	270.91
877.391	241.249
881.904	59.5039
886.414	215.789
890.922	73.0586
895.427	108.202
899.93	99.4238
904.43	130.648
908.927	217.881
913.422	186.138
917.914	121.784
922.404	0.811523
926.891	185.293
931.376	14.1943
935.858	36.335
940.337	140.002
944.814	115.768
949.289	52.3369
953.76	61.7383
958.229	39.0752
962.696	67.0195
967.16	75.0059
971.621	56.1885
976.08	55.5293
980.537	93.2471
984.99	60.8145
989.442	170.039
993.89	171.574
998.336	151.392
1002.78	607.414
1007.22	402.632
1011.66	379.005
1016.1	374.534
1020.53	270.226
1024.96	328.083
1029.39	261.374
1033.81	323.513
1038.24	334.832
1042.66	795.336
1047.07	1116.44
1051.49	964.088
1055.9	941.683
1060.31	765.731
1064.72	1043.43
1069.13	764.041
1073.53	547.87
1077.93	547.92
1082.33	416.142
1086.72	326.859
1091.12	116.287
1095.51	227.571
1099.89	120.469
1104.28	216.538
1108.66	248.671
1113.04	537.487
1117.42	489.488
1121.79	566.773
1126.16	623.268
1130.53	953.97
1134.9	1478.53
1139.27	1987.69
1143.63	1668.06
1147.99	1071.66
1152.35	656.514
1156.7	280.674
1161.05	179.199
1165.4	94.8447
1169.75	112.697
1174.09	181.754
1178.44	42.9717
1182.78	42.6973
1187.11	44.7549
1191.45	88.3682
1195.78	102.134
1200.11	41.081
1204.44	106.178
1208.76	51.6748
1213.08	130.179
1217.4	117.756
1221.72	151.995
1226.03	20.0098
1230.35	212.506
1234.66	114.209
1238.96	57.0127
1243.27	38.8682
1247.57	121.665
1251.87	57.0596
1256.17	191.632
1260.46	131.391
1264.75	108.201
1269.04	32.1875
1273.33	237.581
1277.62	208.44
1281.9	150.255
1286.18	152.565
1290.45	121.6
1294.73	165.379
1299	276.534
1303.27	31.8555
1307.54	64.9228
1311.8	182.929
1316.07	408.67
1320.33	205.773
1324.58	222.483
1328.84	191.685
1333.09	238.971
1337.34	211.405
1341.59	33.0684
1345.83	44.2705
1350.08	141.995
1354.32	226.155
1358.55	72.6543
1362.79	18.1113
1367.02	171.673
1371.25	47.3359
1375.48	23.6221
1379.71	61.958
1383.93	236.276
1388.15	309.207
1392.37	145.66
1396.58	120.338
1400.8	117.228
1405.01	135.119
1409.21	107.019
1413.42	29.8242
1417.62	98.2383
1421.83	179.883
1426.02	284.975
1430.22	269.065
1434.41	337.119
1438.61	404.582
1442.79	429.303
1446.98	497.295
1451.16	435.305
1455.35	453.586
1459.52	533.113
1463.7	399.785
1467.87	190.342
1472.05	428.486
1476.21	223.816
1480.38	221.043
1484.55	290.754
1488.71	192.041
1492.87	230.443
1497.03	99.2559
1501.18	152.002
1505.33	193.047
1509.48	36.2285
1513.63	59.5664
1517.77	59.3945
1521.92	352.643
1526.06	146.82
1530.19	176.057
1534.33	103.453
1538.46	173.055
1542.59	312.56
1546.72	205.295
1550.85	145.053
1554.97	243.863
1559.09	121.309
