Measurement: Raman, 514 nm, ccw, Raman Data Processed
Mineral: Epidote
Rruff sample: R040089
Ideal chemistry: Ca_2_Fe^3+^Al_2_(Si_2_O_7_)(SiO_4_)O(OH)
Locality: Grafton County, New Hampshire, USA
Source: University of Arizona Mineral Museum
Description: Dark green coarsely crystalline massive
Measured chemistry: Ca_2.00_(Al_2.36_Fe^3+^_0.64_)[Si_2.00_O_7_][Si_1.00_O_4_]O(OH)
Pin_id: M00263
Orientation: Laser parallel to -b* (0 -1 0). Fiducial mark perpendicular to laser is parallel to c [0 0 1]
Raman shift (cm-1)	intensity
125.905	0
130.053	317.329
134.2	4164.26
138.345	9577.72
142.488	8314.31
146.629	4103.85
150.768	2543.61
154.905	1762.69
159.04	1522
163.174	3443.69
167.306	6375.76
171.436	7868.17
175.564	5730.02
179.69	2849.35
183.814	1050.61
187.937	245.476
192.057	111.696
196.176	308.236
200.293	302.987
204.408	90.447
208.521	581.508
212.633	745.944
216.742	728.783
220.85	1172.09
224.956	2266.61
229.06	3864.11
233.162	5607.9
237.263	5721.32
241.361	4763.22
245.458	5608.94
249.553	8849.62
253.646	10011.3
257.737	6410.77
261.827	3177.57
265.914	2034.72
270	1932.74
274.084	3481.62
278.166	6661.31
282.246	6281.83
286.325	3113.21
290.402	2141.76
294.477	2570.05
298.55	4609.31
302.621	4375.64
306.69	2667.87
310.758	1228.41
314.824	349.254
318.888	48.028
322.95	92.081
327.01	925.532
331.069	2000.94
335.126	1864.97
339.181	1814.32
343.234	2215.19
347.285	3962.65
351.335	7444.97
355.383	9077.04
359.429	6005.63
363.473	2853.34
367.515	1192.18
371.556	450.462
375.595	28.123
379.632	340.668
383.667	514.826
387.7	223.399
391.732	602.711
395.762	1692.06
399.79	1467.69
403.816	481.645
407.841	245.125
411.864	299.303
415.884	843.981
419.904	2188.8
423.921	5605.1
427.937	11930.4
431.951	13986.6
435.963	11153.8
439.973	9421.73
443.981	9760.51
447.988	13090
451.993	20080.3
455.996	21940.6
459.998	19260.8
463.998	17200.9
467.996	14150.9
471.992	10570.9
475.986	7197.63
479.979	4886
483.97	3671.27
487.959	3329.55
491.946	3481.02
495.932	3662.59
499.916	3853.65
503.898	4684.54
507.878	5975.65
511.857	7677.09
515.834	8439.31
519.809	6722.88
523.782	6108.11
527.754	8184.61
531.723	6591.64
535.692	3156.01
539.658	1398.15
543.623	954.152
547.585	842.739
551.547	1076.18
555.506	1808.59
559.464	2945.13
563.42	5445.44
567.374	12811.7
571.326	22220.6
575.277	12902.6
579.226	5057.66
583.173	3100.86
587.119	3113.65
591.063	4087.06
595.005	5443.38
598.945	8159.47
602.884	11956
606.821	13549.6
610.756	10482.7
614.689	6776.42
618.621	4581.74
622.551	3177.27
626.479	2052.95
630.406	1353.94
634.331	981.892
638.254	570.956
642.175	455.349
646.095	168.573
650.013	186.865
653.929	234.536
657.844	322.592
661.757	615.256
665.668	806.52
669.577	943.372
673.485	820.796
677.391	812.771
681.296	1043.27
685.198	1327.26
689.099	1597.74
692.998	1551.69
696.896	1340.37
700.792	872.283
704.686	669.436
708.578	378.147
712.469	197.266
716.358	69.732
720.246	22.608
724.131	59.012
728.015	112.627
731.898	127.612
735.778	135.154
739.657	126.328
743.535	91.117
747.41	84.5
751.284	105.394
755.156	123.704
759.027	31.399
762.896	84.381
766.763	6.258
770.628	51.225
774.492	83.817
778.354	75.527
782.215	83.969
786.073	22.558
789.93	104.363
793.786	94.47
797.64	152.922
801.492	236.003
805.342	348.981
809.191	437.672
813.038	531.572
816.884	672.127
820.727	965.15
824.569	1348.65
828.41	1937.63
832.249	2630.1
836.086	2833.07
839.921	2628.55
843.755	2322.54
847.587	2309.07
851.418	2474.13
855.247	2692.74
859.074	3199.87
862.899	3748.53
866.723	4470.61
870.545	5325.5
874.366	6403
878.185	7615.74
882.002	8284.47
885.818	7572.47
889.632	6277.55
893.444	5467.41
897.255	5452.14
901.064	6144.28
904.872	7674.56
908.677	10167
912.482	13615.9
916.284	16618.2
920.085	17870
923.884	16051.6
927.682	12334.9
931.478	9428.51
935.272	6927.04
939.065	5383.04
942.856	4384.85
946.646	3693.31
950.433	3264.15
954.22	3024.19
958.004	3026.5
961.787	3171.76
965.569	3167.29
969.348	2886.96
973.126	2841.77
976.903	3301.74
980.678	4571.85
984.451	6398.11
988.223	6321.55
991.993	4501.15
995.761	2696.95
999.528	1895.94
1003.29	1215.12
1007.06	924.53
1010.82	644.212
1014.58	480.239
1018.34	461.804
1022.1	569.928
1025.85	909.212
1029.6	1241.53
1033.36	1629.66
1037.11	2203.24
1040.86	3262.66
1044.6	4255.36
1048.35	4844.43
1052.09	4834.91
1055.84	4142.46
1059.58	3621.67
1063.32	3306.18
1067.06	3069.88
1070.79	2839.51
1074.53	3144.8
1078.26	4152.18
1081.99	5860.56
1085.72	8639
1089.45	12268.8
1093.18	14784.6
1096.9	11521.6
1100.62	5991.28
1104.35	2807.93
1108.07	1535.66
1111.79	1016.94
1115.5	777.571
1119.22	554.715
1122.93	515.177
1126.64	335.02
1130.36	359.803
1134.07	344.381
1137.77	212.213
1141.48	232.016
1145.18	135.051
1148.89	103.88
1152.59	60.538
1156.29	34.333
1159.99	27.523
1163.68	7.299
1167.38	43.686
1171.07	103.993
1174.77	36.764
1178.45	99.41
1182.14	49.533
1185.83	52.535
1189.52	49.654
1193.2	1.283
1196.88	19.968
1200.57	28.282
1204.24	21.569
1207.92	48.311
1211.6	49.146
1215.28	2.49
1218.95	57.811
1222.62	17.138
1226.29	42.556
1229.96	2.014
1233.63	38.782
1237.29	50.12
1240.95	53.836
1244.62	47.353
1248.28	113.767
1251.94	2.239
1255.6	26.487
1259.25	54.951
1262.91	27.209
1266.56	63.252
1270.21	36.257
1273.86	72.693
1277.51	115.054
1281.16	144.346
1284.8	144.984
1288.45	158.118
1292.09	84.54
1295.73	103.17
1299.37	27.857
1303.01	119.233
1306.64	138.396
1310.28	171.926
1313.91	179.655
1317.55	130.927
1321.17	112.025
1324.8	189.842
1328.43	80.243
1332.06	15.832
1335.68	117.009
1339.3	150.553
1342.92	103.213
1346.54	208.216
1350.16	232.234
1353.78	242
1357.39	196.217
1361.01	148.698
1364.62	213.337
1368.23	169.589
1371.84	153.82
1375.45	166.734
1379.05	226.312
1382.66	152.047
1386.26	257.574
1389.86	330.243
1393.46	193.771
1397.06	145.833
1400.65	204.826
1404.25	120.997
1407.85	118.513
1411.44	108.725
1415.03	207.861
1418.62	240.745
1422.2	160.542
1425.79	191.571
1429.38	200.95
1432.96	86.51
1436.54	55.089
1440.12	20.707
1443.7	5.506
1447.28	62.185
1450.85	121.076
1454.43	232.035
1458	105.938
1461.57	159.288
1465.14	181.772
1468.71	190.953
1472.28	204.583
1475.84	105.809
1479.41	155.724
1482.97	30.61
1486.53	21.743
1490.09	60.921
1493.65	45.885
1497.2	59.036
1500.76	189.231
1504.31	99.782
1507.87	179.167
1511.42	152.306
1514.97	123.798
1518.51	61.861
1522.06	50.257
1525.6	65.575
1529.15	0.341
