Measurement: Raman, 514 nm, ccw, Raman Data Processed
Mineral: Epidote
Rruff sample: R040089
Ideal chemistry: Ca_2_Fe^3+^Al_2_(Si_2_O_7_)(SiO_4_)O(OH)
Locality: Grafton County, New Hampshire, USA
Source: University of Arizona Mineral Museum
Description: Dark green coarsely crystalline massive
Measured chemistry: Ca_2.00_(Al_2.36_Fe^3+^_0.64_)[Si_2.00_O_7_][Si_1.00_O_4_]O(OH)
Pin_id: M00420
Orientation: Laser parallel to [1 0 1]. Fiducial mark perpendicular to laser is parallel to b* (0 1 0)
Raman shift (cm-1)	intensity
148.008	0
152.147	40.027
156.284	91.861
160.418	257.206
164.551	328.294
168.683	680.33
172.812	1838.79
176.939	2956.64
181.065	2239.36
185.188	1053.67
189.31	432.118
193.43	197.622
197.549	127.21
201.665	24.671
205.779	187.389
209.892	498.08
214.003	724.254
218.112	658.709
222.219	714.548
226.324	882.205
230.428	1854.62
234.529	3572.28
238.629	4132.84
242.727	2987.12
246.823	2293.87
250.917	2212.03
255.01	1673.51
259.101	748.254
263.189	219.876
267.276	172.567
271.362	274.583
275.445	1376.87
279.526	2454.22
283.606	1618.74
287.684	869.329
291.76	759.83
295.834	704.247
299.907	533.569
303.978	410.775
308.046	627.883
312.113	808.187
316.179	885.267
320.242	1072.97
324.304	1134.71
328.363	912.09
332.421	1139.39
336.478	1927.46
340.532	2776.51
344.585	3009.15
348.635	3809.76
352.684	6010.3
356.731	6342.76
360.777	3982.11
364.82	2111.66
368.862	1191.34
372.902	775.552
376.94	391.66
380.977	19.449
385.012	58.996
389.044	71.291
393.075	510.5
397.105	906.271
401.132	473.824
405.158	2.163
409.182	267.948
413.204	192.948
417.224	1.327
421.243	732.366
425.26	2148.17
429.275	3934.82
433.288	4755.26
437.3	5286.66
441.309	6443.71
445.317	7499.42
449.323	7524.97
453.328	8270.6
457.331	8306.33
461.331	7172.09
465.33	6077.5
469.328	5100.24
473.323	4020.21
477.317	2937.98
481.309	2005.49
485.3	1463.73
489.288	1176.72
493.275	1234.44
497.26	1253.9
501.243	1456.12
505.225	1961.12
509.205	2944.88
513.183	3641.4
517.159	3603.68
521.133	2473.81
525.106	1463.99
529.077	824.091
533.046	458.956
537.014	304.454
540.98	279.119
544.944	371.526
548.906	348.123
552.867	520.283
556.825	854.499
560.783	1578.28
564.738	3021.15
568.692	6956.51
572.643	10037.1
576.594	5182.64
580.542	2854.02
584.489	2526.52
588.434	3199.6
592.377	4730
596.318	6778.36
600.258	9675.48
604.196	12774.4
608.132	12673.8
612.067	9635.58
616	7183.08
619.931	5458.29
623.861	3665.52
627.788	2330.57
631.714	1616.33
635.639	1272.91
639.561	1070.76
643.482	775.999
647.401	682.138
651.319	532.575
655.234	615.834
659.148	650.567
663.061	622.949
666.971	611.98
670.88	520.66
674.787	480.988
678.693	448.964
682.597	519.583
686.499	559.845
690.399	621.749
694.298	632.281
698.195	612.894
702.09	627.912
705.984	671.986
709.876	497.739
713.766	341.143
717.654	195.187
721.541	101.875
725.426	32.602
729.31	10.384
733.191	0.558
737.071	113.054
740.95	57.466
744.827	82.653
748.702	55.687
752.575	85.518
756.447	88.158
760.316	21.654
764.185	25.402
768.051	46.755
771.916	45.31
775.78	41.439
779.641	71.191
783.501	40.664
787.359	17.224
791.216	9.284
795.071	52.827
798.924	92.602
802.775	115.061
806.625	174.225
810.474	207.12
814.32	324.76
818.165	410.154
822.008	504.31
825.85	622.232
829.69	819.928
833.528	953.406
837.364	1157.67
841.199	1203.73
845.033	1267.59
848.864	1244.28
852.694	1436.8
856.523	1609.16
860.349	1921.38
864.174	2318.44
867.998	2946.38
871.819	3617.78
875.639	3968.64
879.458	4300.66
883.274	5261.34
887.09	6395.19
890.903	7651.07
894.715	9029.78
898.525	8954.54
902.334	8980.01
906.14	9544.72
909.946	11389.1
913.749	14005.7
917.551	16547.2
921.352	17005
925.15	14628.2
928.947	11531.6
932.743	8271.66
936.537	6068.44
940.329	4319.16
944.119	3255.16
947.908	2602.28
951.696	2156.06
955.481	1894.64
959.265	1832.85
963.048	1762.85
966.829	1704.04
970.608	1563.35
974.385	1533.8
978.161	1753.39
981.936	2323.15
985.708	2945.06
989.479	2530.13
993.249	1670.39
997.017	1060.27
1000.78	698.863
1004.55	438.611
1008.31	343.073
1012.07	298.525
1015.83	492.957
1019.59	730.006
1023.35	1061.78
1027.1	1386.86
1030.86	1294.35
1034.61	1191.39
1038.36	1283.97
1042.11	1417.15
1045.85	1617.44
1049.6	1655.75
1053.34	1463.31
1057.08	1356.17
1060.82	1086.18
1064.56	920.849
1068.3	747.133
1072.04	607.054
1075.77	714.391
1079.5	988.322
1083.23	1356.84
1086.96	2392.6
1090.69	3660.8
1094.42	4919.05
1098.14	3658.47
1101.87	1807.22
1105.59	995.938
1109.31	557.423
1113.03	375.153
1116.74	279.614
1120.46	249.838
1124.17	197.884
1127.88	220.945
1131.59	118.321
1135.3	75.601
1139.01	83.133
1142.71	74.314
1146.42	52.138
1150.12	21.216
1153.82	6.224
1157.52	2.449
1161.22	20.166
1164.92	66.136
1168.61	3.028
1172.3	51.552
1175.99	15.977
1179.68	3.343
1183.37	9.23
1187.06	30.384
1190.75	21.92
1194.43	22.589
1198.11	63.743
1201.79	33.026
1205.47	56.881
1209.15	30.732
1212.83	23.498
1216.5	12.626
1220.17	24.889
1223.84	60.478
1227.51	27.578
1231.18	14.554
1234.85	30.306
1238.51	38.12
1242.18	11.472
1245.84	47.521
1249.5	3.431
1253.16	9.303
1256.82	34.192
1260.47	6.948
1264.12	72.309
1267.78	64.693
1271.43	21.69
1275.08	19.514
1278.73	24.936
1282.37	20.1
1286.02	7.062
1289.66	35.453
1293.3	52.219
1296.94	58.521
1300.58	39.467
1304.22	62.514
1307.86	21.228
1311.49	45.636
1315.12	32.065
1318.76	61.583
1322.38	32.688
1326.01	50.346
1329.64	17.199
1333.27	94.954
1336.89	80.377
1340.51	115.564
1344.13	75.523
1347.75	61.439
1351.37	56.232
1354.98	23.474
1358.6	72.197
1362.21	99.476
1365.82	130.451
1369.43	116.667
1373.04	148.797
1376.65	145.834
1380.25	66.027
1383.86	139.354
1387.46	114.491
1391.06	109.52
1394.66	77.831
1398.26	65.278
1401.85	128.326
1405.45	136.419
1409.04	91.455
1412.63	119.838
1416.22	110.082
1419.81	95.052
1423.4	52.034
1426.99	60.42
1430.57	63.346
1434.15	59.273
1437.73	67.854
1441.32	104.099
1444.89	82.725
1448.47	114.687
1452.05	109.954
1455.62	97.058
1459.19	46.829
1462.76	106.396
1466.33	71.67
1469.9	74.94
1473.47	74.937
1477.03	107.814
1480.6	109.36
1484.16	82.169
1487.72	167.136
1491.28	129.99
1494.83	117.112
1498.39	45.484
1501.94	77.103
1505.5	25.18
1509.05	17.139
1512.6	2.189
1516.15	36.73
1519.69	1.168
1523.24	0.513
