Measurement: Raman, 514 nm, ccw, Raman Data Processed
Mineral: Epidote
Rruff sample: R040089
Ideal chemistry: Ca_2_Fe^3+^Al_2_(Si_2_O_7_)(SiO_4_)O(OH)
Locality: Grafton County, New Hampshire, USA
Source: University of Arizona Mineral Museum
Description: Dark green coarsely crystalline massive
Measured chemistry: Ca_2.00_(Al_2.36_Fe^3+^_0.64_)[Si_2.00_O_7_][Si_1.00_O_4_]O(OH)
Pin_id: M00383
Orientation: Laser parallel to a [1 0 0]. Fiducial mark perpendicular to laser is parallel to b* (0 1 0)
Raman shift (cm-1)	intensity
53.228	0
57.445	1005.41
61.659	1946.47
65.871	1232.17
70.081	152.262
74.288	750.661
78.494	2554.73
82.697	3453.76
86.898	8414
91.097	18999.4
95.293	23283.4
99.488	12973.4
103.68	6051.2
107.87	3059.87
112.057	1171.57
116.243	1007.75
120.426	59.489
124.608	774.312
128.787	4909.72
132.963	13228.1
137.138	21833.3
141.311	20184.3
145.481	12927.5
149.649	8580.14
153.815	5083.92
157.979	4548.61
162.14	7914
166.3	14580
170.457	17436.2
174.612	12812.2
178.765	7448.38
182.915	4144.59
187.064	2370.95
191.21	1067.53
195.355	105.496
199.497	398.405
203.637	240.818
207.774	162.854
211.91	44.397
216.043	365.225
220.175	1115.7
224.304	2241.27
228.431	3726.16
232.556	5088.73
236.678	5946.98
240.799	9283.85
244.917	18145.7
249.034	30357.2
253.148	34707.9
257.26	24277.2
261.37	14345.9
265.477	9374.05
269.583	7301.85
273.686	6529.43
277.788	5936.92
281.887	5092.98
285.984	5133.95
290.079	6011.46
294.172	8365.97
298.263	11057
302.351	10068
306.438	4439.51
310.522	1291.61
314.604	904.279
318.684	1187.52
322.762	2361.31
326.838	4115.67
330.912	5590.62
334.984	7036.17
339.053	9552.32
343.121	12609.1
347.186	18666.4
351.25	27704.3
355.311	28922.7
359.37	17874.6
363.427	8748.86
367.482	4360.74
371.535	2083.67
375.585	698.713
379.634	303.24
383.68	639.224
387.725	281.919
391.767	376.935
395.808	727.213
399.846	678.207
403.882	390.111
407.916	312.629
411.948	105.868
415.978	699.985
420.006	2305.16
424.031	5651.44
428.055	10018.9
432.077	12877.6
436.096	15027.5
440.114	17268.7
444.129	21621.2
448.142	33165
452.154	47880.1
456.163	39296.2
460.17	23433.3
464.175	14091.4
468.178	9310.33
472.179	7040.12
476.178	5740.69
480.175	5591.95
484.17	6233.88
488.163	7347.24
492.153	8532.59
496.142	8799.32
500.129	9593.78
504.113	12088.5
508.096	16233.7
512.077	21489.3
516.055	22905.4
520.032	16612.3
524.006	9160.03
527.978	5289.41
531.949	2920.2
535.917	1033.89
539.883	445.692
543.848	268.843
547.81	762.32
551.77	1200.48
555.728	2476.11
559.685	5101.38
563.639	10480
567.591	24021.8
571.541	37408.5
575.489	20184.5
579.435	7828.97
583.38	4999.78
587.322	4917.92
591.262	6485.07
595.2	9064.83
599.136	13904.4
603.07	19428.5
607.002	20125.7
610.932	14659.1
614.86	9134.59
618.786	5853.46
622.71	3699.54
626.632	1896.71
630.552	1081.35
634.471	671.235
638.387	402.832
642.301	212.346
646.213	11.39
650.123	34.937
654.031	185.671
657.937	498.417
661.842	629.23
665.744	565.489
669.644	505.174
673.542	395.268
677.438	463.748
681.333	592.588
685.225	754.764
689.115	1179.24
693.004	1453
696.89	1441.09
700.775	1378.18
704.657	1194.26
708.538	792.746
712.416	549.435
716.293	287.292
720.167	100.229
724.04	88.859
727.911	196.355
731.78	55.593
735.646	68.719
739.511	117.904
743.374	204.252
747.235	218.798
751.094	179.647
754.951	57.808
758.806	91.179
762.659	63.771
766.511	67.19
770.36	53.319
774.207	48.898
778.053	110.596
781.896	80.883
785.738	78.844
789.577	85.605
793.415	303.25
797.251	821.88
801.084	379.593
804.916	408.303
808.746	545.712
812.574	676.508
816.4	996.51
820.224	1259.64
824.047	1418.92
827.867	1805.35
831.685	2072.62
835.502	2190.32
839.316	2430.26
843.129	2684.39
846.94	3027.72
850.749	3719.28
854.556	4634.47
858.361	5693.18
862.164	6999.55
865.965	8791.23
869.764	11489.9
873.562	14845.1
877.357	19228.7
881.151	21518.7
884.942	18934.7
888.732	14962.1
892.52	12600.5
896.306	10848.9
900.09	9182.44
903.872	8436.29
907.653	9275.14
911.431	11019.3
915.208	12473.7
918.982	11059.7
922.755	8464.18
926.526	6309.78
930.295	4565.54
934.062	3375.36
937.827	2408.89
941.59	1699.91
945.352	1290.73
949.112	1280.45
952.869	1149.31
956.625	1055.75
960.379	933.961
964.131	963.276
967.881	1087.63
971.63	1447.05
975.376	2096.51
979.121	3249.09
982.864	4574.73
986.605	4461.57
990.344	2879.37
994.081	1888.41
997.816	1301.45
1001.55	897.218
1005.28	626.152
1009.01	424.801
1012.74	587.896
1016.47	858.959
1020.19	1420.42
1023.91	2078.92
1027.63	2331.03
1031.35	2304.17
1035.07	2578.53
1038.78	3183.3
1042.49	3790.35
1046.21	4123.03
1049.92	3760.22
1053.62	3291.33
1057.33	2810.26
1061.03	2800.11
1064.73	3062.8
1068.44	2858.18
1072.13	2758.09
1075.83	3096.69
1079.53	3172.97
1083.22	3975.51
1086.91	5351.25
1090.6	6892.6
1094.29	5815.33
1097.97	3016.78
1101.66	1630.88
1105.34	1075.98
1109.02	720.821
1112.7	508.777
1116.37	304.632
1120.05	252.176
1123.72	297.871
1127.39	263.631
1131.06	248.445
1134.73	133.697
1138.39	10.21
1142.06	17.102
1145.72	92.479
1149.38	38.157
1153.04	106.871
1156.69	49.54
1160.35	41.328
1164	12.827
1167.65	135.126
1171.3	49
1174.95	56.734
1178.6	54.853
1182.24	143.238
1185.88	150.352
1189.52	77.322
1193.16	6.141
1196.8	8.941
1200.43	60.513
1204.07	29.947
1207.7	122.685
1211.33	191.842
1214.96	196.854
1218.58	119.019
1222.21	14.986
1225.83	53.325
1229.45	33.122
1233.07	65.492
1236.69	99.606
1240.3	222.528
1243.92	230.426
1247.53	124.092
1251.14	159.274
1254.75	52.447
1258.35	50.087
1261.96	3.451
1265.56	37.271
1269.16	197.081
1272.76	367.717
1276.36	317.308
1279.96	369.805
1283.55	203.724
1287.14	71.558
1290.73	98.809
1294.32	38.508
1297.91	128.527
1301.5	197.01
1305.08	334.052
1308.66	275.584
1312.24	259.792
1315.82	198.34
1319.4	232.275
1322.97	80.447
1326.55	31.022
1330.12	120.557
1333.69	230.356
1337.26	277.098
1340.82	381.801
1344.39	396.092
1347.95	310.95
1351.51	271.188
1355.07	254.559
1358.63	156.493
1362.18	178.149
1365.74	308.805
1369.29	414.071
1372.84	30.73
1376.39	474.312
1379.94	466.365
1383.48	395.274
1387.03	316.557
1390.57	243.45
1394.11	145.162
1397.65	93.602
1401.19	161.801
1404.72	260.201
1408.26	358.276
1411.79	453.008
1415.32	433.8
1418.85	443.28
1422.37	355.287
1425.9	247.902
1429.42	146.816
1432.94	66.255
1436.46	8.53
1439.98	181.828
1443.5	266.752
1447.01	255.561
1450.53	380.042
1454.04	367.283
1457.55	381.37
1461.05	258.49
1464.56	230.604
1468.07	196.684
1471.57	100.981
1475.07	64.928
1478.57	63.132
1482.07	167.281
1485.56	212.618
1489.06	287.093
1492.55	340.737
1496.04	397.537
1499.53	441.495
1503.02	256.893
1506.5	449.478
1509.99	153.367
1513.47	0
