Measurement: Raman, 514 nm, ccw, Raman Data Processed
Mineral: Epididymite
Rruff sample: R060773
Ideal chemistry: Na_2_Be_2_Si_6_O_15_H_2_O
Locality: unknown
Source: Michael Scott
Description: Colorless platy crystals forming a pseudohexagonal aggregate
Pin_id: M00206
Orientation: Laser parallel to a* (1 0 0). Fiducial mark perpendicular to laser is parallel to b [0 1 0]
Raman shift (cm-1)	intensity
102.116	0
107.047	636.002
111.976	1507.13
116.903	3284.85
121.827	6255.29
126.749	7595.53
131.668	6671.46
136.585	3893.01
141.5	3562.43
146.412	3222.06
151.321	2327.73
156.229	743.926
161.134	34.4941
166.036	85.3477
170.936	109.9
175.834	166.441
180.729	150.088
185.622	297.828
190.512	531.098
195.4	855.785
200.286	827.91
205.169	196.002
210.049	233.518
214.928	416.975
219.803	1128.55
224.677	2003.95
229.548	4675.15
234.416	8058.93
239.282	8625.91
244.146	6264.21
249.007	3696.5
253.866	2374.94
258.722	2045.13
263.576	1143.18
268.427	542.869
273.276	794.742
278.123	839.127
282.967	786.711
287.809	318.473
292.648	236.447
297.485	54.9863
302.319	121.287
307.151	56.5352
311.98	21.0703
316.807	17.0137
321.631	113.887
326.454	2.92773
331.273	183.365
336.09	154.99
340.905	353.223
345.717	484.519
350.527	678.127
355.334	572.504
360.139	602.998
364.941	839.691
369.741	1114.9
374.538	2453.73
379.333	2856.26
384.126	2511.49
388.916	1742.43
393.703	1913.04
398.488	5170.71
403.271	7521.33
408.051	5536.15
412.828	1758.36
417.603	283.828
422.376	104.074
427.146	101.803
431.914	102.031
436.679	88.5019
441.442	127.357
446.202	66.2969
450.96	299.961
455.715	843.604
460.467	1717.75
465.218	5361.74
469.965	11076.2
474.711	11155.9
479.454	5188.55
484.194	2447.99
488.932	1668.56
493.667	1616.43
498.4	2269.19
503.13	3966.81
507.858	11544.2
512.583	29087.3
517.306	34557.1
522.026	19363.6
526.744	7275.8
531.459	3041.66
536.172	1940.56
540.882	1186.12
545.59	876.734
550.295	784.779
554.998	564.461
559.698	547.359
564.396	651.277
569.091	739.623
573.784	1204.75
578.474	1538.94
583.162	1686.02
587.847	1443.62
592.529	1176.75
597.209	1355.9
601.887	1323.49
606.562	1249.48
611.235	1204.88
615.905	1571.92
620.572	2530.82
625.237	3918.28
629.9	3595.23
634.56	2073.62
639.217	1932.46
643.872	2639.72
648.524	3150.4
653.174	2817.5
657.821	1839.01
662.466	962.936
667.108	641.269
671.748	481.014
676.385	99.1582
681.02	333.475
685.652	72.2188
690.281	56.6816
694.908	28.5859
699.533	144.637
704.155	134.443
708.774	264.998
713.391	0.101563
718.005	82.2461
722.617	23.5762
727.226	231.68
731.833	311.209
736.437	528.176
741.039	480.584
745.638	812.439
750.234	1270.75
754.828	1266.52
759.419	886.752
764.008	891.465
768.595	719.664
773.178	677.363
777.759	861.576
782.338	802.322
786.914	828.613
791.488	950.457
796.059	1075.88
800.627	857.231
805.193	1363.54
809.756	1600.83
814.317	1614.22
818.875	1428.63
823.431	1502.89
827.984	1456.18
832.534	1413.08
837.082	1308.34
841.627	1536.23
846.17	2004.49
850.71	2482.94
855.248	3321.33
859.783	3781.39
864.316	3433.94
868.846	2378.49
873.373	1774.16
877.898	1504.93
882.42	1448.82
886.94	1092.86
891.457	1219.05
895.971	1206.41
900.483	963.975
904.993	1353.75
909.5	984.758
914.004	680.014
918.505	603.543
923.004	154.356
927.501	334.6
931.995	381.25
936.486	432.154
940.975	108.93
945.461	174.9
949.945	240.406
954.426	381.502
958.904	304.293
963.38	46.8398
967.853	69.8184
972.324	71.5644
976.792	194.238
981.258	79.9414
985.72	13.8672
990.181	318.449
994.639	430.754
999.094	1149.7
1003.55	3181.17
1008	963.143
1012.44	503.635
1016.89	415.648
1021.33	923.191
1025.77	917.266
1030.21	781.881
1034.64	631.566
1039.07	621.736
1043.5	712.986
1047.93	987.789
1052.35	1036.14
1056.78	754.057
1061.19	558.078
1065.61	561.445
1070.02	562.486
1074.43	611.598
1078.84	923.488
1083.25	1153.01
1087.65	1123.5
1092.05	717.416
1096.45	536.844
1100.85	693.238
1105.24	854.01
1109.63	1405.69
1114.02	1328.78
1118.4	1178.63
1122.78	1216.81
1127.16	1264.43
1131.54	1684.51
1135.92	2091.03
1140.29	1694.01
1144.66	1401.43
1149.02	456.289
1153.39	120.594
1157.75	457.332
1162.11	251.574
1166.46	264.254
1170.82	274.356
1175.17	156.879
1179.52	260.816
1183.86	264.164
1188.21	125.078
1192.55	62.7188
1196.89	285.285
1201.22	110.996
1205.55	31.1016
1209.88	37.418
1214.21	288.414
1218.54	256.566
1222.86	52.0781
1227.18	461.969
1231.5	490.91
1235.81	662.477
1240.12	1020.85
1244.43	671.231
1248.74	764.289
1253.04	674.828
1257.34	605.106
1261.64	910.074
1265.94	1564.44
1270.23	1613.23
1274.52	1934.39
1278.81	1867.92
1283.1	1171.81
1287.38	959.961
1291.66	1474.54
1295.94	1577.4
1300.21	1461.56
1304.48	1347.99
1308.75	1876.66
1313.02	1976.54
1317.29	2388.45
1321.55	1761.18
1325.81	1447.36
1330.06	1017.45
1334.32	534.848
1338.57	666.844
1342.82	316.824
1347.06	611.188
1351.31	324.934
1355.55	322.07
1359.79	159.574
1364.02	163.402
1368.26	231.578
1372.49	568.785
1376.71	430.195
1380.94	681.016
1385.16	759.297
1389.38	429.309
1393.6	577.234
1397.81	172.18
1402.02	260.195
1406.23	140.617
1410.44	9.4375
1414.64	106.984
1418.85	270.344
1423.04	373.34
1427.24	563.371
1431.43	923.734
1435.62	1946.35
1439.81	2882.16
1444	3907.69
1448.18	4692.75
1452.36	5167.18
1456.54	4983.73
1460.71	4578.3
1464.89	3258.48
1469.06	2139.03
1473.22	2277.2
1477.39	1483.39
1481.55	1564.53
1485.71	1113.55
1489.86	535.82
1494.02	168.199
1498.17	31.918
1502.32	192.352
1506.46	52.8789
1510.61	24.1367
1514.75	170.09
1518.88	67.9492
1523.02	377.688
1527.15	321.148
1531.28	451.633
1535.41	731.332
1539.53	444.578
1543.66	595.484
1547.78	373.262
1551.89	432.949
1556.01	227.301
1560.12	150.137
1564.23	264.852
1568.33	103.961
