Measurement: Raman, 514 nm, ccw, Raman Data Processed
Mineral: Epidote
Rruff sample: R040092
Ideal chemistry: Ca_2_Fe^3+^Al_2_(Si_2_O_7_)(SiO_4_)O(OH)
Locality: Nahant, Massachusetts, USA
Source: University of Arizona Mineral Museum
Description: Green prismatic crystals imbedded in quartz
Measured chemistry: Ca_2.01_Al_2.00_Fe_1.00_(Si_1.00_O_4_)(Si_1.97_Fe_0.02_Al_0.01_Ti_0.01_O_7_)O(OH)
Pin_id: M00463
Orientation: Laser parallel to [-1 0 -1]. Fiducial mark perpendicular to laser is parallel to b* (0 1 0)
Raman shift (cm-1)	intensity
51.466	0
55.666	1205.56
59.863	1165.92
64.059	83.848
68.253	25.548
72.445	351.786
76.635	1483.19
80.823	4905.48
85.009	11667.5
89.193	16396
93.375	16147.8
97.554	10855.2
101.732	5676.74
105.908	3373.8
110.082	1294.05
114.254	1143.88
118.424	1238.87
122.592	1138.73
126.758	2119.22
130.922	3137.17
135.083	2522.02
139.243	1326.06
143.401	338.161
147.557	121.487
151.711	48.395
155.863	678.2
160.013	2149.12
164.161	4877.32
168.308	7913.91
172.452	8870.98
176.594	6496.59
180.734	4464.79
184.872	3779.57
189.008	2878.98
193.143	1904.03
197.275	737.74
201.405	1126.12
205.534	896.169
209.66	1157.89
213.784	1044.55
217.907	2473.26
222.027	5118.35
226.146	7749.02
230.263	8716.23
234.377	8318.07
238.49	8621.22
242.601	8216.57
246.709	6443.22
250.816	5272.02
254.921	4629.84
259.024	3212.55
263.125	2214.07
267.224	2219.28
271.321	3346.12
275.416	3677.55
279.51	1987.53
283.601	586.011
287.69	775.968
291.778	1154.36
295.863	1318.16
299.947	908.28
304.029	977.586
308.108	1305.78
312.186	1584.8
316.262	1581.3
320.336	1643.48
324.408	1691.88
328.478	1718.5
332.546	1785.33
336.612	2441.35
340.677	4476.56
344.739	8323.94
348.799	10559.5
352.858	8643.15
356.915	4626.96
360.969	1872.88
365.022	618.897
369.073	410.024
373.122	934.476
377.169	723.056
381.215	242.829
385.258	1864.29
389.299	3178.04
393.339	2689.17
397.376	1359.03
401.412	470.604
405.446	487.104
409.478	1310.49
413.508	2302.84
417.536	4052.24
421.562	6829.61
425.586	10142.8
429.609	13774.7
433.629	17480.5
437.648	17759.9
441.665	15112
445.68	15192.5
449.693	16387.3
453.704	14460.4
457.713	11815.5
461.721	8384.67
465.726	7546.85
469.73	3890.96
473.731	2218.97
477.731	1239.84
481.729	1180.51
485.725	1501.95
489.72	2377.12
493.712	4291
497.703	6759.57
501.691	8920.79
505.678	9774.65
509.663	8527.11
513.646	5976.16
517.627	3621.77
521.607	2359.91
525.584	1307.55
529.56	753.533
533.534	306.972
537.506	295.273
541.476	446.64
545.444	828.729
549.41	1563.89
553.375	2858.69
557.337	6057.21
561.298	11746.4
565.257	14124.8
569.214	9456.05
573.17	6100.95
577.123	5907.79
581.075	7920.8
585.024	10808.9
588.972	14824.9
592.918	19058.3
596.863	22891.4
600.805	21540.6
604.746	17892.1
608.685	15129.8
612.621	13297.9
616.557	10773.8
620.49	7118.94
624.421	4765.78
628.351	3209.18
632.279	2469.16
636.205	2158.91
640.129	1664.96
644.051	1408.77
647.972	1201.99
651.89	1015.62
655.807	927.56
659.722	759.984
663.636	728.682
667.547	700.695
671.457	746.006
675.365	894.595
679.271	922.443
683.175	893.536
687.077	702.954
690.978	757.522
694.877	612.766
698.774	426.071
702.669	216.601
706.562	210.26
710.454	23.024
714.344	28.619
718.232	184.801
722.118	116.647
726.002	215.559
729.885	275.056
733.766	220.301
737.645	131.03
741.522	141.037
745.397	133.411
749.271	116.155
753.143	46.121
757.013	29.889
760.881	5.066
764.748	87.589
768.613	96.808
772.476	104.889
776.337	186.442
780.196	240.998
784.054	241.471
787.91	297.907
791.764	391.355
795.616	521.867
799.467	589.476
803.316	754.18
807.163	960.041
811.008	1192.02
814.851	1430.14
818.693	1976.12
822.533	2651.87
826.371	3206.51
830.208	3612.34
834.042	3687.39
837.875	3700.68
841.706	3685.24
845.536	3748.11
849.363	4221.29
853.189	4915.83
857.013	5873.48
860.836	7034.08
864.656	7766.38
868.475	8202.77
872.292	8972.86
876.108	11366.5
879.922	13747.7
883.733	16178.5
887.544	16866.2
891.352	15044.7
895.159	14117.6
898.964	15306.3
902.767	18348
906.568	23592.9
910.368	30495.7
914.166	34932.2
917.962	32665.2
921.757	23926.6
925.55	16096.6
929.341	10952.5
933.13	7616.35
936.918	5774.51
940.703	4528.12
944.488	3582.48
948.27	3247.13
952.051	3045.09
955.83	3310.22
959.607	2990.51
963.383	2567.99
967.156	2154.72
970.928	2211.7
974.699	2905.91
978.468	3435.36
982.234	3203.11
986	2149.6
989.763	1375.55
993.525	1123.45
997.285	924.946
1001.04	654.68
1004.8	737.441
1008.55	856.527
1012.31	1188.82
1016.06	2002.6
1019.81	2210.84
1023.56	1972.07
1027.31	1676.15
1031.05	1597.72
1034.79	1985.7
1038.53	2346.08
1042.27	2586.66
1046.01	2172.4
1049.75	1854.14
1053.48	1525.34
1057.22	1493.45
1060.95	1450.48
1064.68	1219.35
1068.4	1150.91
1072.13	1551.02
1075.86	2395.72
1079.58	4161.94
1083.3	7058.63
1087.02	8874.77
1090.74	6169.34
1094.45	3215.31
1098.17	1617.66
1101.88	969.601
1105.59	593.059
1109.3	375.838
1113.01	461.781
1116.71	226.731
1120.42	297.255
1124.12	762.972
1127.82	60.826
1131.52	53.738
1135.22	89.27
1138.91	89.946
1142.61	23.132
1146.3	42.171
1149.99	166.026
1153.68	181.946
1157.37	113.773
1161.06	111.408
1164.74	36.872
1168.42	41.361
1172.1	10.15
1175.78	30.194
1179.46	102.541
1183.14	160.496
1186.81	135.78
1190.48	188.704
1194.15	213.51
1197.83	246.594
1201.49	212.788
1205.16	177.138
1208.82	251.029
1212.49	203.884
1216.15	149.347
1219.81	112.94
1223.46	176.174
1227.12	159.742
1230.78	166.471
1234.43	120.754
1238.08	109.932
1241.73	91.59
1245.38	59.227
1249.03	7.971
1252.67	77.579
1256.31	8.969
1259.95	30.564
1263.6	149.433
1267.23	46.146
1270.87	137.513
1274.51	53.185
1278.14	84.632
1281.77	185.916
1285.4	57.324
1289.03	78.944
1292.66	130.62
1296.28	26.085
1299.91	57.72
1303.53	122.253
1307.15	72.853
1310.77	8.752
1314.38	17.308
1318	23.442
1321.61	5.313
1325.23	60.444
1328.84	79.505
1332.45	66.84
1336.06	79.585
1339.66	49.765
1343.27	117.393
1346.87	109.463
1350.47	185.996
1354.07	258.028
1357.67	119.598
1361.26	233.729
1364.86	102.449
1368.45	283.789
1372.04	183.457
1375.63	186.297
1379.22	261.982
1382.81	280.371
1386.39	261.113
1389.98	223.486
1393.56	298.876
1397.14	257.006
1400.72	269.909
1404.3	298.156
1407.87	309.783
1411.45	357.077
1415.02	315.191
1418.59	446.8
1422.16	232.226
1425.73	253.42
1429.29	276.904
1432.86	244.172
1436.42	259.464
1439.98	235.372
1443.54	268.926
1447.1	431.756
1450.66	437.037
1454.21	332.306
1457.77	379.825
1461.32	296.634
1464.87	223.056
1468.42	205.146
1471.96	209.794
1475.51	218.618
1479.06	124.344
1482.6	400.557
1486.14	179.548
1489.68	215.244
1493.22	224.404
1496.75	146.102
1500.29	98.604
1503.82	185.375
1507.35	164.181
1510.88	178.261
1514.41	95.992
1517.94	80.339
1521.46	0
