Measurement: Raman, 514 nm, ccw, Raman Data Processed
Mineral: Epidote
Rruff sample: R040092
Ideal chemistry: Ca_2_Fe^3+^Al_2_(Si_2_O_7_)(SiO_4_)O(OH)
Locality: Nahant, Massachusetts, USA
Source: University of Arizona Mineral Museum
Description: Green prismatic crystals imbedded in quartz
Measured chemistry: Ca_2.01_Al_2.00_Fe_1.00_(Si_1.00_O_4_)(Si_1.97_Fe_0.02_Al_0.01_Ti_0.01_O_7_)O(OH)
Pin_id: S00018
Orientation: Laser parallel to b* (0 1 0). Fiducial mark perpendicular to laser is parallel to c [0 0 1]
Raman shift (cm-1)	intensity
51.466	0
55.666	131.351
59.863	292.203
64.059	0.923
68.253	65.381
72.445	218.121
76.635	1302.6
80.823	4879.99
85.009	13069.9
89.193	24649.2
93.375	21061.3
97.554	10506.3
101.732	5552.05
105.908	3943.53
110.082	2828.49
114.254	2625.11
118.424	2647.81
122.592	3735.18
126.758	7021.73
130.922	14542.9
135.083	14710.8
139.243	6285.96
143.401	3581.86
147.557	3192.27
151.711	2052.17
155.863	1991.98
160.013	3201.97
164.161	5942.35
168.308	8217.26
172.452	5944.78
176.594	3523.85
180.734	2176.91
184.872	1875.56
189.008	2076.95
193.143	2667.11
197.275	4317.08
201.405	6818.5
205.534	7416.95
209.66	6775.85
213.784	7692.8
217.907	10931.9
222.027	16383.6
226.146	22805.8
230.263	22207.4
234.377	13409.4
238.49	9774.71
242.601	9794.35
246.709	6849.84
250.816	3659.94
254.921	2277.44
259.024	1885.19
263.125	2475.01
267.224	5113.77
271.321	11715.4
275.416	20248.8
279.51	13465.9
283.601	5492.65
287.69	3820.02
291.778	4995.92
295.863	5734.24
299.947	5292.84
304.029	4158.66
308.108	2731.71
312.186	1717.03
316.262	1631.63
320.336	2940.51
324.408	4642.66
328.478	3052.09
332.546	790.507
336.612	370.331
340.677	384.756
344.739	225.364
348.799	1016.58
352.858	815.994
356.915	105.586
360.969	247.442
365.022	512.725
369.073	567.76
373.122	396.443
377.169	130.308
381.215	1397.18
385.258	3505.52
389.299	5109.49
393.339	3244.37
397.376	1497.34
401.412	989.317
405.446	1325.33
409.478	2685.34
413.508	5775.43
417.536	12927.6
421.562	25204.8
425.586	33106.9
429.609	24428.8
433.629	17692.6
437.648	13607
441.665	11600.9
445.68	16666.2
449.693	24699.8
453.704	25099.4
457.713	22224.2
461.721	14227.1
465.726	7675.98
469.73	4417.91
473.731	2710.82
477.731	2060.68
481.729	2103.45
485.725	2585.12
489.72	3856.67
493.712	6443.08
497.703	9883.19
501.691	11697
505.678	12491.4
509.663	14143.1
513.646	13487.6
517.627	16094.8
521.607	21498.1
525.584	17255.8
529.56	8616.09
533.534	4194.83
537.506	2546.41
541.476	2163.29
545.444	2510.01
549.41	3687.71
553.375	6202.26
557.337	13087
561.298	29962.5
565.257	44584
569.214	23898.4
573.17	11990.1
577.123	9477.45
581.075	11640
585.024	15690.5
588.972	19082.7
592.918	23688.4
596.863	30245.7
600.805	27384.1
604.746	20053.7
608.685	15108.6
612.621	12730.7
616.557	10023.9
620.49	6386.74
624.421	4204.59
628.351	2680.64
632.279	2007.57
636.205	1407.75
640.129	1114.8
644.051	930.105
647.972	828.182
651.89	717.006
655.807	717.689
659.722	799.813
663.636	893.119
667.547	947.124
671.457	1093.78
675.365	1231.07
679.271	1429.02
683.175	1498.68
687.077	1396.72
690.978	1125.36
694.877	550.107
698.774	199.425
702.669	17.787
706.562	96.935
710.454	207.417
714.344	76.562
718.232	103.377
722.118	183.04
726.002	211.677
729.885	237.498
733.766	203.427
737.645	152.472
741.522	168.367
745.397	117.179
749.271	66.777
753.143	69.875
757.013	21.713
760.881	70.288
764.748	85.036
768.613	168.015
772.476	117.303
776.337	176.871
780.196	174.78
784.054	304.043
787.91	314.718
791.764	450.825
795.616	550.373
799.467	720.366
803.316	900.812
807.163	1144.72
811.008	1439.09
814.851	1911.92
818.693	2699.22
822.533	3946.99
826.371	5567.24
830.208	6527.98
834.042	5800.21
837.875	4504.95
841.706	3706.18
845.536	4310.9
849.363	3750.16
853.189	4375
857.013	5387.53
860.836	6755.21
864.656	8312.31
868.475	9476.9
872.292	9088.22
876.108	7769.72
879.922	6809.84
883.733	6370.31
887.544	6533.16
891.352	7404.19
895.159	9142.44
898.964	12170.3
902.767	17720
906.568	25992.7
910.368	37745.6
914.166	49847.1
917.962	47316.2
921.757	31637.3
925.55	19485.1
929.341	12060
933.13	7825.04
936.918	5625.72
940.703	4141.73
944.488	3440.96
948.27	2949.4
952.051	2858.04
955.83	2823.89
959.607	2821.98
963.383	2668.31
967.156	2769.89
970.928	3575.72
974.699	5992.82
978.468	9410.2
982.234	9411.89
986	6026.88
989.763	3546.17
993.525	2281.79
997.285	1596.58
1001.04	1099.59
1004.8	802.92
1008.55	742.758
1012.31	721.692
1016.06	802.688
1019.81	1011.76
1023.56	1305.5
1027.31	1875.58
1031.05	3041.96
1034.79	4781.18
1038.53	7030.19
1042.27	7603.37
1046.01	6301.95
1049.75	4856.85
1053.48	4453.26
1057.22	5629.7
1060.95	7121.51
1064.68	6290.92
1068.4	5224.87
1072.13	5517.04
1075.86	7453.29
1079.58	11645.9
1083.3	20611.8
1087.02	25020
1090.74	13970.5
1094.45	5807.77
1098.17	2586.38
1101.88	1537.14
1105.59	991.121
1109.3	710.127
1113.01	570.201
1116.71	372.55
1120.42	444.963
1124.12	839.822
1127.82	303.216
1131.52	201.396
1135.22	130.607
1138.91	79.384
1142.61	52.841
1146.3	31.847
1149.99	89.609
1153.68	46.359
1157.37	79.668
1161.06	68.726
1164.74	107.696
1168.42	104.252
1172.1	61.993
1175.78	72.031
1179.46	59.934
1183.14	40.925
1186.81	46.955
1190.48	16.157
1194.15	19.748
1197.83	23.906
1201.49	87.167
1205.16	33.37
1208.82	3.028
1212.49	52.398
1216.15	102.527
1219.81	113.445
1223.46	100.15
1227.12	101.631
1230.78	112.879
1234.43	123.887
1238.08	94.654
1241.73	128.296
1245.38	121.942
1249.03	175.669
1252.67	170.958
1256.31	188.16
1259.95	128.16
1263.6	196.536
1267.23	202.148
1270.87	177.781
1274.51	132.665
1278.14	194.866
1281.77	188.2
1285.4	126.202
1289.03	122.248
1292.66	143.481
1296.28	103.808
1299.91	155.655
1303.53	130.036
1307.15	103.273
1310.77	67.574
1314.38	69.35
1318	67.081
1321.61	55.367
1325.23	41.32
1328.84	1.273
1332.45	31.701
1336.06	36.534
1339.66	90.424
1343.27	70.891
1346.87	124.754
1350.47	172.219
1354.07	195.045
1357.67	203.897
1361.26	221.296
1364.86	212.921
1368.45	205.182
1372.04	192.127
1375.63	190.747
1379.22	193.107
1382.81	142.696
1386.39	109.125
1389.98	103.232
1393.56	189.179
1397.14	76.449
1400.72	138.252
1404.3	59.792
1407.87	114.667
1411.45	104.771
1415.02	85.473
1418.59	110.592
1422.16	74.764
1425.73	82.542
1429.29	119.341
1432.86	57.68
1436.42	621.163
1439.98	223.431
1443.54	62.432
1447.1	90.009
1450.66	73.168
1454.21	53.047
1457.77	91.284
1461.32	55.678
1464.87	16.582
1468.42	52.936
1471.96	24.156
1475.51	29.187
1479.06	32.126
1482.6	47.91
1486.14	20.978
1489.68	62.851
1493.22	46.927
1496.75	7.91
1500.29	46.514
1503.82	53.737
1507.35	39.471
1510.88	39.036
1514.41	9.351
1517.94	12.801
1521.46	0
