Measurement: Raman, 514 nm, ccw, Raman Data Processed
Mineral: Epidote
Rruff sample: R040092
Ideal chemistry: Ca_2_Fe^3+^Al_2_(Si_2_O_7_)(SiO_4_)O(OH)
Locality: Nahant, Massachusetts, USA
Source: University of Arizona Mineral Museum
Description: Green prismatic crystals imbedded in quartz
Measured chemistry: Ca_2.01_Al_2.00_Fe_1.00_(Si_1.00_O_4_)(Si_1.97_Fe_0.02_Al_0.01_Ti_0.01_O_7_)O(OH)
Pin_id: M00463
Orientation: Laser parallel to [-1 0 -1]. Fiducial mark perpendicular to laser is parallel to b* (0 1 0)
Raman shift (cm-1)	intensity
51.466	0
55.666	900.667
59.863	870.536
64.059	23.514
68.253	49.678
72.445	998.154
76.635	3620.65
80.823	11123.4
85.009	25167.8
89.193	32909.3
93.375	27951.8
97.554	17122.3
101.732	8743.52
105.908	4740.32
110.082	2497.49
114.254	2192.17
118.424	2758.78
122.592	4892.87
126.758	10906.5
130.922	16505.7
135.083	15195.9
139.243	8288.77
143.401	3675.49
147.557	1814.85
151.711	618.64
155.863	136.386
160.013	484.186
164.161	1310.58
168.308	1723.68
172.452	1891.58
176.594	1335.32
180.734	1631.9
184.872	2407.34
189.008	2539.65
193.143	2200.83
197.275	3009.94
201.405	4149.79
205.534	4944.2
209.66	5525.31
213.784	7227.44
217.907	10833.9
222.027	16182.1
226.146	19196.7
230.263	16847.3
234.377	12136.3
238.49	10929.6
242.601	10687.4
246.709	9009.27
250.816	7070.05
254.921	5482.52
259.024	3969.52
263.125	3298.88
267.224	4395.47
271.321	7280.21
275.416	7797.03
279.51	4632.88
283.601	2497.7
287.69	2793.47
291.778	3533.1
295.863	3463.46
299.947	2378.4
304.029	1950.88
308.108	2156.94
312.186	2561.62
316.262	3288.92
320.336	4971.84
324.408	5412.4
328.478	3684.59
332.546	1304.39
336.612	199.18
340.677	469.556
344.739	70.241
348.799	48.252
352.858	72.73
356.915	278.342
360.969	458.522
365.022	508.438
369.073	364.107
373.122	51.477
377.169	843.843
381.215	2394.52
385.258	4941.94
389.299	6200.28
393.339	5013.73
397.376	3123.65
401.412	2332.9
405.446	2591.45
409.478	4107.19
413.508	7016.96
417.536	13186.1
421.562	21003.6
425.586	23668.5
429.609	20453.4
433.629	17875.5
437.648	14737.7
441.665	13009.8
445.68	16181
449.693	18153
453.704	14280.6
457.713	10283.9
461.721	7110.71
465.726	5431.07
469.73	4353.97
473.731	3280.34
477.731	2884.16
481.729	3412.39
485.725	4334.03
489.72	6342.05
493.712	9700.44
497.703	13584
501.691	16226.2
505.678	16905.4
509.663	16155.5
513.646	13516.2
517.627	13309.3
521.607	13646.5
525.584	10066.1
529.56	5647.23
533.534	3189.04
537.506	2625.5
541.476	2644.39
545.444	3117.15
549.41	4667.65
553.375	7554.26
557.337	15308
561.298	29939.3
565.257	33984.3
569.214	20497.4
573.17	11547.2
577.123	9875.64
581.075	11798.5
585.024	14982.9
588.972	19129.1
592.918	24140.7
596.863	28741.9
600.805	25754.8
604.746	19671.6
608.685	15036.5
612.621	11936.6
616.557	9062.67
620.49	5948.75
624.421	4280.42
628.351	2935.63
632.279	2387.53
636.205	1978.62
640.129	1663.08
644.051	1410.17
647.972	1284.87
651.89	1222.17
655.807	1269.45
659.722	1243.27
663.636	1363.84
667.547	1316.19
671.457	1446.13
675.365	1551.93
679.271	1537.97
683.175	1471.48
687.077	1109.41
690.978	904.413
694.877	417.979
698.774	194.982
702.669	35.612
706.562	29.877
710.454	156.76
714.344	117.943
718.232	101.81
722.118	12.417
726.002	121.429
729.885	196.034
733.766	241.754
737.645	140.71
741.522	120.001
745.397	145.005
749.271	91.28
753.143	55.134
757.013	118.494
760.881	78.4
764.748	18.538
768.613	126.368
772.476	81.469
776.337	114.737
780.196	115.632
784.054	199.927
787.91	341.941
791.764	387.305
795.616	383.044
799.467	634.167
803.316	852.683
807.163	1021.6
811.008	1370.92
814.851	1936.65
818.693	2813.78
822.533	3942.33
826.371	4893.29
830.208	5317.67
834.042	4486.47
837.875	3760.7
841.706	3581.36
845.536	3031.52
849.363	3352.18
853.189	3765.22
857.013	4437.22
860.836	5477.37
864.656	6065.34
868.475	6344.91
872.292	6264.5
876.108	5554.83
879.922	5656.6
883.733	5647.72
887.544	5988.82
891.352	6191.6
895.159	7211.65
898.964	9314.93
902.767	12819.6
906.568	17971.3
910.368	25077
914.166	30058.9
917.962	27972.1
921.757	19741.6
925.55	13175.6
929.341	8688.48
933.13	6098.07
936.918	4651.6
940.703	3708.07
944.488	2985.59
948.27	2870.43
952.051	3073.42
955.83	3512.55
959.607	3253.85
963.383	2886.33
967.156	2647
970.928	2980.88
974.699	4398.99
978.468	5988.32
982.234	5511.89
986	3684.72
989.763	2423.84
993.525	1568.63
997.285	1112.73
1001.04	686.754
1004.8	462.837
1008.55	459.362
1012.31	611.333
1016.06	798.461
1019.81	973.692
1023.56	1012.07
1027.31	930.415
1031.05	1102.73
1034.79	1363.56
1038.53	1567.71
1042.27	1666.02
1046.01	1599.31
1049.75	1644.1
1053.48	1849.8
1057.22	2518.79
1060.95	2934.57
1064.68	2727.1
1068.4	2607.17
1072.13	3562.69
1075.86	5417.6
1079.58	8924.92
1083.3	14394.6
1087.02	16343.6
1090.74	10420
1094.45	4904.65
1098.17	2293.59
1101.88	1431.91
1105.59	790.421
1109.3	607.215
1113.01	396.591
1116.71	348.322
1120.42	297.469
1124.12	797.38
1127.82	250.573
1131.52	133.002
1135.22	138.781
1138.91	64.855
1142.61	68.289
1146.3	50.483
1149.99	119.497
1153.68	186.352
1157.37	132.367
1161.06	75.929
1164.74	70.428
1168.42	23.229
1172.1	43.913
1175.78	34.728
1179.46	17.461
1183.14	151.87
1186.81	144.005
1190.48	163.098
1194.15	182.095
1197.83	60.222
1201.49	263.547
1205.16	184.282
1208.82	200.883
1212.49	293.443
1216.15	256.75
1219.81	210.554
1223.46	175.156
1227.12	216.658
1230.78	206.534
1234.43	192.54
1238.08	325.276
1241.73	116.5
1245.38	163.127
1249.03	250.024
1252.67	163.556
1256.31	110.491
1259.95	94.521
1263.6	278.545
1267.23	172.681
1270.87	229.043
1274.51	138.638
1278.14	208.683
1281.77	189.789
1285.4	102.722
1289.03	137.127
1292.66	115.405
1296.28	90.146
1299.91	52.086
1303.53	64.254
1307.15	18.968
1310.77	12.485
1314.38	0.922
1318	9.075
1321.61	9.44
1325.23	56.482
1328.84	65.259
1332.45	21.279
1336.06	33.17
1339.66	64.479
1343.27	73.239
1346.87	203.488
1350.47	119.243
1354.07	134.509
1357.67	157.313
1361.26	153.685
1364.86	161.642
1368.45	187.209
1372.04	210.422
1375.63	225.804
1379.22	185.305
1382.81	180.844
1386.39	169.837
1389.98	173.079
1393.56	153.178
1397.14	201.08
1400.72	162.599
1404.3	148.083
1407.87	171.408
1411.45	243.815
1415.02	271.932
1418.59	290.905
1422.16	124.432
1425.73	145.03
1429.29	128.115
1432.86	147.729
1436.42	108.312
1439.98	188.557
1443.54	276.188
1447.1	176.883
1450.66	154.538
1454.21	207.21
1457.77	201.748
1461.32	142.018
1464.87	109.381
1468.42	93.884
1471.96	47.619
1475.51	122.313
1479.06	96.408
1482.6	101.615
1486.14	47.347
1489.68	53.03
1493.22	86.418
1496.75	58.848
1500.29	102.608
1503.82	105.556
1507.35	80.306
1510.88	55.992
1514.41	8.804
1517.94	56.505
1521.46	26.492
