Measurement: Raman, 514 nm, ccw, Raman Data Processed
Mineral: Epidote
Rruff sample: R040092
Ideal chemistry: Ca_2_Fe^3+^Al_2_(Si_2_O_7_)(SiO_4_)O(OH)
Locality: Nahant, Massachusetts, USA
Source: University of Arizona Mineral Museum
Description: Green prismatic crystals imbedded in quartz
Measured chemistry: Ca_2.01_Al_2.00_Fe_1.00_(Si_1.00_O_4_)(Si_1.97_Fe_0.02_Al_0.01_Ti_0.01_O_7_)O(OH)
Pin_id: M00185
Orientation: Laser parallel to -c [0 0 -1]. Fiducial mark perpendicular to laser is parallel to b* (0 1 0)
Raman shift (cm-1)	intensity
51.466	0
55.666	90.666
59.863	111.037
64.059	132.371
68.253	242.324
72.445	203.229
76.635	680.873
80.823	4145.02
85.009	11188.4
89.193	16840.1
93.375	15413.8
97.554	8808.62
101.732	4417.77
105.908	2444.92
110.082	1154.61
114.254	965.866
118.424	891.984
122.592	1177.44
126.758	3036.54
130.922	5763.61
135.083	7306
139.243	4337.89
143.401	1781.5
147.557	1060.89
151.711	419.678
155.863	550.252
160.013	2053.88
164.161	4083.73
168.308	5070.93
172.452	3291.57
176.594	1307.04
180.734	277.324
184.872	333.46
189.008	762.575
193.143	1683.33
197.275	3447.46
201.405	5866.67
205.534	7210.01
209.66	6888.94
213.784	7405.24
217.907	10349.5
222.027	15002.7
226.146	19173.9
230.263	18733.6
234.377	12768
238.49	8588.35
242.601	7569.14
246.709	6540
250.816	4697.66
254.921	3502.36
259.024	2936.5
263.125	4137.31
267.224	8349.17
271.321	15855
275.416	19804.6
279.51	14930.3
283.601	6663.71
287.69	3586.88
291.778	3319.66
295.863	4350.83
299.947	4697.33
304.029	3959.17
308.108	3181.39
312.186	2316.02
316.262	2097.08
320.336	2769.57
324.408	3396.51
328.478	2428.9
332.546	358.723
336.612	751.161
340.677	968.141
344.739	601.833
348.799	37.538
352.858	365.109
356.915	176.114
360.969	77.463
365.022	223.879
369.073	217.065
373.122	17.958
377.169	592.364
381.215	1851.04
385.258	3942.55
389.299	5777.89
393.339	5118.03
397.376	3230.09
401.412	2302.22
405.446	2657.47
409.478	4360.83
413.508	8652.43
417.536	17642.2
421.562	30488.3
425.586	37648.7
429.609	29586.4
433.629	21053.2
437.648	17410.2
441.665	16417.3
445.68	20442.3
449.693	26177.2
453.704	26548.6
457.713	23878.7
461.721	18524.2
465.726	12356.3
469.73	8751.74
473.731	6346.62
477.731	5241.89
481.729	4958.51
485.725	5194.48
489.72	5936.79
493.712	7431.42
497.703	9415.65
501.691	11157.1
505.678	12629.8
509.663	13958.3
513.646	14321.8
517.627	17269.7
521.607	22360.4
525.584	20436
529.56	11929.6
533.534	6458.47
537.506	4406.67
541.476	3973.36
545.444	4428.52
549.41	5963.32
553.375	8918.49
557.337	16801.9
561.298	33454.2
565.257	46658.8
569.214	32050.7
573.17	16872.3
577.123	12031.4
581.075	13060.4
585.024	16109.2
588.972	20434.7
592.918	25369.6
596.863	31369.7
600.805	30138.2
604.746	23979.3
608.685	17960.9
612.621	14201.1
616.557	11071.6
620.49	7623.44
624.421	5443.32
628.351	3748.55
632.279	2818.23
636.205	2112.86
640.129	1714.93
644.051	1460.86
647.972	1310.49
651.89	1362.82
655.807	1394.31
659.722	1649.41
663.636	1817.18
667.547	1739.55
671.457	1743.62
675.365	1997.3
679.271	2173.68
683.175	2267.07
687.077	2129.65
690.978	1685.34
694.877	1008.7
698.774	685.416
702.669	143.016
706.562	19.947
710.454	78.831
714.344	104.74
718.232	70.102
722.118	134.942
726.002	113.481
729.885	196.869
733.766	254.189
737.645	191.647
741.522	210.14
745.397	194.637
749.271	198.015
753.143	191.328
757.013	92.457
760.881	73.955
764.748	36.568
768.613	90.864
772.476	63.568
776.337	154.543
780.196	121.89
784.054	112.652
787.91	273.879
791.764	320.625
795.616	399.901
799.467	604.718
803.316	765.083
807.163	1087.01
811.008	1408.49
814.851	2029.53
818.693	2913.1
822.533	4416.2
826.371	5856.83
830.208	6730.01
834.042	6124.74
837.875	5017.03
841.706	4350.89
845.536	4249.31
849.363	4530.89
853.189	5363
857.013	6738.36
860.836	7810.37
864.656	9091.71
868.475	10011.6
872.292	9844.62
876.108	8996.41
879.922	7752.56
883.733	7342.86
887.544	7834.51
891.352	9108.95
895.159	11591.8
898.964	15609.2
902.767	21818.3
906.568	30209.1
910.368	40566.2
914.166	50738.9
917.962	48690.3
921.757	36485.8
925.55	24949.6
929.341	16169.6
933.13	10973.1
936.918	8178.53
940.703	6367.21
944.488	5305.51
948.27	4824.11
952.051	4659.04
955.83	4741.3
959.607	4728.9
963.383	4286.85
967.156	4257.16
970.928	4971.84
974.699	7605.91
978.468	11458.4
982.234	12005.2
986	8272.53
989.763	5054.25
993.525	3258.43
997.285	2246.16
1001.04	1439.94
1004.8	1033.64
1008.55	749.102
1012.31	761.964
1016.06	748.534
1019.81	997.883
1023.56	1415.25
1027.31	1834.96
1031.05	2936.06
1034.79	4676.58
1038.53	6819.83
1042.27	7803.73
1046.01	7188.88
1049.75	5815.89
1053.48	5123.09
1057.22	5778.34
1060.95	6709.15
1064.68	6087.92
1068.4	5597.19
1072.13	7157.02
1075.86	10211.2
1079.58	15885.9
1083.3	24788.9
1087.02	29983.5
1090.74	20876.7
1094.45	10169.9
1098.17	4779.44
1101.88	2721.38
1105.59	1684.1
1109.3	1136.79
1113.01	798.394
1116.71	612.691
1120.42	519.298
1124.12	822.921
1127.82	356.494
1131.52	299.063
1135.22	265.776
1138.91	101.059
1142.61	93.18
1146.3	26.024
1149.99	30.66
1153.68	107.273
1157.37	75.182
1161.06	102.948
1164.74	36.874
1168.42	113.191
1172.1	87.157
1175.78	116.862
1179.46	92.511
1183.14	61.163
1186.81	23.517
1190.48	28.386
1194.15	41.305
1197.83	28.55
1201.49	1.787
1205.16	54.043
1208.82	52.125
1212.49	103.916
1216.15	51.237
1219.81	75.381
1223.46	123.306
1227.12	93.81
1230.78	74.03
1234.43	108.949
1238.08	106.562
1241.73	104.033
1245.38	157.481
1249.03	90.503
1252.67	126.738
1256.31	156.517
1259.95	123.059
1263.6	178.719
1267.23	196.688
1270.87	204.037
1274.51	217.062
1278.14	149.496
1281.77	181.175
1285.4	119.302
1289.03	123.426
1292.66	155.36
1296.28	113.255
1299.91	127.958
1303.53	111.741
1307.15	106.438
1310.77	51.92
1314.38	73.92
1318	32.372
1321.61	26.958
1325.23	30.596
1328.84	7.741
1332.45	97.093
1336.06	79.547
1339.66	40.972
1343.27	27.502
1346.87	104.229
1350.47	195.829
1354.07	189.922
1357.67	176.369
1361.26	154.458
1364.86	220.319
1368.45	288.795
1372.04	283.91
1375.63	196.75
1379.22	223.293
1382.81	183.838
1386.39	134.62
1389.98	184.076
1393.56	160.894
1397.14	165.613
1400.72	155.566
1404.3	79.983
1407.87	138.814
1411.45	140.443
1415.02	135.238
1418.59	81.831
1422.16	76.668
1425.73	123.591
1429.29	34.848
1432.86	67.763
1436.42	73.954
1439.98	87.59
1443.54	90.164
1447.1	82.095
1450.66	159.69
1454.21	89.29
1457.77	96.692
1461.32	93.026
1464.87	62.553
1468.42	63.402
1471.96	62.313
1475.51	14.307
1479.06	61.207
1482.6	83.759
1486.14	39.779
1489.68	6.532
1493.22	73.79
1496.75	58.869
1500.29	97.465
1503.82	103.868
1507.35	84.801
1510.88	78.812
1514.41	3.702
1517.94	37.433
1521.46	0
