Measurement: Raman, 514 nm, ccw, Raman Data Processed
Mineral: Epidote
Rruff sample: R050064
Ideal chemistry: Ca_2_Fe^3+^Al_2_(Si_2_O_7_)(SiO_4_)O(OH)
Locality: East Xichang City, Meigu County, Sichuan Province, China
Source: Rock Currier
Description: Green prismatic crystals
Measured chemistry: (Ca_1.99_Mn_0.01_)_Î£=2_Fe^3+^_1.00_Al_2.00_(Si_2.00_O_7_)(Si_1.00_O_4_)O(OH);
Pin_id: L00552
Orientation: Laser parallel to a* (1 0 0). Fiducial mark perpendicular to laser is parallel to -b [0 -1 0]
Raman shift (cm-1)	intensity
71.917	0
76.123	245.595
80.327	579.256
84.529	1656.64
88.728	2490.82
92.926	3320.9
97.121	3520.24
101.314	2509.25
105.505	1314.98
109.694	1002.52
113.881	939.996
118.066	691.783
122.249	402.608
126.43	250.515
130.608	91.393
134.785	6.725
138.959	81.451
143.131	30.665
147.301	23.245
151.469	47.709
155.635	15.074
159.799	395.795
163.961	1736.49
168.121	4916.78
172.278	12096.8
176.434	15206.7
180.587	7766.56
184.739	3039.61
188.888	1392.26
193.035	697.12
197.18	560.954
201.324	952.933
205.465	780.026
209.603	249.257
213.74	187.618
217.875	472.075
222.008	1426.61
226.139	3640.45
230.267	6878.58
234.394	6328.91
238.518	5558.92
242.641	7280.4
246.761	4869.86
250.879	1578.21
254.996	515.473
259.11	245.984
263.222	166.82
267.332	435.075
271.44	1597.3
275.546	4594.05
279.65	4557.6
283.752	1422.89
287.852	453.614
291.95	633.518
296.046	1622.15
300.14	2044.07
304.231	1234.62
308.321	772.099
312.409	596.737
316.495	402.469
320.578	396.142
324.66	668.625
328.739	690.298
332.817	637.406
336.892	916.338
340.966	1988.25
345.037	4639.15
349.107	9523.05
353.174	10336
357.24	5628.62
361.303	2353.17
365.365	1142.14
369.424	488.485
373.481	158.245
377.537	85.914
381.59	44.446
385.642	813.263
389.691	1726.22
393.738	987.267
397.784	141.554
401.827	127.059
405.868	111.303
409.908	105.424
413.945	159.869
417.98	821.358
422.014	2513.99
426.045	5260.11
430.075	8073.8
434.102	19875.5
438.127	24887.3
442.151	11359.3
446.172	7511.56
450.192	9703.56
454.209	13325.4
458.225	12668.5
462.238	6316.05
466.25	2516.14
470.259	1224.88
474.267	664.066
478.273	323.692
482.276	218.748
486.278	382.006
490.278	684.333
494.276	1751.69
498.271	4436.07
502.265	5681.47
506.257	4805.89
510.247	5971.32
514.235	4378.85
518.221	1853.69
522.205	841.714
526.187	294.116
530.167	93.604
534.145	10.181
538.122	16.215
542.096	104.793
546.068	197.28
550.039	364.82
554.007	670.781
557.973	1233.64
561.938	3097.01
565.901	6730.37
569.861	4553.88
573.82	2468.14
577.777	2689.96
581.732	4229.32
585.685	7596.23
589.636	10358.7
593.585	12693.8
597.532	18700.2
601.477	17465
605.42	12557.5
609.361	11738.9
613.301	14042.1
617.238	12755.8
621.174	7655.37
625.108	4308.51
629.039	2658.18
632.969	1919.58
636.897	1381.85
640.823	1111.52
644.747	815.895
648.669	695.778
652.589	498.416
656.508	362.829
660.424	309.012
664.339	196.964
668.251	199.68
672.162	130.156
676.071	135.385
679.978	114.357
683.883	64.062
687.786	66.491
691.687	17.515
695.586	2.787
699.484	7.221
703.379	5.084
707.273	34.353
711.165	21.125
715.055	21.6
718.943	13.946
722.829	22.91
726.713	32.971
730.595	7.581
734.476	8.721
738.354	7.579
742.231	22.337
746.106	17.577
749.978	20.285
753.849	7.482
757.719	1.266
761.586	11.499
765.451	25.169
769.315	56.266
773.177	4.123
777.036	41.864
780.894	0.306
784.75	18.07
788.605	17.849
792.457	18.508
796.307	113.92
800.156	99.1
804.003	139.054
807.848	136.791
811.691	248.315
815.532	325.634
819.371	421.751
823.209	524.672
827.045	855.215
830.878	1229.4
834.71	1405.13
838.54	1385.21
842.369	1246.24
846.195	1206.56
850.02	1362.21
853.842	1560.86
857.663	1965.52
861.482	2622.02
865.299	3141.63
869.115	3373.51
872.928	3449.81
876.74	3606.36
880.55	4654.88
884.358	6603.6
888.164	7955.78
891.969	6918.32
895.771	6187.32
899.572	6684.96
903.371	8541.41
907.168	12259.4
910.963	18136.6
914.757	27496
918.548	35066.2
922.338	26553.3
926.126	15375.7
929.912	9125.38
933.697	5772.91
937.479	3946.12
941.26	2753.26
945.039	2126.76
948.816	1685.86
952.591	1359.22
956.365	1135.79
960.136	942.522
963.906	818.387
967.674	775.398
971.441	839.582
975.205	965.924
978.968	1518.44
982.729	1184.12
986.488	658.955
990.245	388.955
994	231.117
997.754	196.595
1001.51	178.563
1005.26	126.293
1009	141.823
1012.75	324.507
1016.5	664.339
1020.24	1113.31
1023.98	937.344
1027.72	529.028
1031.46	430.063
1035.19	575.289
1038.93	864.852
1042.66	1149.77
1046.39	978.023
1050.12	578.577
1053.85	380.438
1057.57	318.617
1061.29	325.116
1065.02	303.901
1068.74	339.949
1072.45	446.27
1076.17	641.873
1079.88	1417.72
1083.6	3452.83
1087.31	6429.75
1091.02	3685.21
1094.72	1460.04
1098.43	769.065
1102.13	454.182
1105.84	295.966
1109.54	168.385
1113.24	103.067
1116.93	85.077
1120.63	116.122
1124.32	168.19
1128.01	122.387
1131.7	57.258
1135.39	24.933
1139.08	30.259
1142.76	12.772
1146.45	16.433
1150.13	0.215
1153.81	7.646
1157.48	22.64
1161.16	25.193
1164.84	9.64
1168.51	33.114
1172.18	5.304
1175.85	43.532
1179.52	5.939
1183.18	69.044
1186.85	63.496
1190.51	68.473
1194.17	43.039
1197.83	60.606
1201.48	51.006
1205.14	67.76
1208.79	106.91
1212.44	69.389
1216.09	88.339
1219.74	49.288
1223.39	37.45
1227.03	29.968
1230.68	12.589
1234.32	31.422
1237.96	2.173
1241.6	2.174
1245.23	3.687
1248.87	10.061
1252.5	6.985
1256.13	6.964
1259.76	1.142
1263.39	5.427
1267.02	8.137
1270.64	26.549
1274.26	49.629
1277.88	60.548
1281.5	55.251
1285.12	50.217
1288.74	26.819
1292.35	17.345
1295.96	34.798
1299.57	14.394
1303.18	21.115
1306.79	19.603
1310.4	33.732
1314	0.064
1317.6	13.639
1321.2	29.634
1324.8	15.582
1328.4	16.601
1331.99	21.077
1335.59	23.178
1339.18	50.22
1342.77	47.226
1346.36	25.731
1349.95	76.201
1353.53	41.488
1357.12	93.596
1360.7	89.54
1364.28	80.322
1367.86	93.951
1371.44	103.434
1375.01	69.783
1378.59	125.408
1382.16	96.344
1385.73	54.089
1389.3	74.746
1392.87	68.281
1396.43	82.297
1399.99	108.206
1403.56	101.31
1407.12	114.462
1410.68	148.622
1414.23	131.818
1417.79	85.715
1421.34	105.581
1424.9	97.335
1428.45	79.721
1431.99	82.152
1435.54	98.181
1439.09	77.604
1442.63	77.714
1446.17	102.28
1449.71	100.415
1453.26	103.076
1456.79	96.135
1460.33	116.902
1463.86	104.109
1467.39	68.739
1470.92	59.199
1474.45	45.824
1477.98	61.359
1481.51	45.782
1485.03	83.163
1488.56	82.334
1492.08	55.199
1495.6	73.337
1499.11	50.886
1502.63	32.901
1506.14	35.131
1509.66	18.848
1513.17	0.321
1516.68	1.832
1520.19	0.804
1523.69	0
