Measurement: Raman, 514 nm, ccw, Raman Data Processed
Mineral: Epidote
Rruff sample: R050131
Ideal chemistry: Ca_2_Fe^3+^Al_2_(Si_2_O_7_)(SiO_4_)O(OH)
Locality: Calumet mine, Chaffee County, Colorado, USA
Source: Dave Bunk Minerals
Description: Green prismatic crystal
Measured chemistry: Ca_2.00_Al_2.00_(Fe^3+^_0.75_Al_0.25_)(SiO_4_)(Si_2_O_7_)O(OH)
Pin_id: L00140
Orientation: Laser parallel to -a* (-1 0 0). Fiducial mark perpendicular to laser is parallel to b [0 1 0]
Raman shift (cm-1)	intensity
83.128	0
87.329	310.12
91.527	1387.54
95.723	1158.39
99.917	569.669
104.109	200.749
108.298	45.527
112.486	143.944
116.672	5.786
120.855	31.323
125.036	355.638
129.216	2028.81
133.393	3752.09
137.568	2625.81
141.741	1719.6
145.911	2460.28
150.08	2200.69
154.247	1788.75
158.411	3392.47
162.574	7664.08
166.734	10837.9
170.893	7561.95
175.049	4447.88
179.203	2420.39
183.355	1156.05
187.505	686.064
191.653	386.982
195.799	343.893
199.943	577.829
204.084	633.817
208.224	386.874
212.362	58.003
216.497	64.208
220.631	263.49
224.762	672.855
228.891	1115.31
233.018	1967.98
237.144	4694.44
241.267	9208.72
245.388	12184.8
249.507	8942.95
253.624	4419.79
257.739	2206.2
261.852	1287.97
265.962	1065.47
270.071	1128.62
274.178	1251.26
278.283	1463.19
282.385	1791.3
286.486	2750.24
290.584	5127.09
294.681	8015.57
298.775	6037.28
302.868	2847.18
306.958	1348.26
311.047	759.519
315.133	806.933
319.217	1091.5
323.299	1883.2
327.38	2801.01
331.458	3141.86
335.534	3908.75
339.608	5438.68
343.681	9347.66
347.751	15841.7
351.819	17225.8
355.885	10699.9
359.949	5184.15
364.011	2597.44
368.071	1318.79
372.129	481.203
376.185	154.681
380.239	90.793
384.291	205.457
388.341	157.534
392.389	87.963
396.435	26.572
400.479	57.957
404.521	36.01
408.561	29.23
412.599	219.525
416.636	714.383
420.67	1765.35
424.702	3507.51
428.732	4838.93
432.76	6517.57
436.786	8353.52
440.81	8726.88
444.832	10940.5
448.852	18514.5
452.87	18408.7
456.887	13413.1
460.901	9817.62
464.913	6472.27
468.923	3997.02
472.931	2781.84
476.938	2320.74
480.942	2364.7
484.944	2606.7
488.945	3213.8
492.943	4265.99
496.94	6091.1
500.934	8297.19
504.927	8722.28
508.917	7887.38
512.906	6322.48
516.892	3663.57
520.877	2385.66
524.86	2134.74
528.841	1448.8
532.82	768.848
536.796	464.874
540.771	320.587
544.744	246.988
548.715	393.333
552.684	781.447
556.652	1524.58
560.617	3476.05
564.58	9074.82
568.541	10539.5
572.501	4694.34
576.458	2149.43
580.414	1724.55
584.367	2277.21
588.319	3250.84
592.268	4117.58
596.216	5974.81
600.162	7785.94
604.106	7017.03
608.048	5000.89
611.988	3616.58
615.926	2577.09
619.862	1679.86
623.797	1055
627.729	624.256
631.659	415.212
635.588	276.822
639.515	225.032
643.439	182.806
647.362	132.08
651.283	102.649
655.202	142.044
659.119	135.095
663.034	184.851
666.947	201.44
670.859	174.86
674.768	208.967
678.676	329.181
682.581	539.076
686.485	764.793
690.387	840.327
694.287	680.678
698.185	561.895
702.081	499.284
705.975	317.951
709.868	214.788
713.758	127.527
717.647	77.207
721.533	30.723
725.418	0.986
729.301	27.117
733.182	22.619
737.061	49.546
740.939	54.022
744.814	13.07
748.688	88.628
752.559	60.849
756.429	50.648
760.297	41.978
764.163	27.854
768.027	7.758
771.89	16.962
775.75	33.177
779.609	5.719
783.465	15.423
787.32	17.285
791.173	31.847
795.024	25.154
798.873	69.223
802.721	111.998
806.566	107.463
810.41	98.894
814.252	169.129
818.092	182.175
821.93	241.036
825.766	348.714
829.601	397.213
833.433	454.535
837.264	553.686
841.093	709.667
844.92	864.485
848.745	1118.14
852.568	1448.65
856.39	1842
860.209	2415.2
864.027	3354.24
867.843	4509.06
871.657	5963.89
875.47	7634.76
879.28	8696.89
883.089	8213.5
886.896	7353.82
890.701	6674.03
894.504	5142.97
898.305	3740.68
902.105	3064.86
905.902	2973.92
909.698	3393.85
913.492	3822.61
917.285	3494.82
921.075	2488.37
924.864	1720.06
928.65	1135.27
932.435	868.509
936.218	666.987
940	523.26
943.779	410.039
947.557	332.891
951.333	282.35
955.107	248.184
958.879	323.404
962.65	342.667
966.418	367.307
970.185	431.001
973.95	693.763
977.714	1118.58
981.475	1586.45
985.235	1403.39
988.993	911.486
992.749	497.558
996.503	363.219
1000.26	236.466
1004.01	214.184
1007.75	260.182
1011.5	321.346
1015.25	431.109
1018.99	757.334
1022.73	807.44
1026.47	786.841
1030.21	676.313
1033.95	728.851
1037.68	907.294
1041.41	1090.97
1045.15	1089.97
1048.88	873.156
1052.6	678.339
1056.33	571.594
1060.05	584.653
1063.78	571.921
1067.5	503.444
1071.21	465.182
1074.93	563.099
1078.65	840.345
1082.36	1264.59
1086.07	1813.12
1089.78	1782.36
1093.49	1071.32
1097.2	521.845
1100.9	346.01
1104.6	249.988
1108.3	205.969
1112	150.608
1115.7	133.532
1119.4	100.115
1123.09	250.398
1126.78	56.839
1130.47	39.908
1134.16	9.289
1137.85	27.093
1141.54	15.926
1145.22	30.895
1148.9	13.531
1152.58	12.817
1156.26	22.557
1159.94	25.59
1163.61	8.417
1167.28	4.511
1170.95	30.191
1174.62	22.106
1178.29	37.376
1181.96	15.687
1185.62	14.709
1189.29	41.989
1192.95	17.467
1196.61	1.528
1200.26	36.441
1203.92	0.328
1207.57	27.483
1211.23	9.29
1214.88	17.066
1218.53	5.818
1222.17	72.539
1225.82	54.226
1229.46	46.871
1233.11	35.492
1236.74	18.071
1240.38	3.434
1244.02	47.033
1247.66	10.743
1251.29	3.574
1254.92	12.509
1258.55	9.495
1262.18	6.624
1265.81	15.876
1269.43	11.732
1273.06	21.274
1276.68	13.614
1280.3	12.798
1283.91	20.638
1287.53	20.693
1291.15	7.07
1294.76	18.613
1298.37	14.882
1301.98	2.569
1305.59	8.213
1309.19	6.029
1312.8	2.276
1316.4	12.482
1320	26.965
1323.6	45.167
1327.2	38.954
1330.8	33.597
1334.39	22.149
1337.98	59.535
1341.58	36.837
1345.16	63.719
1348.75	56.354
1352.34	75.624
1355.92	106.624
1359.51	114.681
1363.09	131.474
1366.67	106.145
1370.24	69.543
1373.82	69.771
1377.39	78.575
1380.97	50.952
1384.54	87.6
1388.11	75.887
1391.68	93.822
1395.24	84.993
1398.81	59.179
1402.37	85.519
1405.93	47.859
1409.49	99.718
1413.05	19.003
1416.6	32.418
1420.16	36.509
1423.71	35.717
1427.26	51.729
1430.81	51.751
1434.36	60.19
1437.91	42.051
1441.45	55.688
1444.99	21.084
1448.54	25.17
1452.08	5.195
1455.61	30.171
1459.15	36.072
1462.68	49.098
1466.22	18.268
1469.75	42.348
1473.28	74.666
1476.81	51.138
1480.33	44.536
1483.86	47.535
1487.38	30.043
1490.9	3.325
1494.42	13.568
1497.94	2.084
1501.46	16.382
1504.97	19.719
1508.49	63.384
1512	49.752
