Measurement: Raman, 514 nm, ccw, Raman Data Processed
Mineral: Epidote
Rruff sample: R050303
Ideal chemistry: Ca_2_Fe^3+^Al_2_(Si_2_O_7_)(SiO_4_)O(OH)
Locality: San Martin mine, Zacatecas, Mexico
Source: Eugene Schlepp
Description: Green elongated prismatic crystals
Measured chemistry: Ca_2.00_Al_2.00_(Fe^3+^_0.97_Al_0.03_)(SiO_4_)(Si_2_O_7_)O(OH)
Pin_id: L01741
Orientation: Laser parallel to -a* (-1 0 0). Fiducial mark perpendicular to laser is parallel to -b [0 -1 0]
Raman shift (cm-1)	intensity
53.91	0
58.864	357.502
63.817	84.2717
68.767	181.911
73.714	751.474
78.659	2718.43
83.602	7882.04
88.542	15324.1
93.48	17736.5
98.416	12969.1
103.349	6421.89
108.28	6055.35
113.208	4430.17
118.134	3955.9
123.058	4578.25
127.979	5574
132.898	5019.34
137.814	3990.21
142.728	4399.86
147.639	4127.48
152.549	4646.84
157.455	7970.7
162.359	14330.6
167.261	16678.9
172.161	14480.7
177.058	7687.72
181.952	4464.92
186.845	4033.12
191.734	2475.14
196.622	2628.78
201.507	2979.54
206.389	1024.6
211.269	550.61
216.147	1241.45
221.022	2870.8
225.895	5922.58
230.765	8457.52
235.633	12624.8
240.498	16110.8
245.361	8558.68
250.222	5055.61
255.08	4431.65
259.936	3225.64
264.789	2185.45
269.64	3821.27
274.488	5368.81
279.334	4179.89
284.178	5239.51
289.019	8335.62
293.857	7358.09
298.693	3643.75
303.527	2360.48
308.358	3956.15
313.187	5786.63
318.013	6235.8
322.837	9531.52
327.659	11823.7
332.478	9234.1
337.294	10046.7
342.108	17455.3
346.92	24661.9
351.729	15847.8
356.535	8276.2
361.34	5958.39
366.141	4412.77
370.94	824.062
375.737	759.168
380.531	627.393
385.323	1485.68
390.113	2158.48
394.9	733.162
399.684	223.672
404.466	540.617
409.245	2427.73
414.022	4253.89
418.797	6227.01
423.569	9167.1
428.338	14423.3
433.105	21681.7
437.87	17315.4
442.632	20451.6
447.391	28633.9
452.149	23659.1
456.903	14189
461.655	6291.55
466.405	2998.5
471.152	1363.58
475.897	724.545
480.639	1087.21
485.378	2960.51
490.116	6350.18
494.85	11307.9
499.582	11355.5
504.312	9144.83
509.039	6240.62
513.764	2498.06
518.486	1213.77
523.206	433.102
527.923	281.202
532.638	571.553
537.35	559.428
542.059	100.461
546.766	656.695
551.471	2439.59
556.173	7210.94
560.873	14943.5
565.57	10512.2
570.264	4894.24
574.957	4287.74
579.646	6900.17
584.333	10346.8
589.018	13785.5
593.7	19321.7
598.379	18157.2
603.056	14928.4
607.73	15381.3
612.402	13061.1
617.072	7467.93
621.739	3974.43
626.403	2729.68
631.065	1830.4
635.724	1399.19
640.381	1214.63
645.035	1055.03
649.687	1053.8
654.336	898.693
658.983	718.282
663.627	780.762
668.268	861.964
672.907	896.217
677.544	1014.5
682.178	1076.27
686.809	1191.2
691.438	717.049
696.065	332.836
700.688	234.42
705.31	84.4844
709.929	130.417
714.545	74.1924
719.158	92.9717
723.77	109.004
728.378	5.94629
732.984	27.8975
737.588	24.5029
742.189	109.686
746.787	157.488
751.383	92.3135
755.976	101.859
760.567	140.614
765.155	35.0322
769.741	87.1572
774.324	89.249
778.904	97.2783
783.482	96.4043
788.058	211.748
792.631	284.07
797.201	295.201
801.769	340.61
806.334	482.792
810.897	613.835
815.457	1092.91
820.014	1245.17
824.569	1734.28
829.122	2080.33
833.671	2615.22
838.219	2973.36
842.763	3742.05
847.306	4854.85
851.845	7075.41
856.382	10748.2
860.917	15012.9
865.448	17003.7
869.978	20432.6
874.505	29182.4
879.029	40024.8
883.55	46848.6
888.069	38841.3
892.586	24943.1
897.1	18283.3
901.611	17112.1
906.12	19689.3
910.626	24677.2
915.129	25580.2
919.63	17978.7
924.129	10507.1
928.625	6286.24
933.118	4089.3
937.609	2616.18
942.097	1904.67
946.582	1303.89
951.065	1059.07
955.546	862.065
960.023	770.283
964.499	772.389
968.971	1083.6
973.441	2146.09
977.909	2355.05
982.374	1453.72
986.836	834.267
991.295	585.175
995.753	629.586
1000.21	884.41
1004.66	1201.98
1009.11	2413.37
1013.55	4614.47
1018	6039.35
1022.44	4117.8
1026.88	2384.34
1031.32	2118.29
1035.75	2079.12
1040.18	2038.6
1044.61	1535.38
1049.04	1088.02
1053.46	833.824
1057.88	839.7
1062.3	663.466
1066.71	794.155
1071.13	1275.79
1075.54	2432.07
1079.94	5065.28
1084.35	6853.47
1088.75	3804.69
1093.15	1528.64
1097.55	600.004
1101.94	459.696
1106.34	321.263
1110.73	172.995
1115.11	435.423
1119.5	830.881
1123.88	739.106
1128.26	236.606
1132.63	26.6719
1137.01	76.4541
1141.38	65.2344
1145.75	46.6045
1150.12	193.022
1154.48	250.02
1158.84	52.044
1163.2	52.0127
1167.55	77.4941
1171.91	77.5791
1176.26	35.2852
1180.61	141.153
1184.95	93.8477
1189.29	138.379
1193.63	154.698
1197.97	208.925
1202.31	48.2773
1206.64	182.454
1210.97	65.3418
1215.29	162.844
1219.62	134.244
1223.94	101.569
1228.26	53.3691
1232.57	45.9385
1236.89	38.3086
1241.2	73.4258
1245.51	168.648
1249.81	7.64356
1254.12	263.117
1258.42	172.79
1262.72	255.056
1267.01	184.914
1271.3	287.366
1275.59	206.602
1279.88	264.578
1284.17	180.737
1288.45	157.494
1292.73	128.7
1297.01	162.007
1301.28	167.648
1305.55	163.514
1309.82	177.183
1314.09	265.351
1318.35	290.092
1322.61	358.483
1326.87	315.425
1331.13	101.545
1335.38	58.9453
1339.63	167.262
1343.88	242.478
1348.12	201.79
1352.37	307.667
1356.61	244.731
1360.85	203.094
1365.08	257.983
1369.31	249.1
1373.54	152.879
1377.77	299.293
1381.99	165.511
1386.22	125.851
1390.43	227.145
1394.65	71.9824
1398.87	104.723
1403.08	153.894
1407.29	67.9268
1411.49	151.247
1415.69	58.0322
1419.89	299.555
1424.09	239.692
1428.29	213.954
1432.48	316.147
1436.67	263.42
1440.86	439.705
1445.04	530.665
1449.23	400.071
1453.4	488.397
1457.58	565.577
1461.76	316.387
1465.93	271.44
1470.1	308.494
1474.26	341.058
1478.43	136.838
1482.59	232.567
1486.75	277.227
1490.9	336.486
1495.06	16.1357
1499.21	13.2432
1503.35	261.132
1507.5	203.418
1511.64	147.446
1515.78	150.795
1519.92	188.797
1524.05	173.327
1528.18	178.281
1532.31	195.29
1536.44	168.929
1540.56	18.8779
1544.69	179.621
1548.8	306.878
1552.92	280.837
1557.03	233.673
1561.14	82.2471
1565.25	66.9551
1569.36	224.986
