Measurement: Raman, 514 nm, ccw, Raman Data Processed
Mineral: Epidote
Rruff sample: R050303
Ideal chemistry: Ca_2_Fe^3+^Al_2_(Si_2_O_7_)(SiO_4_)O(OH)
Locality: San Martin mine, Zacatecas, Mexico
Source: Eugene Schlepp
Description: Green elongated prismatic crystals
Measured chemistry: Ca_2.00_Al_2.00_(Fe^3+^_0.97_Al_0.03_)(SiO_4_)(Si_2_O_7_)O(OH)
Pin_id: L01647
Orientation: Laser parallel to (1 0 1). Fiducial mark perpendicular to laser is parallel to b [0 1 0]
Raman shift (cm-1)	intensity
53.91	0
58.864	277.567
63.817	13.2143
68.767	153.525
73.714	805.298
78.659	3761.64
83.602	10634.4
88.542	13787.5
93.48	10474.5
98.416	6243.32
103.349	4138.21
108.28	4318.31
113.208	2622.36
118.134	2337.16
123.058	2112.83
127.979	1661.37
132.898	1708.59
137.814	1939.78
142.728	1974.27
147.639	2532.07
152.549	4090.34
157.455	7939.71
162.359	15684.6
167.261	17972.7
172.161	13426
177.058	8264.51
181.952	4715.23
186.845	3460.06
191.734	3457.93
196.622	3441.73
201.507	3231.96
206.389	2675.28
211.269	3686.76
216.147	6873.18
221.022	11137
225.895	12576.8
230.765	13091.5
235.633	11750.4
240.498	7319.98
245.361	3665.55
250.222	1589.27
255.08	1059.04
259.936	2965.76
264.789	5395.96
269.64	5844.67
274.488	3584.01
279.334	1915.86
284.178	1447.22
289.019	1684.07
293.857	1627.3
298.693	1374.86
303.527	1351.62
308.358	1307.46
313.187	1515.29
318.013	1548.06
322.837	1535.72
327.659	2062.21
332.478	4153.46
337.294	9420.42
342.108	15345
346.92	14623.3
351.729	9420.94
356.535	4482.28
361.34	1422.31
366.141	15.7012
370.94	418.023
375.737	1.67285
380.531	1263.63
385.323	1239.94
390.113	452.609
394.9	277.888
399.684	528.412
404.466	16.7285
409.245	1597.6
414.022	5436.9
418.797	11160.6
423.569	20970.7
428.338	30787.3
433.105	27547.5
437.87	22146.2
442.632	21454.5
447.391	21266.1
452.149	16423
456.903	9609.17
461.655	4596.66
466.405	1830.58
471.152	708.613
475.897	560.719
480.639	935.622
485.378	2448.24
490.116	5190.49
494.85	7065.29
499.582	8611.4
504.312	8648.63
509.039	5626.81
513.764	2634.99
518.486	740.327
523.206	70.8877
527.923	171.954
532.638	91.4966
537.35	296.277
542.059	723.91
546.766	1680.43
551.471	3722.18
556.173	9017.93
560.873	9741.75
565.57	6838.66
570.264	6272.63
574.957	8894.12
579.646	13892.6
584.333	19848.7
589.018	27730.1
593.7	31330.2
598.379	27369.7
603.056	23861.6
607.73	20928.2
612.402	15690.3
617.072	10065.8
621.739	6092.38
626.403	3896.12
631.065	2839.27
635.724	2046.67
640.381	1579.32
645.035	1192.54
649.687	786.349
654.336	568.82
658.983	442.859
663.627	180.371
668.268	314.859
672.907	203.451
677.544	118.567
682.178	89.2519
686.809	220.541
691.438	148.242
696.065	135.159
700.688	47.249
705.31	33.2007
709.929	19.1387
714.545	20.7227
719.158	43.1797
723.77	68.7353
728.378	30.9453
732.984	35.831
737.588	109.527
742.189	21.666
746.787	29.9575
751.383	66.541
755.976	0.479004
760.567	17.4507
765.155	7.61914
769.741	50.4326
774.324	48.0698
778.904	177.884
783.482	136.052
788.058	206.688
792.631	272.888
797.201	332.721
801.769	538.168
806.334	701.336
810.897	1065.21
815.457	1432.69
820.014	2140.75
824.569	2742.46
829.122	3058.46
833.671	3223.46
838.219	3380.51
842.763	3460.67
847.306	4050.13
851.845	5195.86
856.382	5660.9
860.917	6402.08
865.448	6887.58
869.978	8550.84
874.505	11034.5
879.029	13851.7
883.55	15070.4
888.069	15339.7
892.586	17081.3
897.1	21350.6
901.611	29622.3
906.12	43649.1
910.626	49902.7
915.129	43109.7
919.63	28622.2
924.129	17124.1
928.625	10458.1
933.118	6548.35
937.609	4467.12
942.097	3307.49
946.582	2464.44
951.065	1861.04
955.546	1566.36
960.023	1363.46
964.499	1431.44
968.971	1710.34
973.441	1978.28
977.909	1667.38
982.374	978.763
986.836	365.161
991.295	103.913
995.753	2.67188
1000.21	13.5308
1004.66	218.184
1009.11	644.457
1013.55	1029.7
1018	951.264
1022.44	776.731
1026.88	1102.6
1031.32	1461.19
1035.75	1646.45
1040.18	1418.52
1044.61	1143.39
1049.04	925.812
1053.46	908.68
1057.88	837.626
1062.3	833.676
1066.71	1116.77
1071.13	2022.97
1075.54	4544.17
1079.94	7957.34
1084.35	7014.46
1088.75	3712.49
1093.15	1671.24
1097.55	873.543
1101.94	526.978
1106.34	172.261
1110.73	88.3555
1115.11	132.699
1119.5	135.034
1123.88	11.8862
1128.26	14.0688
1132.63	41.6279
1137.01	38.8096
1141.38	48.6587
1145.75	128.043
1150.12	82.2402
1154.48	14.8115
1158.84	7.10352
1163.2	48.4165
1167.55	60.3315
1171.91	79.1597
1176.26	206.956
1180.61	234.975
1184.95	199.564
1189.29	260.69
1193.63	169.827
1197.97	127.982
1202.31	204.456
1206.64	98.2051
1210.97	291.479
1215.29	89.7612
1219.62	61.228
1223.94	67.6235
1228.26	22.6733
1232.57	5.73633
1236.89	2.06152
1241.2	45.9663
1245.51	49.3276
1249.81	1.36377
1254.12	6.73926
1258.42	79.1743
1262.72	102.724
1267.01	46.3975
1271.3	37.2339
1275.59	124.57
1279.88	27.4048
1284.17	16.9375
1288.45	41.9937
1292.73	65.7891
1297.01	28.5767
1301.28	23.3726
1305.55	76.5288
1309.82	167.064
1314.09	9.02539
1318.35	25.6709
1322.61	49.8745
1326.87	40.3408
1331.13	117.593
1335.38	61.8525
1339.63	162.473
1343.88	116.51
1348.12	221.96
1352.37	224.01
1356.61	214.161
1360.85	197.284
1365.08	214.282
1369.31	243.563
1373.54	284.276
1377.77	260.888
1381.99	225.642
1386.22	156.567
1390.43	185.683
1394.65	198.598
1398.87	172.65
1403.08	154.198
1407.29	296.435
1411.49	259.909
1415.69	224.335
1419.89	297.443
1424.09	291.291
1428.29	285.207
1432.48	404.799
1436.67	328.416
1440.86	449.382
1445.04	384.272
1449.23	304.535
1453.4	269.282
1457.58	256.429
1461.76	352.343
1465.93	333.402
1470.1	354.398
1474.26	440.356
1478.43	317.551
1482.59	420.867
1486.75	282.987
1490.9	272.908
1495.06	308.726
1499.21	242.405
1503.35	202.619
1507.5	281.848
1511.64	269.203
1515.78	207.514
1519.92	149.42
1524.05	161.562
1528.18	183.051
1532.31	150.967
1536.44	145.523
1540.56	23.9097
1544.69	62.3589
1548.8	69.9824
1552.92	253.144
1557.03	86.4531
1561.14	26.8037
1565.25	66.9019
1569.36	37.4282
