Measurement: Raman, 514 nm, ccw, Raman Data Processed
Mineral: Epidote
Rruff sample: R050191
Ideal chemistry: Ca_2_Fe^3+^Al_2_(Si_2_O_7_)(SiO_4_)O(OH)
Locality: Pampa Blanca, Castrovirreyna Province, Huancavelica Department, Peru
Source: Dave Bunk Minerals
Description: Cluster of green elongated prismatic crystals
Measured chemistry: Ca_2.00_Al_2.00_(Fe^3+^_0.84_Al_0.16_)(SiO_4_)(Si_2_O_7_)O(OH)
Pin_id: L01410
Orientation: Laser parallel to c* (0 0 1). Fiducial mark perpendicular to laser is parallel to -a [-1 0 0]
Raman shift (cm-1)	intensity
53.91	0
58.864	208.584
63.817	13.4405
68.767	138.265
73.714	1592.92
78.659	7945.68
83.602	22421.9
88.542	26122.5
93.48	14197.1
98.416	7104.37
103.349	4516.37
108.28	3827.49
113.208	2975.38
118.134	3574.13
123.058	6903.83
127.979	11585.3
132.898	8044.61
137.814	4582.97
142.728	3165.54
147.639	2474.07
152.549	2712.01
157.455	4518.88
162.359	7166.98
167.261	5983.48
172.161	3509.45
177.058	2339.91
181.952	2207.86
186.845	2581.33
191.734	4247.36
196.622	6945.69
201.507	8290.19
206.389	8067.53
211.269	10092.1
216.147	15519.4
221.022	22843
225.895	24489.3
230.765	15574.5
235.633	11491.6
240.498	10371.2
245.361	7012.81
250.222	4573.19
255.08	3561.37
259.936	4917.85
264.789	10798.2
269.64	20548.3
274.488	17750
279.334	8265.75
284.178	4383.57
289.019	4588.39
293.857	5610.22
298.693	5021.11
303.527	3596.11
308.358	2490.24
313.187	2572.53
318.013	4004.02
322.837	4214.73
327.659	1438.67
332.478	264.151
337.294	806.102
342.108	513.192
346.92	219.835
351.729	37.8071
356.535	250.347
361.34	297.935
366.141	378.683
370.94	125.124
375.737	1262.25
380.531	4096.1
385.323	6531.64
390.113	4635.84
394.9	2622.68
399.684	1990.14
404.466	3178.22
409.245	6873.9
414.022	17596.2
418.797	36141.1
423.569	37910.7
428.338	26028.4
433.105	17666.8
437.87	14806
442.632	20522.3
447.391	27921.7
452.149	26133.2
456.903	18837.7
461.655	10922.3
466.405	6118.73
471.152	3581.97
475.897	2994.15
480.639	3252.31
485.378	4487.33
490.116	6873.29
494.85	10317.4
499.582	12308
504.312	14309.5
509.039	15282.4
513.764	19490
518.486	26295.6
523.206	17750
527.923	8194.25
532.638	3650.23
537.35	2604.92
542.059	2946.27
546.766	4824.23
551.471	9742.76
556.173	26788.8
560.873	48436.4
565.57	31846
570.264	15239.9
574.957	11128.4
579.646	14248.7
584.333	19172.4
589.018	26318.5
593.7	34768.2
598.379	31913.5
603.056	22833.7
607.73	16621.9
612.402	11869.3
617.072	7434.84
621.739	4442.03
626.403	2731.24
631.065	1773.88
635.724	1151.13
640.381	807.024
645.035	709.812
649.687	763.359
654.336	890.385
658.983	1027.01
663.627	1147.06
668.268	1189.49
672.907	1474.99
677.544	1654.24
682.178	1926.44
686.809	1669.81
691.438	914.27
696.065	323.783
700.688	40.2954
705.31	96.6157
709.929	179.999
714.545	215.713
719.158	223.135
723.77	274.607
728.378	193.398
732.984	208.345
737.588	137.546
742.189	155.856
746.787	97.0674
751.383	55.852
755.976	51.4539
760.567	164.662
765.155	165.286
769.741	202.518
774.324	152.242
778.904	152.467
783.482	234.183
788.058	372.483
792.631	409.424
797.201	638.029
801.769	873.324
806.334	1243.34
810.897	1816.09
815.457	2867.63
820.014	4687.96
824.569	6956.14
829.122	7215.19
833.671	5604.14
838.219	4077.14
842.763	3633.1
847.306	3646.39
851.845	4456.68
856.382	5639.34
860.917	7123.64
865.448	8726.77
869.978	9000.97
874.505	7506.43
879.029	6315.2
883.55	5886.99
888.069	6900.1
892.586	9474.93
897.1	14582.7
901.611	22614.7
906.12	35533.1
910.626	50697.5
915.129	52397.1
919.63	36040.3
924.129	20656.8
928.625	11622.3
933.118	7315.76
937.609	4961.1
942.097	3946.28
946.582	3382.3
951.065	3335.15
955.546	3521.88
960.023	3403.51
964.499	3479.07
968.971	4874.6
973.441	8630.13
977.909	11914
982.374	8573.73
986.836	4546.69
991.295	2372.03
995.753	1271.95
1000.21	679.527
1004.66	202.667
1009.11	1.54248
1013.55	103.267
1018	427.764
1022.44	788.275
1026.88	1819.49
1031.32	3398.76
1035.75	5458.27
1040.18	6348.6
1044.61	5428.65
1049.04	4671.85
1053.46	5185.52
1057.88	7068
1062.3	6666.35
1066.71	5897.1
1071.13	7317.81
1075.54	11985.9
1079.94	20988.7
1084.35	28245.5
1088.75	17396.5
1093.15	6780.3
1097.55	2685.85
1101.94	1314.94
1106.34	764.411
1110.73	633.79
1115.11	663.267
1119.5	988.513
1123.88	903.667
1128.26	460.071
1132.63	122.714
1137.01	111.452
1141.38	46.8481
1145.75	65.9336
1150.12	141.452
1154.48	49.689
1158.84	45.6143
1163.2	86.3252
1167.55	91.5662
1171.91	25.5584
1176.26	72.1758
1180.61	60.1043
1184.95	42.0181
1189.29	26.1257
1193.63	12.0991
1197.97	58.248
1202.31	130.527
1206.64	114.005
1210.97	197.103
1215.29	191.051
1219.62	174.948
1223.94	259.312
1228.26	279.924
1232.57	165.891
1236.89	193.162
1241.2	278.73
1245.51	227.595
1249.81	334.728
1254.12	285.119
1258.42	350.919
1262.72	373.132
1267.01	316.334
1271.3	300.279
1275.59	353.51
1279.88	340.242
1284.17	286.235
1288.45	235.419
1292.73	227.853
1297.01	318.383
1301.28	185.979
1305.55	269.252
1309.82	102.897
1314.09	69.5562
1318.35	142.353
1322.61	113.488
1326.87	94.4373
1331.13	111.396
1335.38	111.467
1339.63	110.66
1343.88	175.425
1348.12	144.215
1352.37	218.406
1356.61	268.074
1360.85	250.439
1365.08	207.636
1369.31	216.67
1373.54	233.952
1377.77	185.716
1381.99	151.2
1386.22	110.293
1390.43	156.973
1394.65	45.3303
1398.87	3.81372
1403.08	77.6475
1407.29	26.1477
1411.49	28.583
1415.69	48.7673
1419.89	6.78906
1424.09	27.1604
1428.29	6.9231
1432.48	36.8882
1436.67	10.2153
1440.86	68.1719
1445.04	152.111
1449.23	107.027
1453.4	145.838
1457.58	30.5234
1461.76	90.3931
1465.93	100.237
1470.1	69.9175
1474.26	66.4316
1478.43	123.848
1482.59	30.5579
1486.75	107.166
1490.9	69.658
1495.06	121.376
1499.21	65.7991
1503.35	113.614
1507.5	78.0808
1511.64	156.141
1515.78	65.2942
1519.92	142.703
1524.05	63.9309
1528.18	154.649
1532.31	91.7422
1536.44	44.9019
1540.56	28.7656
1544.69	78.1995
1548.8	85.3127
1552.92	158.74
1557.03	89.5169
1561.14	58.229
1565.25	63.895
1569.36	2.76611
