Measurement: Raman, 514 nm, ccw, Raman Data Processed
Mineral: Epidote
Rruff sample: R050303
Ideal chemistry: Ca_2_Fe^3+^Al_2_(Si_2_O_7_)(SiO_4_)O(OH)
Locality: San Martin mine, Zacatecas, Mexico
Source: Eugene Schlepp
Description: Green elongated prismatic crystals
Measured chemistry: Ca_2.00_Al_2.00_(Fe^3+^_0.97_Al_0.03_)(SiO_4_)(Si_2_O_7_)O(OH)
Pin_id: L01452
Orientation: Laser parallel to c* (0 0 1). Fiducial mark perpendicular to laser is parallel to a [1 0 0]
Raman shift (cm-1)	intensity
53.91	0
58.864	224.514
63.817	38.7315
68.767	186.65
73.714	1030.39
78.659	2849.38
83.602	8175.23
88.542	15981.4
93.48	19347.5
98.416	12737.4
103.349	6730.79
108.28	5346.28
113.208	3806.7
118.134	3340.68
123.058	3392.75
127.979	3467.62
132.898	3150.3
137.814	2845.91
142.728	2901.18
147.639	2726.28
152.549	2887.34
157.455	4044.67
162.359	6655.53
167.261	6938.07
172.161	4065.34
177.058	2423.37
181.952	2293.17
186.845	2772.75
191.734	3827.12
196.622	6723.68
201.507	8475.67
206.389	6467.05
211.269	6193.83
216.147	8173.64
221.022	11225.9
225.895	11613.5
230.765	7525.53
235.633	5814.01
240.498	6114.97
245.361	4592.56
250.222	3714.46
255.08	3694.39
259.936	5621.15
264.789	11628.5
269.64	24598.5
274.488	23757.6
279.334	10660.8
284.178	6371.05
289.019	6979.32
293.857	9739.49
298.693	8680.54
303.527	6370.51
308.358	5434.4
313.187	3964.21
318.013	2864.97
322.837	2225.67
327.659	750.312
332.478	483.162
337.294	852.201
342.108	165.386
346.92	409.958
351.729	286.841
356.535	281.693
361.34	212.922
366.141	109.407
370.94	493.081
375.737	404.861
380.531	579.146
385.323	1870.3
390.113	1509.73
394.9	886.401
399.684	1098.28
404.466	2505.35
409.245	6648.56
414.022	17039.9
418.797	35357.4
423.569	36443
428.338	24578.8
433.105	20368.5
437.87	22247.2
442.632	33548.2
447.391	48574.4
452.149	53560.1
456.903	39874.1
461.655	21582.4
466.405	11618.7
471.152	6444.94
475.897	4238.69
480.639	3340.64
485.378	3285.32
490.116	4201.9
494.85	6118.25
499.582	6785.59
504.312	7539.8
509.039	7721.7
513.764	9557.95
518.486	13538
523.206	9331.98
527.923	3778.68
532.638	1584.99
537.35	1227.85
542.059	1882.18
546.766	3770.93
551.471	8183.05
556.173	21247.5
560.873	42101.1
565.57	26544.9
570.264	11868.9
574.957	9624.71
579.646	12605.2
584.333	16962.9
589.018	21297.3
593.7	27966.8
598.379	25276.4
603.056	18147.1
607.73	14413.4
612.402	11234.7
617.072	7088.6
621.739	4037.6
626.403	2580.31
631.065	1557.57
635.724	903.278
640.381	699.284
645.035	510.266
649.687	487.865
654.336	542.124
658.983	597.688
663.627	822.231
668.268	755.796
672.907	1242.31
677.544	1645.73
682.178	2381.01
686.809	2423.08
691.438	1462.92
696.065	678.462
700.688	206.681
705.31	32.4165
709.929	161.871
714.545	112.314
719.158	195.969
723.77	139.411
728.378	255.575
732.984	233.229
737.588	148.306
742.189	220.469
746.787	129.543
751.383	100.148
755.976	50.104
760.567	34.896
765.155	13.2446
769.741	50.0874
774.324	54.3672
778.904	93.8413
783.482	107.674
788.058	98.9902
792.631	206.858
797.201	359.331
801.769	607.926
806.334	784.188
810.897	1241.65
815.457	1892.86
820.014	2889.86
824.569	4099.7
829.122	4553.43
833.671	3905.09
838.219	3711.69
842.763	3920.35
847.306	4581.62
851.845	5943.41
856.382	7751.4
860.917	9740.21
865.448	11341.7
869.978	11777.1
874.505	12037.6
879.029	12604.3
883.55	12774
888.069	12192.2
892.586	12955.7
897.1	16628.3
901.611	23650.7
906.12	33965.8
910.626	43153
915.129	40785.1
919.63	26922.2
924.129	15642.7
928.625	9125.64
933.118	5830.85
937.609	4088.22
942.097	3351.72
946.582	3101.39
951.065	3219.3
955.546	3473.39
960.023	3393.73
964.499	3902.3
968.971	6048.14
973.441	10818.2
977.909	13472.8
982.374	8844.1
986.836	4474.7
991.295	2369.76
995.753	1246.51
1000.21	421.999
1004.66	385.369
1009.11	419.579
1013.55	818.533
1018	1084.69
1022.44	1842.19
1026.88	3511.81
1031.32	6588.4
1035.75	9871.42
1040.18	10512.5
1044.61	8393.08
1049.04	6299.98
1053.46	6471.73
1057.88	7935.98
1062.3	7283.92
1066.71	7054.07
1071.13	9521.49
1075.54	15411.1
1079.94	27022.1
1084.35	31278.7
1088.75	16411.7
1093.15	6484.9
1097.55	3078.67
1101.94	1824.19
1106.34	1106.12
1110.73	766.904
1115.11	588.549
1119.5	400.07
1123.88	287.029
1128.26	371.885
1132.63	267.627
1137.01	109.713
1141.38	35.9043
1145.75	62.647
1150.12	104.974
1154.48	54.4087
1158.84	183.21
1163.2	118.65
1167.55	76.2271
1171.91	89.7339
1176.26	135.068
1180.61	38.2808
1184.95	92.9468
1189.29	38.3623
1193.63	15.4829
1197.97	48.7105
1202.31	27.5444
1206.64	32.5776
1210.97	104.472
1215.29	143.717
1219.62	27.6221
1223.94	185.625
1228.26	259.872
1232.57	223.31
1236.89	273.945
1241.2	169.726
1245.51	251.645
1249.81	287.73
1254.12	266.977
1258.42	292.357
1262.72	315.856
1267.01	247.784
1271.3	224.632
1275.59	315.834
1279.88	312.29
1284.17	327.543
1288.45	261.334
1292.73	357.043
1297.01	237.225
1301.28	241.649
1305.55	167.219
1309.82	165.378
1314.09	157.539
1318.35	99.2163
1322.61	110.867
1326.87	103.855
1331.13	90.4961
1335.38	65.2549
1339.63	121.723
1343.88	192.852
1348.12	213.649
1352.37	319.794
1356.61	337.801
1360.85	354.29
1365.08	309.345
1369.31	255.466
1373.54	251.01
1377.77	239.568
1381.99	215.537
1386.22	180.658
1390.43	116.736
1394.65	174.526
1398.87	143.105
1403.08	83.1123
1407.29	87.1392
1411.49	77.9102
1415.69	180.017
1419.89	46.4106
1424.09	109.715
1428.29	123.361
1432.48	96.3042
1436.67	144.363
1440.86	45.2715
1445.04	120.141
1449.23	87.5752
1453.4	57.2866
1457.58	141.84
1461.76	53.6113
1465.93	133.424
1470.1	148.956
1474.26	207.294
1478.43	124.391
1482.59	117.11
1486.75	211.38
1490.9	133.043
1495.06	46.1182
1499.21	192.589
1503.35	177.952
1507.5	107.526
1511.64	197.546
1515.78	99.1099
1519.92	92.0596
1524.05	194.808
1528.18	140.912
1532.31	77.9468
1536.44	23.8208
1540.56	189.258
1544.69	3.39307
1548.8	58.1172
1552.92	268.097
1557.03	15.0918
1561.14	104.715
1565.25	72.4243
1569.36	27.5024
