Measurement: Raman, 514 nm, ccw, Raman Data Processed
Mineral: Epidote
Rruff sample: R040089
Ideal chemistry: Ca_2_Fe^3+^Al_2_(Si_2_O_7_)(SiO_4_)O(OH)
Locality: Grafton County, New Hampshire, USA
Source: University of Arizona Mineral Museum
Description: Dark green coarsely crystalline massive
Measured chemistry: Ca_2.00_(Al_2.36_Fe^3+^_0.64_)[Si_2.00_O_7_][Si_1.00_O_4_]O(OH)
Pin_id: M00383
Orientation: Laser parallel to a [1 0 0]. Fiducial mark perpendicular to laser is parallel to b* (0 1 0)
Raman shift (cm-1)	intensity
53.228	0
57.445	424.98
61.659	1750.66
65.871	806.836
70.081	63.439
74.288	2409.88
78.494	3247.38
82.697	2015.44
86.898	2542.57
91.097	7585.84
95.293	9321.02
99.488	4600.69
103.68	1989.41
107.87	706.504
112.057	962.421
116.243	734.245
120.426	144.513
124.608	223.522
128.787	2299.76
132.963	6689.79
137.138	9696.41
141.311	8714.44
145.481	5148.18
149.649	3466.18
153.815	1987.69
157.979	1890.63
162.14	3493.79
166.3	6845.57
170.457	8254.55
174.612	6467.73
178.765	3909.61
182.915	1850.85
187.064	1241.46
191.21	1491.06
195.355	400.152
199.497	421.072
203.637	442.718
207.774	185.296
211.91	21.99
216.043	154.938
220.175	743.121
224.304	1605.69
228.431	3064.58
232.556	5162.56
236.678	6075.18
240.799	7046.08
244.917	11001
249.034	16788.3
253.148	18652
257.26	14607.2
261.37	11009.2
265.477	9078.75
269.583	8343.97
273.686	8525.33
277.788	7923.19
281.887	6340.19
285.984	4881.76
290.079	4576.1
294.172	5520.76
298.263	6598.58
302.351	5504.35
306.438	2809.74
310.522	1765.33
314.604	1891.07
318.684	2791.23
322.762	3823.9
326.838	4586.57
330.912	5872.77
334.984	7339.17
339.053	9505.82
343.121	10352.8
347.186	12837.2
351.25	17470.7
355.311	17324.8
359.37	10681.8
363.427	5500.74
367.482	3313.82
371.535	2465.81
375.585	1308.27
379.634	372.15
383.68	214.339
387.725	1080.77
391.767	2330.88
395.808	2689.06
399.846	1816.83
403.882	674.332
407.916	61.622
411.948	31.146
415.978	256.091
420.006	1423.82
424.031	3612.32
428.055	6561.68
432.077	8251.85
436.096	9353.05
440.114	11115.5
444.129	14049.1
448.142	20054.2
452.154	26681.4
456.163	21819.8
460.17	13998.9
464.175	9198.6
468.178	6668.9
472.179	5129.7
476.178	4030.94
480.175	3772.65
484.17	3085.18
488.163	3359.77
492.153	3696.49
496.142	3854.53
500.129	4561.03
504.113	5966.12
508.096	8700.97
512.077	11396.2
516.055	11792.2
520.032	8229.73
524.006	4186.63
527.978	2115.5
531.949	816.285
535.917	23.921
539.883	329.391
543.848	269.333
547.81	97.25
551.77	554.816
555.728	1427.16
559.685	3362.25
563.639	7431.2
567.591	16582.7
571.541	24232.9
575.489	12615.6
579.435	5445.78
583.38	3922.84
587.322	4639.86
591.262	6822.46
595.2	9356.81
599.136	13697.2
603.07	18520.6
607.002	18808.5
610.932	14402.1
614.86	10717.9
618.786	8435.01
622.71	5198.48
626.632	2738.79
630.552	1583.72
634.471	990.598
638.387	648.792
642.301	441.732
646.213	297.528
650.123	134.427
654.031	301.079
657.937	367.035
661.842	525.317
665.744	635.947
669.644	532.909
673.542	440.18
677.438	543.812
681.333	822.53
685.225	1089.6
689.115	1207.89
693.004	1438.38
696.89	1219.98
700.775	1259.56
704.657	1179.95
708.538	809.166
712.416	494.546
716.293	87.037
720.167	20.526
724.04	36.224
727.911	24.481
731.78	59.398
735.646	202.359
739.511	192.625
743.374	107.23
747.235	82.011
751.094	197.931
754.951	114.047
758.806	117.163
762.659	14.198
766.511	88.963
770.36	77.469
774.207	23.599
778.053	43.357
781.896	111.112
785.738	191.721
789.577	259.354
793.415	335.041
797.251	312.218
801.084	421.61
804.916	646.321
808.746	949.635
812.574	1173.6
816.4	1498.88
820.224	1909.53
824.047	2095.06
827.867	2625.23
831.685	2786.54
835.502	2848.66
839.316	3210.1
843.129	3600.89
846.94	4221.05
850.749	5230.74
854.556	6440.21
858.361	7669.4
862.164	9768.11
865.965	13235.6
869.764	16010.9
873.562	17486.9
877.357	19150.4
881.151	22118.6
884.942	24366.7
888.732	26625.9
892.52	28737.5
896.306	26383.6
900.09	20910.1
903.872	17945.6
907.653	18257.4
911.431	21180.3
915.208	23735
918.982	22202
922.755	18732.9
926.526	14517.2
930.295	10839.2
934.062	8104.9
937.827	5943.98
941.59	4343.62
945.352	3354.59
949.112	3025.99
952.869	2729.68
956.625	2724.87
960.379	2450.31
964.131	2276.01
967.881	2041.93
971.63	2108.06
975.376	2604.49
979.121	3621.23
982.864	5058.22
986.605	4865.46
990.344	3233.53
994.081	2232.02
997.816	1571.33
1001.55	1154.49
1005.28	1019.77
1009.01	906.685
1012.74	1324.08
1016.47	1814.19
1020.19	3200.91
1023.91	4458.6
1027.63	4535.87
1031.35	3842.99
1035.07	3328.71
1038.78	3479.3
1042.49	3797.37
1046.21	3860.51
1049.92	3407.99
1053.62	3058.59
1057.33	2587.74
1061.03	2397.41
1064.73	2181.04
1068.44	1964.94
1072.13	1897.16
1075.83	2199.56
1079.53	2652.43
1083.22	3816.12
1086.91	5582.13
1090.6	7450.91
1094.29	6135.89
1097.97	3171.68
1101.66	1693.85
1105.34	963.694
1109.02	763.302
1112.7	510.644
1116.37	348.937
1120.05	324.801
1123.72	256.757
1127.39	200.392
1131.06	32.962
1134.73	60.489
1138.39	47.964
1142.06	113.208
1145.72	43.117
1149.38	118.768
1153.04	98.814
1156.69	55.135
1160.35	133.263
1164	73.018
1167.65	49.017
1171.3	90.129
1174.95	3.841
1178.6	45.02
1182.24	39.918
1185.88	115.04
1189.52	7.756
1193.16	65.642
1196.8	55.505
1200.43	92.876
1204.07	20.677
1207.7	14.253
1211.33	48.084
1214.96	19.981
1218.58	57.594
1222.21	59.484
1225.83	31.728
1229.45	78.737
1233.07	124.007
1236.69	68.048
1240.3	40.069
1243.92	23.22
1247.53	55.924
1251.14	41.154
1254.75	7.536
1258.35	120.055
1261.96	170.347
1265.56	56.527
1269.16	204.569
1272.76	150.279
1276.36	184.332
1279.96	308.973
1283.55	194.143
1287.14	186.1
1290.73	150.905
1294.32	77.885
1297.91	115.612
1301.5	23.512
1305.08	150.648
1308.66	62.336
1312.24	90.889
1315.82	64.302
1319.4	51.629
1322.97	144.311
1326.55	125.46
1330.12	35.801
1333.69	135.638
1337.26	132.049
1340.82	153.557
1344.39	160.924
1347.95	97.748
1351.51	153.913
1355.07	171.657
1358.63	228.629
1362.18	258.09
1365.74	160.229
1369.29	156.636
1372.84	116.422
1376.39	85.281
1379.94	181.62
1383.48	141.845
1387.03	225.562
1390.57	351.904
1394.11	166.671
1397.65	97.165
1401.19	54.341
1404.72	75.036
1408.26	139.805
1411.79	95.403
1415.32	226.459
1418.85	187.592
1422.37	142.674
1425.9	150.324
1429.42	121.832
1432.94	119.736
1436.46	5.118
1439.98	42.818
1443.5	67.09
1447.01	137.682
1450.53	25.876
1454.04	87.384
1457.55	191.076
1461.05	123.391
1464.56	69.125
1468.07	173.3
1471.57	168.692
1475.07	72.835
1478.57	55.623
1482.07	12.868
1485.56	93.874
1489.06	124.777
1492.55	71.281
1496.04	120.093
1499.53	82.078
1503.02	165.451
1506.5	171.472
1509.99	111.048
1513.47	70.094
1516.95	57.317
