Measurement: Raman, 514 nm, ccw, Raman Data Processed
Mineral: Erionite-Ca
Rruff sample: R060836
Ideal chemistry: Ca_5_(Si_26_Al_10_O_72_)30H_2_O
Locality: Moeraki, Otago, South Island, New Zealand
Source: Michael Scott
Description: Radiating group of colorless acicular hexagonal prisms
Measured chemistry: (Ca_2.08_K_1.21_Na_0.94_Mg_0.77_Fe^3+^_0.41_Cr_0.10_)_Σ=5.51_(Si_26.62_Al_9.38_)O_72_·23.41H_2_O; H_2_O estimated by difference
Pin_id: M00444
Orientation: Laser parallel to c* (0 0 1). Fiducial mark perpendicular to laser is parallel to a [1 0 0]
Raman shift (cm-1)	intensity
230.765	0
234.416	325.342
238.066	116.269
241.714	66.2539
245.361	40.2188
249.007	47.25
252.651	55.6211
256.294	299.473
259.936	1374.67
263.576	616.439
267.215	749.551
270.852	667.447
274.488	669.875
278.123	416.871
281.756	283.713
285.388	318.596
289.019	380.402
292.648	298.768
296.276	731.152
299.902	1192.91
303.527	1817.37
307.151	2510.24
310.773	3466.09
314.394	4384.12
318.013	4959.4
321.631	5338.26
325.248	4832.49
328.864	4723.35
332.478	4233.77
336.09	4149.74
339.701	3859.23
343.311	4392.21
346.92	4654.54
350.527	4916.05
354.132	4951.71
357.737	4468.54
361.34	3975.52
364.941	3259.66
368.541	2512.95
372.14	1851.38
375.737	970.863
379.333	741.008
382.928	340.107
386.521	12.0469
390.113	181.019
393.703	279.904
397.292	263.457
400.88	203.086
404.466	48.1035
408.051	418.781
411.634	804.859
415.216	1619.24
418.797	2786.72
422.376	4012.02
425.954	5091.21
429.53	5892.57
433.105	5874.18
436.679	5488.86
440.251	5588.68
443.822	6311.85
447.391	7523.01
450.96	9031.17
454.526	11454
458.091	14317.4
461.655	17122.7
465.218	19017.8
468.779	20660.9
472.338	22378.2
475.897	24818.6
479.454	27845
483.009	30294.4
486.563	31277.9
490.116	28947.4
493.667	24718
497.217	19673.5
500.765	14891
504.312	10845.5
507.858	7465.09
511.402	5074.61
514.945	3494.14
518.486	1874.63
522.026	1376.02
525.565	888.324
529.102	618.279
532.638	291.228
536.172	509.154
539.705	342.703
543.236	290.445
546.766	599.684
550.295	1396.86
553.822	1860.59
557.348	2744.36
560.873	3604.64
564.396	4392.14
567.917	4196.97
571.438	3625.68
574.957	2645.36
578.474	2075.65
581.99	1906.82
585.504	1841.8
589.018	1873.44
592.529	2298.05
596.04	2273.14
599.549	2491.27
603.056	2383.82
606.562	2468.47
610.067	2006.92
613.57	1638.55
617.072	1418.94
620.572	1355.91
624.071	1173.62
627.569	952.227
631.065	938.623
634.56	729.719
638.053	786.535
641.545	909.262
645.035	864.891
648.524	994.561
652.012	1005.21
655.498	904.836
658.983	916.463
662.466	688.863
665.948	623.918
669.428	586.602
672.907	297.406
676.385	430.023
679.861	98.5625
683.336	134.727
686.809	78.7852
690.281	66.0469
693.752	106.49
697.221	89.3164
700.688	65.0898
704.155	26.7266
707.619	113.307
711.083	88.3223
714.545	74.6172
718.005	78.9043
721.464	228.475
724.922	1.27539
728.378	247.17
731.833	296.941
735.286	328.035
738.738	217.408
742.189	206.041
745.638	262.928
749.085	383.647
752.531	543.268
755.976	618.555
759.419	766.217
762.861	937.699
766.302	1071.35
769.741	1211.94
773.178	1601.91
776.614	1530.37
780.049	2032.31
783.482	1987.87
786.914	1968.05
790.345	2052.9
793.773	1985.95
797.201	1896.76
800.627	2338.73
804.052	3247.27
807.475	3792.73
810.897	3810.25
814.317	3190.01
817.736	2210.07
821.153	1830.44
824.569	1409.17
827.984	1337.38
831.397	1144.86
834.808	1146.46
838.219	1520.12
841.627	2112.57
845.035	3301.97
848.441	5016.63
851.845	6822.76
855.248	7971.27
858.65	7464.06
862.05	5907.53
865.448	4308.79
868.846	3000.03
872.241	2064.84
875.636	1337.13
879.029	919.572
882.42	720.361
885.81	226.783
889.199	120.322
892.586	180.699
895.971	161.481
899.356	250.473
902.738	278.514
906.12	69.8769
909.5	175.607
912.878	63.3867
916.255	57.5156
919.63	69.6777
923.004	17.248
926.377	117.926
929.748	83.8535
933.118	11.0137
936.486	59.7324
939.853	51.9395
943.218	8.04492
946.582	301.746
949.945	332.201
953.306	512.604
956.665	857.123
960.023	1086.99
963.38	1203.02
966.735	1327.57
970.089	1235.18
973.441	1363.73
976.792	1567.22
980.141	1896.79
983.489	2078.64
986.836	2165.59
990.181	2543.6
993.524	2886.92
996.866	3177.27
1000.21	3366.57
1003.55	3629.81
1006.88	3791
1010.22	3415.16
1013.55	3403.33
1016.89	3331.49
1020.22	3630.72
1023.55	3517.71
1026.88	3557.74
1030.21	3772.37
1033.53	3807
1036.86	3681.58
1040.18	3641.45
1043.5	3405
1046.82	2964.95
1050.14	2794.14
1053.46	2716.33
1056.78	2249.46
1060.09	2116.78
1063.4	2196.84
1066.71	2037.06
1070.02	2164.96
1073.33	2087.29
1076.64	2187.89
1079.94	2334.66
1083.25	2752.97
1086.55	3240.57
1089.85	3525.84
1093.15	4279.98
1096.45	4868.57
1099.75	5405.76
1103.04	5898.25
1106.34	6522.07
1109.63	7058.2
1112.92	7110.63
1116.21	6607.35
1119.5	5996.37
1122.78	5601.68
1126.07	4725.31
1129.35	4108.23
1132.63	3802.45
1135.92	3734.48
1139.19	3728.82
1142.47	3951.97
1145.75	3819.43
1149.02	3885.22
1152.3	4088.32
1155.57	3821.77
1158.84	3728.59
1162.11	3715.76
1165.38	3153.46
1168.64	2773.7
1171.91	2600.32
1175.17	2317.35
1178.43	1899.91
1181.69	1693.57
1184.95	1288.4
1188.21	844.094
1191.46	600.426
1194.72	499.477
1197.97	336.18
1201.22	126.293
1204.47	122.387
1207.72	125.266
1210.97	29.418
1214.21	281.867
1217.46	36.4023
1220.7	120.062
1223.94	107.176
1227.18	18.2109
1230.42	380.731
1233.65	89.1367
1236.89	413.305
1240.12	241.176
1243.35	472.273
1246.59	518.629
1249.81	568.445
1253.04	645.723
1256.27	637.676
1259.49	466.992
1262.72	780.508
1265.94	1212.23
1269.16	1106.17
1272.38	1201.39
1275.59	1388.82
1278.81	958.441
1282.03	720.227
1285.24	639.188
1288.45	465.305
1291.66	263.578
1294.87	493.996
1298.08	334.547
1301.28	455.789
1304.48	305.019
1307.69	277.906
1310.89	245.832
1314.09	53.3359
1317.29	361.277
1320.48	437.922
1323.68	432.586
1326.87	374.324
1330.06	219.059
1333.26	145.688
1336.44	409.144
1339.63	17.7773
1342.82	45.8711
1346	33.8359
1349.19	36.8125
1352.37	104.25
1355.55	32.9531
1358.73	172.336
1361.9	50.3477
1365.08	174.941
1368.26	117.246
1371.43	56.5586
1374.6	306.863
1377.77	204.16
1380.94	354.637
1384.11	201.805
1387.27	335.91
1390.43	642.512
1393.6	887.684
1396.76	658.492
1399.92	775.758
1403.08	380.984
1406.23	538.789
1409.39	418.18
1412.54	387.613
1415.69	558.078
1418.85	889.883
1421.99	1038.6
1425.14	1609.66
1428.29	2110.57
1431.43	2903.07
1434.58	3721.24
1437.72	4723.26
1440.86	5928.81
1444	6889.88
1447.13	6994.25
1450.27	7310.47
1453.4	6728.38
1456.54	6298.9
1459.67	5279.02
1462.8	4217.48
1465.93	3285.46
1469.06	2751.15
1472.18	2391.03
1475.31	2049.43
1478.43	1451.42
1481.55	1203.54
1484.67	962.461
1487.79	649.832
1490.9	599.918
1494.02	266.75
1497.13	200.32
1500.24	481.641
1503.35	244.75
1506.46	228.938
1509.57	90.7578
1512.68	69.5742
1515.78	163.574
1518.88	376.137
1521.99	22.6445
1525.09	15.2969
1528.18	114.098
1531.28	415.098
1534.38	335.492
1537.47	287.469
1540.56	266
1543.66	222.039
1546.74	319.156
1549.83	57.2266
1552.92	77.9961
1556.01	242.625
1559.09	1.26172
1562.17	238.184
1565.25	42.9844
1568.33	237.852
1571.41	0
