Measurement: Raman, 514 nm, ccw, Raman Data Processed
Mineral: Erionite-Ca
Rruff sample: R060836
Ideal chemistry: Ca_5_(Si_26_Al_10_O_72_)30H_2_O
Locality: Moeraki, Otago, South Island, New Zealand
Source: Michael Scott
Description: Radiating group of colorless acicular hexagonal prisms
Measured chemistry: (Ca_2.08_K_1.21_Na_0.94_Mg_0.77_Fe^3+^_0.41_Cr_0.10_)_Σ=5.51_(Si_26.62_Al_9.38_)O_72_·23.41H_2_O; H_2_O estimated by difference
Pin_id: M00444
Orientation: Laser parallel to c* (0 0 1). Fiducial mark perpendicular to laser is parallel to a [1 0 0]
Raman shift (cm-1)	intensity
223.459	0
228.33	214.568
233.199	404.504
238.066	25.5215
242.93	52.7012
247.792	115.416
252.651	581.66
257.508	803.805
262.363	1080.24
267.215	1201.19
272.064	1385.56
276.912	1012.08
281.756	937.684
286.598	833.939
291.438	768.881
296.276	1204.31
301.111	1797.71
305.943	2883.7
310.773	4375.2
315.601	5484.35
320.426	5575.45
325.248	5198.5
330.068	4674.8
334.886	3707.88
339.701	3198.03
344.514	2683.47
349.324	2692.14
354.132	2471.06
358.938	1613.24
363.741	1349.66
368.541	974.279
373.339	565.984
378.135	204.531
382.928	45.6582
387.718	0.427734
392.506	210.775
397.292	265.16
402.075	52.9316
406.856	410.891
411.634	1240.01
416.41	2281.98
421.183	4371.78
425.954	6116.34
430.722	6969.73
435.488	6465.1
440.251	6106.69
445.012	7056.59
449.77	8728.88
454.526	11764.4
459.28	14935.6
464.03	17757
468.779	19979.7
473.525	22336.6
478.268	25401.7
483.009	29202.9
487.747	29248.2
492.483	25057.5
497.217	18432
501.948	12203.4
506.676	7500.91
511.402	4607.4
516.125	2564.71
520.846	1638.81
525.565	1072.79
530.281	919.854
534.994	470.799
539.705	659.967
544.413	721.471
549.119	1248.14
553.822	2145.01
558.523	3502
563.222	4556.68
567.917	4181.25
572.611	3395.73
577.302	2044.72
581.99	1427.4
586.676	1134.96
591.359	983.25
596.04	837.371
600.718	1273.85
605.394	1036.5
610.067	878.66
614.737	994.184
619.406	988.586
624.071	819.023
628.734	467.498
633.395	449.139
638.053	434.373
642.708	504.231
647.361	689.914
652.012	549.459
656.66	552.805
661.305	372.715
665.948	188.328
670.588	251.367
675.226	247.676
679.861	112.326
684.494	250.062
689.124	63.1738
693.752	272.397
698.377	330.162
702.999	220.897
707.619	62.3496
712.237	95.7598
716.852	156.008
721.464	26.5605
726.074	90.7461
730.681	188.707
735.286	112.928
739.888	117.889
744.488	346.641
749.085	415.461
753.68	216.143
758.272	244.107
762.861	359.574
767.448	594.691
772.033	950.602
776.614	1232.06
781.194	1249.5
785.77	1372.32
790.345	1177.95
794.916	1265.53
799.485	1120.71
804.052	1150.38
808.616	1293.24
813.177	1245.6
817.736	821.879
822.292	652.123
826.846	574.594
831.397	369.242
835.945	485.394
840.491	560.785
845.035	1327.67
849.576	2288.14
854.114	3472.15
858.65	3179.45
863.183	2389.73
867.713	1165.33
872.241	1146.46
876.767	671.949
881.29	272.549
885.81	162.611
890.328	61.6758
894.843	54.3711
899.356	81.1309
903.866	97.7188
908.373	18.5312
912.878	297.312
917.38	78.1562
921.88	52.2383
926.377	91.0664
930.872	184.894
935.364	161.223
939.853	31.043
944.34	92.2461
948.824	10.0625
953.306	153.035
957.785	359.738
962.261	378.871
966.735	527.883
971.207	588.66
975.675	996.621
980.141	1120.32
984.605	1068.72
989.066	1509.94
993.524	1498.28
997.98	1546.02
1002.43	2118.77
1006.88	2056.38
1011.33	2314.01
1015.78	2450.75
1020.22	2346.34
1024.66	2344.55
1029.1	2114.91
1033.53	2288.49
1037.97	2482.18
1042.4	2235.08
1046.82	1929.75
1051.25	2071.59
1055.67	1594.61
1060.09	1851.07
1064.51	1702.88
1068.92	1797.38
1073.33	1944.39
1077.74	1999.81
1082.15	2327.7
1086.55	2762.55
1090.95	3013.97
1095.35	3410.68
1099.75	3727.98
1104.14	4170.06
1108.53	4358.07
1112.92	4797.22
1117.31	4217.68
1121.69	4308.82
1126.07	3620.28
1130.45	3365.41
1134.82	3275.43
1139.19	3289.79
1143.57	3096.47
1147.93	2982.49
1152.3	3281.89
1156.66	2810.79
1161.02	2707.17
1165.38	2628.25
1169.73	2332.16
1174.08	2034.47
1178.43	1876.89
1182.78	1430.48
1187.12	990.316
1191.46	917.871
1195.8	648.125
1200.14	450.617
1204.47	449.266
1208.8	347.316
1213.13	93.1562
1217.46	108.234
1221.78	26.2109
1226.1	145.68
1230.42	119.941
1234.73	65.9453
1239.04	168.324
1243.35	313.258
1247.66	196.5
1251.97	205.797
1256.27	38.1914
1260.57	250.926
1264.86	227.809
1269.16	268.906
1273.45	126.176
1277.74	200.609
1282.03	293.508
1286.31	257.246
1290.59	13.7031
1294.87	374.668
1299.14	89.6641
1303.42	211.676
1307.69	109.234
1311.95	238.656
1316.22	101.625
1320.48	119.633
1324.74	223.625
1329	90.3945
1333.26	6.99609
1337.51	236.281
1341.76	61.918
1346	279.793
1350.25	68.3125
1354.49	146.906
1358.73	252.496
1362.96	182.832
1367.2	47.5352
1371.43	317.871
1375.66	11.4961
1379.88	508.676
1384.11	146.481
1388.33	74.2227
1392.54	508.875
1396.76	297.18
1400.97	357.574
1405.18	27.8555
1409.39	277.863
1413.59	133.875
1417.8	440.238
1421.99	605.613
1426.19	696.566
1430.38	934.82
1434.58	1366.38
1438.77	2185.77
1442.95	2527.58
1447.13	2653.77
1451.32	2849.16
1455.49	2556.71
1459.67	2252.09
1463.84	1712.05
1468.01	1058.48
1472.18	1109.27
1476.35	643.887
1480.51	661.113
1484.67	504.527
1488.83	219.734
1492.98	280.156
1497.13	215.852
1501.28	299.016
1505.43	131.18
1509.57	230.168
1513.71	176.18
1517.85	181.203
1521.99	137.723
1526.12	62.4258
1530.25	136.836
1534.38	10.9492
1538.5	289.711
1542.62	343.352
1546.74	96.1016
1550.86	274.082
1554.98	492.375
1559.09	293.457
1563.2	8.32031
1567.31	341.977
1571.41	0
