Measurement: Raman, 514 nm, ccw, Raman Data Processed
Mineral: Erionite-Ca
Rruff sample: R060836
Ideal chemistry: Ca_5_(Si_26_Al_10_O_72_)30H_2_O
Locality: Moeraki, Otago, South Island, New Zealand
Source: Michael Scott
Description: Radiating group of colorless acicular hexagonal prisms
Measured chemistry: (Ca_2.08_K_1.21_Na_0.94_Mg_0.77_Fe^3+^_0.41_Cr_0.10_)_Σ=5.51_(Si_26.62_Al_9.38_)O_72_·23.41H_2_O; H_2_O estimated by difference
Pin_id: M00444
Orientation: Laser parallel to c* (0 0 1). Fiducial mark perpendicular to laser is parallel to a [1 0 0]
Raman shift (cm-1)	intensity
230.765	0
234.416	104.412
238.066	158.978
241.714	381.951
245.361	305.414
249.007	266.537
252.651	350.762
256.294	454.998
259.936	1261.99
263.576	936.109
267.215	1016.81
270.852	841.582
274.488	1235.09
278.123	931.688
281.756	809.406
285.388	720.359
289.019	598.357
292.648	862.957
296.276	1010.58
299.902	1538.2
303.527	2033.94
307.151	2728.75
310.773	3832.36
314.394	4343.73
318.013	4518.18
321.631	4883
325.248	4348.1
328.864	3819.79
332.478	3382.97
336.09	2885.33
339.701	2397.63
343.311	2115.93
346.92	1498.31
350.527	1356.75
354.132	955.273
357.737	811.859
361.34	593.518
364.941	249.24
368.541	164.023
372.14	31.793
375.737	40.834
379.333	59.6797
382.928	169.01
386.521	193.422
390.113	165.168
393.703	21.0664
397.292	149.764
400.88	137.51
404.466	372.35
408.051	580.4
411.634	1194.69
415.216	1533.99
418.797	2506.2
422.376	3890.2
425.954	4853.08
429.53	5468.88
433.105	5281.69
436.679	4904.43
440.251	4815.06
443.822	5235.51
447.391	6183.59
450.96	7534.49
454.526	8994.47
458.091	11292.7
461.655	12961.9
465.218	14545.2
468.779	15646.6
472.338	16915.1
475.897	18671.5
479.454	20936
483.009	22887.5
486.563	23287
490.116	22008.4
493.667	18839.8
497.217	14576.1
500.765	10805.4
504.312	7798.59
507.858	5289.49
511.402	3674.17
514.945	2821.17
518.486	2158.56
522.026	1563.31
525.565	1296.44
529.102	1041.18
532.638	707.662
536.172	860.527
539.705	748.721
543.236	1161.93
546.766	1111.96
550.295	1460.74
553.822	2132.64
557.348	3001.19
560.873	3709.87
564.396	4415.4
567.917	4146.52
571.438	3420.88
574.957	2747.26
578.474	1856.82
581.99	1583.05
585.504	1381.07
589.018	993.475
592.529	1265.37
596.04	1185.61
599.549	996.621
603.056	826.918
606.562	768.912
610.067	685.818
613.57	851.518
617.072	785.889
620.572	1344.2
624.071	1543.66
627.569	1429.88
631.065	1163.19
634.56	1106.17
638.053	1009.8
641.545	901.076
645.035	1105.02
648.524	1214.8
652.012	1082.18
655.498	615.57
658.983	744.795
662.466	506.943
665.948	316.272
669.428	131.731
672.907	231.269
676.385	314.121
679.861	23.3203
683.336	79.1894
686.809	303.037
690.281	9.02539
693.752	91.9531
697.221	211.664
700.688	71.9688
704.155	56.9609
707.619	172.9
711.083	317.652
714.545	209.533
718.005	57.752
721.464	77.3887
724.922	171.471
728.378	273.996
731.833	115.996
735.286	125.469
738.738	150.42
742.189	126.682
745.638	354.318
749.085	395.371
752.531	408.871
755.976	328.873
759.419	592.898
762.861	573.816
766.302	644.391
769.741	705.508
773.178	676.469
776.614	823.672
780.049	910.561
783.482	931
786.914	1021.5
790.345	829.221
793.773	1219.79
797.201	991.092
800.627	1022.66
804.052	885.633
807.475	782.783
810.897	657.471
814.317	455.85
817.736	459.438
821.153	476.449
824.569	386.695
827.984	212.66
831.397	202.121
834.808	423.951
838.219	214.727
841.627	744.197
845.035	458.309
848.441	590.332
851.845	676.656
855.248	1037.61
858.65	907.535
862.05	893.109
865.448	813.203
868.846	841.656
872.241	773.035
875.636	656.164
879.029	356.141
882.42	441.031
885.81	304.617
889.199	252.746
892.586	189.844
895.971	45.9453
899.356	319.031
902.738	273.223
906.12	65.4805
909.5	181.879
912.878	89.082
916.255	14.918
919.63	31.2031
923.004	166.844
926.377	23.9023
929.748	115.172
933.118	79.875
936.486	90.2734
939.853	245.996
943.218	245.074
946.582	355.016
949.945	126.91
953.306	314.07
956.665	290.434
960.023	240.488
963.38	17.7891
966.735	88.7891
970.089	30.1172
973.441	165.824
976.792	315.184
980.141	307.445
983.489	352.809
986.836	419.539
990.181	570.371
993.524	735.281
996.866	1118.3
1000.21	1552.38
1003.55	1437.5
1006.88	1157.68
1010.22	1253.52
1013.55	1128.66
1016.89	1209.58
1020.22	1385.77
1023.55	1449.14
1026.88	1462.01
1030.21	1359.89
1033.53	1182.44
1036.86	1252.47
1040.18	992.285
1043.5	1253.49
1046.82	1200.65
1050.14	1036.09
1053.46	1308.52
1056.78	1084.07
1060.09	1180.19
1063.4	1335.05
1066.71	1190.96
1070.02	1264.68
1073.33	1405.04
1076.64	1775.13
1079.94	1938.47
1083.25	2092.17
1086.55	2211.29
1089.85	2352.22
1093.15	2452.96
1096.45	2118
1099.75	2418.91
1103.04	2419.74
1106.34	2371.73
1109.63	2666.25
1112.92	2531
1116.21	3005.1
1119.5	2882.19
1122.78	2924.76
1126.07	2663.7
1129.35	2416.29
1132.63	2318.04
1135.92	2153.96
1139.19	2192.1
1142.47	2120.41
1145.75	2188.89
1149.02	1997.58
1152.3	2010.52
1155.57	1790.62
1158.84	1780.9
1162.11	1760.36
1165.38	1479.45
1168.64	1584.16
1171.91	1495.19
1175.17	1512.41
1178.43	1266.8
1181.69	1101.37
1184.95	1139.19
1188.21	1222.3
1191.46	600.809
1194.72	703.609
1197.97	686.676
1201.22	527.016
1204.47	261.598
1207.72	72.4102
1210.97	145.941
1214.21	16.4102
1217.46	192.953
1220.7	141.93
1223.94	51.4609
1227.18	100.992
1230.42	72.3086
1233.65	21.5586
1236.89	212.242
1240.12	366.269
1243.35	119.641
1246.59	55.3242
1249.81	84.0117
1253.04	17.5039
1256.27	144.258
1259.49	193.25
1262.72	400.074
1265.94	143.481
1269.16	330.418
1272.38	159.227
1275.59	251.766
1278.81	386.414
1282.03	249.887
1285.24	397.969
1288.45	367.434
1291.66	12.0234
1294.87	115.719
1298.08	185.539
1301.28	54.4766
1304.48	409.516
1307.69	775.664
1310.89	689.922
1314.09	744.266
1317.29	943.723
1320.48	664.297
1323.68	323.938
1326.87	357.656
1330.06	75.4648
1333.26	418.328
1336.44	284.262
1339.63	417.262
1342.82	159.328
1346	244.883
1349.19	477.922
1352.37	332.918
1355.55	401.246
1358.73	221.316
1361.9	342.606
1365.08	49.3398
1368.26	58.7578
1371.43	408.379
1374.6	260.93
1377.77	352.285
1380.94	96.7422
1384.11	175.164
1387.27	48.0898
1390.43	175.141
1393.6	239.457
1396.76	95.6602
1399.92	21.9609
1403.08	111.535
1406.23	112.984
1409.39	110.516
1412.54	226.379
1415.69	253.781
1418.85	66.6523
1421.99	24.7969
1425.14	217.254
1428.29	649.34
1431.43	435.379
1434.58	701.406
1437.72	1115.31
1440.86	1518.21
1444	1404.32
1447.13	1663.57
1450.27	1693.91
1453.4	1764.79
1456.54	1630
1459.67	1702.07
1462.8	1543.89
1465.93	1250.57
1469.06	912.594
1472.18	815.523
1475.31	695.106
1478.43	583.875
1481.55	559.766
1484.67	507.332
1487.79	487.891
1490.9	139.949
1494.02	103.496
1497.13	224.152
1500.24	366.902
1503.35	87.2031
1506.46	95.875
1509.57	73.9453
1512.68	341.504
1515.78	271.238
1518.88	465.316
1521.99	363.715
1525.09	121.539
1528.18	565.555
1531.28	632.43
1534.38	100.633
1537.47	436.242
1540.56	211.902
1543.66	440.832
1546.74	207.371
1549.83	374.231
1552.92	262.254
1556.01	980.965
1559.09	370.164
1562.17	352.031
1565.25	5.03125
1568.33	56.1914
1571.41	0
