Measurement: Raman, 514 nm, ccw, Raman Data Processed
Mineral: Erythrite
Rruff sample: R050073
Ideal chemistry: Co^2+^_3_(As^5+^O_4_)_2_8H_2_O
Locality: Bou Azzer, Morocco
Source: Rock Currier
Description: Crimson flattened crystals
Measured chemistry: (Co_0.65_Mg_0.35_)_3_(As_1.00_O_4_)_2_Â·8H_2_O
Pin_id: M00408
Orientation: Laser parallel to a* (1 0 0). Fiducial mark perpendicular to laser is parallel to b [0 1 0]
Raman shift (cm-1)	intensity
93.48	0
98.416	264.288
103.349	392.303
108.28	2828.68
113.208	1458.9
118.134	1926.3
123.058	169.817
127.979	255.175
132.898	22.9141
137.814	501.862
142.728	314.331
147.639	1034.49
152.549	1891.9
157.455	1925.2
162.359	972.206
167.261	855.095
172.161	655.246
177.058	477.751
181.952	662.01
186.845	1258.66
191.734	2455.22
196.622	3086.93
201.507	3951.09
206.389	1393.57
211.269	1302.76
216.147	1345.4
221.022	1506.05
225.895	2364.57
230.765	4022.15
235.633	6427.03
240.498	8098.81
245.361	8037.69
250.222	4873.02
255.08	3474.62
259.936	3547.58
264.789	2413.26
269.64	1786.16
274.488	1005.17
279.334	668.125
284.178	480.835
289.019	180.478
293.857	179.361
298.693	16.582
303.527	44.6953
308.358	56.7022
313.187	88.5088
318.013	23.123
322.837	200.311
327.659	1.07617
332.478	134.806
337.294	237.898
342.108	105.071
346.92	54.1865
351.729	257.792
356.535	520.004
361.34	1024.29
366.141	1691.92
370.94	2438.06
375.737	3045.53
380.531	3951.04
385.323	4845.57
390.113	5840.02
394.9	6550.03
399.684	7166.59
404.466	6499.25
409.245	5608.11
414.022	5298.2
418.797	5464.61
423.569	6873.32
428.338	9009.19
433.105	11589.4
437.87	13533.9
442.632	12624
447.391	10263.7
452.149	8028.33
456.903	5848.92
461.655	4283.46
466.405	2889.45
471.152	1758.34
475.897	1305.5
480.639	908.163
485.378	646.299
490.116	592.426
494.85	380.988
499.582	352.313
504.312	350.402
509.039	179.149
513.764	110.853
518.486	182.211
523.206	277.321
527.923	88.1836
532.638	73.7978
537.35	228.154
542.059	184.379
546.766	211.541
551.471	231.434
556.173	207.906
560.873	304.059
565.57	372.725
570.264	223.843
574.957	234.965
579.646	126.783
584.333	12.752
589.018	76.8867
593.7	65.1103
598.379	30.3486
603.056	11.9463
607.73	74.7412
612.402	0.744141
617.072	36.124
621.739	106.167
626.403	102
631.065	63.583
635.724	220.037
640.381	251.377
645.035	404.627
649.687	412.803
654.336	244.923
658.983	352.004
663.627	238.065
668.268	256.121
672.907	67.1963
677.544	14.8018
682.178	67.0518
686.809	30.1172
691.438	111.466
696.065	45.2978
700.688	108.043
705.31	73.9277
709.929	30.2695
714.545	204.75
719.158	170.458
723.77	434.679
728.378	226.82
732.984	419.941
737.588	565.273
742.189	794.949
746.787	1152.21
751.383	1512.45
755.976	2098.89
760.567	2592.23
765.155	3572
769.741	5134.18
774.324	7911.01
778.904	12627.6
783.482	20040.9
788.058	30643.9
792.631	42932.5
797.201	49780.9
801.769	47616.9
806.334	38711.6
810.897	28949
815.457	20660.2
820.014	14798.2
824.569	11128.7
829.122	9556.03
833.671	9542.9
838.219	10551.1
842.763	13281.6
847.306	19061.8
851.845	29127.5
856.382	41774.2
860.917	50893.7
865.448	49792.3
869.978	39266.5
874.505	25817.4
879.029	17011
883.55	11868.1
888.069	9446.67
892.586	7653.38
897.1	6710.99
901.611	5754.02
906.12	4836.43
910.626	4093.24
915.129	3256.56
919.63	2786.1
924.129	2200.17
928.625	1725.36
933.118	1379.15
937.609	1276.38
942.097	1060.28
946.582	830.743
951.065	903.682
955.546	762.675
960.023	611.498
964.499	601.423
968.971	358.106
973.441	353.457
977.909	228.473
982.374	202.211
986.836	175.093
991.295	44.3047
995.753	134.826
1000.21	143.618
1004.66	195.768
1009.11	125.999
1013.55	92.4844
1018	52.8672
1022.44	228.805
1026.88	36.0772
1031.32	144.472
1035.75	19.9111
1040.18	105.088
1044.61	144.564
1049.04	345.677
1053.46	48.1465
1057.88	55.7285
1062.3	153.961
1066.71	186.055
1071.13	274.113
1075.54	191.352
1079.94	10.8467
1084.35	57.7041
1088.75	159.487
1093.15	142.18
1097.55	193.94
1101.94	243.13
1106.34	274.938
1110.73	102.731
1115.11	337.598
1119.5	869.665
1123.88	960.495
1128.26	783.939
1132.63	225.561
1137.01	202.977
1141.38	374.438
1145.75	184.751
1150.12	139.647
1154.48	175.632
1158.84	96.79
1163.2	118.724
1167.55	24.1074
1171.91	113.696
1176.26	84.2461
1180.61	66.0996
1184.95	165.484
1189.29	10.8438
1193.63	11.668
1197.97	18.5625
1202.31	127.531
1206.64	61.6289
1210.97	72.7891
1215.29	8.13965
1219.62	320.357
1223.94	179.902
1228.26	82.71
1232.57	83.8525
1236.89	170.691
1241.2	15.5117
1245.51	223.89
1249.81	54.4834
1254.12	134.362
1258.42	244.085
1262.72	1.05566
1267.01	447.03
1271.3	9.64648
1275.59	278.72
1279.88	255.349
1284.17	131.022
1288.45	231.315
1292.73	106.576
1297.01	260.208
1301.28	1.99414
1305.55	207.113
1309.82	64.8086
1314.09	143.938
1318.35	142.086
1322.61	271.583
1326.87	223.938
1331.13	212.11
1335.38	75.0996
1339.63	177.527
1343.88	104.816
1348.12	143.767
1352.37	165.603
1356.61	144.153
1360.85	255.637
1365.08	124.613
1369.31	175.925
1373.54	117.652
1377.77	57.416
1381.99	224.51
1386.22	185.799
1390.43	89.9795
1394.65	109.516
1398.87	189.669
1403.08	58.2315
1407.29	57.2461
1411.49	160.974
1415.69	115.269
1419.89	207.42
1424.09	21.6855
1428.29	265.003
1432.48	56.1768
1436.67	17.5898
1440.86	64.9863
1445.04	85.5244
1449.23	238.321
1453.4	256.181
1457.58	134.372
1461.76	191.357
1465.93	132.89
1470.1	202.241
1474.26	203.711
1478.43	125.338
1482.59	182.713
1486.75	131.405
1490.9	89.3252
1495.06	111.686
1499.21	101.08
1503.35	215.116
1507.5	186.725
1511.64	5.11523
1515.78	241.406
1519.92	75.4297
1524.05	226.559
1528.18	217.688
1532.31	155.77
1536.44	142.064
1540.56	218.448
1544.69	90.0889
