Measurement: Raman, 514 nm, ccw, Raman Data Processed
Mineral: Erythrite
Rruff sample: R050073
Ideal chemistry: Co^2+^_3_(As^5+^O_4_)_2_8H_2_O
Locality: Bou Azzer, Morocco
Source: Rock Currier
Description: Crimson flattened crystals
Measured chemistry: (Co_0.65_Mg_0.35_)_3_(As_1.00_O_4_)_2_Â·8H_2_O
Pin_id: M00361
Orientation: Laser parallel to c* (0 0 1). Fiducial mark perpendicular to laser is parallel to -a [-1 0 0]
Raman shift (cm-1)	intensity
93.48	0
98.416	156.231
103.349	1947.97
108.28	5428.78
113.208	4846.97
118.134	2853.87
123.058	478.709
127.979	28.4465
132.898	13.4382
137.814	416.539
142.728	1051.26
147.639	1284.58
152.549	1020.59
157.455	277.597
162.359	78.8948
167.261	207.759
172.161	470.281
177.058	730.249
181.952	1642.64
186.845	2680.59
191.734	3600.49
196.622	5776.36
201.507	9440.35
206.389	10662.9
211.269	8980.43
216.147	5588.87
221.022	2891.23
225.895	1719.67
230.765	1206.18
235.633	1248.34
240.498	1652.78
245.361	2264.65
250.222	2455.43
255.08	2459.08
259.936	2351.24
264.789	1746.51
269.64	1228.64
274.488	777.163
279.334	612.592
284.178	332.436
289.019	212.582
293.857	137.702
298.693	120.016
303.527	193.499
308.358	103.106
313.187	179.851
318.013	214.627
322.837	379.235
327.659	666.57
332.478	742.59
337.294	621.275
342.108	446.614
346.92	113.575
351.729	63.5962
356.535	17.7297
361.34	16.8589
366.141	22.6963
370.94	22.364
375.737	17.8955
380.531	18.0696
385.323	75.8208
390.113	55.4973
394.9	140.803
399.684	49.3931
404.466	25.7544
409.245	11.6414
414.022	17.7127
418.797	9.14331
423.569	11.7156
428.338	121.113
433.105	197.267
437.87	304.397
442.632	431.769
447.391	649.016
452.149	926.396
456.903	936.431
461.655	867.857
466.405	614.48
471.152	479.814
475.897	377.324
480.639	309.291
485.378	231.727
490.116	129.595
494.85	122.495
499.582	48.0432
504.312	79.7104
509.039	144.165
513.764	65.9253
518.486	116.802
523.206	80.0571
527.923	133.06
532.638	104.658
537.35	128.593
542.059	112.144
546.766	149.587
551.471	52.8648
556.173	125.731
560.873	66.2305
565.57	65.4902
570.264	51.2534
574.957	20.9473
579.646	114.759
584.333	118.182
589.018	12.353
593.7	84.124
598.379	131.636
603.056	14.3252
607.73	5.22021
612.402	9.15381
617.072	112.194
621.739	128.384
626.403	297.753
631.065	460.06
635.724	709.409
640.381	919.477
645.035	1055.91
649.687	1166.65
654.336	1061.54
658.983	897.805
663.627	959.198
668.268	759.901
672.907	668.552
677.544	708.559
682.178	625.116
686.809	691.285
691.438	742.09
696.065	690.665
700.688	801.611
705.31	917.289
709.929	828.019
714.545	954.252
719.158	885.123
723.77	1002.86
728.378	1027.96
732.984	1071.42
737.588	1210.1
742.189	1255.4
746.787	1541.07
751.383	1928.57
755.976	2374.43
760.567	3094.29
765.155	4396.12
769.741	6405.86
774.324	10059.6
778.904	16706.3
783.482	27180
788.058	38996.6
792.631	44582.2
797.201	39322.8
801.769	27881.2
806.334	18048.5
810.897	11034.7
815.457	7271.71
820.014	5376.58
824.569	3663.3
829.122	2868.03
833.671	2394.08
838.219	2342.03
842.763	2895
847.306	3908.14
851.845	4477.02
856.382	4258.84
860.917	3127.67
865.448	2250.21
869.978	1612.42
874.505	1263.79
879.029	1151.86
883.55	1135.13
888.069	1294.16
892.586	1382.91
897.1	1456.24
901.611	1622.17
906.12	1416.51
910.626	1480.99
915.129	1268.53
919.63	1031.97
924.129	803.528
928.625	527.192
933.118	401.815
937.609	255.025
942.097	156.538
946.582	174.413
951.065	35.4336
955.546	3.38135
960.023	17.9131
964.499	37.5786
968.971	31.6206
973.441	21.772
977.909	17.4922
982.374	42.7256
986.836	103.656
991.295	3.14307
995.753	71.0679
1000.21	41.6367
1004.66	14.2764
1009.11	13.1934
1013.55	35.8774
1018	76.6309
1022.44	5.82373
1026.88	51.7315
1031.32	60.4477
1035.75	60.4399
1040.18	2.51074
1044.61	45.915
1049.04	60.5596
1053.46	134.964
1057.88	86.2847
1062.3	131.452
1066.71	129.468
1071.13	181.808
1075.54	195.421
1079.94	199.614
1084.35	208.559
1088.75	205.171
1093.15	229.313
1097.55	162.726
1101.94	122.058
1106.34	174.992
1110.73	169.725
1115.11	317.031
1119.5	433.867
1123.88	570.369
1128.26	420.264
1132.63	241.977
1137.01	177.365
1141.38	102.695
1145.75	50.3877
1150.12	121.017
1154.48	98.7139
1158.84	49.8901
1163.2	140.428
1167.55	124.212
1171.91	150.893
1176.26	81.7329
1180.61	40.0059
1184.95	82.917
1189.29	26.7695
1193.63	94.5259
1197.97	94.4273
1202.31	139.056
1206.64	80.8164
1210.97	147.002
1215.29	81.7588
1219.62	191.371
1223.94	94.9409
1228.26	68.3579
1232.57	142.52
1236.89	113.29
1241.2	126.95
1245.51	9.72656
1249.81	36.4136
1254.12	146.283
1258.42	117.095
1262.72	104.864
1267.01	24.7129
1271.3	145.172
1275.59	59.4624
1279.88	80.7617
1284.17	96.3813
1288.45	174.616
1292.73	108.994
1297.01	206.042
1301.28	205.128
1305.55	66.7754
1309.82	10.2065
1314.09	200.02
1318.35	33.8711
1322.61	120.025
1326.87	25.5869
1331.13	202.907
1335.38	67.2988
1339.63	92.1352
1343.88	36.4609
1348.12	166.136
1352.37	171.23
1356.61	71.5137
1360.85	8.7998
1365.08	103.153
1369.31	77.1055
1373.54	78.1812
1377.77	108.577
1381.99	15.4292
1386.22	108.72
1390.43	41.5879
1394.65	68.7109
1398.87	88.9268
1403.08	49.3984
1407.29	89.5049
1411.49	239.422
1415.69	38.8774
1419.89	26.4321
1424.09	176.491
1428.29	107.022
1432.48	42.8906
1436.67	58.3555
1440.86	16.1919
1445.04	117.457
1449.23	22.5439
1453.4	113.242
1457.58	90.9712
1461.76	1.30176
1465.93	59.6929
1470.1	45.2368
1474.26	61.8096
1478.43	79.8354
1482.59	27.2974
1486.75	85.0708
1490.9	75.4155
1495.06	83.519
1499.21	2.27002
1503.35	100.368
1507.5	13.0786
1511.64	170.296
1515.78	119.981
1519.92	176.463
1524.05	113.92
1528.18	43.1675
1532.31	64.0727
1536.44	218.221
1540.56	0.430176
1544.69	26.2612
1548.8	76.6377
1552.92	118.832
1557.03	192.787
1561.14	57.5903
1565.25	0.05127
1569.36	4.22998
