Measurement: Raman, 514 nm, ccw, Raman Data Processed
Mineral: Erythrite
Rruff sample: R050073
Ideal chemistry: Co^2+^_3_(As^5+^O_4_)_2_8H_2_O
Locality: Bou Azzer, Morocco
Source: Rock Currier
Description: Crimson flattened crystals
Measured chemistry: (Co_0.65_Mg_0.35_)_3_(As_1.00_O_4_)_2_Â·8H_2_O
Pin_id: M00361
Orientation: Laser parallel to c* (0 0 1). Fiducial mark perpendicular to laser is parallel to -a [-1 0 0]
Raman shift (cm-1)	intensity
93.48	0
98.416	51.9707
103.349	1256.6
108.28	5455
113.208	4334.6
118.134	2756.98
123.058	836.247
127.979	455.242
132.898	1440.85
137.814	4153.01
142.728	8534.65
147.639	12375.8
152.549	13090.9
157.455	9368.02
162.359	5647.25
167.261	5172.74
172.161	6315.43
177.058	6194.07
181.952	5550.94
186.845	5713.47
191.734	7474.78
196.622	9847.63
201.507	12954.2
206.389	11978.4
211.269	9548.85
216.147	6584.44
221.022	4551.24
225.895	4409.5
230.765	4449.02
235.633	4100.42
240.498	3695.74
245.361	4192.48
250.222	5983.42
255.08	7749.15
259.936	8428.76
264.789	7173.92
269.64	4799.99
274.488	2835.3
279.334	1471.41
284.178	544.191
289.019	118.488
293.857	107.974
298.693	246.852
303.527	302.853
308.358	197.872
313.187	161.863
318.013	131.459
322.837	214.451
327.659	526.081
332.478	918.22
337.294	1151.45
342.108	2095.57
346.92	1318.88
351.729	2394.45
356.535	3227.62
361.34	4493.37
366.141	5454.71
370.94	6071.53
375.737	6457.28
380.531	6482.91
385.323	6094.57
390.113	5543.92
394.9	4701.24
399.684	3571.24
404.466	2520.02
409.245	1865.39
414.022	1520.62
418.797	1690.77
423.569	2338.44
428.338	3242.26
433.105	4261.94
437.87	5111.38
442.632	4925.84
447.391	4049.03
452.149	3086.47
456.903	2011.02
461.655	1380.23
466.405	968.115
471.152	607.294
475.897	420.319
480.639	228.17
485.378	209.727
490.116	114.863
494.85	57.457
499.582	102.284
504.312	17.6182
509.039	15.332
513.764	100.522
518.486	240.439
523.206	228.202
527.923	71.8809
532.638	64.3643
537.35	73.6748
542.059	74.9121
546.766	172.036
551.471	109.001
556.173	109.06
560.873	193.232
565.57	26.4297
570.264	84.7451
574.957	47.1816
579.646	38.2148
584.333	47.1103
589.018	190.406
593.7	12.3262
598.379	133.709
603.056	85.8115
607.73	106.367
612.402	87.9883
617.072	213.203
621.739	341.832
626.403	517.373
631.065	521.139
635.724	700.278
640.381	613.565
645.035	771.342
649.687	816.51
654.336	714.356
658.983	629.493
663.627	503.41
668.268	346.948
672.907	236.376
677.544	357.085
682.178	334.396
686.809	364.982
691.438	411.359
696.065	561.584
700.688	605.43
705.31	771.386
709.929	783.727
714.545	766.383
719.158	982.592
723.77	1094.82
728.378	1086.7
732.984	1306.22
737.588	1408.33
742.189	1734.26
746.787	2106.8
751.383	2697.87
755.976	3334.07
760.567	4315.35
765.155	6144.03
769.741	8948.06
774.324	13919.6
778.904	22330.5
783.482	35108.7
788.058	47769.2
792.631	51681
797.201	45872.8
801.769	33746.7
806.334	22687.8
810.897	15250
815.457	10554.3
820.014	7924.74
824.569	6082.34
829.122	4987.99
833.671	4269.65
838.219	3901.31
842.763	3892.96
847.306	4635.49
851.845	5176.57
856.382	4672.4
860.917	3292.89
865.448	2264.57
869.978	1550.98
874.505	1144.56
879.029	828.87
883.55	771.675
888.069	740.664
892.586	950.983
897.1	1039.58
901.611	996.607
906.12	981.047
910.626	921.5
915.129	927.642
919.63	657.664
924.129	447.37
928.625	406.842
933.118	273.511
937.609	281.915
942.097	125.639
946.582	126.194
951.065	260.969
955.546	0.416992
960.023	60.7891
964.499	131.341
968.971	166.005
973.441	154.84
977.909	33.7705
982.374	28.4932
986.836	12.4375
991.295	110.607
995.753	103.452
1000.21	94.2402
1004.66	181.962
1009.11	37.3291
1013.55	43.5684
1018	14.96
1022.44	18.5488
1026.88	53.5596
1031.32	121.642
1035.75	78.3281
1040.18	60.2949
1044.61	59.9541
1049.04	99.4404
1053.46	34.166
1057.88	132.859
1062.3	229.302
1066.71	210.736
1071.13	83.8066
1075.54	114.488
1079.94	125.353
1084.35	87.1689
1088.75	133.363
1093.15	284.067
1097.55	167.961
1101.94	218.569
1106.34	313.7
1110.73	336.338
1115.11	329.534
1119.5	267.243
1123.88	413.853
1128.26	275.126
1132.63	274.669
1137.01	110.998
1141.38	301.412
1145.75	226.07
1150.12	224.761
1154.48	284.075
1158.84	54.8848
1163.2	106.143
1167.55	44.6006
1171.91	98.126
1176.26	166.764
1180.61	57.4746
1184.95	244.61
1189.29	45.2393
1193.63	246.18
1197.97	240.842
1202.31	37.8662
1206.64	156.363
1210.97	80.8457
1215.29	188.329
1219.62	125.418
1223.94	35.0928
1228.26	242.148
1232.57	329.714
1236.89	131.924
1241.2	54.1103
1245.51	195.725
1249.81	1018.14
1254.12	154.291
1258.42	121.832
1262.72	337.529
1267.01	117.103
1271.3	114.363
1275.59	318.107
1279.88	157.113
1284.17	256
1288.45	176.434
1292.73	147.207
1297.01	248.432
1301.28	52.6172
1305.55	226.414
1309.82	223.627
1314.09	144.088
1318.35	81.1856
1322.61	90.8965
1326.87	89.1914
1331.13	182.715
1335.38	52.3184
1339.63	10.2129
1343.88	30.3086
1348.12	40.1113
1352.37	161.477
1356.61	160.166
1360.85	39.2832
1365.08	95.8516
1369.31	204.758
1373.54	306.5
1377.77	30.0625
1381.99	162.164
1386.22	125.566
1390.43	353.418
1394.65	458.69
1398.87	100.641
1403.08	291.051
1407.29	103.219
1411.49	149.301
1415.69	97.3672
1419.89	171.935
1424.09	175.008
1428.29	192.264
1432.48	128.85
1436.67	184.254
1440.86	114.478
1445.04	118.797
1449.23	119.631
1453.4	57.0723
1457.58	83.9727
1461.76	72.5117
1465.93	85.5898
1470.1	206.361
1474.26	94.6641
1478.43	172.969
1482.59	14.7246
1486.75	154.488
1490.9	21.1797
1495.06	175.606
1499.21	6.83008
1503.35	189.701
1507.5	211.541
1511.64	189.719
1515.78	293.731
1519.92	165.389
1524.05	277.045
1528.18	265.92
1532.31	264.348
1536.44	290.043
1540.56	320.707
1544.69	111.127
1548.8	168.492
1552.92	506.1
1557.03	112.215
1561.14	265.779
1565.25	179.775
1569.36	68.9434
