Measurement: Raman, 514 nm, ccw, Raman Data Processed
Mineral: Erythrite
Rruff sample: R050073
Ideal chemistry: Co^2+^_3_(As^5+^O_4_)_2_8H_2_O
Locality: Bou Azzer, Morocco
Source: Rock Currier
Description: Crimson flattened crystals
Measured chemistry: (Co_0.65_Mg_0.35_)_3_(As_1.00_O_4_)_2_Â·8H_2_O
Pin_id: M00190
Orientation: Laser parallel to -b* (0 -1 0). Fiducial mark perpendicular to laser is parallel to c [0 0 1]
Raman shift (cm-1)	intensity
52.671	0
57.626	110.912
62.579	8.14392
67.529	318.824
72.477	18.1668
77.423	7.17773
82.367	318.899
87.308	754.45
92.246	1043.66
97.182	765.959
102.116	991.802
107.047	3207
111.976	5362.83
116.903	3135.8
121.827	1487.48
126.749	1290.37
131.668	1705.41
136.585	2554.34
141.5	5379.14
146.412	10984.7
151.321	8333.32
156.229	3659.22
161.134	1420.45
166.036	1358.97
170.936	1852.71
175.834	2173.57
180.729	2997.45
185.622	4712.7
190.512	5838.2
195.4	6362.29
200.286	8310.87
205.169	10628.3
210.049	11226.9
214.928	10425.9
219.803	9808.07
224.677	10277.6
229.548	12000.2
234.416	12343.2
239.282	10822.1
244.146	10839.7
249.007	14673.8
253.866	19713.5
258.722	23835.2
263.576	21655.8
268.427	15977.2
273.276	10181
278.123	6329.28
282.967	3556.88
287.809	2079.77
292.648	1028.87
297.485	425.094
302.319	101.317
307.151	70.499
311.98	23.5476
316.807	37.9133
321.631	199.28
326.454	639.927
331.273	1066.92
336.09	1431.19
340.905	1886.65
345.717	2614.87
350.527	4364.28
355.334	6901
360.139	9895.48
364.941	11967
369.741	12300.5
374.538	11433.5
379.333	9214.73
384.126	6826.51
388.916	4905.87
393.703	3595.16
398.488	2498.9
403.271	2036.78
408.051	1811.33
412.828	1951.38
417.603	2444.61
422.376	3441.7
427.146	4945.38
431.914	6969.63
436.679	8581.93
441.442	8175.58
446.202	6536.76
450.96	4827.56
455.715	3278.84
460.467	2008.34
465.218	1253.51
469.965	702.24
474.711	292.369
479.454	171.982
484.194	56.9736
488.932	3.30542
493.667	59.394
498.4	85.458
503.13	73.1958
507.858	92.6841
512.583	107.972
517.306	90.1392
522.026	75.189
526.744	88.064
531.459	89.845
536.172	102.78
540.882	5.03149
545.59	44.1123
550.295	0.450195
554.998	8.10596
559.698	85.1899
564.396	13.8674
569.091	60.9795
573.784	68.6519
578.474	64.8867
583.162	92.7192
587.847	46.2148
592.529	130.326
597.209	87.2659
601.887	121.015
606.562	185.678
611.235	253.311
615.905	220.95
620.572	258.625
625.237	252.361
629.9	1056.37
634.56	240.008
639.217	302.411
643.872	237.053
648.524	238.512
653.174	232.838
657.821	217.166
662.466	295.697
667.108	259.07
671.748	301.971
676.385	354.411
681.02	405.775
685.652	498.905
690.281	592.498
694.908	756.973
699.533	920.312
704.155	1151.55
708.774	1301.53
713.391	1639.12
718.005	1806.31
722.617	2025.2
727.226	2258.07
731.833	2589.38
736.437	2944.53
741.039	3268.18
745.638	3673.03
750.234	4410.65
754.828	5363.52
759.419	6458.76
764.008	8445.6
768.595	11415.6
773.178	16692.1
777.759	25316.8
782.338	38950
786.914	52796
791.488	57316.3
796.059	50376.8
800.627	36970.5
805.193	25350.5
809.756	17824.8
814.317	12898.5
818.875	9515.53
823.431	7466.68
827.984	6022.02
832.534	5023.53
837.082	4245.15
841.627	4212.79
846.17	4748.52
850.71	5279.24
855.248	4731.99
859.783	3212.71
864.316	1920.42
868.846	964.092
873.373	556.663
877.898	232.132
882.42	73.2915
886.94	87.5681
891.457	30.4888
895.971	7.74878
900.483	115.41
904.993	15.5369
909.5	18.9561
914.004	21.5488
918.505	76.3674
923.004	62.779
927.501	130.015
931.995	236.116
936.486	363.655
940.975	367.794
945.461	444.352
949.945	543.167
954.426	583.579
958.904	597.327
963.38	588.295
967.853	559.825
972.324	521.168
976.792	523.775
981.258	511.545
985.72	376.811
990.181	288.736
994.639	316.494
999.094	268.186
1003.55	205.98
1008	167.031
1012.44	110.773
1016.89	70.9707
1021.33	89.4092
1025.77	12.3826
1030.21	3.0249
1034.64	20.7517
1039.07	31.5906
1043.5	53.1506
1047.93	24.6584
1052.35	3.86572
1056.78	21.6755
1061.19	34.4399
1065.61	15.627
1070.02	10.2505
1074.43	98.8958
1078.84	65.8013
1083.25	36.4519
1087.65	27.3577
1092.05	37.8884
1096.45	31.7742
1100.85	78.0439
1105.24	61.969
1109.63	72.7378
1114.02	65.4519
1118.4	55.5957
1122.78	94.4338
1127.16	85.2416
1131.54	75.1804
1135.92	89.5393
1140.29	88.1609
1144.66	71.5251
1149.02	69.004
1153.39	127.384
1157.75	85.1583
1162.11	140.339
1166.46	99.4476
1170.82	115.921
1175.17	128.927
1179.52	65.7891
1183.86	92.6058
1188.21	60.3143
1192.55	66.8127
1196.89	108.258
1201.22	65.8027
1205.55	102.35
1209.88	74.4788
1214.21	114.07
1218.54	129.011
1222.86	95.5063
1227.18	106.214
1231.5	60.09
1235.81	61.1976
1240.12	44.2991
1244.43	61.5675
1248.74	80.5618
1253.04	44.7421
1257.34	61.4557
1261.64	62.8895
1265.94	63.8997
1270.23	86.1686
1274.52	51.2126
1278.81	60.7422
1283.1	30.9203
1287.38	64.364
1291.66	122.596
1295.94	95.6924
1300.21	59.9097
1304.48	106.312
1308.75	66.9249
1313.02	66.2216
1317.29	63.3993
1321.55	58.1326
1325.81	64.5983
1330.06	48.309
1334.32	76.1732
1338.57	72.6119
1342.82	72.4941
1347.06	8.51343
1351.31	72.5155
1355.55	46.9401
1359.79	64.2306
1364.02	59.9133
1368.26	63.2589
1372.49	45.6873
1376.71	23.6949
1380.94	6.12878
1385.16	47.2014
1389.38	46.7445
1393.6	53.9962
1397.81	52.2781
1402.02	13.2974
1406.23	54.1156
1410.44	86.4064
1414.64	54.712
1418.85	49.7887
1423.04	51.0808
1427.24	52.4868
1431.43	29.2295
1435.62	16.8604
1439.81	3.6897
1444	98.0173
1448.18	20.5542
1452.36	67.8286
1456.54	8.85718
1460.71	21.2398
1464.89	67.991
1469.06	14.1467
1473.22	69.439
1477.39	41.4722
1481.55	32.0957
1485.71	76.5889
1489.86	60.7058
1494.02	19.071
1498.17	6.72192
1502.32	56.5381
1506.46	75.8545
1510.61	29.9165
1514.75	33.2236
1518.88	71.2693
1523.02	13.3635
1527.15	33.4712
1531.28	70.0149
1535.41	37.7627
1539.53	48.29
1543.66	81.1443
1547.78	84.6357
1551.89	160.389
1556.01	241.55
1560.12	48.2315
1564.23	24.4426
1568.33	34.4973
