Measurement: Raman, 514 nm, ccw, Raman Data Processed
Mineral: Erythrite
Rruff sample: R050073
Ideal chemistry: Co^2+^_3_(As^5+^O_4_)_2_8H_2_O
Locality: Bou Azzer, Morocco
Source: Rock Currier
Description: Crimson flattened crystals
Measured chemistry: (Co_0.65_Mg_0.35_)_3_(As_1.00_O_4_)_2_Â·8H_2_O
Pin_id: M00098
Orientation: Laser parallel to (1 0 1). Fiducial mark perpendicular to laser is parallel to b [0 1 0]
Raman shift (cm-1)	intensity
93.48	0
98.416	16.2812
103.349	748.611
108.28	3650.32
113.208	2608.49
118.134	2577.22
123.058	427.969
127.979	99.1904
132.898	411.265
137.814	2451.24
142.728	6030.3
147.639	5361.96
152.549	4985.47
157.455	1350.08
162.359	337.444
167.261	445.647
172.161	737.985
177.058	1255.17
181.952	2443.52
186.845	3387.92
191.734	4768.69
196.622	5947.96
201.507	8211.43
206.389	8172.39
211.269	8668.1
216.147	8279.89
221.022	7789.26
225.895	8583.79
230.765	9031.08
235.633	8644.13
240.498	8026.86
245.361	8905.42
250.222	12221.6
255.08	17031.1
259.936	19832.3
264.789	18196.1
269.64	13975.1
274.488	8921.99
279.334	5162.66
284.178	2809.43
289.019	1511.16
293.857	661.777
298.693	272.192
303.527	50.6113
308.358	109.593
313.187	9.70947
318.013	91.063
322.837	169.249
327.659	655.23
332.478	1193.76
337.294	1525.69
342.108	1840.06
346.92	2503.25
351.729	4137.78
356.535	6502.9
361.34	8855.8
366.141	10390.1
370.94	10816.5
375.737	9769.36
380.531	7975.72
385.323	5892.62
390.113	3985.55
394.9	2855.84
399.684	1931.38
404.466	1560.47
409.245	1391.94
414.022	1585.45
418.797	2208.61
423.569	3066.15
428.338	4614.8
433.105	6144.44
437.87	6991.56
442.632	6331.24
447.391	5008.27
452.149	3501
456.903	2152.82
461.655	1468.07
466.405	804.06
471.152	437.419
475.897	237.65
480.639	72.46
485.378	71.5205
490.116	48.8145
494.85	108.721
499.582	107.904
504.312	48.8838
509.039	14.7822
513.764	30.418
518.486	74.4634
523.206	85.8726
527.923	98.1269
532.638	29.4321
537.35	84.98
542.059	118.582
546.766	134.432
551.471	243.586
556.173	145.047
560.873	175.782
565.57	83.8096
570.264	191.128
574.957	145.773
579.646	136.718
584.333	6.90967
589.018	46.8418
593.7	63.8481
598.379	10.7344
603.056	11.8379
607.73	33.4238
612.402	126.915
617.072	95.5488
621.739	123.567
626.403	102.989
631.065	108.842
635.724	181.14
640.381	77.6318
645.035	212.07
649.687	57.4932
654.336	60.4971
658.983	20.5571
663.627	111.467
668.268	89.6055
672.907	220.227
677.544	339.103
682.178	350.185
686.809	555.685
691.438	534.692
696.065	816.282
700.688	897.264
705.31	1124.06
709.929	1342.74
714.545	1534.23
719.158	1732.62
723.77	2013.16
728.378	2192.78
732.984	2514.88
737.588	2702.84
742.189	2962.74
746.787	3458.91
751.383	3950.69
755.976	4800.6
760.567	5812.63
765.155	7717.64
769.741	10953.7
774.324	16859
778.904	26472.7
783.482	38928
788.058	48903.8
792.631	49173.4
797.201	39653.3
801.769	27582.4
806.334	18093
810.897	12470.4
815.457	9042.46
820.014	6876.2
824.569	5312.56
829.122	4378.28
833.671	3607.08
838.219	3263.23
842.763	3377
847.306	3811.36
851.845	4036.32
856.382	3645.9
860.917	2437.13
865.448	1380.16
869.978	637.283
874.505	325.457
879.029	33.583
883.55	20.4385
888.069	90.0459
892.586	17.5215
897.1	45.6523
901.611	7.33008
906.12	58.0078
910.626	121.595
915.129	1.60156
919.63	131.575
924.129	131.03
928.625	243.13
933.118	178.584
937.609	372.054
942.097	286.193
946.582	520.183
951.065	521.146
955.546	600.039
960.023	625.361
964.499	581.83
968.971	660.866
973.441	678.644
977.909	526.66
982.374	481.617
986.836	343.613
991.295	185.873
995.753	232.372
1000.21	291.57
1004.66	68.7197
1009.11	264.644
1013.55	150.352
1018	93.1885
1022.44	95.8379
1026.88	11.0566
1031.32	123.455
1035.75	50.874
1040.18	54.6328
1044.61	53.1484
1049.04	120.705
1053.46	123.642
1057.88	12.7944
1062.3	59.0894
1066.71	118.624
1071.13	56.8242
1075.54	19.2656
1079.94	68.062
1084.35	68.9326
1088.75	13.7817
1093.15	59.3945
1097.55	88.3936
1101.94	28.0366
1106.34	93.6103
1110.73	171.841
1115.11	147.365
1119.5	98.7583
1123.88	135.255
1128.26	129.725
1132.63	93.2012
1137.01	82.8076
1141.38	85.0503
1145.75	121.108
1150.12	71.4487
1154.48	185.043
1158.84	188.231
1163.2	115.007
1167.55	21.1655
1171.91	85.8999
1176.26	137.956
1180.61	54.3818
1184.95	125.839
1189.29	14.1221
1193.63	26.4302
1197.97	171.974
1202.31	37.9102
1206.64	17.1079
1210.97	203.165
1215.29	19.6753
1219.62	148.058
1223.94	122.383
1228.26	166.204
1232.57	149.715
1236.89	117.471
1241.2	166.726
1245.51	184.219
1249.81	156.555
1254.12	144.274
1258.42	80.9639
1262.72	127.838
1267.01	181.547
1271.3	17.4854
1275.59	135.843
1279.88	48.2163
1284.17	62.5772
1288.45	122.198
1292.73	158.529
1297.01	229.809
1301.28	144.741
1305.55	195.606
1309.82	163.726
1314.09	79.8535
1318.35	88.8086
1322.61	54.5508
1326.87	155.651
1331.13	42.5303
1335.38	201.359
1339.63	130.13
1343.88	117.044
1348.12	46.7803
1352.37	221.723
1356.61	142.256
1360.85	61.543
1365.08	61.5273
1369.31	181.349
1373.54	168.759
1377.77	72.7285
1381.99	164.669
1386.22	273.009
1390.43	104.924
1394.65	80.9629
1398.87	133.74
1403.08	173.221
1407.29	143.44
1411.49	29.8174
1415.69	63.8272
1419.89	89.2978
1424.09	146.562
1428.29	18.8057
1432.48	86.4522
1436.67	53.6895
1440.86	142.079
1445.04	83.3457
1449.23	55.4297
1453.4	141.111
1457.58	8.24805
1461.76	88.9863
1465.93	95.0225
1470.1	48.0781
1474.26	36.3848
1478.43	325.622
1482.59	186.133
1486.75	79.6758
1490.9	105.326
1495.06	98.2441
1499.21	39.2871
1503.35	116.436
1507.5	41.9209
1511.64	109.678
1515.78	202.145
1519.92	34.3477
1524.05	115.417
1528.18	209.638
1532.31	75.4356
1536.44	3.37109
1540.56	218.299
1544.69	14.0557
1548.8	100.999
1552.92	456.11
1557.03	45.6631
1561.14	99.4844
1565.25	95.6045
1569.36	89.3769
