Measurement: Raman, 514 nm, ccw, Raman Data Processed
Mineral: Erythrite
Rruff sample: R050073
Ideal chemistry: Co^2+^_3_(As^5+^O_4_)_2_8H_2_O
Locality: Bou Azzer, Morocco
Source: Rock Currier
Description: Crimson flattened crystals
Measured chemistry: (Co_0.65_Mg_0.35_)_3_(As_1.00_O_4_)_2_Â·8H_2_O
Pin_id: M00408
Orientation: Laser parallel to a* (1 0 0). Fiducial mark perpendicular to laser is parallel to b [0 1 0]
Raman shift (cm-1)	intensity
93.48	0
98.416	37.2861
103.349	43.3589
108.28	2766.2
113.208	1825.12
118.134	3332.74
123.058	906.202
127.979	29.4243
132.898	43.5576
137.814	490.921
142.728	1283.37
147.639	2423.33
152.549	3502.07
157.455	3351.86
162.359	690.866
167.261	267.189
172.161	409.471
177.058	550.281
181.952	833.052
186.845	1851.82
191.734	3327.72
196.622	4968.83
201.507	6704.07
206.389	6329.38
211.269	7228.78
216.147	6130.58
221.022	4520.65
225.895	4670.83
230.765	5909.06
235.633	7518.94
240.498	8687.34
245.361	9276.63
250.222	10266.7
255.08	14212
259.936	20128.8
264.789	21514
269.64	18613.6
274.488	13090.5
279.334	7855.45
284.178	4461.06
289.019	2580.46
293.857	1396.58
298.693	599.386
303.527	246.962
308.358	136.426
313.187	44.0376
318.013	51.083
322.837	36.6548
327.659	188.246
332.478	500.636
337.294	902.429
342.108	1614.16
346.92	2502.66
351.729	4309.35
356.535	7079.18
361.34	10253.1
366.141	12385.6
370.94	11607.8
375.737	9186.56
380.531	6933.97
385.323	5047.93
390.113	3720.49
394.9	2854.88
399.684	2287.83
404.466	1883.01
409.245	1419.03
414.022	1401.37
418.797	1640.96
423.569	2359.55
428.338	3480.89
433.105	5008.95
437.87	5872.35
442.632	5776.86
447.391	4788.78
452.149	3414.39
456.903	2311.78
461.655	1546.87
466.405	983.222
471.152	557.167
475.897	336.902
480.639	165.969
485.378	20.2769
490.116	84.5752
494.85	151.85
499.582	21.3477
504.312	44.9951
509.039	47.6103
513.764	75.1328
518.486	22.7646
523.206	1.39844
527.923	113.662
532.638	77.6914
537.35	81.7227
542.059	212.715
546.766	184.727
551.471	254.846
556.173	214.131
560.873	247.572
565.57	310.175
570.264	325.949
574.957	298.894
579.646	30.0039
584.333	95.0869
589.018	35.2598
593.7	45.4971
598.379	3.75879
603.056	76.0938
607.73	82.8389
612.402	27.7256
617.072	74.5478
621.739	115.455
626.403	119.735
631.065	122.279
635.724	173.181
640.381	33.6318
645.035	91.3057
649.687	50.4853
654.336	153.359
658.983	129.403
663.627	196.059
668.268	91.3154
672.907	219.253
677.544	297.803
682.178	364.94
686.809	365.615
691.438	530.088
696.065	705.743
700.688	769.676
705.31	858.961
709.929	1055.93
714.545	1506.56
719.158	1551.18
723.77	1639.43
728.378	2025.54
732.984	2121.97
737.588	2263.07
742.189	2512.11
746.787	3007.86
751.383	3317.02
755.976	3751.7
760.567	4566.75
765.155	5383.89
769.741	6981.92
774.324	9838.77
778.904	14126.2
783.482	21110.8
788.058	31476.9
792.631	42104.5
797.201	47102.1
801.769	43649.9
806.334	35444.6
810.897	27115.8
815.457	19437.4
820.014	13158.3
824.569	9250.47
829.122	6709.92
833.671	4828.63
838.219	3787.71
842.763	2829.08
847.306	2515.78
851.845	2113.23
856.382	2309.99
860.917	2406.64
865.448	2181.02
869.978	1301.23
874.505	677.097
879.029	412.412
883.55	95.3164
888.069	89.0977
892.586	6.14648
897.1	10.0713
901.611	5.30371
906.12	93.0478
910.626	24.292
915.129	103.861
919.63	80.4873
924.129	99.5117
928.625	70.7666
933.118	79.4131
937.609	281.446
942.097	413.333
946.582	468.921
951.065	402.116
955.546	513.981
960.023	649.145
964.499	658.73
968.971	603.46
973.441	628.9
977.909	439.087
982.374	534.649
986.836	480.271
991.295	425.533
995.753	324.201
1000.21	357.222
1004.66	471.775
1009.11	114.182
1013.55	101.099
1018	290.819
1022.44	59.0557
1026.88	70.7061
1031.32	129.451
1035.75	325.21
1040.18	119.943
1044.61	26.5234
1049.04	201.871
1053.46	142.664
1057.88	151.519
1062.3	125.972
1066.71	253.552
1071.13	102.351
1075.54	73.5068
1079.94	152.817
1084.35	148.009
1088.75	74.584
1093.15	22.8418
1097.55	51
1101.94	72.5059
1106.34	56.6065
1110.73	331.188
1115.11	92.2256
1119.5	295.752
1123.88	129.164
1128.26	226.731
1132.63	139.963
1137.01	172.831
1141.38	217.086
1145.75	100.083
1150.12	187.514
1154.48	150.626
1158.84	97.9199
1163.2	217.489
1167.55	273.354
1171.91	104.67
1176.26	255.916
1180.61	236.879
1184.95	116.745
1189.29	224.272
1193.63	106.816
1197.97	153.505
1202.31	42.7315
1206.64	185.434
1210.97	160.836
1215.29	5.47949
1219.62	52.5713
1223.94	132.461
1228.26	121.561
1232.57	108.832
1236.89	50.5195
1241.2	604.133
1245.51	371.879
1249.81	167.633
1254.12	158.481
1258.42	349.072
1262.72	209.094
1267.01	170.065
1271.3	363.535
1275.59	298.568
1279.88	431.381
1284.17	349.418
1288.45	289.631
1292.73	355.523
1297.01	477.959
1301.28	303.848
1305.55	282.965
1309.82	265.084
1314.09	398.285
1318.35	346.621
1322.61	300.254
1326.87	348.787
1331.13	274.045
1335.38	130.565
1339.63	69.1348
1343.88	214.565
1348.12	306.143
1352.37	43.2305
1356.61	181.228
1360.85	238.863
1365.08	266.062
1369.31	106.139
1373.54	70.8731
1377.77	23.1504
1381.99	84.1875
1386.22	195.103
1390.43	23.8086
1394.65	75.0996
1398.87	7.24023
1403.08	107.32
1407.29	27.1973
1411.49	252.482
1415.69	145
1419.89	156.281
1424.09	27.4336
1428.29	149.697
1432.48	123.406
1436.67	158.148
1440.86	247.551
1445.04	210.34
1449.23	109.748
1453.4	169.316
1457.58	327.861
1461.76	406.219
1465.93	154.549
1470.1	127.658
1474.26	177.578
1478.43	157.887
1482.59	226.258
1486.75	159.225
1490.9	173.568
1495.06	39.4551
1499.21	273.131
1503.35	298.074
1507.5	134.516
1511.64	96.1465
1515.78	176.24
1519.92	47.0586
1524.05	156.736
1528.18	210.332
1532.31	201.018
1536.44	58.7715
1540.56	26.0176
1544.69	253.4
1548.8	272.82
1552.92	471.574
1557.03	314.537
1561.14	134.451
1565.25	103.621
1569.36	201.615
