Measurement: Raman, 514 nm, ccw, Raman Data Processed
Mineral: Erythrite
Rruff sample: R050073
Ideal chemistry: Co^2+^_3_(As^5+^O_4_)_2_8H_2_O
Locality: Bou Azzer, Morocco
Source: Rock Currier
Description: Crimson flattened crystals
Measured chemistry: (Co_0.65_Mg_0.35_)_3_(As_1.00_O_4_)_2_Â·8H_2_O
Pin_id: M00098
Orientation: Laser parallel to (1 0 1). Fiducial mark perpendicular to laser is parallel to b [0 1 0]
Raman shift (cm-1)	intensity
93.48	0
98.416	32.0386
103.349	386.732
108.28	2318.91
113.208	1957.76
118.134	2637.45
123.058	456.516
127.979	252.895
132.898	1055.63
137.814	2953.24
142.728	6198.25
147.639	9422.26
152.549	11799.1
157.455	8473.9
162.359	5913.73
167.261	3681.86
172.161	3574.65
177.058	3428.74
181.952	3044.85
186.845	2244.26
191.734	2711.21
196.622	3935.09
201.507	5924.62
206.389	6063.6
211.269	6099.61
216.147	4542.37
221.022	2795.73
225.895	2175.49
230.765	2105.51
235.633	1931.86
240.498	1488.43
245.361	1333.37
250.222	1760.66
255.08	2643.61
259.936	3074.74
264.789	2838.12
269.64	2242.71
274.488	1268.07
279.334	486.074
284.178	162.261
289.019	109.191
293.857	64.4824
298.693	89.2852
303.527	25.5024
308.358	46.0132
313.187	121.133
318.013	233.663
322.837	89.9853
327.659	201.121
332.478	445.979
337.294	557.575
342.108	1131.63
346.92	399.329
351.729	464.841
356.535	845.703
361.34	1222.86
366.141	1546.56
370.94	1729.43
375.737	1951.7
380.531	1817.85
385.323	1828.38
390.113	1916.29
394.9	1719.58
399.684	1403.79
404.466	1268.95
409.245	1202.09
414.022	1387.58
418.797	1806.57
423.569	2694.48
428.338	4560.09
433.105	5719.62
437.87	6963.26
442.632	7307.47
447.391	6839.46
452.149	6125.8
456.903	5251.54
461.655	4010.47
466.405	2704.84
471.152	1692.5
475.897	1186.24
480.639	735.411
485.378	527.01
490.116	284.046
494.85	214.531
499.582	205.494
504.312	101.938
509.039	86.8101
513.764	133.072
518.486	130.735
523.206	48.8657
527.923	145.379
532.638	14.3149
537.35	101.628
542.059	143.421
546.766	102.737
551.471	42.5566
556.173	138.818
560.873	206.583
565.57	467.853
570.264	85.7173
574.957	44.8057
579.646	32.9199
584.333	137.876
589.018	103.353
593.7	135.282
598.379	16.4521
603.056	39.8223
607.73	6.92725
612.402	124.929
617.072	106.688
621.739	368.294
626.403	266.771
631.065	332.696
635.724	400.429
640.381	579.516
645.035	585.135
649.687	599.522
654.336	535.63
658.983	501.342
663.627	399.06
668.268	322.878
672.907	402.773
677.544	328.17
682.178	318.053
686.809	291.351
691.438	386.627
696.065	398.209
700.688	513.211
705.31	482.139
709.929	674.224
714.545	706.512
719.158	733.239
723.77	766.714
728.378	948.926
732.984	928.738
737.588	1219.41
742.189	1408.7
746.787	1749.3
751.383	2262.12
755.976	2747.55
760.567	3689.55
765.155	5249.23
769.741	7577.62
774.324	11732.8
778.904	18955.7
783.482	30664.5
788.058	44820.6
792.631	53136.6
797.201	50175.2
801.769	38588.6
806.334	25661.7
810.897	16751.4
815.457	10988.7
820.014	7865.76
824.569	6275.76
829.122	4961.64
833.671	4446.64
838.219	3693.56
842.763	3466.78
847.306	3615.62
851.845	3896.03
856.382	3697.55
860.917	2884.24
865.448	1907.25
869.978	1355.1
874.505	1022.08
879.029	816.571
883.55	649.259
888.069	756.903
892.586	762.522
897.1	830.18
901.611	729.576
906.12	739.942
910.626	639.956
915.129	554.562
919.63	433.373
924.129	474.024
928.625	279.36
933.118	115.865
937.609	132.689
942.097	132.456
946.582	43.2573
951.065	135.305
955.546	68.2847
960.023	28.5107
964.499	81.4673
968.971	35.5566
973.441	46.2251
977.909	61.0234
982.374	25.5894
986.836	108.916
991.295	86.8374
995.753	51.2075
1000.21	9.05664
1004.66	48.106
1009.11	0.479004
1013.55	29.8481
1018	26.3433
1022.44	207.766
1026.88	78.2329
1031.32	30.0855
1035.75	27.8892
1040.18	84.5718
1044.61	60.5078
1049.04	90.9863
1053.46	53.5063
1057.88	136.524
1062.3	168.227
1066.71	94.0488
1071.13	113.63
1075.54	143.003
1079.94	263.028
1084.35	235.541
1088.75	190.812
1093.15	245.992
1097.55	248.161
1101.94	240.789
1106.34	193.672
1110.73	241.617
1115.11	210.967
1119.5	197.268
1123.88	328.034
1128.26	250.165
1132.63	284.43
1137.01	76.2847
1141.38	80.7217
1145.75	149.981
1150.12	205.798
1154.48	196.527
1158.84	218.631
1163.2	49.1455
1167.55	88.8164
1171.91	109.773
1176.26	184.083
1180.61	11.9619
1184.95	31.1611
1189.29	48.1787
1193.63	171.489
1197.97	116.559
1202.31	130.586
1206.64	49.0098
1210.97	182.817
1215.29	93.9775
1219.62	171.901
1223.94	106.629
1228.26	108.368
1232.57	210.802
1236.89	200.429
1241.2	165.777
1245.51	11.4126
1249.81	59.1611
1254.12	88.6851
1258.42	65.79
1262.72	160.145
1267.01	63.9551
1271.3	63.8242
1275.59	46.4741
1279.88	127.523
1284.17	61.4243
1288.45	32.1357
1292.73	86.8267
1297.01	245.81
1301.28	62.6709
1305.55	47.665
1309.82	102.793
1314.09	63.4302
1318.35	109.252
1322.61	157.472
1326.87	162.263
1331.13	214.962
1335.38	61.3901
1339.63	16.8213
1343.88	65.7334
1348.12	203.214
1352.37	99.1587
1356.61	147.132
1360.85	128.93
1365.08	99.2602
1369.31	124.566
1373.54	146.156
1377.77	121.114
1381.99	97.7168
1386.22	174.964
1390.43	80.1455
1394.65	276.063
1398.87	121.942
1403.08	117.016
1407.29	75.1797
1411.49	46.7256
1415.69	106.825
1419.89	149.778
1424.09	74.8662
1428.29	28.4639
1432.48	25.5977
1436.67	64.6689
1440.86	17.3545
1445.04	138.697
1449.23	3.45117
1453.4	112.848
1457.58	122.184
1461.76	133.72
1465.93	138.869
1470.1	44.8975
1474.26	128.355
1478.43	120.064
1482.59	49.8809
1486.75	119.568
1490.9	132.291
1495.06	232.095
1499.21	140.43
1503.35	158.398
1507.5	75.8193
1511.64	131.111
1515.78	233.855
1519.92	219.022
1524.05	259.514
1528.18	158.81
1532.31	140.783
1536.44	261.296
1540.56	243.829
1544.69	131.741
1548.8	218.681
1552.92	451.574
1557.03	118.92
1561.14	101.585
1565.25	26.1299
1569.36	20.2461
