Measurement: Raman, 514 nm, ccw, Raman Data Processed
Mineral: Erythrite
Rruff sample: R050073
Ideal chemistry: Co^2+^_3_(As^5+^O_4_)_2_8H_2_O
Locality: Bou Azzer, Morocco
Source: Rock Currier
Description: Crimson flattened crystals
Measured chemistry: (Co_0.65_Mg_0.35_)_3_(As_1.00_O_4_)_2_Â·8H_2_O
Pin_id: M00408
Orientation: Laser parallel to a* (1 0 0). Fiducial mark perpendicular to laser is parallel to b [0 1 0]
Raman shift (cm-1)	intensity
93.48	0
98.416	271.37
103.349	147.996
108.28	3221.04
113.208	1583.37
118.134	3362.78
123.058	720.938
127.979	372.616
132.898	1002.94
137.814	1758.93
142.728	1682.14
147.639	2530.26
152.549	4384.77
157.455	4553.19
162.359	3467.94
167.261	2763.35
172.161	2141.05
177.058	2426.13
181.952	2787.97
186.845	3910.93
191.734	5802.13
196.622	6819.58
201.507	7523.23
206.389	4460.03
211.269	3874.04
216.147	3290.98
221.022	2597.7
225.895	2479.61
230.765	3461.07
235.633	5091.83
240.498	6650.78
245.361	7246.31
250.222	7181.58
255.08	9237.39
259.936	11295.2
264.789	10942.4
269.64	8575.1
274.488	5744.04
279.334	3300.9
284.178	1687.43
289.019	957.564
293.857	527.835
298.693	378.499
303.527	193.415
308.358	120.459
313.187	323.562
318.013	278.499
322.837	131.782
327.659	126.449
332.478	243.697
337.294	79.7402
342.108	381.68
346.92	792.652
351.729	1743.37
356.535	2965.93
361.34	4368.62
366.141	5249.29
370.94	5217.31
375.737	4664.77
380.531	4118.8
385.323	3907.91
390.113	4022.32
394.9	4012.97
399.684	3981.32
404.466	3641.57
409.245	3113.05
414.022	3233.44
418.797	3748.05
423.569	4881.35
428.338	6828.5
433.105	9801.48
437.87	12458.6
442.632	13377.5
447.391	11950.9
452.149	8979.77
456.903	6055.53
461.655	3923.29
466.405	2458.04
471.152	1456.55
475.897	707.968
480.639	599.168
485.378	356.146
490.116	212.801
494.85	157.901
499.582	105.475
504.312	19.7139
509.039	169.291
513.764	62.5352
518.486	29.0146
523.206	14.4014
527.923	33.4922
532.638	56.8223
537.35	69.6172
542.059	141.207
546.766	91.7959
551.471	341.727
556.173	293.798
560.873	257.252
565.57	376.562
570.264	549.995
574.957	355.549
579.646	83.2178
584.333	50.1621
589.018	84.125
593.7	19.1396
598.379	198.924
603.056	232.816
607.73	341.882
612.402	106.28
617.072	165.18
621.739	284.656
626.403	150.426
631.065	69.3965
635.724	152.26
640.381	159.851
645.035	212.231
649.687	14.1475
654.336	0.228516
658.983	21.2686
663.627	114.973
668.268	33.9453
672.907	26.3828
677.544	133.698
682.178	3.49121
686.809	32.4844
691.438	88.7842
696.065	16.292
700.688	134.085
705.31	126.519
709.929	249.807
714.545	397.976
719.158	434.865
723.77	542.401
728.378	588.527
732.984	757.752
737.588	1082.63
742.189	1162.39
746.787	1307.73
751.383	1668.84
755.976	2135.3
760.567	2842.1
765.155	3535.36
769.741	5251.03
774.324	7244.21
778.904	11266
783.482	17570.7
788.058	26648.8
792.631	37446.2
797.201	43229
801.769	41602.2
806.334	34626.9
810.897	27059.1
815.457	20905.7
820.014	15922.4
824.569	12937.1
829.122	10411.5
833.671	8894.8
838.219	7951.92
842.763	7952.73
847.306	9662.27
851.845	13057.6
856.382	18590.6
860.917	22216.7
865.448	21596.6
869.978	16673.6
874.505	10617.7
879.029	6649.72
883.55	4758.59
888.069	3651.78
892.586	2985.69
897.1	2683.13
901.611	2085.02
906.12	1955.39
910.626	1451.15
915.129	1343.26
919.63	907.238
924.129	789.617
928.625	621.828
933.118	572.908
937.609	488.815
942.097	388.49
946.582	304.8
951.065	326.986
955.546	449.854
960.023	354.634
964.499	371.562
968.971	204.44
973.441	337.747
977.909	94.0303
982.374	312.726
986.836	101.409
991.295	211.512
995.753	95.5723
1000.21	156.017
1004.66	175.287
1009.11	55.7656
1013.55	15.918
1018	14.4805
1022.44	102.036
1026.88	13.2344
1031.32	84.3037
1035.75	98.7412
1040.18	86.8877
1044.61	30.6309
1049.04	139.792
1053.46	158.175
1057.88	66.1514
1062.3	65.8916
1066.71	169.827
1071.13	320.041
1075.54	122.125
1079.94	187.802
1084.35	180.734
1088.75	304.338
1093.15	109.033
1097.55	425.43
1101.94	163.366
1106.34	141.862
1110.73	340.404
1115.11	352.131
1119.5	135.612
1123.88	185.786
1128.26	148.78
1132.63	317.007
1137.01	127.798
1141.38	237.832
1145.75	172.209
1150.12	171.439
1154.48	28.1064
1158.84	93.292
1163.2	197.127
1167.55	55.6152
1171.91	89.6475
1176.26	63.7471
1180.61	124.963
1184.95	2.58398
1189.29	74.6406
1193.63	151.723
1197.97	23.9971
1202.31	77.1279
1206.64	378.523
1210.97	496.202
1215.29	188.072
1219.62	122.274
1223.94	88.4834
1228.26	18.998
1232.57	290.211
1236.89	200.865
1241.2	218.747
1245.51	248.133
1249.81	125.441
1254.12	238.259
1258.42	287.234
1262.72	295.557
1267.01	388.867
1271.3	254.387
1275.59	161.204
1279.88	521.823
1284.17	310.81
1288.45	242.466
1292.73	209.53
1297.01	193.04
1301.28	313.371
1305.55	267.164
1309.82	154.501
1314.09	494.135
1318.35	226.222
1322.61	182.831
1326.87	260.61
1331.13	284.098
1335.38	278.498
1339.63	168.005
1343.88	241.103
1348.12	150.284
1352.37	228.526
1356.61	69.9863
1360.85	164.492
1365.08	283.529
1369.31	173.752
1373.54	94.6768
1377.77	134.247
1381.99	242.881
1386.22	126.758
1390.43	77.3428
1394.65	118.164
1398.87	66.5088
1403.08	175.59
1407.29	102.638
1411.49	189.064
1415.69	207.256
1419.89	5.20996
1424.09	131.812
1428.29	41.5801
1432.48	229.844
1436.67	193.281
1440.86	294.19
1445.04	310.213
1449.23	223
1453.4	189.623
1457.58	104.705
1461.76	261.94
1465.93	308.615
1470.1	275.147
1474.26	78.7676
1478.43	103.574
1482.59	132.658
1486.75	22.418
1490.9	320.461
1495.06	27.7695
1499.21	60.0898
1503.35	48.6328
1507.5	247.295
1511.64	163.609
1515.78	350.066
1519.92	180.545
1524.05	174.918
1528.18	334.492
1532.31	289.715
1536.44	126.603
1540.56	93.1055
1544.69	186.789
1548.8	490.293
1552.92	196.471
1557.03	165.668
1561.14	83.2344
1565.25	17.1484
1569.36	102.721
