Measurement: Raman, 514 nm, ccw, Raman Data Processed
Mineral: Erythrite
Rruff sample: R050073
Ideal chemistry: Co^2+^_3_(As^5+^O_4_)_2_8H_2_O
Locality: Bou Azzer, Morocco
Source: Rock Currier
Description: Crimson flattened crystals
Measured chemistry: (Co_0.65_Mg_0.35_)_3_(As_1.00_O_4_)_2_Â·8H_2_O
Pin_id: M00190
Orientation: Laser parallel to -b* (0 -1 0). Fiducial mark perpendicular to laser is parallel to c [0 0 1]
Raman shift (cm-1)	intensity
52.671	0
57.626	102.562
62.579	10.4508
67.529	1255.72
72.477	209.475
77.423	208.971
82.367	755.864
87.308	958.695
92.246	1884.75
97.182	1796.28
102.116	2482.26
107.047	5863.15
111.976	9250.97
116.903	5753.17
121.827	3145.37
126.749	2743.72
131.668	3415.03
136.585	5235.93
141.5	8947.11
146.412	14319.2
151.321	17576.4
156.229	16281.9
161.134	9253.61
166.036	6888.55
170.936	8395.64
175.834	9025.31
180.729	7021.15
185.622	6649.23
190.512	7736.18
195.4	9784.13
200.286	12842.3
205.169	14737.9
210.049	13092.3
214.928	9180.91
219.803	6144.89
224.677	5203.47
229.548	5285.08
234.416	4771.19
239.282	4068.34
244.146	4480.23
249.007	5731.65
253.866	6827.41
258.722	8054.41
263.576	7122.51
268.427	5207.51
273.276	3177.37
278.123	1902.99
282.967	947.281
287.809	256.356
292.648	89.1069
297.485	123.698
302.319	169.161
307.151	144.552
311.98	120.122
316.807	57.7578
321.631	91.9482
326.454	437.151
331.273	828.507
336.09	845.382
340.905	865.88
345.717	996.981
350.527	1356.78
355.334	2214.82
360.139	3189.08
364.941	4065.8
369.741	4858.1
374.538	5307.78
379.333	5566.63
384.126	5561.12
388.916	5281.17
393.703	4500.52
398.488	3480.07
403.271	2406.59
408.051	1688.21
412.828	1445.92
417.603	1421.05
422.376	1842.01
427.146	2751.91
431.914	4025.33
436.679	5267.48
441.442	5998.62
446.202	5340.53
450.96	4189.4
455.715	3121.32
460.467	2302.89
465.218	1541.62
469.965	905.151
474.711	658.025
479.454	400.231
484.194	205.748
488.932	118.558
493.667	40.616
498.4	35.5132
503.13	43.8684
507.858	31.1314
512.583	15.2039
517.306	22.9087
522.026	10.124
526.744	19.9705
531.459	22.4348
536.172	9.44727
540.882	32.7165
545.59	42.4653
550.295	64.2642
554.998	16.4773
559.698	14.8738
564.396	4.17822
569.091	57.1931
573.784	38.3023
578.474	28.8955
583.162	65.741
587.847	36.834
592.529	32.8281
597.209	25.5681
601.887	111.472
606.562	123.86
611.235	336.686
615.905	376.982
620.572	501.786
625.237	603.135
629.9	820.068
634.56	861.898
639.217	960.158
643.872	1072.33
648.524	1097.37
653.174	1092.07
657.821	901.596
662.466	764.368
667.108	669.072
671.748	597.208
676.385	514.504
681.02	466.261
685.652	508.245
690.281	527.467
694.908	500.803
699.533	662.813
704.155	662.387
708.774	891.423
713.391	915.233
718.005	1031.04
722.617	1141.82
727.226	1280.1
731.833	1323.33
736.437	1554
741.039	1878.35
745.638	2210.84
750.234	2781.48
754.828	3382.32
759.419	4457.43
764.008	6085.79
768.595	8543.52
773.178	12944.5
777.759	20079.1
782.338	32337.2
786.914	48130.9
791.488	59491.2
796.059	58896
800.627	47001.3
805.193	32638
809.756	21803.2
814.317	14942.7
818.875	10661.7
823.431	8330.25
827.984	6864.23
832.534	5865.75
837.082	4968.68
841.627	4705.3
846.17	5021.97
850.71	5762.49
855.248	5640.49
859.783	4481.06
864.316	3167.01
868.846	2228.51
873.373	1690.96
877.898	1315.67
882.42	1271.19
886.94	1137.42
891.457	1247.75
895.971	1282.26
900.483	1236.47
904.993	1129.81
909.5	1160.72
914.004	1032.34
918.505	896.188
923.004	602.76
927.501	411.175
931.995	343.638
936.486	237.817
940.975	282.637
945.461	129.595
949.945	148.902
954.426	59.7673
958.904	69.0325
963.38	61.9665
967.853	2.2146
972.324	52.2151
976.792	0.76001
981.258	5.30347
985.72	51.6321
990.181	23.8411
994.639	58.3796
999.094	64.4114
1003.55	96.792
1008	68.3608
1012.44	5.00464
1016.89	40.8999
1021.33	45.4241
1025.77	26.9653
1030.21	81.6682
1034.64	50.6428
1039.07	35.9619
1043.5	8.48389
1047.93	38.0195
1052.35	67.0349
1056.78	76.9275
1061.19	114.971
1065.61	181.527
1070.02	171.062
1074.43	155.387
1078.84	115.797
1083.25	185.694
1087.65	239.856
1092.05	232.403
1096.45	212.26
1100.85	237.143
1105.24	241.517
1109.63	215.92
1114.02	266.27
1118.4	386.151
1122.78	389.601
1127.16	361.099
1131.54	245.492
1135.92	251.552
1140.29	188.435
1144.66	287.785
1149.02	215.62
1153.39	184.992
1157.75	157.247
1162.11	104.06
1166.46	165.25
1170.82	127.509
1175.17	120.046
1179.52	122.162
1183.86	159.002
1188.21	151.768
1192.55	219.254
1196.89	96.4938
1201.22	128.494
1205.55	156.208
1209.88	139.09
1214.21	165.627
1218.54	183.478
1222.86	99.1575
1227.18	156.74
1231.5	151.567
1235.81	127.576
1240.12	173.869
1244.43	117.095
1248.74	138.705
1253.04	92.1252
1257.34	135.536
1261.64	100.809
1265.94	41.802
1270.23	97.3325
1274.52	114.544
1278.81	77.8077
1283.1	112.008
1287.38	89.5032
1291.66	78.6155
1295.94	69.8533
1300.21	45.7632
1304.48	44.0105
1308.75	8.83472
1313.02	79.167
1317.29	52.7454
1321.55	74.0474
1325.81	54.302
1330.06	83.5422
1334.32	62.1697
1338.57	59.9631
1342.82	45.981
1347.06	109.981
1351.31	62.6709
1355.55	96.1873
1359.79	101.852
1364.02	84.9597
1368.26	58.7332
1372.49	59.5957
1376.71	83.1545
1380.94	81.3462
1385.16	48.9485
1389.38	116.767
1393.6	63.3503
1397.81	81.853
1402.02	61.9675
1406.23	26.2334
1410.44	26.3684
1414.64	49.956
1418.85	70.9451
1423.04	9.29492
1427.24	139.024
1431.43	51.5444
1435.62	38.5942
1439.81	21.8852
1444	5.35156
1448.18	4.51074
1452.36	1.59009
1456.54	54.5647
1460.71	8.36768
1464.89	77.4192
1469.06	105.751
1473.22	51.8833
1477.39	22.3855
1481.55	28.1238
1485.71	88.2754
1489.86	69.3452
1494.02	36.9565
1498.17	51.7322
1502.32	21.1335
1506.46	89.1011
1510.61	61.9656
1514.75	73.7847
1518.88	20.4246
1523.02	91.8899
1527.15	60.887
1531.28	87.5569
1535.41	20.5239
1539.53	116.607
1543.66	100.161
1547.78	43.1582
1551.89	181.672
1556.01	201.559
1560.12	6.60571
1564.23	19.2571
1568.33	38.5173
