Measurement: Raman, 514 nm, ccw, Raman Data Processed
Mineral: Erythrite
Rruff sample: R050073
Ideal chemistry: Co^2+^_3_(As^5+^O_4_)_2_8H_2_O
Locality: Bou Azzer, Morocco
Source: Rock Currier
Description: Crimson flattened crystals
Measured chemistry: (Co_0.65_Mg_0.35_)_3_(As_1.00_O_4_)_2_Â·8H_2_O
Pin_id: M00190
Orientation: Laser parallel to -b* (0 -1 0). Fiducial mark perpendicular to laser is parallel to c [0 0 1]
Raman shift (cm-1)	intensity
52.671	0
57.626	135.918
62.579	11.27
67.529	1389.06
72.477	269.71
77.423	186.65
82.367	741.392
87.308	882.297
92.246	1551.22
97.182	1665.83
102.116	2264.6
107.047	5389.12
111.976	9580.4
116.903	6653.62
121.827	3169.46
126.749	2464.69
131.668	3201.97
136.585	4637.49
141.5	7809.79
146.412	12844.5
151.321	17088.9
156.229	16434.1
161.134	9688.06
166.036	6827.82
170.936	8243.3
175.834	9201.09
180.729	7349.86
185.622	6977.74
190.512	8461.57
195.4	10355.3
200.286	13292.6
205.169	15444.6
210.049	14505.4
214.928	9787.7
219.803	6393.12
224.677	5381.67
229.548	5468.63
234.416	5378.61
239.282	4875.11
244.146	4793.78
249.007	6458.36
253.866	7973.65
258.722	9737.5
263.576	8767.88
268.427	6487.6
273.276	4044.53
278.123	2146.64
282.967	1168.94
287.809	492.445
292.648	153.878
297.485	98.782
302.319	149.898
307.151	102.442
311.98	86.469
316.807	30.179
321.631	87.0886
326.454	326.974
331.273	576.429
336.09	838.615
340.905	793.633
345.717	1031.38
350.527	1497.11
355.334	2570.32
360.139	3892.14
364.941	4937.47
369.741	5518.01
374.538	6019.34
379.333	6013.97
384.126	6029.58
388.916	5828.81
393.703	5277.94
398.488	3994.14
403.271	2775.26
408.051	1911.09
412.828	1550.26
417.603	1433.62
422.376	1921.17
427.146	2729.15
431.914	3918.95
436.679	5263.17
441.442	5976.98
446.202	5329.65
450.96	4133.11
455.715	3184.57
460.467	2238
465.218	1538.39
469.965	954.095
474.711	539.055
479.454	380.25
484.194	203.651
488.932	125.232
493.667	29.803
498.4	50
503.13	85.5713
507.858	7.17432
512.583	43.533
517.306	58.675
522.026	45.2576
526.744	7.58081
531.459	80.2529
536.172	54.3926
540.882	31
545.59	0.10791
550.295	19.9077
554.998	64.8835
559.698	121.591
564.396	59.2978
569.091	116.069
573.784	9.08008
578.474	121.384
583.162	3.64746
587.847	34.1008
592.529	11.478
597.209	95.3562
601.887	125.524
606.562	230.978
611.235	349.706
615.905	451.746
620.572	508.138
625.237	626.926
629.9	786.151
634.56	906.823
639.217	1044.53
643.872	1127.13
648.524	1196.07
653.174	1122.89
657.821	964.651
662.466	866.452
667.108	704.141
671.748	655.265
676.385	499.204
681.02	513.836
685.652	447.29
690.281	515.927
694.908	609.152
699.533	589.331
704.155	743.717
708.774	751.528
713.391	863.051
718.005	933.884
722.617	1033.6
727.226	1276.41
731.833	1237.92
736.437	1487.96
741.039	1781.49
745.638	2097.24
750.234	2635.21
754.828	3267.53
759.419	4269.28
764.008	5773.48
768.595	8170.11
773.178	12084.1
777.759	18485.8
782.338	29822.3
786.914	45222.6
791.488	57861.6
796.059	59662.4
800.627	49195.8
805.193	34760.9
809.756	23633.5
814.317	16100.7
818.875	11562.5
823.431	9022.89
827.984	7397.05
832.534	6256.91
837.082	5371.37
841.627	5040.23
846.17	5056.51
850.71	6009.93
855.248	6081.07
859.783	5193.78
864.316	3753.82
868.846	2526.85
873.373	1788.53
877.898	1405.67
882.42	1243.67
886.94	1177
891.457	1286.89
895.971	1271.73
900.483	1375.02
904.993	1284.63
909.5	1191.85
914.004	1072.01
918.505	862.837
923.004	685.825
927.501	529.33
931.995	376.667
936.486	253.863
940.975	224.756
945.461	264.736
949.945	233.387
954.426	92.738
958.904	114.943
963.38	94.8076
967.853	88.5586
972.324	72.5493
976.792	13.811
981.258	10.686
985.72	18.3672
990.181	50.0681
994.639	17.05
999.094	19.8362
1003.55	71.8147
1008	55.0933
1012.44	54.0908
1016.89	46.0642
1021.33	30.5832
1025.77	110.527
1030.21	3.36743
1034.64	12.8206
1039.07	13.6487
1043.5	21.21
1047.93	9.54443
1052.35	61.0847
1056.78	49.4941
1061.19	112.452
1065.61	115.443
1070.02	127.224
1074.43	122.576
1078.84	195.167
1083.25	209.857
1087.65	177.843
1092.05	161.077
1096.45	199.742
1100.85	176.272
1105.24	188.866
1109.63	176.533
1114.02	269.535
1118.4	311.096
1122.78	298.99
1127.16	262.084
1131.54	244.112
1135.92	255.77
1140.29	291.217
1144.66	254.49
1149.02	207.478
1153.39	239.536
1157.75	222.327
1162.11	127.474
1166.46	189.566
1170.82	169.735
1175.17	144.494
1179.52	146.718
1183.86	122.85
1188.21	201.834
1192.55	140.347
1196.89	108.129
1201.22	228.773
1205.55	133.73
1209.88	174.886
1214.21	197.835
1218.54	149.701
1222.86	172.486
1227.18	149.466
1231.5	177.204
1235.81	182.905
1240.12	168.829
1244.43	118.752
1248.74	181.356
1253.04	111.885
1257.34	111.241
1261.64	123.847
1265.94	110.615
1270.23	110.54
1274.52	54.0054
1278.81	57.855
1283.1	52.5779
1287.38	89.6255
1291.66	121.587
1295.94	91.541
1300.21	26.3613
1304.48	101.212
1308.75	127.839
1313.02	29.3459
1317.29	81.5456
1321.55	27.9316
1325.81	17.8457
1330.06	38.7971
1334.32	6.72046
1338.57	42.3298
1342.82	47.3706
1347.06	125.432
1351.31	42.9228
1355.55	46.6555
1359.79	33.6794
1364.02	51.9639
1368.26	93.6843
1372.49	64.3086
1376.71	45.2173
1380.94	24.9858
1385.16	115.123
1389.38	29.3538
1393.6	61.833
1397.81	73.4424
1402.02	75.052
1406.23	28.6013
1410.44	86.188
1414.64	131.096
1418.85	71.2988
1423.04	68.529
1427.24	14.9258
1431.43	82.0515
1435.62	69.7231
1439.81	19.854
1444	9.21289
1448.18	28.0146
1452.36	7.14404
1456.54	75.124
1460.71	18.7297
1464.89	80.6426
1469.06	8.79102
1473.22	46.8096
1477.39	48.4807
1481.55	51.9331
1485.71	36.0352
1489.86	23.4446
1494.02	32.4038
1498.17	13.2488
1502.32	1.07642
1506.46	95.196
1510.61	43.0693
1514.75	70.6965
1518.88	41.6375
1523.02	62.4951
1527.15	87.7141
1531.28	54.9138
1535.41	62.3174
1539.53	37.0378
1543.66	88.3977
1547.78	51.7373
1551.89	129.969
1556.01	177.274
1560.12	48.0049
1564.23	24.2283
1568.33	106.821
