Measurement: Raman, 514 nm, ccw, Raman Data Processed
Mineral: Erythrite
Rruff sample: R050073
Ideal chemistry: Co^2+^_3_(As^5+^O_4_)_2_8H_2_O
Locality: Bou Azzer, Morocco
Source: Rock Currier
Description: Crimson flattened crystals
Measured chemistry: (Co_0.65_Mg_0.35_)_3_(As_1.00_O_4_)_2_Â·8H_2_O
Pin_id: M00098
Orientation: Laser parallel to (1 0 1). Fiducial mark perpendicular to laser is parallel to b [0 1 0]
Raman shift (cm-1)	intensity
93.48	0
98.416	74.946
103.349	580.734
108.28	2286.33
113.208	2083.54
118.134	2588.79
123.058	370.646
127.979	31.5295
132.898	55.0923
137.814	1017.72
142.728	3585.29
147.639	3844.18
152.549	5053.07
157.455	1607.75
162.359	377.375
167.261	328.729
172.161	431.081
177.058	309.953
181.952	401.427
186.845	698.329
191.734	1419.98
196.622	2433.63
201.507	4297.03
206.389	5355.52
211.269	6139.04
216.147	4802.6
221.022	2467.21
225.895	1333.22
230.765	994.536
235.633	841.552
240.498	626.991
245.361	435.362
250.222	478.408
255.08	619.628
259.936	726.858
264.789	629.246
269.64	416.525
274.488	266.744
279.334	188.466
284.178	148.301
289.019	131.2
293.857	346.15
298.693	585.203
303.527	634.344
308.358	561.678
313.187	306.342
318.013	239.252
322.837	298.238
327.659	493.352
332.478	824.593
337.294	892.847
342.108	779.725
346.92	375.532
351.729	136.155
356.535	11.5713
361.34	48.4199
366.141	50.9744
370.94	13.8037
375.737	27.4959
380.531	53.0754
385.323	80.8892
390.113	144.961
394.9	204.591
399.684	230.011
404.466	427.179
409.245	503.213
414.022	685.984
418.797	1055.59
423.569	1488.02
428.338	2313.2
433.105	3012.13
437.87	3442.12
442.632	3546.08
447.391	3681.29
452.149	4188.67
456.903	4546.8
461.655	4180.58
466.405	3007.13
471.152	2033.54
475.897	1440.33
480.639	915.167
485.378	703.622
490.116	534.716
494.85	400.455
499.582	363.853
504.312	261.604
509.039	239.489
513.764	189.781
518.486	123.663
523.206	203.058
527.923	108.479
532.638	146.671
537.35	153.953
542.059	87.0606
546.766	124.988
551.471	121.603
556.173	68.344
560.873	85.7952
565.57	119.11
570.264	82.3013
574.957	28.3845
579.646	42.7004
584.333	10.1008
589.018	50.7886
593.7	108.144
598.379	98.4673
603.056	69.5335
607.73	66.0735
612.402	66.2012
617.072	27.7441
621.739	58.6929
626.403	77.229
631.065	225.885
635.724	271.681
640.381	408.672
645.035	441.124
649.687	542.137
654.336	602.779
658.983	623.985
663.627	493.476
668.268	425.328
672.907	404.478
677.544	400.927
682.178	301.692
686.809	428.786
691.438	428.227
696.065	507.065
700.688	532.311
705.31	691.011
709.929	659.218
714.545	777.846
719.158	830.229
723.77	870.537
728.378	1042.67
732.984	1014.95
737.588	1325.1
742.189	1485.12
746.787	1825.24
751.383	2242.7
755.976	2854.14
760.567	3895.77
765.155	5303.12
769.741	7734.16
774.324	12401.9
778.904	20365.4
783.482	33268.4
788.058	48518.2
792.631	56463.6
797.201	52456.6
801.769	38755.2
806.334	23892.5
810.897	14405.4
815.457	9202.86
820.014	6135.95
824.569	4557.65
829.122	3519.1
833.671	2870.03
838.219	2527.03
842.763	2718.11
847.306	3230.73
851.845	3747.86
856.382	3588.66
860.917	2715.34
865.448	1809.16
869.978	1327.45
874.505	1070.43
879.029	1003.29
883.55	885.731
888.069	927.95
892.586	882.967
897.1	960.365
901.611	940.766
906.12	909.154
910.626	884.797
915.129	771.793
919.63	595.969
924.129	551.096
928.625	330.822
933.118	262.95
937.609	130.542
942.097	91.7134
946.582	113.445
951.065	27.4033
955.546	75.2383
960.023	15.1084
964.499	22.8052
968.971	20.9797
973.441	14.6841
977.909	105.731
982.374	4.55737
986.836	38.4004
991.295	11.6914
995.753	30.239
1000.21	74.2854
1004.66	54.0212
1009.11	42.8347
1013.55	7.18945
1018	19.3015
1022.44	44.0962
1026.88	2.82446
1031.32	29.2971
1035.75	0.641846
1040.18	0.046387
1044.61	109.702
1049.04	112.37
1053.46	39.8049
1057.88	174.826
1062.3	76.4536
1066.71	111.674
1071.13	85.2566
1075.54	165.787
1079.94	187.654
1084.35	157.161
1088.75	180.36
1093.15	190.33
1097.55	177.144
1101.94	168.223
1106.34	184.927
1110.73	230.667
1115.11	187.817
1119.5	215.396
1123.88	190.867
1128.26	324.842
1132.63	183.29
1137.01	128.884
1141.38	135.304
1145.75	125.992
1150.12	87.971
1154.48	45.2217
1158.84	95.5972
1163.2	34.0032
1167.55	112.887
1171.91	72.0369
1176.26	88.0896
1180.61	83.1826
1184.95	31.5918
1189.29	32.1643
1193.63	79.7117
1197.97	73.3672
1202.31	79.8733
1206.64	87.562
1210.97	97.1096
1215.29	82.4358
1219.62	120.499
1223.94	57.4663
1228.26	0.748047
1232.57	61.3088
1236.89	106.329
1241.2	80.4853
1245.51	64.2034
1249.81	37.4529
1254.12	72.6411
1258.42	69.8357
1262.72	43.2102
1267.01	89.5608
1271.3	83.9202
1275.59	66.9497
1279.88	111.264
1284.17	14.7498
1288.45	97.1431
1292.73	92.0186
1297.01	50.3032
1301.28	1.60205
1305.55	37.6465
1309.82	69.1213
1314.09	91.3044
1318.35	93.5847
1322.61	80.1291
1326.87	73.0727
1331.13	22.8762
1335.38	24.0469
1339.63	95.1187
1343.88	65.1397
1348.12	16.5576
1352.37	12.9158
1356.61	119.46
1360.85	9.84473
1365.08	39.1025
1369.31	13.0205
1373.54	59.8716
1377.77	46.709
1381.99	80.8098
1386.22	28.9094
1390.43	29.5178
1394.65	89.1148
1398.87	36.4937
1403.08	112.842
1407.29	44.2866
1411.49	47.2835
1415.69	68.6856
1419.89	63.7395
1424.09	153.067
1428.29	5.63843
1432.48	35.9883
1436.67	58.3472
1440.86	27.0088
1445.04	2.81787
1449.23	51.0474
1453.4	0.399902
1457.58	45.1716
1461.76	102.465
1465.93	53.1882
1470.1	46.9377
1474.26	60.103
1478.43	98.5666
1482.59	152.671
1486.75	72.042
1490.9	25.5298
1495.06	37.0588
1499.21	63.7966
1503.35	133.602
1507.5	56.3257
1511.64	61.5381
1515.78	31.386
1519.92	80.7678
1524.05	22.7605
1528.18	27.4519
1532.31	71.9026
1536.44	299.406
1540.56	103.261
1544.69	82.6028
1548.8	81.3313
1552.92	145.861
1557.03	115.236
1561.14	1.08765
1565.25	130.886
1569.36	0.088623
