Measurement: Raman, 514 nm, ccw, Raman Data Processed
Mineral: Erythrite
Rruff sample: R050073
Ideal chemistry: Co^2+^_3_(As^5+^O_4_)_2_8H_2_O
Locality: Bou Azzer, Morocco
Source: Rock Currier
Description: Crimson flattened crystals
Measured chemistry: (Co_0.65_Mg_0.35_)_3_(As_1.00_O_4_)_2_Â·8H_2_O
Pin_id: M00361
Orientation: Laser parallel to c* (0 0 1). Fiducial mark perpendicular to laser is parallel to -a [-1 0 0]
Raman shift (cm-1)	intensity
93.48	0
98.416	49.019
103.349	1083.52
108.28	3836.87
113.208	2847.76
118.134	1840.29
123.058	356.699
127.979	52.3603
132.898	646.949
137.814	3195.59
142.728	7536.02
147.639	7092.74
152.549	3989.13
157.455	680.035
162.359	100.688
167.261	348.964
172.161	726.927
177.058	1509.9
181.952	3078.34
186.845	3966.28
191.734	5011.9
196.622	6323.26
201.507	8914.9
206.389	9310.75
211.269	9488.23
216.147	9169.33
221.022	9374.12
225.895	10325.3
230.765	10384
235.633	8968.2
240.498	8171.61
245.361	9926.3
250.222	14138
255.08	19697.9
259.936	22651.8
264.789	18774.8
269.64	13037.6
274.488	7983.08
279.334	4385.7
284.178	2388.76
289.019	1143.52
293.857	446.492
298.693	55.3721
303.527	93.5688
308.358	15.9995
313.187	79.146
318.013	125.61
322.837	393.082
327.659	1030.19
332.478	1469
337.294	1806.34
342.108	1997.21
346.92	2811.76
351.729	4497.73
356.535	7071.28
361.34	9712.24
366.141	11482.3
370.94	12091.1
375.737	10698.5
380.531	8344.88
385.323	5781.66
390.113	4015.27
394.9	2726.78
399.684	1814.21
404.466	1699.88
409.245	1592.69
414.022	1947.69
418.797	2510.59
423.569	3679.15
428.338	5208.89
433.105	6926.88
437.87	7054.91
442.632	6166.06
447.391	4585.01
452.149	3261.1
456.903	2251.19
461.655	1301.13
466.405	703.745
471.152	462.681
475.897	130.809
480.639	115.361
485.378	26.9883
490.116	36.7217
494.85	31.3081
499.582	56.8086
504.312	81.1338
509.039	14.0518
513.764	1.43311
518.486	31.0645
523.206	24.8999
527.923	49.73
532.638	58.5596
537.35	52.5527
542.059	109.103
546.766	160.916
551.471	145.852
556.173	90.9541
560.873	197.246
565.57	146.738
570.264	145.45
574.957	72.3887
579.646	98.5205
584.333	10.2266
589.018	1.26856
593.7	81.812
598.379	31.4639
603.056	50.3384
607.73	28.7466
612.402	3.80908
617.072	90.1523
621.739	1.41748
626.403	96.9219
631.065	39.4824
635.724	143.924
640.381	108.852
645.035	163.628
649.687	57.416
654.336	142.754
658.983	62.602
663.627	124.182
668.268	212.689
672.907	323.64
677.544	275.623
682.178	365.095
686.809	647.763
691.438	615.806
696.065	834.125
700.688	1068.27
705.31	1310.03
709.929	1459.44
714.545	1830.73
719.158	1947.76
723.77	2188.55
728.378	2588.51
732.984	2668.04
737.588	2825.9
742.189	3338.26
746.787	3856.46
751.383	4320.7
755.976	5521.68
760.567	6937.31
765.155	9053.26
769.741	13226
774.324	20205
778.904	31805.3
783.482	46262.6
788.058	54716.1
792.631	51213.4
797.201	38551.6
801.769	25452.8
806.334	16608.8
810.897	11300.6
815.457	8225.22
820.014	6120.64
824.569	4856.72
829.122	3960.48
833.671	3482.9
838.219	3205.01
842.763	3666.78
847.306	4668.24
851.845	4685.4
856.382	3586.3
860.917	2213.99
865.448	1090.64
869.978	467.331
874.505	220.213
879.029	109.037
883.55	73.6631
888.069	3.31836
892.586	101.019
897.1	61.4795
901.611	33.0996
906.12	42.8496
910.626	28.8193
915.129	49.2441
919.63	169.347
924.129	256.292
928.625	307.337
933.118	355.022
937.609	283.211
942.097	340.854
946.582	485.458
951.065	535.017
955.546	619.012
960.023	626.374
964.499	674.721
968.971	578.851
973.441	594.273
977.909	641.307
982.374	422.241
986.836	556.53
991.295	224.962
995.753	304.667
1000.21	302.506
1004.66	156.358
1009.11	219.948
1013.55	101.144
1018	44.1611
1022.44	45.0586
1026.88	2.51562
1031.32	25.0576
1035.75	57.5049
1040.18	44.1846
1044.61	59.7168
1049.04	137.273
1053.46	97.2969
1057.88	165.867
1062.3	20.7393
1066.71	43.373
1071.13	0.854492
1075.54	21.293
1079.94	195.982
1084.35	6.77734
1088.75	66.0156
1093.15	135.997
1097.55	124.214
1101.94	25.4961
1106.34	89.2939
1110.73	99.7891
1115.11	109.605
1119.5	265.494
1123.88	83.0557
1128.26	173.166
1132.63	165.727
1137.01	221.188
1141.38	103.817
1145.75	10.5781
1150.12	24.9287
1154.48	136.908
1158.84	871.742
1163.2	71.6699
1167.55	50.5469
1171.91	104.273
1176.26	70.2334
1180.61	123.981
1184.95	116.331
1189.29	163.758
1193.63	49.1191
1197.97	137.886
1202.31	83.6094
1206.64	126.241
1210.97	37.2051
1215.29	37.5371
1219.62	80.2217
1223.94	222.119
1228.26	168.408
1232.57	254.613
1236.89	128.294
1241.2	90.6992
1245.51	60.9463
1249.81	74.0742
1254.12	122.192
1258.42	206.372
1262.72	95.2314
1267.01	122.826
1271.3	88.793
1275.59	88.0381
1279.88	68.5273
1284.17	112.769
1288.45	103.098
1292.73	136.956
1297.01	181.887
1301.28	229.064
1305.55	91.7627
1309.82	245.83
1314.09	150.59
1318.35	144.25
1322.61	59.3691
1326.87	124.217
1331.13	58.9326
1335.38	135.881
1339.63	134.186
1343.88	59.8027
1348.12	108.973
1352.37	58.9453
1356.61	121.676
1360.85	248.667
1365.08	97.2539
1369.31	107.248
1373.54	69.7871
1377.77	82.4102
1381.99	128.337
1386.22	150.632
1390.43	89.5352
1394.65	155.07
1398.87	152.031
1403.08	117.457
1407.29	121.116
1411.49	40.419
1415.69	60.2324
1419.89	140.802
1424.09	137.389
1428.29	44.5068
1432.48	54.1582
1436.67	54.9961
1440.86	145.904
1445.04	39.1035
1449.23	10.0713
1453.4	3.96094
1457.58	75.8809
1461.76	73.0176
1465.93	23.959
1470.1	77.2871
1474.26	95.457
1478.43	32.3565
1482.59	131.738
1486.75	45.2881
1490.9	200.573
1495.06	38.1328
1499.21	11.6572
1503.35	96.4053
1507.5	116.343
1511.64	126.045
1515.78	167.597
1519.92	69.8945
1524.05	158.709
1528.18	136.487
1532.31	77.4482
1536.44	227.5
1540.56	48.5088
1544.69	41.6045
1548.8	185.776
1552.92	415.992
1557.03	264.716
1561.14	45.2881
1565.25	121.533
1569.36	0.039063
