Measurement: Raman, 514 nm, ccw, Raman Data Processed
Mineral: Euclase
Rruff sample: R050032
Ideal chemistry: BeAlSiO_4_(OH)
Locality: Minas Gerais, Brazil
Source: University of Arizona Mineral Museum
Description: Colorless crystal fragments
Measured chemistry: Be_1.00_Al_1.00_Si_1.00_O_4_(OH)
Pin_id: L00259
Orientation: Laser parallel to a* (1 0 0). Fiducial mark perpendicular to laser is parallel to -b [0 -1 0]
Raman shift (cm-1)	intensity
51.274	0
55.47	190.127
59.664	331.703
63.855	215.234
68.045	1.142
72.233	65.221
76.418	389.125
80.602	397.125
84.784	340.961
88.964	498.956
93.142	581.938
97.318	429.975
101.492	409.192
105.664	353.224
109.834	404.893
114.002	363.767
118.168	285.968
122.332	181.901
126.495	89.479
130.655	73.135
134.813	243.024
138.97	826.002
143.124	2855.68
147.277	2195.78
151.427	486.182
155.576	140.686
159.723	16.104
163.867	3.154
168.01	199.706
172.151	1951.59
176.29	8654.61
180.427	2858.96
184.562	341.619
188.696	8.474
192.827	273.169
196.956	1321.07
201.084	437.612
205.209	2.981
209.333	73.678
213.454	35.814
217.574	27.791
221.692	14.095
225.808	239.81
229.922	2589.94
234.034	5183.52
238.144	2525.61
242.252	1256.74
246.359	2164.34
250.463	7914
254.566	31742.9
258.666	31931.7
262.765	7628.1
266.862	2472.47
270.957	2397.7
275.05	3328.12
279.141	4547.64
283.23	16805.9
287.317	20012.8
291.403	5864.88
295.486	1936.28
299.568	886.307
303.647	543.856
307.725	439.872
311.801	384.843
315.875	380.144
319.947	256.226
324.018	271.264
328.086	412.547
332.153	1073.57
336.217	2173.2
340.28	1039.43
344.341	189.446
348.4	32.865
352.457	131.647
356.512	221.172
360.566	208.257
364.617	264.027
368.667	482.013
372.715	1063.35
376.761	2373.93
380.805	3022.48
384.847	3118.18
388.887	8627.49
392.926	26393.7
396.962	17160
400.997	4395.21
405.03	1514.26
409.061	727.126
413.09	543.87
417.117	1052.49
421.143	2446.95
425.166	1712.26
429.188	657.426
433.208	463.488
437.226	1307.45
441.242	6623.33
445.256	2153.14
449.269	1504.9
453.28	1524.63
457.288	2030.38
461.295	1101.65
465.3	316.7
469.304	144.377
473.305	60.077
477.305	40.333
481.303	52.454
485.298	40.697
489.293	114.451
493.285	65.955
497.275	5.624
501.264	41.673
505.251	258.166
509.236	439.608
513.219	131.469
517.2	46.587
521.18	4.768
525.157	80.747
529.133	293.07
533.107	722.086
537.079	2359.08
541.05	6506.85
545.018	4457.74
548.985	1511.72
552.95	635.273
556.913	570.825
560.875	736.518
564.834	1309.8
568.792	3104.92
572.748	4995.04
576.702	2808.38
580.654	2295.12
584.605	1727.75
588.553	775.253
592.5	635.641
596.445	1300.91
600.389	3241.06
604.33	2548.09
608.27	870.01
612.208	309.807
616.144	105.484
620.078	121.773
624.011	55.191
627.941	33.469
631.87	246.25
635.798	564.76
639.723	1331.52
643.647	1030.91
647.568	581.508
651.488	377.274
655.407	458.058
659.323	187.337
663.238	350.548
667.151	185.729
671.062	53.345
674.971	14.637
678.879	66.919
682.785	18.168
686.689	58.396
690.591	13.182
694.491	13.449
698.39	21.916
702.287	16.01
706.182	13.239
710.076	35.289
713.968	67.693
717.857	38.976
721.746	13.104
725.632	67.944
729.517	4.258
733.4	23.264
737.281	114.694
741.16	287.05
745.038	730.339
748.913	788.563
752.788	1095.73
756.66	1507.84
760.531	782.905
764.399	293.925
768.267	102.905
772.132	82.734
775.996	68.198
779.857	34.489
783.718	88.249
787.576	179.061
791.433	279.901
795.288	211.765
799.141	136.678
802.992	91.618
806.842	38.57
810.69	27.568
814.536	22.599
818.381	81.641
822.223	12.308
826.065	6.504
829.904	45.446
833.741	41.499
837.577	40.851
841.412	151.312
845.244	136.658
849.075	136.494
852.904	244.808
856.731	376.406
860.556	598.217
864.38	980.24
868.202	1476.35
872.023	2861.3
875.842	6277.4
879.658	12327.4
883.474	8443.07
887.287	5086.69
891.099	4758
894.909	5600.52
898.718	9355.27
902.524	19644.2
906.329	37843.5
910.133	36582.9
913.934	19972.6
917.734	10112.5
921.532	6042.68
925.329	4265
929.124	3449.81
932.917	2707.59
936.708	1886.6
940.498	1389.83
944.286	1050.27
948.072	1008.93
951.857	828.807
955.64	880.896
959.421	866.193
963.201	1300.7
966.979	2288.42
970.755	4718.39
974.529	5547.36
978.302	4716.37
982.073	2570.53
985.843	1244.44
989.611	648.556
993.377	421.189
997.141	391.402
1000.9	423.316
1004.66	538.63
1008.42	663.177
1012.18	971.716
1015.94	1380.59
1019.69	3102.13
1023.45	3852.57
1027.2	2551.11
1030.95	1527.88
1034.69	1273.46
1038.44	1282.91
1042.18	1577.09
1045.93	2256.93
1049.67	3484.1
1053.41	6543.89
1057.14	11957.9
1060.88	14669.4
1064.62	9426.14
1068.35	4932.77
1072.08	2935.26
1075.81	1824.32
1079.54	1193.68
1083.26	803.135
1086.99	583.042
1090.71	489.271
1094.43	397.598
1098.15	351.875
1101.87	292.912
1105.59	318.522
1109.3	246.68
1113.01	188.305
1116.72	194.054
1120.43	185.249
1124.14	241.534
1127.85	193.535
1131.55	202.996
1135.26	87.499
1138.96	97.999
1142.66	28.6
1146.36	53.76
1150.05	92.738
1153.75	5.585
1157.44	38.653
1161.13	1.782
1164.82	26.073
1168.51	23.501
1172.2	1.011
1175.88	30.585
1179.57	15.939
1183.25	59.119
1186.93	97.018
1190.61	6.454
1194.28	6.178
1197.96	12.215
1201.63	45.048
1205.31	21.104
1208.98	75.215
1212.64	41.485
1216.31	156.068
1219.98	28.423
1223.64	15.757
1227.31	33.447
1230.97	12.533
1234.62	49.55
1238.28	1.963
1241.94	109.351
1245.59	120.459
1249.25	88.713
1252.9	116.696
1256.55	94.412
1260.2	84.312
1263.84	51.413
1267.49	64.635
1271.13	136.833
1274.77	163.826
1278.41	256.755
1282.05	258.117
1285.69	148.469
1289.32	75.625
1292.96	107.504
1296.59	22.594
1300.22	76.258
1303.85	54.4
1307.48	130.519
1311.1	147.419
1314.72	144.521
1318.35	112.788
1321.97	82.437
1325.59	141.168
1329.21	25.476
1332.82	61.926
1336.44	34.58
1340.05	183.169
1343.66	159.646
1347.27	191.534
1350.88	107.771
1354.49	158.604
1358.09	82.36
1361.7	59.44
1365.3	48.41
1368.9	126.417
1372.5	10.444
1376.1	5.341
1379.69	151.544
1383.29	215.539
1386.88	149.842
1390.47	132.694
1394.06	122.943
1397.65	98.935
1401.23	46.897
1404.82	4.958
1408.4	105.889
1411.98	133.566
1415.56	177.156
1419.14	214.865
1422.72	189.27
1426.3	179.5
1429.87	89.695
1433.44	156.598
1437.01	95.309
1440.58	74.633
1444.15	95.917
1447.71	108.806
1451.28	145.333
1454.84	174.087
1458.4	286.273
1461.96	232.379
1465.52	257.562
1469.08	153.015
1472.64	156.789
1476.19	72.772
1479.74	35.95
1483.29	72.961
1486.84	75.656
1490.39	69.307
1493.94	160.041
1497.48	126.182
1501.02	185.964
1504.57	227.87
1508.11	174.229
1511.64	107.668
1515.18	78.836
1518.72	42.083
1522.25	0
