Measurement: Raman, 514 nm, ccw, Raman Data Processed
Mineral: Euclase
Rruff sample: R050032
Ideal chemistry: BeAlSiO_4_(OH)
Locality: Minas Gerais, Brazil
Source: University of Arizona Mineral Museum
Description: Colorless crystal fragments
Measured chemistry: Be_1.00_Al_1.00_Si_1.00_O_4_(OH)
Pin_id: L00411
Orientation: Laser parallel to (-1 0 -1). Fiducial mark perpendicular to laser is parallel to -b [0 -1 0]
Raman shift (cm-1)	intensity
101.492	0
105.664	132.681
109.834	249.82
114.002	517.821
118.168	450.042
122.332	151.775
126.495	2.981
130.655	132.589
134.813	211.531
138.97	480.871
143.124	1511.45
147.277	1918.54
151.427	399.122
155.576	92.668
159.723	126.17
163.867	339.456
168.01	430.04
172.151	2259.01
176.29	6566.42
180.427	3538.11
184.562	609.992
188.696	484.065
192.827	1557.27
196.956	4534.2
201.084	2995.75
205.209	629.592
209.333	27.873
213.454	62.186
217.574	80.443
221.692	39.797
225.808	79.163
229.922	1453.12
234.034	5968.44
238.144	3562.08
242.252	989.352
246.359	1078.58
250.463	3557.74
254.566	17641.6
258.666	26069.3
262.765	6945.78
266.862	1875.73
270.957	1841.96
275.05	2957.85
279.141	2530.1
283.23	9407.81
287.317	15083.5
291.403	4735.71
295.486	1394.98
299.568	642.752
303.647	1021.4
307.725	1369.06
311.801	528.25
315.875	244.484
319.947	204.21
324.018	296.02
328.086	1241.75
332.153	2191.5
336.217	1640.26
340.28	941.201
344.341	290.875
348.4	480.749
352.457	937.616
356.512	444.457
360.566	232.55
364.617	200.394
368.667	218.301
372.715	415.202
376.761	1063.96
380.805	1725.82
384.847	2295.71
388.887	5453.93
392.926	17185.9
396.962	14537.5
400.997	3580.77
405.03	1087.82
409.061	440.451
413.09	294.121
417.117	474.551
421.143	1126.75
425.166	1007.7
429.188	471.358
433.208	388.257
437.226	1898.39
441.242	7195.84
445.256	3418.69
449.269	1206.01
453.28	520.887
457.288	357.441
461.295	194.22
465.3	47.05
469.304	40.152
473.305	13.553
477.305	39.823
481.303	19.879
485.298	2.327
489.293	34.92
493.285	41.806
497.275	74.37
501.264	86.57
505.251	328.939
509.236	529.599
513.219	335.639
517.2	205.87
521.18	128.493
525.157	109.062
529.133	197.455
533.107	459.426
537.079	1223.54
541.05	3626.11
545.018	3055.38
548.985	1187.14
552.95	670.09
556.913	612.617
560.875	808.777
564.834	1509.75
568.792	2832.42
572.748	3978.1
576.702	2836.73
580.654	2718.28
584.605	2417.55
588.553	1141.54
592.5	707.8
596.445	1095.25
600.389	2601.44
604.33	2440.38
608.27	1019.07
612.208	458.522
616.144	260.386
620.078	224.48
624.011	179.491
627.941	218.034
631.87	344.685
635.798	760.685
639.723	1799.76
643.647	1983.42
647.568	1327.54
651.488	805.586
655.407	576.369
659.323	304.749
663.238	201.8
667.151	151.754
671.062	46.545
674.971	19.235
678.879	37.583
682.785	1.116
686.689	45.259
690.591	20.634
694.491	91.368
698.39	48.573
702.287	38.303
706.182	3.481
710.076	18.002
713.968	54.874
717.857	39.076
721.746	40.436
725.632	15.753
729.517	91.918
733.4	184.991
737.281	380.959
741.16	1027.83
745.038	2157.6
748.913	1977.29
752.788	1216.89
756.66	1175.43
760.531	707.891
764.399	320.292
768.267	126.636
772.132	159.932
775.996	103.913
779.857	97.51
783.718	206.465
787.576	287.813
791.433	404.214
795.288	572.683
799.141	1023.22
802.992	1388.81
806.842	1360.43
810.69	811.105
814.536	509.822
818.381	331.572
822.223	243.227
826.065	215.944
829.904	200.543
833.741	145.081
837.577	196.064
841.412	259.064
845.244	283.04
849.075	374.672
852.904	511.291
856.731	653.811
860.556	929.212
864.38	1469.48
868.202	2499.64
872.023	4954.22
875.842	11643
879.658	26699.4
883.474	21258.5
887.287	10707.8
891.099	8227.25
894.909	6124.88
898.718	6806.73
902.524	12176.8
906.329	24907.1
910.133	26687.6
913.934	15078.3
917.734	7449.27
921.532	4323.38
925.329	2739.68
929.124	2009.19
932.917	1639.91
936.708	1136.81
940.498	887.895
944.286	635.173
948.072	528.64
951.857	458.33
955.64	407.254
959.421	364.366
963.201	536.667
966.979	969.154
970.755	2136.83
974.529	2533.7
978.302	1775.77
982.073	891.056
985.843	379.606
989.611	47.408
993.377	0.525
997.141	41.109
1000.9	61.432
1004.66	48.541
1008.42	9.871
1012.18	94.513
1015.94	137.518
1019.69	568.873
1023.45	755.548
1027.2	409.498
1030.95	241.67
1034.69	169.252
1038.44	224.866
1042.18	349.814
1045.93	595.239
1049.67	1026.01
1053.41	2123.39
1057.14	4159.78
1060.88	5406.57
1064.62	3427.47
1068.35	1656.26
1072.08	902.189
1075.81	573.774
1079.54	412.132
1083.26	377.628
1086.99	358.949
1090.71	369.36
1094.43	447.082
1098.15	583.637
1101.87	833.197
1105.59	1102.24
1109.3	1477.39
1113.01	1900.33
1116.72	2278.89
1120.43	2614.12
1124.14	2623.29
1127.85	2341.51
1131.55	1718.82
1135.26	1229.54
1138.96	879.976
1142.66	591.859
1146.36	388.994
1150.05	250.634
1153.75	180.501
1157.44	151.957
1161.13	140.154
1164.82	109.228
1168.51	67.657
1172.2	59.179
1175.88	53.296
1179.57	32.242
1183.25	9.651
1186.93	22.917
1190.61	53.429
1194.28	32.826
1197.96	35.887
1201.63	19.922
1205.31	29.817
1208.98	42.973
1212.64	2.834
1216.31	59.576
1219.98	5.029
1223.64	2.511
1227.31	14.518
1230.97	70.78
1234.62	42.36
1238.28	0.504
1241.94	35.212
1245.59	26.456
1249.25	52.261
1252.9	54.268
1256.55	65.59
1260.2	90.453
1263.84	74.252
1267.49	51.775
1271.13	70.059
1274.77	86.315
1278.41	84.023
1282.05	133.376
1285.69	47.678
1289.32	87.689
1292.96	92.377
1296.59	65.898
1300.22	29.263
1303.85	19.535
1307.48	6.422
1311.1	6.101
1314.72	41.605
1318.35	55.766
1321.97	53.677
1325.59	77.572
1329.21	89.192
1332.82	46.986
1336.44	53.803
1340.05	4.118
1343.66	72.515
1347.27	57.354
1350.88	22.285
1354.49	74.919
1358.09	110.353
1361.7	110.661
1365.3	126.715
1368.9	86.121
1372.5	108.936
1376.1	33.224
1379.69	68.177
1383.29	88.525
1386.88	110.731
1390.47	129.012
1394.06	89.929
1397.65	75.858
1401.23	35.292
1404.82	105.312
1408.4	84.354
1411.98	68.645
1415.56	30.503
1419.14	72.624
1422.72	98.732
1426.3	136.205
1429.87	100.157
1433.44	74.321
1437.01	77.733
1440.58	77.656
1444.15	58.546
1447.71	90.415
1451.28	150.876
1454.84	23.253
1458.4	61.138
1461.96	110.917
1465.52	111.777
1469.08	73.433
1472.64	170.431
1476.19	55.707
1479.74	47.434
1483.29	64.534
1486.84	64.504
1490.39	19.19
1493.94	41.594
1497.48	42.502
1501.02	57.885
1504.57	40.752
1508.11	79.123
1511.64	75.893
1515.18	85.305
1518.72	89.911
