Measurement: Raman, 514 nm, ccw, Raman Data Processed
Mineral: Euclase
Rruff sample: R050032
Ideal chemistry: BeAlSiO_4_(OH)
Locality: Minas Gerais, Brazil
Source: University of Arizona Mineral Museum
Description: Colorless crystal fragments
Measured chemistry: Be_1.00_Al_1.00_Si_1.00_O_4_(OH)
Pin_id: L00259
Orientation: Laser parallel to a* (1 0 0). Fiducial mark perpendicular to laser is parallel to -b [0 -1 0]
Raman shift (cm-1)	intensity
51.274	0
55.47	746.142
59.664	1243.16
63.855	584.707
68.045	279.253
72.233	363.868
76.418	430.386
80.602	260.921
84.784	58.171
88.964	49.816
93.142	167.321
97.318	121.036
101.492	29.077
105.664	192.414
109.834	473.15
114.002	421.802
118.168	238.857
122.332	138.936
126.495	56.64
130.655	63.145
134.813	202.307
138.97	268.975
143.124	1212.74
147.277	968.802
151.427	18.029
155.576	74.632
159.723	129.927
163.867	115.421
168.01	111.72
172.151	1594.23
176.29	6346.45
180.427	4259.9
184.562	509.32
188.696	26.09
192.827	184.673
196.956	859.877
201.084	373.863
205.209	38.754
209.333	93.141
213.454	75.74
217.574	62.618
221.692	231.453
225.808	770.941
229.922	5238.02
234.034	24084.3
238.144	7304.46
242.252	2183.56
246.359	2391.88
250.463	6415.9
254.566	28606.9
258.666	30539.3
262.765	6795.02
266.862	2207.47
270.957	1928.91
275.05	2331.63
279.141	2107.74
283.23	7502.88
287.317	10349.5
291.403	2940.24
295.486	1192.67
299.568	670.711
303.647	434.968
307.725	445.589
311.801	421.953
315.875	405.207
319.947	291.008
324.018	229.402
328.086	205.446
332.153	249.966
336.217	292.808
340.28	121.788
344.341	76.474
348.4	84.33
352.457	159.169
356.512	151.427
360.566	194.549
364.617	247.647
368.667	449.405
372.715	853.257
376.761	2022.16
380.805	2705.73
384.847	2049.97
388.887	5013.45
392.926	18606.4
396.962	11767.7
400.997	2764.55
405.03	1042.95
409.061	555.918
413.09	374.518
417.117	524.818
421.143	939.858
425.166	724.647
429.188	576.244
433.208	1200.7
437.226	5333.06
441.242	23099.3
445.256	8657.49
449.269	5255.65
453.28	5159.84
457.288	4072.2
461.295	2371.77
465.3	1239.49
469.304	773.514
473.305	613.632
477.305	428.605
481.303	314.274
485.298	284.964
489.293	438.182
493.285	414.33
497.275	428.55
501.264	701.745
505.251	1492.06
509.236	1861.8
513.219	909.805
517.2	232.778
521.18	45.055
525.157	34.469
529.133	54.223
533.107	27.062
537.079	108.473
541.05	450.963
545.018	404.056
548.985	198.134
552.95	208.454
556.913	370.05
560.875	690.713
564.834	1461.61
568.792	3812
572.748	7129.68
576.702	3461.74
580.654	1751.76
584.605	1188.66
588.553	704.448
592.5	761.112
596.445	1653.66
600.389	4293.08
604.33	3439.39
608.27	1214.58
612.208	429.647
616.144	2173.66
620.078	162.481
624.011	99.169
627.941	113.74
631.87	222.205
635.798	598.573
639.723	1182.85
643.647	1127.02
647.568	764.099
651.488	534.066
655.407	374.909
659.323	228.629
663.238	243.254
667.151	180.783
671.062	44.205
674.971	49.488
678.879	19.567
682.785	62.132
686.689	64.809
690.591	69.252
694.491	38.393
698.39	45.823
702.287	65.869
706.182	75.417
710.076	25.425
713.968	24.802
717.857	11.54
721.746	16.355
725.632	52.991
729.517	23.616
733.4	34.54
737.281	69.554
741.16	205.469
745.038	488.29
748.913	484.023
752.788	369.673
756.66	353.246
760.531	176.749
764.399	70.185
768.267	40.562
772.132	72.882
775.996	52.074
779.857	109.785
783.718	137.628
787.576	410.789
791.433	512.925
795.288	376.04
799.141	309.14
802.992	156.232
806.842	151.319
810.69	69.408
814.536	99.505
818.381	124.614
822.223	89.741
826.065	91.473
829.904	114.577
833.741	139.091
837.577	216.46
841.412	269.941
845.244	339.685
849.075	379.801
852.904	578.68
856.731	796.308
860.556	1161.72
864.38	1859.65
868.202	3028.29
872.023	5833.68
875.842	13870.5
879.658	28564.8
883.474	18622.4
887.287	8391.87
891.099	5429.54
894.909	5170.45
898.718	7517.62
902.524	15230.1
906.329	30382.8
910.133	30335.9
913.934	16349.2
917.734	8352.86
921.532	4902.79
925.329	3444.94
929.124	2670.45
932.917	2141.24
936.708	1435.31
940.498	930.658
944.286	668.282
948.072	613.181
951.857	521.375
955.64	412.852
959.421	332.601
963.201	351.616
966.979	631.914
970.755	1201.49
974.529	1981.33
978.302	2558.43
982.073	1561.83
985.843	689.56
989.611	350.703
993.377	259.287
997.141	390.398
1000.9	421.273
1004.66	593.457
1008.42	964.024
1012.18	1489.96
1015.94	2846.86
1019.69	6587.98
1023.45	8709
1027.2	5563.49
1030.95	3260.83
1034.69	2477.45
1038.44	2378.65
1042.18	2840.05
1045.93	3749.36
1049.67	5775.7
1053.41	10492.1
1057.14	18902
1060.88	23553.4
1064.62	15945.1
1068.35	8114.92
1072.08	4707.91
1075.81	2982.07
1079.54	1964.51
1083.26	1334.31
1086.99	875.774
1090.71	688.859
1094.43	602.247
1098.15	516.732
1101.87	425.198
1105.59	385.055
1109.3	340.47
1113.01	242.849
1116.72	220.631
1120.43	229.658
1124.14	251.551
1127.85	150.37
1131.55	122.512
1135.26	117.201
1138.96	67.446
1142.66	5.471
1146.36	50.083
1150.05	4.039
1153.75	28.103
1157.44	3.149
1161.13	3.582
1164.82	34.75
1168.51	47.246
1172.2	46.78
1175.88	48.72
1179.57	22.173
1183.25	10.742
1186.93	24.297
1190.61	15.968
1194.28	41.671
1197.96	75.894
1201.63	23.46
1205.31	46.183
1208.98	4.852
1212.64	20.655
1216.31	51.302
1219.98	1.656
1223.64	23.197
1227.31	8.226
1230.97	6.74
1234.62	21.189
1238.28	69.76
1241.94	48.037
1245.59	79.065
1249.25	52.909
1252.9	71.576
1256.55	31.558
1260.2	7.938
1263.84	69.243
1267.49	68.275
1271.13	108.134
1274.77	100.812
1278.41	168.291
1282.05	163.589
1285.69	140.677
1289.32	81.516
1292.96	89.857
1296.59	41.023
1300.22	108.215
1303.85	142.343
1307.48	98.343
1311.1	145.464
1314.72	176.926
1318.35	99.348
1321.97	74.347
1325.59	42.147
1329.21	74.526
1332.82	107.446
1336.44	96.288
1340.05	116.505
1343.66	114.1
1347.27	172.102
1350.88	116.012
1354.49	118.465
1358.09	66.711
1361.7	96.437
1365.3	83.939
1368.9	78.74
1372.5	82.645
1376.1	109.354
1379.69	170.843
1383.29	85.071
1386.88	114.328
1390.47	102.734
1394.06	78.773
1397.65	15.623
1401.23	52.427
1404.82	57.479
1408.4	112.674
1411.98	90.41
1415.56	134.748
1419.14	166.445
1422.72	108.832
1426.3	106.788
1429.87	46.584
1433.44	75.802
1437.01	18.427
1440.58	49.486
1444.15	62.482
1447.71	95.75
1451.28	153.689
1454.84	168.975
1458.4	131.188
1461.96	131.489
1465.52	98.558
1469.08	73.24
1472.64	50.198
1476.19	3.363
1479.74	17.824
1483.29	34.186
1486.84	41.523
1490.39	66.929
1493.94	87.501
1497.48	113.233
1501.02	118.183
1504.57	96.151
1508.11	115.434
1511.64	74.107
1515.18	0.152
1518.72	7.405
1522.25	17.606
1525.78	0
