Measurement: Raman, 514 nm, ccw, Raman Data Processed
Mineral: Euclase
Rruff sample: R050032
Ideal chemistry: BeAlSiO_4_(OH)
Locality: Minas Gerais, Brazil
Source: University of Arizona Mineral Museum
Description: Colorless crystal fragments
Measured chemistry: Be_1.00_Al_1.00_Si_1.00_O_4_(OH)
Pin_id: L00185
Orientation: Laser parallel to -c* (0 0 -1). Fiducial mark perpendicular to laser is parallel to a [1 0 0]
Raman shift (cm-1)	intensity
51.274	0
55.47	437.969
59.664	457.87
63.855	559.365
68.045	159.957
72.233	200.938
76.418	153.173
80.602	14.516
84.784	40.754
88.964	100.912
93.142	152.412
97.318	108.729
101.492	79.749
105.664	206.34
109.834	598.999
114.002	1372.52
118.168	301.812
122.332	178.949
126.495	118.293
130.655	91.799
134.813	32.888
138.97	137.722
143.124	500.597
147.277	267.631
151.427	2.132
155.576	28.549
159.723	54.311
163.867	65.749
168.01	51.764
172.151	62.404
176.29	1384.51
180.427	2191.58
184.562	213.568
188.696	20.359
192.827	140.072
196.956	502.434
201.084	126.532
205.209	10.407
209.333	6.307
213.454	33.615
217.574	87.803
221.692	201.552
225.808	490.975
229.922	2737.62
234.034	12809.1
238.144	3122.66
242.252	1209.71
246.359	1648.02
250.463	4773.9
254.566	26228.8
258.666	24890.7
262.765	4794.15
266.862	1578.91
270.957	1025.47
275.05	993.316
279.141	1881.54
283.23	8321.61
287.317	8833.66
291.403	2104.06
295.486	811.02
299.568	519.954
303.647	612.324
307.725	524.902
311.801	289.996
315.875	248.778
319.947	225.706
324.018	212.216
328.086	376.449
332.153	288.942
336.217	58.507
340.28	70.751
344.341	66.222
348.4	150.289
352.457	216.945
356.512	89.008
360.566	16.087
364.617	0.568
368.667	13.048
372.715	46.142
376.761	157.989
380.805	235.795
384.847	540.86
388.887	2275.19
392.926	11003.7
396.962	5177.81
400.997	1392.68
405.03	635.275
409.061	355.638
413.09	211.826
417.117	263.84
421.143	663.654
425.166	548.293
429.188	380.791
433.208	542.177
437.226	1786.46
441.242	5467.62
445.256	1813.69
449.269	1523.7
453.28	1512.78
457.288	593.886
461.295	221.91
465.3	26.968
469.304	37.996
473.305	16.46
477.305	11.612
481.303	32.875
485.298	2.738
489.293	43.769
493.285	78.36
497.275	178.541
501.264	453.091
505.251	1196.43
509.236	1665.38
513.219	774.881
517.2	344.007
521.18	153.005
525.157	52.329
529.133	16.449
533.107	1.07
537.079	71.235
541.05	118.597
545.018	119.403
548.985	88.059
552.95	145.548
556.913	312.787
560.875	521.973
564.834	1204.09
568.792	5191.03
572.748	9232.96
576.702	4237.16
580.654	3785.22
584.605	2220.21
588.553	672.141
592.5	341.009
596.445	280.815
600.389	345.56
604.33	200.247
608.27	124.876
612.208	89.445
616.144	124.953
620.078	100.401
624.011	137.471
627.941	203.175
631.87	329.734
635.798	672.868
639.723	1493.87
643.647	2964.34
647.568	2115.02
651.488	1180.78
655.407	632.754
659.323	344.696
663.238	284.604
667.151	190.474
671.062	87.288
674.971	73.053
678.879	55.776
682.785	14.435
686.689	31.105
690.591	35.198
694.491	25.346
698.39	22.131
702.287	53.255
706.182	8.146
710.076	10.27
713.968	6.384
717.857	10.143
721.746	11.825
725.632	20.652
729.517	32.38
733.4	48.363
737.281	46.31
741.16	163.226
745.038	418.113
748.913	532.975
752.788	906.817
756.66	1043.64
760.531	445.449
764.399	224.246
768.267	186.955
772.132	239.634
775.996	258.418
779.857	492.207
783.718	1043.01
787.576	2275.83
791.433	2570.68
795.288	1601.56
799.141	1014.49
802.992	837.452
806.842	611.443
810.69	489.462
814.536	358.512
818.381	307.594
822.223	227.713
826.065	241.87
829.904	244.068
833.741	365.53
837.577	357.963
841.412	425.619
845.244	475.992
849.075	558.269
852.904	828.809
856.731	1165.45
860.556	1631.22
864.38	2485
868.202	4320.13
872.023	9332.46
875.842	25412.8
879.658	53671.9
883.474	29084.4
887.287	11037.9
891.099	5583.56
894.909	3782.39
898.718	4021.4
902.524	6627.62
906.329	12328
910.133	10182.6
913.934	5353.34
917.734	2972.29
921.532	1932.41
925.329	1403.72
929.124	974.224
932.917	717.897
936.708	570.763
940.498	454.801
944.286	345.033
948.072	395.452
951.857	285.029
955.64	293.766
959.421	331.66
963.201	545.707
966.979	1234.91
970.755	2678.26
974.529	2301.76
978.302	1149.42
982.073	493.235
985.843	188.21
989.611	113.365
993.377	19.748
997.141	1.406
1000.9	39.334
1004.66	12.488
1008.42	54.08
1012.18	1.575
1015.94	32.462
1019.69	196.587
1023.45	268.919
1027.2	103.445
1030.95	35.175
1034.69	92.125
1038.44	121.323
1042.18	307.216
1045.93	522.646
1049.67	922.366
1053.41	1822.37
1057.14	3266.06
1060.88	3383.24
1064.62	1803.52
1068.35	907.084
1072.08	456.841
1075.81	279.233
1079.54	205.809
1083.26	138.754
1086.99	126.073
1090.71	211.529
1094.43	259.857
1098.15	304.028
1101.87	432.278
1105.59	616.696
1109.3	806.634
1113.01	939.619
1116.72	1218.64
1120.43	1418.77
1124.14	1452.88
1127.85	1168.03
1131.55	835.268
1135.26	575.881
1138.96	393.269
1142.66	283.293
1146.36	177.409
1150.05	134.139
1153.75	95.19
1157.44	98.652
1161.13	69.673
1164.82	31.256
1168.51	5.651
1172.2	23.235
1175.88	30.776
1179.57	25.033
1183.25	37.584
1186.93	47.068
1190.61	5.229
1194.28	5.14
1197.96	25.233
1201.63	17.472
1205.31	0.986
1208.98	9.389
1212.64	40.593
1216.31	27.836
1219.98	34.973
1223.64	15.611
1227.31	22.691
1230.97	43.001
1234.62	14.934
1238.28	79.368
1241.94	80.586
1245.59	87.657
1249.25	60.595
1252.9	83.844
1256.55	47.193
1260.2	56.12
1263.84	70.844
1267.49	103.555
1271.13	126.094
1274.77	105.419
1278.41	140.171
1282.05	124.342
1285.69	70.339
1289.32	50.252
1292.96	68.031
1296.59	82.707
1300.22	96.291
1303.85	74.783
1307.48	95.176
1311.1	73.404
1314.72	75.501
1318.35	52.493
1321.97	84.357
1325.59	75.105
1329.21	57.682
1332.82	120.999
1336.44	96.918
1340.05	131.997
1343.66	118.533
1347.27	83.582
1350.88	72.482
1354.49	63.438
1358.09	37.108
1361.7	35.263
1365.3	95.107
1368.9	60.398
1372.5	32.444
1376.1	61.975
1379.69	61.825
1383.29	89.86
1386.88	29.077
1390.47	44.545
1394.06	12.711
1397.65	0.648
1401.23	43.418
1404.82	25.434
1408.4	93.62
1411.98	100.69
1415.56	88.99
1419.14	115.288
1422.72	79.1
1426.3	57.383
1429.87	40.619
1433.44	43.225
1437.01	56.798
1440.58	77.091
1444.15	138.917
1447.71	153.951
1451.28	206.575
1454.84	160.042
1458.4	174.323
1461.96	192.244
1465.52	96.303
1469.08	50.376
1472.64	55.661
1476.19	25.806
1479.74	51.024
1483.29	126.35
1486.84	41.558
1490.39	108.103
1493.94	131.85
1497.48	130.813
1501.02	99.57
1504.57	129.844
1508.11	91.56
1511.64	32.613
1515.18	6.778
1518.72	24.913
1522.25	12.853
