Measurement: Raman, 514 nm, ccw, Raman Data Processed
Mineral: Euclase
Rruff sample: R050032
Ideal chemistry: BeAlSiO_4_(OH)
Locality: Minas Gerais, Brazil
Source: University of Arizona Mineral Museum
Description: Colorless crystal fragments
Measured chemistry: Be_1.00_Al_1.00_Si_1.00_O_4_(OH)
Pin_id: L00259
Orientation: Laser parallel to a* (1 0 0). Fiducial mark perpendicular to laser is parallel to -b [0 -1 0]
Raman shift (cm-1)	intensity
51.274	0
55.47	105.238
59.664	289.314
63.855	221.994
68.045	5.462
72.233	90.224
76.418	361.59
80.602	332.632
84.784	436.006
88.964	431.936
93.142	469.399
97.318	401.988
101.492	305.015
105.664	388.092
109.834	451.704
114.002	404.306
118.168	291.508
122.332	241.618
126.495	117.013
130.655	132.73
134.813	124.921
138.97	329.584
143.124	1005.7
147.277	879.285
151.427	183.26
155.576	17.75
159.723	53.059
163.867	28.014
168.01	426.337
172.151	3594.76
176.29	12350
180.427	3428.36
184.562	433.537
188.696	98.421
192.827	660.013
196.956	2297.34
201.084	924.201
205.209	168.556
209.333	11.478
213.454	87.631
217.574	36.773
221.692	147.009
225.808	494.396
229.922	3203.77
234.034	9841
238.144	4829.96
242.252	1733.02
246.359	2567.36
250.463	8132.21
254.566	33334.3
258.666	36914.8
262.765	7650.1
266.862	2636.62
270.957	3110.89
275.05	4230.7
279.141	3719.8
283.23	12714.7
287.317	18292.1
291.403	4813.52
295.486	1723.75
299.568	735.056
303.647	462.666
307.725	409.6
311.801	338.591
315.875	306.828
319.947	261.309
324.018	162.684
328.086	279.119
332.153	579.106
336.217	1106.23
340.28	467.208
344.341	17.087
348.4	8.18
352.457	0.078
356.512	10.62
360.566	107.492
364.617	169.653
368.667	440.45
372.715	937.386
376.761	2316.22
380.805	3200.69
384.847	3074.79
388.887	7645.72
392.926	25664.5
396.962	17204
400.997	3913.36
405.03	1340.56
409.061	699.625
413.09	451.593
417.117	765.416
421.143	1725.09
425.166	1212.64
429.188	510.094
433.208	652.485
437.226	2899.83
441.242	13750.1
445.256	4620.43
449.269	2684.72
453.28	2935.04
457.288	3402.72
461.295	1835.04
465.3	699.26
469.304	385.565
473.305	193.539
477.305	124.853
481.303	69.059
485.298	94.678
489.293	230.325
493.285	151.484
497.275	94.668
501.264	260.791
505.251	672.5
509.236	965.046
513.219	387.626
517.2	65.348
521.18	59.245
525.157	3.675
529.133	73.275
533.107	224.973
537.079	938.706
541.05	2776.24
545.018	2150.64
548.985	822.511
552.95	422.58
556.913	522.666
560.875	911.655
564.834	1690.09
568.792	3770.28
572.748	4980.76
576.702	2662.06
580.654	1471.24
584.605	980.309
588.553	529.258
592.5	416.09
596.445	850.804
600.389	2074.4
604.33	1775.88
608.27	618.232
612.208	173.468
616.144	77.579
620.078	60.165
624.011	76.341
627.941	76.001
631.87	302.481
635.798	930.848
639.723	2056.94
643.647	1642.91
647.568	831.944
651.488	608.848
655.407	495.565
659.323	419.195
663.238	488.706
667.151	332.164
671.062	105.535
674.971	2.817
678.879	10.134
682.785	44.65
686.689	80.539
690.591	39.826
694.491	42.704
698.39	37.143
702.287	33.069
706.182	43.388
710.076	18.02
713.968	11.865
717.857	16.93
721.746	17.223
725.632	43.802
729.517	30.347
733.4	86.389
737.281	152.341
741.16	470.209
745.038	1082
748.913	916.712
752.788	799.357
756.66	833.976
760.531	526.462
764.399	153.932
768.267	87.355
772.132	34.208
775.996	17.63
779.857	2.687
783.718	32.767
787.576	129.972
791.433	272.165
795.288	235.351
799.141	190.537
802.992	165.728
806.842	134.926
810.69	58.138
814.536	67.369
818.381	113.624
822.223	18.908
826.065	24.223
829.904	26.408
833.741	122.231
837.577	166.276
841.412	222.793
845.244	222.107
849.075	312.893
852.904	415.771
856.731	624.947
860.556	966.878
864.38	1471.93
868.202	2456.82
872.023	4529.26
875.842	10702.6
879.658	21474.7
883.474	14405.3
887.287	7536.91
891.099	6150.7
894.909	6103.74
898.718	9483.03
902.524	19345.6
906.329	38418.4
910.133	37971.5
913.934	20274.9
917.734	10528.5
921.532	6122.34
925.329	4464.45
929.124	3647.2
932.917	2931.42
936.708	1965.37
940.498	1356.61
944.286	1017.09
948.072	832.835
951.857	756.827
955.64	696.074
959.421	671.561
963.201	748.292
966.979	1368.26
970.755	2769.47
974.529	4003.92
978.302	4745.61
982.073	2715.56
985.843	1211.82
989.611	574.465
993.377	361.514
997.141	309.029
1000.9	366.275
1004.66	483.416
1008.42	629.74
1012.18	845.67
1015.94	1377.82
1019.69	3137.67
1023.45	4304.79
1027.2	2723.64
1030.95	1633.24
1034.69	1177.09
1038.44	1120.98
1042.18	1436.18
1045.93	1945.18
1049.67	2988.15
1053.41	5380.08
1057.14	9846.81
1060.88	12545.2
1064.62	8314.83
1068.35	4355.84
1072.08	2542.35
1075.81	1585.12
1079.54	1061.27
1083.26	717.254
1086.99	461.826
1090.71	362.574
1094.43	293.065
1098.15	240.499
1101.87	314.699
1105.59	251.473
1109.3	223.422
1113.01	228.182
1116.72	275.08
1120.43	238.157
1124.14	307.101
1127.85	258.686
1131.55	191.772
1135.26	150.915
1138.96	35.191
1142.66	10.305
1146.36	40.293
1150.05	74.89
1153.75	34.676
1157.44	31.877
1161.13	15.042
1164.82	1.068
1168.51	26.337
1172.2	66.073
1175.88	5.503
1179.57	14.917
1183.25	31.376
1186.93	31.603
1190.61	6.875
1194.28	9.193
1197.96	61.053
1201.63	33.829
1205.31	23.865
1208.98	1.025
1212.64	32.665
1216.31	37.027
1219.98	36.31
1223.64	14.283
1227.31	17.404
1230.97	39.23
1234.62	63.033
1238.28	33.32
1241.94	44.394
1245.59	103.24
1249.25	75.601
1252.9	84.351
1256.55	51.902
1260.2	68.071
1263.84	63.59
1267.49	46.425
1271.13	115.179
1274.77	127.662
1278.41	172.12
1282.05	195.714
1285.69	93.691
1289.32	81.468
1292.96	68.924
1296.59	56.294
1300.22	102.922
1303.85	67.508
1307.48	153.234
1311.1	92.685
1314.72	105.986
1318.35	80.742
1321.97	57.886
1325.59	64.859
1329.21	62.665
1332.82	56.465
1336.44	58.028
1340.05	112.755
1343.66	133.195
1347.27	151.618
1350.88	108.227
1354.49	97.933
1358.09	75.244
1361.7	58.097
1365.3	86.436
1368.9	89.827
1372.5	126.564
1376.1	47.996
1379.69	69.945
1383.29	94.561
1386.88	137.457
1390.47	81.617
1394.06	37.986
1397.65	25.067
1401.23	55.299
1404.82	7.814
1408.4	66.926
1411.98	37.208
1415.56	75.875
1419.14	148.216
1422.72	103.779
1426.3	128.369
1429.87	92.657
1433.44	31.088
1437.01	23.686
1440.58	46.853
1444.15	62.01
1447.71	116.335
1451.28	140.857
1454.84	98.484
1458.4	163.561
1461.96	139.646
1465.52	121.123
1469.08	119.774
1472.64	108.353
1476.19	17.546
1479.74	40.124
1483.29	64.364
1486.84	33.036
1490.39	69.727
1493.94	59.935
1497.48	128.421
1501.02	91.195
1504.57	124.563
1508.11	77.13
1511.64	82.529
1515.18	57.085
1518.72	3.646
1522.25	25.773
1525.78	0
