Measurement: Raman, 514 nm, ccw, Raman Data Processed
Mineral: Euclase
Rruff sample: R050032
Ideal chemistry: BeAlSiO_4_(OH)
Locality: Minas Gerais, Brazil
Source: University of Arizona Mineral Museum
Description: Colorless crystal fragments
Measured chemistry: Be_1.00_Al_1.00_Si_1.00_O_4_(OH)
Pin_id: L00356
Orientation: Laser parallel to b* (0 1 0). Fiducial mark perpendicular to laser is parallel to c [0 0 1]
Raman shift (cm-1)	intensity
101.492	0
105.664	76.443
109.834	130.038
114.002	321.261
118.168	332.455
122.332	136.559
126.495	10.149
130.655	95.631
134.813	131.631
138.97	347.012
143.124	863.8
147.277	1043.52
151.427	171.296
155.576	264.201
159.723	269.298
163.867	251.45
168.01	175.718
172.151	118.574
176.29	314.159
180.427	634.846
184.562	94.142
188.696	57.958
192.827	2.536
196.956	40.17
201.084	0.548
205.209	18.928
209.333	35.632
213.454	86.006
217.574	36.615
221.692	48.95
225.808	155.503
229.922	901.739
234.034	13990.3
238.144	3945.56
242.252	676.699
246.359	678.925
250.463	1573.77
254.566	8222.44
258.666	20616.4
262.765	2836.11
266.862	744.173
270.957	308.32
275.05	337.072
279.141	585.115
283.23	2810.5
287.317	7663.88
291.403	1456.2
295.486	619.635
299.568	310.508
303.647	242.276
307.725	254.559
311.801	210.261
315.875	187.801
319.947	153.754
324.018	139.752
328.086	144.915
332.153	160.92
336.217	240.013
340.28	193.723
344.341	189.398
348.4	518.969
352.457	1736.1
356.512	561.113
360.566	286.801
364.617	215.971
368.667	212.411
372.715	360.271
376.761	1065.4
380.805	2162.08
384.847	983.488
388.887	1681.72
392.926	10717.9
396.962	7163.11
400.997	1118.69
405.03	432.995
409.061	219.206
413.09	158.33
417.117	143.375
421.143	321.36
425.166	312.244
429.188	241.968
433.208	465.878
437.226	1965.23
441.242	8893.35
445.256	4873.91
449.269	2958.03
453.28	2379.78
457.288	1371.24
461.295	681.78
465.3	308.956
469.304	174.5
473.305	129.4
477.305	77.983
481.303	81.152
485.298	13.899
489.293	2.065
493.285	65.812
497.275	117.409
501.264	194.954
505.251	563.029
509.236	1024.76
513.219	494.958
517.2	77.703
521.18	19.476
525.157	2.76
529.133	2.617
533.107	29.91
537.079	1.174
541.05	256.534
545.018	123.703
548.985	52.268
552.95	45.316
556.913	99.236
560.875	229.407
564.834	457.036
568.792	1486.12
572.748	4024.48
576.702	2042.88
580.654	2547.75
584.605	2490.94
588.553	885.698
592.5	563.229
596.445	935.597
600.389	2529.84
604.33	1935.93
608.27	550.893
612.208	233.719
616.144	202.414
620.078	203.993
624.011	173.478
627.941	152.797
631.87	172.486
635.798	302.538
639.723	569.438
643.647	1042.43
647.568	859.85
651.488	574.293
655.407	458.185
659.323	250.83
663.238	143.616
667.151	93.325
671.062	37.932
674.971	96.149
678.879	109.121
682.785	9.335
686.689	14.15
690.591	14.608
694.491	45.56
698.39	7.733
702.287	36.259
706.182	23.287
710.076	36.109
713.968	3.333
717.857	2.673
721.746	13.457
725.632	5.918
729.517	28.452
733.4	11.193
737.281	15.139
741.16	1.748
745.038	27.537
748.913	101.26
752.788	325.922
756.66	518.722
760.531	322.075
764.399	95.572
768.267	43.021
772.132	85.424
775.996	102.786
779.857	137.108
783.718	235.393
787.576	455.65
791.433	603.888
795.288	401.114
799.141	242.335
802.992	157.555
806.842	66.775
810.69	52.992
814.536	57.198
818.381	104.391
822.223	110.527
826.065	107.386
829.904	133.19
833.741	206.424
837.577	282.974
841.412	354.92
845.244	368.006
849.075	413.87
852.904	538.136
856.731	767.362
860.556	1127.58
864.38	1687.65
868.202	2626.5
872.023	4804.39
875.842	11686.7
879.658	31889.3
883.474	22920.9
887.287	8151.65
891.099	3887.79
894.909	2933.82
898.718	3683.24
902.524	7047.9
906.329	15478.7
910.133	15395.5
913.934	7532.49
917.734	3698.55
921.532	2228.71
925.329	1579.98
929.124	1177.36
932.917	913.836
936.708	678.424
940.498	506.12
944.286	390.926
948.072	345.843
951.857	343.871
955.64	288.011
959.421	222.265
963.201	201.633
966.979	225.115
970.755	506.743
974.529	584.458
978.302	335.315
982.073	138.816
985.843	100.247
989.611	112.654
993.377	123.016
997.141	176.878
1000.9	243.773
1004.66	271.963
1008.42	401.616
1012.18	629.582
1015.94	1292.19
1019.69	3143.89
1023.45	4298.28
1027.2	2550.75
1030.95	1483.16
1034.69	1109.66
1038.44	1054.83
1042.18	1247.56
1045.93	1745.81
1049.67	2882.9
1053.41	5238.62
1057.14	9544.87
1060.88	12717.8
1064.62	6112.28
1068.35	3015.88
1072.08	1746.46
1075.81	1117.41
1079.54	793.118
1083.26	512.926
1086.99	274.804
1090.71	197.762
1094.43	189.802
1098.15	180.88
1101.87	142.011
1105.59	151.197
1109.3	61.442
1113.01	65.778
1116.72	1.855
1120.43	11.547
1124.14	0.978
1127.85	32.498
1131.55	30.005
1135.26	27.526
1138.96	3.859
1142.66	31.374
1146.36	55.906
1150.05	58.552
1153.75	15.155
1157.44	27.952
1161.13	15.461
1164.82	13.29
1168.51	8.427
1172.2	3.124
1175.88	32.948
1179.57	40.262
1183.25	33.516
1186.93	35.974
1190.61	25.834
1194.28	65.541
1197.96	0.919
1201.63	18.483
1205.31	3.568
1208.98	17.038
1212.64	19.717
1216.31	80.086
1219.98	95.214
1223.64	49.691
1227.31	32.469
1230.97	45.857
1234.62	66.368
1238.28	43.344
1241.94	99.573
1245.59	124.419
1249.25	113.411
1252.9	86.229
1256.55	78.667
1260.2	82.498
1263.84	67.041
1267.49	75.369
1271.13	78.06
1274.77	111.805
1278.41	156.254
1282.05	120.944
1285.69	127.571
1289.32	70.317
1292.96	92.074
1296.59	40.035
1300.22	72.509
1303.85	36.946
1307.48	25.4
1311.1	62.229
1314.72	60.442
1318.35	59.864
1321.97	38.136
1325.59	35.449
1329.21	9.527
1332.82	30.956
1336.44	16.842
1340.05	58.267
1343.66	17.185
1347.27	65.607
1350.88	50.323
1354.49	84.41
1358.09	46.425
1361.7	53.354
1365.3	18.228
1368.9	63.717
1372.5	52.94
1376.1	25.635
1379.69	56.993
1383.29	36.744
1386.88	51.178
1390.47	86.44
1394.06	46.448
1397.65	28.273
1401.23	17.96
1404.82	27.402
1408.4	67.843
1411.98	42.179
1415.56	52.29
1419.14	86.072
1422.72	49.665
1426.3	87.883
1429.87	79.862
1433.44	108.275
1437.01	100.587
1440.58	88.339
1444.15	73.088
1447.71	80.263
1451.28	129.395
1454.84	148.698
1458.4	176.878
1461.96	150.439
1465.52	139.124
1469.08	105.385
1472.64	110.96
1476.19	33.177
1479.74	11.582
1483.29	68.38
1486.84	45.898
1490.39	54.663
1493.94	36.547
1497.48	81.823
1501.02	61.594
1504.57	69.54
1508.11	96.471
1511.64	133.285
1515.18	54.789
1518.72	49.696
1522.25	0
