Measurement: Raman, 514 nm, ccw, Raman Data Processed
Mineral: Euclase
Rruff sample: R050032
Ideal chemistry: BeAlSiO_4_(OH)
Locality: Minas Gerais, Brazil
Source: University of Arizona Mineral Museum
Description: Colorless crystal fragments
Measured chemistry: Be_1.00_Al_1.00_Si_1.00_O_4_(OH)
Pin_id: L00411
Orientation: Laser parallel to (-1 0 -1). Fiducial mark perpendicular to laser is parallel to -b [0 -1 0]
Raman shift (cm-1)	intensity
86.178	0
90.357	61.875
94.534	114.064
98.709	80.991
102.883	54.446
107.054	234.498
111.223	384.171
115.391	308.862
119.556	72.765
123.72	59.805
127.882	5.321
132.041	13.117
136.199	101.383
140.355	720.069
144.509	3105.98
148.66	2233.09
152.81	630.232
156.958	282.123
161.105	107.495
165.249	110.094
169.391	92.273
173.531	400.241
177.669	1315.8
181.806	1095.15
185.94	107.842
190.073	10.706
194.204	191.149
198.332	507.666
202.459	160.383
206.584	17.905
210.707	47.783
214.828	70.27
218.947	26.098
223.064	2.795
227.179	68.068
231.293	529.825
235.404	2074.07
239.514	886.329
243.621	812.176
247.727	1700.91
251.831	6283.27
255.933	28852.4
260.033	27918.4
264.131	5863.12
268.227	1755.77
272.321	1264.88
276.413	1625.59
280.504	4283.03
284.592	18095.8
288.679	20119.5
292.764	5022.73
296.847	1641.51
300.928	872.383
305.007	838.905
309.084	672.689
313.159	505.005
317.233	420.982
321.304	423.926
325.374	480.157
329.442	803.816
333.508	1483.55
337.572	3056.67
341.634	1213.02
345.694	339.414
349.753	237.042
353.809	337.477
357.864	270.215
361.916	262.758
365.967	366.765
370.016	530.536
374.064	950.393
378.109	2141.41
382.152	2780.98
386.194	2647.32
390.233	8827.56
394.271	29031.8
398.307	13818.7
402.341	3450.54
406.374	1252.36
410.404	702.152
414.433	594.852
418.459	1291.08
422.484	2936.85
426.507	1599.2
430.528	636.188
434.547	372.85
438.565	407.203
442.58	454.758
446.594	260.089
450.606	200.708
454.616	163.163
458.624	145.473
462.631	85.635
466.635	43.743
470.638	45.828
474.639	3.781
478.638	15.95
482.635	12.651
486.63	11.343
490.624	17.127
494.615	16.185
498.605	10.638
502.593	46.709
506.579	51.519
510.564	32.507
514.546	43.011
518.527	56.022
522.506	136.697
526.483	241.101
530.458	414.965
534.431	978.933
538.403	3239.69
542.373	8649.81
546.341	4362.28
550.307	1335.98
554.271	583.664
558.234	415.982
562.195	441.51
566.154	655.596
570.111	1659.46
574.066	2573.75
578.019	1752.64
581.971	2143.36
585.921	1520.91
589.869	696.313
593.815	651.557
597.76	1237.65
601.703	2708.59
605.644	1686.39
609.583	668.822
613.52	315.623
617.455	187.058
621.389	137.074
625.321	80.067
629.251	67.844
633.18	133.722
637.106	188.223
641.031	301.877
644.954	271.494
648.875	253.61
652.795	280.152
656.712	216.27
660.628	143.007
664.542	93.035
668.455	23.177
672.365	1.275
676.274	29.105
680.181	47.733
684.086	11.773
687.99	29.88
691.891	23.296
695.791	18.993
699.689	57.965
703.586	42.235
707.48	1.744
711.373	28.559
715.264	19.357
719.154	27.506
723.041	50.861
726.927	29.455
730.811	27.771
734.693	69.905
738.574	75.975
742.453	244.985
746.33	540.94
750.205	648.843
754.079	1268.7
757.95	1515.52
761.82	686.301
765.689	266.051
769.555	146.78
773.42	103.496
777.283	76.207
781.144	36.566
785.004	93.896
788.862	228.428
792.718	262.054
796.572	244.871
800.425	230.738
804.276	248.649
808.125	215.605
811.972	149.619
815.818	87.686
819.662	44.804
823.504	10.359
827.345	1.482
831.183	10.357
835.02	57.467
838.856	29.643
842.689	33.725
846.521	59.396
850.351	82.386
854.18	140.488
858.006	267.796
861.831	370.404
865.655	548.302
869.476	853.078
873.296	1448.9
877.114	3349.23
880.93	5419.53
884.745	3424.06
888.558	2801.9
892.369	3503.95
896.179	4839.18
899.987	9117.57
903.793	19953.2
907.597	35109
911.4	28455
915.201	14521.9
919.001	7051.5
922.798	4353
926.594	2761.67
930.388	1969.51
934.181	1364.52
937.972	968.707
941.761	775.065
945.548	736.591
949.334	611.293
953.118	535.165
956.901	547.198
960.681	698.395
964.46	1094.75
968.238	2367.28
972.013	4689.98
975.787	3708.71
979.56	1753.68
983.33	794.94
987.099	331.066
990.866	242.807
994.632	155.681
998.396	106.877
1002.16	115.336
1005.92	74.04
1009.68	110.012
1013.43	283.364
1017.19	503.592
1020.94	1133.68
1024.7	1096.81
1028.45	617.292
1032.19	403.661
1035.94	421.146
1039.69	566.911
1043.43	860.18
1047.17	1262.8
1050.91	2150.18
1054.65	4048.84
1058.39	7457.15
1062.13	7656.52
1065.86	4394.26
1069.59	2230.93
1073.32	1317.54
1077.05	742.702
1080.78	488.775
1084.5	303.684
1088.23	251.184
1091.95	251.656
1095.67	260.83
1099.39	299.061
1103.11	321.359
1106.82	345.654
1110.54	443.308
1114.25	498.99
1117.96	679.502
1121.67	757.015
1125.38	802.528
1129.08	624.146
1132.79	422.189
1136.49	259.949
1140.19	173.766
1143.89	133.807
1147.59	103.512
1151.28	88.399
1154.98	55.398
1158.67	6.462
1162.36	21.41
1166.05	42.437
1169.74	51.417
1173.43	0.904
1177.11	11.57
1180.79	21.721
1184.47	11
1188.15	25.121
1191.83	5.576
1195.51	28.863
1199.18	43.848
1202.86	7.548
1206.53	9.261
1210.2	202.75
1213.87	8.894
1217.54	3.599
1221.2	29.246
1224.86	12.724
1228.53	9.572
1232.19	11.187
1235.85	12.359
1239.5	18.748
1243.16	53.879
1246.81	33.808
1250.46	45.678
1254.12	23.52
1257.76	42.113
1261.41	30.657
1265.06	43.262
1268.7	94.521
1272.34	57.841
1275.99	35.896
1279.62	100.79
1283.26	40.549
1286.9	34.179
1290.53	57.669
1294.17	45.095
1297.8	78.352
1301.43	79.49
1305.06	78.346
1308.68	77.415
1312.31	88.139
1315.93	60.639
1319.56	63.553
1323.18	46.015
1326.8	8.801
1330.41	49.934
1334.03	79.283
1337.64	65.308
1341.26	44.386
1344.87	102.7
1348.47	55.994
1352.08	25.27
1355.69	9.774
1359.29	59.262
1362.9	39.122
1366.5	65.892
1370.1	51.411
1373.7	63.34
1377.29	36.451
1380.89	79.621
1384.48	61.146
1388.08	45.264
1391.67	33.695
1395.26	40.653
1398.84	51.959
1402.43	32.201
1406.01	78.595
1409.6	59.677
1413.18	83.72
1416.76	103.922
1420.34	53.418
1423.91	45.939
1427.49	36.103
1431.06	45.888
1434.63	23.105
1438.2	54.352
1441.77	38.797
1445.34	62.874
1448.9	77.044
1452.47	135.089
1456.03	76.669
1459.59	68.139
1463.15	74.408
1466.71	58.602
1470.27	48.395
1473.82	9.535
1477.37	44.07
1480.93	22.664
1484.48	35.47
1488.03	76.242
1491.57	73.28
1495.12	85.232
1498.66	71.675
1502.2	110.948
1505.75	43.78
1509.29	63.176
1512.82	2.518
1516.36	8.614
1519.89	24.116
1523.43	0.097
