Measurement: Raman, 514 nm, ccw, Raman Data Processed
Mineral: Euclase
Rruff sample: R050032
Ideal chemistry: BeAlSiO_4_(OH)
Locality: Minas Gerais, Brazil
Source: University of Arizona Mineral Museum
Description: Colorless crystal fragments
Measured chemistry: Be_1.00_Al_1.00_Si_1.00_O_4_(OH)
Pin_id: L00185
Orientation: Laser parallel to -c* (0 0 -1). Fiducial mark perpendicular to laser is parallel to a [1 0 0]
Raman shift (cm-1)	intensity
77.813	0
81.996	70.893
86.178	30.182
90.357	98.477
94.534	121.81
98.709	11.505
102.883	48.305
107.054	186.916
111.223	1076.3
115.391	579.41
119.556	141.206
123.72	68.313
127.882	5.17
132.041	1.528
136.199	212.331
140.355	1345.66
144.509	5587.01
148.66	1754.78
152.81	432.085
156.958	95.099
161.105	41.03
165.249	22.372
169.391	90.897
173.531	758.923
177.669	2191.05
181.806	597.24
185.94	40.885
190.073	46.708
194.204	412.236
198.332	739.115
202.459	62.822
206.584	15.127
210.707	36.757
214.828	21.519
218.947	10.139
223.064	62.041
227.179	219.856
231.293	1335.08
235.404	3045.03
239.514	1083.94
243.621	1326.08
247.727	2990.62
251.831	13395
255.933	56562.7
260.033	23837.4
264.131	4887.15
268.227	1942.3
272.321	1784.45
276.413	2397.4
280.504	8343.27
284.592	35830.3
288.679	18632.6
292.764	4429.11
296.847	1665.19
300.928	1026.27
305.007	1031.68
309.084	711.306
313.159	508.465
317.233	515.382
321.304	436.756
325.374	541.31
329.442	1129.98
333.508	2517.59
337.572	3965.67
341.634	892.622
345.694	225.823
349.753	274.441
353.809	264.27
357.864	236.414
361.916	233.462
365.967	435.49
370.016	674.911
374.064	1393.98
378.109	3661.55
382.152	3318.91
386.194	4286.12
390.233	17465.2
394.271	44448.8
398.307	11962.4
402.341	3129.03
406.374	1326.67
410.404	882.076
414.433	928.23
418.459	2328.17
422.484	3903.91
426.507	1579.47
430.528	682.894
434.547	447.194
438.565	703.365
442.58	791.4
446.594	309.32
450.606	363.168
454.616	233.986
458.624	227.821
462.631	122.628
466.635	81.398
470.638	24.313
474.639	11.994
478.638	11.668
482.635	4.457
486.63	9.645
490.624	9.34
494.615	12.389
498.605	7.56
502.593	53.098
506.579	27.563
510.564	8.87
514.546	73.962
518.527	143.627
522.506	202.452
526.483	296.674
530.458	672.619
534.431	1673.58
538.403	6190.75
542.373	11480.8
546.341	3952.82
550.307	1354.97
554.271	725.293
558.234	578.451
562.195	559.453
566.154	1030.09
570.111	2984.01
574.066	3172.26
578.019	2288.53
581.971	3003.2
585.921	1654.7
589.869	832.035
593.815	916.205
597.76	2059.21
601.703	3699.05
605.644	1761.73
609.583	660.249
613.52	374.605
617.455	181.799
621.389	165.663
625.321	144.647
629.251	117.05
633.18	156.278
637.106	245.957
641.031	310.528
644.954	288.941
648.875	345.853
652.795	395.699
656.712	204.776
660.628	168.022
664.542	196.267
668.455	76.604
672.365	6.158
676.274	5.737
680.181	18.137
684.086	19.133
687.99	15.869
691.891	56.218
695.791	85.92
699.689	69.067
703.586	10.685
707.48	4.345
711.373	40.9
715.264	33.47
719.154	52.272
723.041	14.346
726.927	1.633
730.811	0.918
734.693	31.343
738.574	136.688
742.453	400.964
746.33	718.176
750.205	951.331
754.079	1780.43
757.95	1726.49
761.82	683.518
765.689	313.508
769.555	125.473
773.42	65.418
777.283	19.351
781.144	73.229
785.004	191.766
788.862	349.598
792.718	251.596
796.572	266.644
800.425	367.753
804.276	453.933
808.125	355.171
811.972	185.481
815.818	66.87
819.662	37.328
823.504	24.784
827.345	33.681
831.183	63.235
835.02	16.791
838.856	3.83
842.689	30.118
846.521	114.925
850.351	171.345
854.18	244.902
858.006	353.135
861.831	477.548
865.655	787.094
869.476	1465.1
873.296	2678.64
877.114	6004.12
880.93	7550.71
884.745	4179.43
888.558	3970.12
892.369	5256.37
896.179	7837.87
899.987	14661.7
903.793	32245.8
907.597	49720.2
911.4	33174.9
915.201	16279.8
919.001	8715.09
922.798	5187.59
926.594	3273.37
930.388	2366.43
934.181	1715.77
937.972	1373.38
941.761	1084.23
945.548	904.356
949.334	755.729
953.118	652.351
956.901	713.218
960.681	1115.34
964.46	1795.71
968.238	3763.34
972.013	6387.21
975.787	4015.32
979.56	1834.67
983.33	913.364
987.099	484.307
990.866	286.611
994.632	121.251
998.396	72.24
1002.16	67.596
1005.92	106.359
1009.68	249.786
1013.43	452.293
1017.19	896.162
1020.94	1570.18
1024.7	1259.9
1028.45	698.866
1032.19	583.039
1035.94	674.791
1039.69	875.889
1043.43	1202.24
1047.17	1857.24
1050.91	3306.39
1054.65	6739.72
1058.39	12001.8
1062.13	9820.75
1065.86	5086.49
1069.59	2536.53
1073.32	1370.64
1077.05	835.128
1080.78	606.817
1084.5	447.254
1088.23	434.922
1091.95	385.219
1095.67	348.428
1099.39	398.244
1103.11	459.949
1106.82	585.649
1110.54	790.193
1114.25	1042.55
1117.96	1276.86
1121.67	1344.52
1125.38	1257.02
1129.08	947.58
1132.79	674.664
1136.49	493.5
1140.19	332.189
1143.89	260.83
1147.59	208.348
1151.28	116.092
1154.98	49.505
1158.67	9.689
1162.36	8.908
1166.05	16.255
1169.74	56.783
1173.43	40.547
1177.11	51.207
1180.79	32.305
1184.47	34.883
1188.15	32.711
1191.83	2.944
1195.51	50.059
1199.18	6.468
1202.86	21.518
1206.53	4.469
1210.2	2.833
1213.87	13.371
1217.54	13.104
1221.2	17.111
1224.86	8.144
1228.53	80.2
1232.19	51.716
1235.85	43.577
1239.5	45.685
1243.16	15.71
1246.81	22.632
1250.46	47.832
1254.12	19.459
1257.76	65.866
1261.41	104.347
1265.06	98.598
1268.7	116.569
1272.34	80.377
1275.99	44.096
1279.62	64.614
1283.26	73.891
1286.9	118.024
1290.53	113.153
1294.17	169.081
1297.8	176.698
1301.43	114.157
1305.06	100.177
1308.68	66.058
1312.31	53.157
1315.93	80.046
1319.56	105.521
1323.18	118.725
1326.8	123.292
1330.41	97.622
1334.03	127.959
1337.64	117.644
1341.26	54.203
1344.87	73.9
1348.47	52.369
1352.08	52.557
1355.69	99.712
1359.29	97.914
1362.9	108.54
1366.5	156.769
1370.1	155.571
1373.7	66.719
1377.29	9.99
1380.89	61.785
1384.48	2.755
1388.08	51.555
1391.67	58.872
1395.26	107.68
1398.84	88.952
1402.43	104.383
1406.01	101.29
1409.6	69.956
1413.18	65.305
1416.76	31.106
1420.34	30.604
1423.91	57.526
1427.49	84.974
1431.06	37.832
1434.63	84.254
1438.2	103.505
1441.77	123.292
1445.34	100.157
1448.9	94.659
1452.47	39.318
1456.03	66.972
1459.59	1.421
1463.15	50.728
1466.71	50.156
1470.27	61.114
1473.82	57.307
1477.37	134.668
1480.93	112.21
1484.48	108.675
1488.03	87.394
1491.57	43.605
1495.12	83.783
1498.66	57.419
1502.2	39.962
1505.75	11.102
1509.29	21.174
1512.82	61.841
1516.36	102.425
1519.89	102.607
