Measurement: Raman, 514 nm, ccw, Raman Data Processed
Mineral: Euclase
Rruff sample: R050032
Ideal chemistry: BeAlSiO_4_(OH)
Locality: Minas Gerais, Brazil
Source: University of Arizona Mineral Museum
Description: Colorless crystal fragments
Measured chemistry: Be_1.00_Al_1.00_Si_1.00_O_4_(OH)
Pin_id: L00356
Orientation: Laser parallel to b* (0 1 0). Fiducial mark perpendicular to laser is parallel to c [0 0 1]
Raman shift (cm-1)	intensity
93.142	0
97.318	193.124
101.492	29.052
105.664	19.973
109.834	378.767
114.002	357.458
118.168	267.93
122.332	5.38
126.495	27.688
130.655	140.481
134.813	173.062
138.97	211.565
143.124	554.441
147.277	929.062
151.427	214.446
155.576	263.821
159.723	136.223
163.867	79.194
168.01	110.938
172.151	129.739
176.29	493.023
180.427	1795.37
184.562	290.087
188.696	28.309
192.827	15.21
196.956	29.587
201.084	7.684
205.209	31.726
209.333	18.99
213.454	43.321
217.574	69.322
221.692	24.979
225.808	122.719
229.922	594.692
234.034	9211.27
238.144	2891.68
242.252	590.034
246.359	794.844
250.463	1970.42
254.566	10165
258.666	27994
262.765	3831.1
266.862	1040.76
270.957	487.621
275.05	392.482
279.141	594.844
283.23	2087.43
287.317	5697.73
291.403	1049.08
295.486	435.008
299.568	241.326
303.647	193.037
307.725	208.915
311.801	184.757
315.875	159.878
319.947	164.556
324.018	138.845
328.086	101.096
332.153	96.386
336.217	108.076
340.28	134.021
344.341	190.334
348.4	449.13
352.457	1630.13
356.512	548.399
360.566	318.568
364.617	248.52
368.667	373.481
372.715	819.373
376.761	2711.9
380.805	6462.38
384.847	1813.27
388.887	968.365
392.926	4769.78
396.962	3851.02
400.997	686.689
405.03	341.392
409.061	210.835
413.09	139.293
417.117	224.546
421.143	816.509
425.166	519.623
429.188	124.963
433.208	107.087
437.226	397.899
441.242	1548.49
445.256	1427.06
449.269	1754.74
453.28	2153.67
457.288	1335.58
461.295	688.464
465.3	331.458
469.304	221.961
473.305	162.807
477.305	142.942
481.303	117.955
485.298	64.711
489.293	98.165
493.285	169.851
497.275	235.453
501.264	383.488
505.251	887.562
509.236	1586.9
513.219	826.145
517.2	209.355
521.18	8.02
525.157	25.688
529.133	35.334
533.107	49.414
537.079	150.916
541.05	567.513
545.018	393.906
548.985	98.753
552.95	28.391
556.913	58.185
560.875	101.558
564.834	340.233
568.792	1152.46
572.748	3313.49
576.702	1644.15
580.654	1931.76
584.605	2053.2
588.553	603.604
592.5	238.217
596.445	265.066
600.389	435.968
604.33	346.742
608.27	95.388
612.208	30.901
616.144	17.277
620.078	55.549
624.011	72.737
627.941	66.849
631.87	109.523
635.798	130.779
639.723	293.895
643.647	734.572
647.568	606.668
651.488	260.079
655.407	195.6
659.323	84.331
663.238	50.009
667.151	19.648
671.062	0.965
674.971	46.241
678.879	19.621
682.785	11.659
686.689	31.373
690.591	35.484
694.491	47.836
698.39	4.961
702.287	57.368
706.182	58.681
710.076	17.013
713.968	17.64
717.857	12.399
721.746	14.984
725.632	294.236
729.517	50.424
733.4	45.558
737.281	134.628
741.16	131.634
745.038	277.586
748.913	561.5
752.788	1685.37
756.66	2787.86
760.531	1649.96
764.399	590.562
768.267	315.431
772.132	234.12
775.996	268.825
779.857	362.676
783.718	578.727
787.576	1154.04
791.433	1432.47
795.288	858.001
799.141	440.531
802.992	195.058
806.842	73.582
810.69	8.103
814.536	30.369
818.381	59.321
822.223	31.725
826.065	28.989
829.904	53.275
833.741	2.811
837.577	41.988
841.412	46.429
845.244	77.379
849.075	71.856
852.904	132.545
856.731	170.953
860.556	428.929
864.38	646.623
868.202	999.07
872.023	1941.18
875.842	4796.27
879.658	13505.3
883.474	10091.8
887.287	3598.28
891.099	1819.96
894.909	1439.75
898.718	1956.67
902.524	4074.72
906.329	9202.9
910.133	9430.2
913.934	4507.63
917.734	2100.21
921.532	1202.91
925.329	792.754
929.124	615.752
932.917	493.891
936.708	276.172
940.498	171.574
944.286	69.097
948.072	140.754
951.857	186.571
955.64	190.514
959.421	206.584
963.201	247.782
966.979	491.111
970.755	1233.57
974.529	1516.43
978.302	753.012
982.073	408.855
985.843	181.933
989.611	130.323
993.377	147.836
997.141	232.567
1000.9	347.239
1004.66	469.228
1008.42	612.696
1012.18	1022.03
1015.94	2118.37
1019.69	5515.42
1023.45	7712.6
1027.2	4657.57
1030.95	2593.19
1034.69	1833.51
1038.44	1543.92
1042.18	1713.94
1045.93	2288.78
1049.67	3603.61
1053.41	6394.2
1057.14	11602.9
1060.88	13128.6
1064.62	7411.8
1068.35	3661.96
1072.08	2153.43
1075.81	1486.69
1079.54	1053.64
1083.26	752.779
1086.99	490.871
1090.71	322.989
1094.43	281.064
1098.15	267.156
1101.87	241.887
1105.59	290.365
1109.3	198.005
1113.01	146.951
1116.72	92.272
1120.43	110.617
1124.14	161.057
1127.85	122.677
1131.55	139.977
1135.26	78.468
1138.96	28.651
1142.66	1.472
1146.36	22.688
1150.05	11.765
1153.75	1.767
1157.44	45.041
1161.13	42.001
1164.82	31.479
1168.51	19.932
1172.2	31.572
1175.88	3.142
1179.57	8.623
1183.25	24.852
1186.93	46.058
1190.61	52.578
1194.28	43.817
1197.96	0.491
1201.63	33.893
1205.31	5.817
1208.98	18.581
1212.64	24.876
1216.31	70.535
1219.98	53.643
1223.64	45.644
1227.31	0.289
1230.97	12.263
1234.62	24.513
1238.28	37.228
1241.94	31.809
1245.59	43.732
1249.25	58.065
1252.9	39.323
1256.55	44.51
1260.2	38.703
1263.84	36.715
1267.49	58.664
1271.13	71.517
1274.77	84.263
1278.41	106.914
1282.05	92.641
1285.69	83.93
1289.32	62.211
1292.96	22.699
1296.59	19.489
1300.22	29.025
1303.85	44.898
1307.48	79.01
1311.1	68.203
1314.72	103.793
1318.35	72.61
1321.97	48.045
1325.59	41.744
1329.21	18.238
1332.82	13.214
1336.44	20.068
1340.05	56.117
1343.66	84.871
1347.27	72.083
1350.88	91.617
1354.49	65.671
1358.09	4.573
1361.7	52.449
1365.3	48.051
1368.9	18.915
1372.5	41.232
1376.1	64.719
1379.69	54.964
1383.29	117.06
1386.88	67.092
1390.47	87.086
1394.06	46.654
1397.65	56.256
1401.23	19.4
1404.82	43.68
1408.4	82.528
1411.98	67.932
1415.56	100.21
1419.14	107.113
1422.72	78.206
1426.3	56.717
1429.87	78.677
1433.44	20.153
1437.01	30.547
1440.58	9.954
1444.15	48.539
1447.71	66.642
1451.28	106.593
1454.84	114.666
1458.4	142.87
1461.96	99.033
1465.52	131.845
1469.08	73.793
1472.64	78.741
1476.19	23.233
1479.74	29.822
1483.29	24.856
1486.84	42.179
1490.39	38.285
1493.94	74.401
1497.48	54.316
1501.02	82.495
1504.57	72.138
1508.11	65.293
1511.64	53.147
1515.18	59.679
1518.72	23.204
1522.25	0.399
