Measurement: Raman, 514 nm, ccw, Raman Data Processed
Mineral: Euclase
Rruff sample: R050032
Ideal chemistry: BeAlSiO_4_(OH)
Locality: Minas Gerais, Brazil
Source: University of Arizona Mineral Museum
Description: Colorless crystal fragments
Measured chemistry: Be_1.00_Al_1.00_Si_1.00_O_4_(OH)
Pin_id: L00356
Orientation: Laser parallel to b* (0 1 0). Fiducial mark perpendicular to laser is parallel to c [0 0 1]
Raman shift (cm-1)	intensity
90.357	0
94.534	204.197
98.709	162.793
102.883	16
107.054	195.092
111.223	289.04
115.391	279.837
119.556	351.327
123.72	147.842
127.882	203.486
132.041	321.368
136.199	406.581
140.355	662.316
144.509	1899.56
148.66	675.51
152.81	302.212
156.958	213.537
161.105	106.261
165.249	78.333
169.391	24.163
173.531	13.063
177.669	521.367
181.806	646.404
185.94	9.67
190.073	14.281
194.204	14.864
198.332	50.276
202.459	32.806
206.584	53.219
210.707	8.725
214.828	25.839
218.947	75.322
223.064	142.34
227.179	449.422
231.293	2670.75
235.404	19725.8
239.514	2388.16
243.621	838.04
247.727	1017.8
251.831	2763.43
255.933	21644.1
260.033	14818.7
264.131	2179.84
268.227	811.52
272.321	587.837
276.413	604.337
280.504	1186.16
284.592	7425.89
288.679	6507.27
292.764	1450.65
296.847	701.405
300.928	454.846
305.007	469.379
309.084	399.647
313.159	336.101
317.233	314.733
321.304	278.405
325.374	293.296
329.442	265.457
333.508	267.51
337.572	332.409
341.634	180.198
345.694	306.268
349.753	1022.8
353.809	1551.59
357.864	376.428
361.916	153.801
365.967	188.712
370.016	190.97
374.064	256.802
378.109	668.352
382.152	910.81
386.194	1028.11
390.233	3581.73
394.271	17876
398.307	4602.17
402.341	1091.86
406.374	516.537
410.404	267.232
414.433	122.938
418.459	235.565
422.484	356.608
426.507	226.062
430.528	359.996
434.547	981.224
438.565	5457.64
442.58	19038.3
446.594	3142.52
450.606	1932.48
454.616	1436.21
458.624	713.749
462.631	370.232
466.635	244.322
470.638	172.715
474.639	142.042
478.638	71.969
482.635	39.602
486.63	53.426
490.624	93.186
494.615	80.179
498.605	167.315
502.593	384.426
506.579	914.809
510.564	1067.82
514.546	401.251
518.527	125.954
522.506	59.767
526.483	35.022
530.458	41.572
534.431	10.112
538.403	63.374
542.373	234.033
546.341	50.634
550.307	30.404
554.271	37.099
558.234	150.849
562.195	185.864
566.154	398.626
570.111	1411.09
574.066	2200.91
578.019	1299.91
581.971	2161.28
585.921	1326.63
589.869	681.626
593.815	750.854
597.76	1546.01
601.703	3440.09
605.644	1541.11
609.583	528.057
613.52	262.94
617.455	195.76
621.389	143.525
625.321	132.249
629.251	187.94
633.18	256.26
637.106	326.1
641.031	741.85
644.954	1238.27
648.875	917.798
652.795	722.745
656.712	424.23
660.628	178.736
664.542	123.219
668.455	103.65
672.365	69.014
676.274	30.304
680.181	6.904
684.086	28.809
687.99	10.785
691.891	30.013
695.791	5.81
699.689	30.308
703.586	52.269
707.48	31.203
711.373	71.348
715.264	18.232
719.154	26.096
723.041	28.144
726.927	9.415
730.811	16.882
734.693	4.446
738.574	19.365
742.453	1.3
746.33	37.686
750.205	93.62
754.079	254.506
757.95	251.344
761.82	129.138
765.689	90.891
769.555	102.602
773.42	99.277
777.283	116.915
781.144	176.598
785.004	249.09
788.862	431.634
792.718	456.158
796.572	260.664
800.425	153.158
804.276	114.645
808.125	88.118
811.972	210.574
815.818	157.012
819.662	196.435
823.504	197.732
827.345	196.997
831.183	306.945
835.02	363.692
838.856	400.253
842.689	435.933
846.521	525.352
850.351	636.01
854.18	933.818
858.006	1206.83
861.831	1588.3
865.655	2243.08
869.476	4010.47
873.296	8454.87
877.114	23483.8
880.93	44444.3
884.745	19254.2
888.558	6994.38
892.369	4114.44
896.179	3998.85
899.987	5757.27
903.793	11372.8
907.597	20038.4
911.4	14484.2
915.201	7259
919.001	4019.92
922.798	2707.94
926.594	1812.05
930.388	1254.25
934.181	986.541
937.972	735.929
941.761	684.414
945.548	557.001
949.334	463.687
953.118	349.473
956.901	267.359
960.681	226.346
964.46	213.478
968.238	283.677
972.013	460.984
975.787	310.397
979.56	145.354
983.33	57.723
987.099	41.369
990.866	99.95
994.632	103.889
998.396	122.382
1002.16	112.902
1005.92	140.498
1009.68	233.249
1013.43	480.214
1017.19	1111.3
1020.94	2300.71
1024.7	2175.65
1028.45	1121.44
1032.19	764.35
1035.94	639.629
1039.69	780.71
1043.43	922.142
1047.17	1324.71
1050.91	2085.62
1054.65	3985.51
1058.39	7078.46
1062.13	6623.53
1065.86	3484.62
1069.59	1800.97
1073.32	985.365
1077.05	563.558
1080.78	379.944
1084.5	299.269
1088.23	151.677
1091.95	166.568
1095.67	145.163
1099.39	118.771
1103.11	73.467
1106.82	34.185
1110.54	26.946
1114.25	14.802
1117.96	24.444
1121.67	33.496
1125.38	32.418
1129.08	4.414
1132.79	20.321
1136.49	21.042
1140.19	27.189
1143.89	57.002
1147.59	3.73
1151.28	13.27
1154.98	8.117
1158.67	14.437
1162.36	34.491
1166.05	17.148
1169.74	7.85
1173.43	12.816
1177.11	22.527
1180.79	75.973
1184.47	8.738
1188.15	41.491
1191.83	55.831
1195.51	26.75
1199.18	0.571
1202.86	14.276
1206.53	81.491
1210.2	74.677
1213.87	9.917
1217.54	49.925
1221.2	32.881
1224.86	19.66
1228.53	52.677
1232.19	44.12
1235.85	84.353
1239.5	124.94
1243.16	79.542
1246.81	74.25
1250.46	50.779
1254.12	53.962
1257.76	79.119
1261.41	14.19
1265.06	93.046
1268.7	96.236
1272.34	137.897
1275.99	114.161
1279.62	62.273
1283.26	71.775
1286.9	28.95
1290.53	46.353
1294.17	98.938
1297.8	55.574
1301.43	61.254
1305.06	61.848
1308.68	27.38
1312.31	39.628
1315.93	64.225
1319.56	48.411
1323.18	32.239
1326.8	13.988
1330.41	59.632
1334.03	67.045
1337.64	67.346
1341.26	43.572
1344.87	21.834
1348.47	57.137
1352.08	28.885
1355.69	34.44
1359.29	35.695
1362.9	36.209
1366.5	77.681
1370.1	95.932
1373.7	24.222
1377.29	92.439
1380.89	35.438
1384.48	51.342
1388.08	26.228
1391.67	23.978
1395.26	43.64
1398.84	45.845
1402.43	118.63
1406.01	75.36
1409.6	125
1413.18	138.19
1416.76	141.085
1420.34	32.304
1423.91	34.474
1427.49	58.39
1431.06	60.24
1434.63	30.089
1438.2	107.583
1441.77	43.474
1445.34	133.983
1448.9	144.199
1452.47	128.146
1456.03	134.768
1459.59	94.612
1463.15	117.015
1466.71	42.724
1470.27	54.885
1473.82	70.152
1477.37	62.499
1480.93	114.313
1484.48	109.944
1488.03	118.466
1491.57	116.381
1495.12	77.387
1498.66	69.649
1502.2	52.166
1505.75	4.475
1509.29	9.527
1512.82	37.548
1516.36	0.591
1519.89	30.691
1523.43	4.09
