Measurement: Raman, 514 nm, ccw, Raman Data Processed
Mineral: Euclase
Rruff sample: R050032
Ideal chemistry: BeAlSiO_4_(OH)
Locality: Minas Gerais, Brazil
Source: University of Arizona Mineral Museum
Description: Colorless crystal fragments
Measured chemistry: Be_1.00_Al_1.00_Si_1.00_O_4_(OH)
Pin_id: L00185
Orientation: Laser parallel to -c* (0 0 -1). Fiducial mark perpendicular to laser is parallel to a [1 0 0]
Raman shift (cm-1)	intensity
79.208	0
83.39	44.006
87.571	69.112
91.749	219.861
95.926	108.083
100.101	103.531
104.273	109.821
108.444	441.727
112.613	2393.47
116.78	1104.84
120.944	260.103
125.107	228.723
129.268	211.61
133.427	128.711
137.584	248.593
141.74	1209.14
145.893	2649.18
150.044	596.452
154.193	277.489
158.341	50.731
162.486	12.668
166.63	15.897
170.771	187.036
174.911	1444.04
179.049	3777.43
183.184	507.945
187.318	185.844
191.45	946.645
195.58	4472.74
199.708	2836.83
203.834	468.996
207.958	47.896
212.081	55.021
216.201	70.358
220.32	31.401
224.436	199.024
228.551	1665.58
232.663	8682.94
236.774	5219.45
240.883	1171.82
244.99	1434.71
249.095	4104.1
253.198	21748.8
257.299	50864.9
261.399	12126.5
265.496	3072.46
269.592	1529.67
273.685	1590.2
277.777	2403.6
281.867	9995.34
285.955	25788.2
290.041	7263.37
294.125	2169.68
298.207	1216.37
302.288	2064.9
306.366	4449.51
310.443	1411.38
314.517	718.506
318.59	416.839
322.661	531.304
326.73	1781.71
330.797	4780.74
334.863	2297.33
338.926	1369.16
342.988	307.946
347.047	432.323
351.105	365.588
355.161	172.022
359.215	49.803
363.267	75.318
367.317	149.88
371.366	317.628
375.412	883.695
379.457	1999.76
383.5	1836.06
387.541	4086.58
391.58	18381.9
395.617	21585.3
399.652	4839.74
403.686	1471.24
407.717	770.741
411.747	484.779
415.775	566.262
419.801	1581.22
423.825	1826.7
427.848	835.764
431.868	547.468
435.887	1105.83
439.904	4618.86
443.918	2666.56
447.932	2737.99
451.943	2259.22
455.952	1612.31
459.96	1147.43
463.966	260.898
467.969	36.607
471.972	0.966
475.972	27.171
479.97	41.92
483.967	64.346
487.961	26.793
491.954	26.807
495.945	57.404
499.935	226.833
503.922	664.289
507.908	1350.12
511.891	1007.26
515.873	442.499
519.853	290.802
523.832	199.91
527.808	193.615
531.783	391.257
535.756	989.807
539.727	3888.46
543.696	4235.71
547.663	1421.99
551.629	658.695
555.592	546.506
559.554	695.741
563.514	1318.32
567.473	3677.22
571.429	9905.77
575.384	5853.72
579.337	4390.28
583.288	3983.59
587.237	1558.65
591.185	711.468
595.13	803.044
599.074	1891.38
603.016	2180.49
606.957	827.363
610.895	376.007
614.832	270.424
618.767	200.611
622.7	282.527
626.631	249.065
630.561	328.217
634.489	500.287
638.415	1240.88
642.339	2511.21
646.261	2468.93
650.182	1360.57
654.101	939.285
658.018	781.504
661.933	1148.39
665.847	864.124
669.758	304.692
673.668	99.098
677.577	71.36
681.483	43.455
685.388	53.179
689.29	110.875
693.192	51.219
697.091	15.165
700.988	17.738
704.884	65.969
708.778	47.822
712.67	6.153
716.561	3.932
720.45	38.189
724.337	30.926
728.222	3.016
732.105	100.787
735.987	281.439
739.867	757.98
743.745	1910.42
747.622	1917.76
751.496	1461.02
755.369	2105.19
759.241	1380.3
763.11	591.344
766.978	298.338
770.844	217.289
774.708	341.849
778.57	458.372
782.431	820.262
786.29	1847.18
790.147	2645.16
794.003	2292.22
797.857	2430.4
801.709	2980.71
805.559	2655.1
809.407	1629.56
813.254	959.086
817.099	704.669
820.943	472.312
824.784	405.024
828.624	239.537
832.462	226.595
836.299	275.459
840.134	331.64
843.967	425.482
847.798	586.259
851.628	593.008
855.455	890.479
859.281	1316.26
863.106	2121.14
866.929	3692.37
870.75	6930.67
874.569	16652.3
878.386	43057.3
882.202	38451.2
886.016	16666.5
889.829	11142.2
893.639	7998.18
897.448	7944.5
901.256	13491.2
905.061	29178.2
908.865	35515.7
912.667	19473.5
916.468	9531.77
920.267	5324.46
924.064	3392.53
927.859	2572.02
931.653	1854.89
935.445	1369.17
939.235	1020.84
943.024	656.876
946.811	510.265
950.596	466.024
954.379	601.151
958.161	644.636
961.941	831.507
965.72	1652.74
969.496	4018.31
973.272	5545.23
977.045	3652.5
980.817	1806.11
984.587	681.068
988.355	215.389
992.122	20.19
995.887	80.456
999.65	33.605
1003.41	8.245
1007.17	0.305
1010.93	39.209
1014.69	110.275
1018.44	535.825
1022.2	1470.88
1025.95	988.436
1029.7	385.479
1033.44	293.896
1037.19	308.639
1040.94	473.391
1044.68	876.303
1048.42	1758.14
1052.16	3607.29
1055.9	7313.28
1059.64	9943.15
1063.37	6155.96
1067.1	3008.95
1070.84	1582.31
1074.57	1012.88
1078.29	846.504
1082.02	750.345
1085.75	767.263
1089.47	695.184
1093.19	896.645
1096.91	1148.78
1100.63	1518.96
1104.35	2140.5
1108.06	2980.19
1111.78	3923.23
1115.49	4706.89
1119.2	5487.69
1122.91	5677.49
1126.61	5107.69
1130.32	3759.76
1134.02	2594.83
1137.72	1883.95
1141.42	1347.24
1145.12	940.469
1148.82	630.643
1152.52	474.858
1156.21	356.131
1159.9	402.73
1163.59	225.042
1167.28	197.735
1170.97	105.662
1174.65	53.895
1178.34	51.11
1182.02	56.406
1185.7	28.803
1189.38	58.006
1193.06	34.526
1196.73	30.487
1200.41	58.831
1204.08	51.717
1207.75	53.344
1211.42	84.243
1215.09	31.761
1218.76	78.019
1222.42	17.787
1226.08	45.201
1229.75	47.3
1233.41	18.265
1237.06	19.574
1240.72	0.334
1244.38	23.896
1248.03	18.092
1251.68	79.451
1255.33	137.344
1258.98	54.954
1262.63	80.829
1266.27	76.201
1269.92	30.058
1273.56	79.546
1277.2	135.385
1280.84	134.717
1284.47	126.635
1288.11	128.301
1291.74	67.604
1295.38	60.697
1299.01	43.547
1302.64	69.145
1306.27	17.513
1309.89	133.562
1313.52	214.28
1317.14	167.743
1320.76	157.938
1324.38	164.863
1328	90.531
1331.62	92.248
1335.23	95.395
1338.85	94.733
1342.46	122.199
1346.07	115.411
1349.68	171.085
1353.29	168.39
1356.89	160.981
1360.49	102.708
1364.1	103.982
1367.7	22.669
1371.3	87.281
1374.9	61.333
1378.49	36.806
1382.09	53.031
1385.68	115.425
1389.27	128.108
1392.86	141.728
1396.45	103.852
1400.04	97.408
1403.62	124.962
1407.21	27.962
1410.79	96.616
1414.37	83.512
1417.95	74.369
1421.53	148.715
1425.1	189.862
1428.68	179.102
1432.25	141.935
1435.82	155.816
1439.39	197.268
1442.96	191.989
1446.53	137.375
1450.09	173.858
1453.66	189.537
1457.22	203.542
1460.78	175.006
1464.34	267.449
1467.89	198.974
1471.45	148.659
1475.01	201.096
1478.56	149.047
1482.11	26.75
1485.66	76.458
1489.21	55.19
1492.75	54.731
1496.3	15.549
1499.84	143.872
1503.38	142.025
1506.93	94.054
1510.46	81.294
1514	157.229
1517.54	138.727
1521.07	72.619
1524.61	0
