Measurement: Raman, 514 nm, ccw, Raman Data Processed
Mineral: Euclase
Rruff sample: R050032
Ideal chemistry: BeAlSiO_4_(OH)
Locality: Minas Gerais, Brazil
Source: University of Arizona Mineral Museum
Description: Colorless crystal fragments
Measured chemistry: Be_1.00_Al_1.00_Si_1.00_O_4_(OH)
Pin_id: L00411
Orientation: Laser parallel to (-1 0 -1). Fiducial mark perpendicular to laser is parallel to -b [0 -1 0]
Raman shift (cm-1)	intensity
101.492	0
105.664	153.895
109.834	41.489
114.002	210.658
118.168	162.345
122.332	65.818
126.495	15.49
130.655	70.968
134.813	107.37
138.97	268.744
143.124	548.546
147.277	848.182
151.427	172.072
155.576	105.68
159.723	91.212
163.867	61.711
168.01	38.491
172.151	201.201
176.29	752.376
180.427	1074.98
184.562	230.224
188.696	48.83
192.827	91.375
196.956	366.185
201.084	271.789
205.209	16.442
209.333	45.922
213.454	33.889
217.574	17.281
221.692	33.979
225.808	224.359
229.922	1913.36
234.034	11108.4
238.144	7986
242.252	1663.88
246.359	945.225
250.463	2289.43
254.566	10658.6
258.666	23894.7
262.765	6599.56
266.862	1533.98
270.957	665.751
275.05	647.71
279.141	994.678
283.23	4274.21
287.317	10309.6
291.403	3302.54
295.486	982.511
299.568	422.821
303.647	284.105
307.725	295.266
311.801	156.914
315.875	104.716
319.947	64.562
324.018	25.59
328.086	84.101
332.153	157.764
336.217	153.574
340.28	66.118
344.341	80.66
348.4	545.085
352.457	1937.89
356.512	759.154
360.566	179.332
364.617	50.21
368.667	34.576
372.715	33.538
376.761	206.381
380.805	585.035
384.847	801.977
388.887	2427.03
392.926	10734.5
396.962	11800.1
400.997	2778.3
405.03	758.39
409.061	369.483
413.09	167.542
417.117	95.552
421.143	116.502
425.166	204.385
429.188	281.158
433.208	621.543
437.226	2814.62
441.242	14662.4
445.256	7794.01
449.269	1709.4
453.28	567.644
457.288	237.767
461.295	88.761
465.3	49.505
469.304	18.244
473.305	11.426
477.305	10.73
481.303	4.414
485.298	17.411
489.293	4.831
493.285	14.755
497.275	63.556
501.264	220.746
505.251	596.351
509.236	1027.66
513.219	703.513
517.2	258.663
521.18	73.155
525.157	65.485
529.133	37.827
533.107	45.879
537.079	90.639
541.05	211.456
545.018	203.049
548.985	74.581
552.95	74.003
556.913	86.614
560.875	120.544
564.834	268.28
568.792	546.254
572.748	1022.17
576.702	1171.19
580.654	2140.84
584.605	2670.84
588.553	1130.74
592.5	648.54
596.445	923.247
600.389	2204.86
604.33	2264.39
608.27	854.832
612.208	317.188
616.144	165.459
620.078	139.525
624.011	128.916
627.941	127.834
631.87	203.35
635.798	360.192
639.723	795.426
643.647	1598.81
647.568	1584.91
651.488	983.626
655.407	701.814
659.323	365.448
663.238	161.039
667.151	78.577
671.062	42.047
674.971	36.442
678.879	38.71
682.785	26.845
686.689	5.554
690.591	8.299
694.491	44.707
698.39	11.091
702.287	15.685
706.182	28.635
710.076	3.973
713.968	16.645
717.857	20.582
721.746	17.812
725.632	10.348
729.517	22.425
733.4	41.438
737.281	87.72
741.16	169.317
745.038	370.183
748.913	360.002
752.788	252.777
756.66	261.511
760.531	161.205
764.399	130.862
768.267	110.484
772.132	120.074
775.996	93.634
779.857	119.172
783.718	114.688
787.576	155.205
791.433	155.727
795.288	220.255
799.141	258.793
802.992	381.34
806.842	380.888
810.69	298.432
814.536	275.967
818.381	254.492
822.223	278.009
826.065	300.36
829.904	323.53
833.741	363.145
837.577	414.219
841.412	509.761
845.244	615.462
849.075	700.108
852.904	931.734
856.731	1180.61
860.556	1590.28
864.38	2419.85
868.202	4032.87
872.023	7622.04
875.842	17888.8
879.658	44124.6
883.474	37291
887.287	14887.8
891.099	7280.88
894.909	4831.98
898.718	4709.15
902.524	7511.41
906.329	15343.8
910.133	18041.2
913.934	10498.7
917.734	5445.31
921.532	3177.99
925.329	2135.76
929.124	1535.61
932.917	1228.53
936.708	931.538
940.498	719.667
944.286	581.9
948.072	507.209
951.857	418.59
955.64	320.046
959.421	258.575
963.201	221.179
966.979	191.861
970.755	209.626
974.529	205.472
978.302	245.397
982.073	167.404
985.843	120.503
989.611	4.689
993.377	2.98
997.141	31.583
1000.9	25.989
1004.66	6.706
1008.42	15.439
1012.18	7.573
1015.94	71.803
1019.69	123.053
1023.45	243.511
1027.2	76.118
1030.95	36.553
1034.69	62.476
1038.44	24.917
1042.18	42.102
1045.93	48.225
1049.67	112.157
1053.41	226.26
1057.14	500.567
1060.88	615.616
1064.62	422.103
1068.35	195.903
1072.08	99.167
1075.81	70.417
1079.54	64.139
1083.26	31.822
1086.99	54.166
1090.71	83.73
1094.43	72.73
1098.15	107.491
1101.87	160.268
1105.59	258.083
1109.3	380.932
1113.01	453.826
1116.72	564.384
1120.43	651.666
1124.14	653.823
1127.85	589.101
1131.55	421.338
1135.26	373.575
1138.96	217.579
1142.66	152.681
1146.36	103.73
1150.05	51.979
1153.75	58.926
1157.44	23.594
1161.13	50.626
1164.82	7.177
1168.51	44.566
1172.2	22.461
1175.88	11.982
1179.57	7.462
1183.25	35.536
1186.93	20.392
1190.61	26.419
1194.28	4.373
1197.96	9.85
1201.63	11.933
1205.31	18.368
1208.98	6.161
1212.64	17.058
1216.31	5.762
1219.98	5.464
1223.64	11.256
1227.31	7.86
1230.97	2.012
1234.62	20.879
1238.28	5.813
1241.94	22.618
1245.59	41.451
1249.25	33.258
1252.9	24.283
1256.55	41.677
1260.2	30.255
1263.84	42.965
1267.49	12.644
1271.13	16.087
1274.77	38.433
1278.41	43.641
1282.05	56.791
1285.69	67.938
1289.32	77.908
1292.96	23.802
1296.59	31.661
1300.22	21.484
1303.85	28.206
1307.48	18.546
1311.1	39.458
1314.72	32.997
1318.35	16.439
1321.97	44.174
1325.59	42.464
1329.21	62.561
1332.82	46.829
1336.44	18.032
1340.05	32.935
1343.66	39.265
1347.27	31.754
1350.88	55.456
1354.49	53.885
1358.09	41.117
1361.7	64.116
1365.3	59.987
1368.9	38.555
1372.5	48.991
1376.1	29.127
1379.69	23.355
1383.29	45.842
1386.88	18.149
1390.47	70.362
1394.06	22.736
1397.65	41.098
1401.23	44.33
1404.82	9.831
1408.4	1.976
1411.98	9.701
1415.56	26.492
1419.14	40.454
1422.72	91.425
1426.3	34.365
1429.87	49.858
1433.44	46.27
1437.01	24.434
1440.58	16.439
1444.15	46.169
1447.71	30.924
1451.28	53.301
1454.84	19.394
1458.4	67.659
1461.96	6.856
1465.52	78.727
1469.08	78.252
1472.64	32.505
1476.19	69.715
1479.74	42.42
1483.29	52.932
1486.84	34.702
1490.39	37.547
1493.94	29.238
1497.48	56.623
1501.02	43.197
1504.57	55.319
1508.11	72.343
1511.64	66.748
1515.18	59.311
1518.72	47.408
1522.25	0
