Measurement: Raman, 514 nm, ccw, Raman Data Processed
Mineral: Eudialyte
Rruff sample: R060206
Ideal chemistry: Na_15_Ca_6_Fe_3_Zr_3_Si(Si_25_O_73_)(O,OH,H_2_O)_3_(Cl,OH)_2_
Locality: Desourdy Quarry, Mont Saint-Hilaire, Rouville County, Quebec, Canada
Source: Royal Ontario Museum
Description: Yellowish-brown gemmy fragment
Measured chemistry: (Na_13.12_Ca_1.62_K_0.26_)_Σ=15_(Ca_4.47_Mn_1.00_Ce_0.32_La_0.21_)_Σ=6_(Fe_2.91_Mn_0.09_)_Σ=3_Zr_3.00_(Si_0.85_Nb_0.15_)_Σ=1_Si_25.00_O_73_((OH)_2.70_O_0.30_)_Σ=3_(Cl_1.20_(OH)_0.80_)_Σ=2_
Pin_id: M00202
Orientation: Laser parallel to -c* (0 0 -1). Fiducial mark perpendicular to laser is parallel to a [1 0 0]
Raman shift (cm-1)	intensity
116.903	0
121.827	27.2754
126.749	12.2578
131.668	1768.83
136.585	3634.34
141.5	4623.58
146.412	2781.78
151.321	1135.25
156.229	406.873
161.134	923.373
166.036	1779.98
170.936	2942.12
175.834	4741.28
180.729	8451.86
185.622	13893.2
190.512	20848.7
195.4	28029.1
200.286	33840.7
205.169	33725.7
210.049	28300.4
214.928	20338.5
219.803	13080.3
224.677	8117.83
229.548	4664.4
234.416	2702.28
239.282	848.789
244.146	125.941
249.007	443.299
253.866	218.576
258.722	672.303
263.576	1912.97
268.427	3705.6
273.276	5491.77
278.123	5926.74
282.967	6203.47
287.809	6905.34
292.648	7253.08
297.485	7455.96
302.319	7410.8
307.151	7086.49
311.98	6026.78
316.807	5242.84
321.631	5589.82
326.454	6676.97
331.273	8225.43
336.09	9011.24
340.905	8471.95
345.717	8205.22
350.527	8191.89
355.334	9001.08
360.139	8684.5
364.941	7820.43
369.741	7111.88
374.538	6759.22
379.333	7205.25
384.126	8815.28
388.916	10673.5
393.703	10648.6
398.488	9145.41
403.271	6837.44
408.051	5401.95
412.828	4657.16
417.603	4064.22
422.376	3244.09
427.146	2088.72
431.914	1358.89
436.679	1234.25
441.442	1330.8
446.202	763.682
450.96	298.703
455.715	110.351
460.467	257.228
465.218	289.17
469.965	283.231
474.711	249.08
479.454	563.337
484.194	497.798
488.932	541.298
493.667	282.505
498.4	1.85547
503.13	722.696
507.858	1643.5
512.583	2374.08
517.306	3728.61
522.026	5198.23
526.744	6602.08
531.459	7799.64
536.172	11096.9
540.882	14754.5
545.59	18032.4
550.295	25194.4
554.998	37161.4
559.698	42582.6
564.396	46414.1
569.091	44020.9
573.784	22273.2
578.474	10123.5
583.162	4900.95
587.847	2947.42
592.529	3282.55
597.209	4837.06
601.887	8264.19
606.562	11976.8
611.235	12817.8
615.905	10489.8
620.572	8591.64
625.237	8441.47
629.9	7726.17
634.56	4928.74
639.217	3002.31
643.872	1873.88
648.524	1350.43
653.174	1791.89
657.821	2127.2
662.466	2930.43
667.108	4187.63
671.748	5855.88
676.385	8471.2
681.02	11262.6
685.652	14251.1
690.281	18068.8
694.908	22259.6
699.533	27913.7
704.155	33995.1
708.774	35878.8
713.391	30280
718.005	25903.8
722.617	28203.2
727.226	35392.5
731.833	43411.9
736.437	50076.8
741.039	52608.9
745.638	50218.1
750.234	46433.3
754.828	45318.1
759.419	42265.9
764.008	37329.2
768.595	31672.9
773.178	25242.6
777.759	19542
782.338	15415.2
786.914	12163.5
791.488	9359.96
796.059	6951.38
800.627	5674.77
805.193	5387.09
809.756	6732.31
814.317	7838.41
818.875	8568.35
823.431	7427.11
827.984	5317.64
832.534	4002.91
837.082	2834.87
841.627	1924.46
846.17	540.644
850.71	0.355469
855.248	482.094
859.783	807.423
864.316	986.159
868.846	787.159
873.373	486.835
877.898	456.438
882.42	37.6338
886.94	571.269
891.457	1342.85
895.971	2013.4
900.483	2803.87
904.993	3624.18
909.5	4519.27
914.004	5736.1
918.505	7201.63
923.004	9740.93
927.501	12619.1
931.995	14963.4
936.486	15386
940.975	13401
945.461	11415.8
949.945	8982.31
954.426	6880.47
958.904	5991.13
963.38	5764.06
967.853	6172.85
972.324	6771.34
976.792	7645.46
981.258	8441.22
985.72	9717.01
990.181	11514.6
994.639	13812.7
999.094	15481
1003.55	15564.8
1008	15353.8
1012.44	15600.4
1016.89	13752.8
1021.33	12784.1
1025.77	11874.5
1030.21	11237.9
1034.64	10264
1039.07	9317.07
1043.5	8723.95
1047.93	8938.67
1052.35	10515.3
1056.78	13236.5
1061.19	17378.2
1065.61	25426.4
1070.02	29359.8
1074.43	27528.6
1078.84	23289.6
1083.25	19512.7
1087.65	17760.2
1092.05	17013.2
1096.45	15485.5
1100.85	12182
1105.24	8097.34
1109.63	5334.22
1114.02	3861.18
1118.4	3237.04
1122.78	2837.41
1127.16	2377.39
1131.54	1993.96
1135.92	1671.07
1140.29	1387.54
1144.66	992.192
1149.02	621.061
1153.39	361.246
1157.75	170.174
1162.11	139.61
1166.46	78.6221
1170.82	142.796
1175.17	175.853
1179.52	99.8272
1183.86	5.51856
1188.21	139.56
1192.55	72.9082
1196.89	18.0889
1201.22	329.562
1205.55	201.153
1209.88	279.707
1214.21	149.298
1218.54	153.106
1222.86	48.6475
1227.18	50.373
1231.5	71.8603
1235.81	153.683
1240.12	145.221
1244.43	227.918
1248.74	263.157
1253.04	238.018
1257.34	226.757
1261.64	384.612
1265.94	303.902
1270.23	391.565
1274.52	291.335
1278.81	402.779
1283.1	339.247
1287.38	289.548
1291.66	421.077
1295.94	443.616
1300.21	446.027
1304.48	481.799
1308.75	370.486
1313.02	550.706
1317.29	404.001
1321.55	503.866
1325.81	392.133
1330.06	335.083
1334.32	283.458
1338.57	239.924
1342.82	150.654
1347.06	150.97
1351.31	184.342
1355.55	227.297
1359.79	244.961
1364.02	238.594
1368.26	151.123
1372.49	190.179
1376.71	112.189
1380.94	113.654
1385.16	19.5068
1389.38	176.676
1393.6	138.686
1397.81	113.784
1402.02	41.3272
1406.23	52.1348
1410.44	132.203
1414.64	91.9238
1418.85	93.7891
1423.04	24.2871
1427.24	328.109
1431.43	197.382
1435.62	133.168
1439.81	291.149
1444	305.67
1448.18	292.313
1452.36	453.565
1456.54	448.039
1460.71	375.731
1464.89	509.698
1469.06	340.761
1473.22	429.672
1477.39	373.871
1481.55	448.188
1485.71	351.878
1489.86	268.132
1494.02	313.792
1498.17	224.732
1502.32	365.628
1506.46	338.979
1510.61	214.784
1514.75	348.419
1518.88	295.126
1523.02	333.729
1527.15	100.084
1531.28	201.622
1535.41	251.167
1539.53	50.2012
1543.66	58.6328
1547.78	77.2178
1551.89	209.465
1556.01	26.3896
1560.12	5.7207
1564.23	49.2871
1568.33	117.255
