Measurement: Raman, 514 nm, ccw, Raman Data Processed
Mineral: Eudialyte
Rruff sample: R050230
Ideal chemistry: Na_15_Ca_6_Fe_3_Zr_3_Si(Si_25_O_73_)(O,OH,H_2_O)_3_(Cl,OH)_2_
Locality: Kipawa alkaline complex, near Sheffield Lake, Villedieu Township, Temiscamingue County, Quebec, Canada
Source: Marcus Origlieri
Description: Massive aggregate of red crystals
Measured chemistry: (Na_14.50_K_0.35_Ca_0.15_)_Σ=15_Ca_6.00_(Fe_1.86_Mn_1.01_Mg_0.13_)_Σ=3_(Zr_2.91_Ti_0.09_)_3_(Si_0.94_Nb_0.06_)_Σ=1.00_(Si_25.00_O_73_)(OH)_1.10_(H_2_O)_1.90_)_Σ=3_(Cl_1.17_(OH)_0.83_)_Σ=2_
Pin_id: M00392
Orientation: Laser parallel to c* (0 0 1). Fiducial mark perpendicular to laser is parallel to -a [-1 0 0]
Raman shift (cm-1)	intensity
118.134	0
123.058	395.498
127.979	154.574
132.898	1052.43
137.814	2993.88
142.728	4469.81
147.639	2774.45
152.549	2638.73
157.455	3017.05
162.359	4363.27
167.261	3813.6
172.161	2545.86
177.058	2421.98
181.952	3227.23
186.845	6125.97
191.734	10399
196.622	14919.1
201.507	20109.5
206.389	23261
211.269	23891.9
216.147	21296
221.022	16386.7
225.895	10557.7
230.765	5711.19
235.633	2534.38
240.498	1524.72
245.361	2098.2
250.222	3147.8
255.08	4040.67
259.936	4554.93
264.789	4253.98
269.64	4802.67
274.488	5391.87
279.334	6440.95
284.178	7477.75
289.019	8680.83
293.857	9553.47
298.693	10881.3
303.527	11704.7
308.358	12836.4
313.187	14865.3
318.013	16733.6
322.837	16852.7
327.659	17322.1
332.478	20131.3
337.294	21833.7
342.108	18909.8
346.92	14729.6
351.729	11820.7
356.535	10718.8
361.34	9340.34
366.141	7645.62
370.94	6377.15
375.737	5302.42
380.531	4813.94
385.323	4898.47
390.113	5140.95
394.9	5642.35
399.684	5591.7
404.466	5323.98
409.245	4900.32
414.022	4499.05
418.797	3804.42
423.569	3228.97
428.338	2476.41
433.105	2141.56
437.87	1837.28
442.632	1317.43
447.391	828.675
452.149	522.702
456.903	171.095
461.655	543.959
466.405	787.86
471.152	1008.36
475.897	944.611
480.639	797.408
485.378	593.617
490.116	300.963
494.85	88.8682
499.582	745.165
504.312	1599.64
509.039	2516.97
513.764	3645.51
518.486	4547.31
523.206	5449.4
527.923	6409.83
532.638	8132.64
537.35	11593.9
542.059	16272.6
546.766	21051.8
551.471	27558.6
556.173	34092.2
560.873	36178.9
565.57	39222.7
570.264	39216.3
574.957	29469.8
579.646	17898.7
584.333	10950.6
589.018	8267.08
593.7	8488.8
598.379	10677
603.056	12368.4
607.73	12430.3
612.402	10761.8
617.072	8624.06
621.739	8006.26
626.403	8683.6
631.065	8465.05
635.724	7516.98
640.381	7205.79
645.035	7030.85
649.687	7509.35
654.336	9021.94
658.983	10602
663.627	13077.4
668.268	15273.1
672.907	17492.3
677.544	20172.7
682.178	21845.5
686.809	24225.3
691.438	25971.8
696.065	28421.5
700.688	30069.5
705.31	28695
709.929	24333
714.545	18851.1
719.158	16272.1
723.77	15928.7
728.378	17519.8
732.984	20324.4
737.588	22834.3
742.189	24053.8
746.787	23582.7
751.383	21607.3
755.976	19906.1
760.567	18043.9
765.155	16654
769.741	15176.5
774.324	13193.2
778.904	11720.4
783.482	10366.5
788.058	8595.05
792.631	6817.06
797.201	5226.47
801.769	3661.27
806.334	2890.45
810.897	2240.03
815.457	1980.99
820.014	1668.37
824.569	1329.15
829.122	835.185
833.671	421.229
838.219	128.206
842.763	119.481
847.306	245.596
851.845	440.816
856.382	722.115
860.917	672.43
865.448	799.05
869.978	698.31
874.505	634.824
879.029	610.131
883.55	697.901
888.069	374.37
892.586	172.825
897.1	1126.49
901.611	2148.94
906.12	3355.32
910.626	4468.75
915.129	6236.44
919.63	8178.58
924.129	9594.4
928.625	10191.1
933.118	9256.01
937.609	7398.27
942.097	6099.16
946.582	4976.93
951.065	4282.84
955.546	3952.15
960.023	3190.63
964.499	3154.3
968.971	2952.75
973.441	3182.4
977.909	3818.31
982.374	4591.49
986.836	5379.26
991.295	6038.24
995.753	6390.97
1000.21	6299.01
1004.66	5162.04
1009.11	4657.13
1013.55	3868.31
1018	3447.6
1022.44	3233.69
1026.88	3525.01
1031.32	4137.8
1035.75	4277.02
1040.18	5440.98
1044.61	6522
1049.04	7941.37
1053.46	10111.4
1057.88	13610.3
1062.3	19700.2
1066.71	23630.4
1071.13	22590.3
1075.54	23453.2
1079.94	26609.2
1084.35	29120.8
1088.75	30496.9
1093.15	30297.1
1097.55	27867.8
1101.94	24163.6
1106.34	21334.1
1110.73	18859.3
1115.11	16882.8
1119.5	15692.4
1123.88	15607.4
1128.26	15120.8
1132.63	12838.1
1137.01	8593
1141.38	4646.56
1145.75	2300.8
1150.12	2146.99
1154.48	3760.37
1158.84	5927.53
1163.2	9110.77
1167.55	11902.7
1171.91	13093.7
1176.26	12495.5
1180.61	10128.5
1184.95	8173.35
1189.29	6315.12
1193.63	5275.22
1197.97	3916.51
1202.31	2504.26
1206.64	1516.32
1210.97	931.6
1215.29	1312.42
1219.62	2303.35
1223.94	4060.03
1228.26	5492.52
1232.57	6795.73
1236.89	6879.13
1241.2	6471.88
1245.51	5494.85
1249.81	4677.26
1254.12	4516.25
1258.42	4780.73
1262.72	5433.18
1267.01	5689.75
1271.3	5004.71
1275.59	3949.76
1279.88	2804.78
1284.17	2218.82
1288.45	1462.57
1292.73	961.488
1297.01	454.106
1301.28	156.416
1305.55	27.1973
1309.82	33.166
1314.09	48.3281
1318.35	143.602
1322.61	133.43
1326.87	321.369
1331.13	286.961
1335.38	230.853
1339.63	255.295
1343.88	274.879
1348.12	280.096
1352.37	330.228
1356.61	250.58
1360.85	115.553
1365.08	131.631
1369.31	77.0469
1373.54	60.8477
1377.77	54.2617
1381.99	189.342
1386.22	63.6738
1390.43	69.8144
1394.65	109.481
1398.87	56.541
1403.08	278.769
1407.29	617.637
1411.49	838.84
1415.69	1305.2
1419.89	1416.34
1424.09	1960.43
1428.29	2936.48
1432.48	3520.27
1436.67	4108.52
1440.86	5063.43
1445.04	5815.48
1449.23	6431.01
1453.4	7552.4
1457.58	7966.05
1461.76	8346.19
1465.93	8402.28
1470.1	8080.07
1474.26	7809.28
1478.43	7770.17
1482.59	7053.87
1486.75	6914.29
1490.9	6846.19
1495.06	6927.06
1499.21	7110.38
1503.35	7318.99
1507.5	6871.46
1511.64	6890.48
1515.78	6697.06
1519.92	6240.39
1524.05	5648.41
1528.18	5172.51
1532.31	4113.56
1536.44	2989.5
1540.56	1918.91
1544.69	1337.87
1548.8	484.953
1552.92	40.8438
1557.03	151.586
1561.14	291.125
1565.25	291.148
1569.36	142.57
