Measurement: Raman, 514 nm, ccw, Raman Data Processed
Mineral: Eudialyte
Rruff sample: R060206
Ideal chemistry: Na_15_Ca_6_Fe_3_Zr_3_Si(Si_25_O_73_)(O,OH,H_2_O)_3_(Cl,OH)_2_
Locality: Desourdy Quarry, Mont Saint-Hilaire, Rouville County, Quebec, Canada
Source: Royal Ontario Museum
Description: Yellowish-brown gemmy fragment
Measured chemistry: (Na_13.12_Ca_1.62_K_0.26_)_Σ=15_(Ca_4.47_Mn_1.00_Ce_0.32_La_0.21_)_Σ=6_(Fe_2.91_Mn_0.09_)_Σ=3_Zr_3.00_(Si_0.85_Nb_0.15_)_Σ=1_Si_25.00_O_73_((OH)_2.70_O_0.30_)_Σ=3_(Cl_1.20_(OH)_0.80_)_Σ=2_
Pin_id: M00448
Orientation: Laser parallel to -a* (-1 0 0). Fiducial mark perpendicular to laser is parallel to c [0 0 1]
Raman shift (cm-1)	intensity
116.903	0
121.827	49.8799
126.749	813.229
131.668	2227.55
136.585	4128.38
141.5	5564.08
146.412	5346.39
151.321	2290.2
156.229	577.242
161.134	36.7607
166.036	24.7031
170.936	208.894
175.834	101.576
180.729	803.206
185.622	2107.2
190.512	3529.99
195.4	4893.32
200.286	5868.54
205.169	4418.05
210.049	3193.93
214.928	2203.26
219.803	1799.76
224.677	1260.63
229.548	374.059
234.416	417.879
239.282	562.866
244.146	219.695
249.007	85.3721
253.866	45.8994
258.722	522.219
263.576	1296.74
268.427	1532.14
273.276	2214.11
278.123	2981.04
282.967	3749.52
287.809	4488.19
292.648	4969.35
297.485	5352.49
302.319	5965.83
307.151	6292.62
311.98	6151.85
316.807	5570.01
321.631	5352.88
326.454	5637.48
331.273	6744.08
336.09	7701.04
340.905	7908.91
345.717	7881.89
350.527	7713.17
355.334	7058.43
360.139	6416.49
364.941	5516.81
369.741	4691.28
374.538	4404.88
379.333	4301.19
384.126	4753.1
388.916	5477.65
393.703	5405
398.488	4746.9
403.271	4041.39
408.051	3201.96
412.828	2618.28
417.603	1968.33
422.376	1212.11
427.146	538.594
431.914	42.5078
436.679	98.4775
441.442	357.572
446.202	78.0449
450.96	19.7871
455.715	76.4736
460.467	143.237
465.218	160.954
469.965	152.776
474.711	298.304
479.454	190.975
484.194	48.1191
488.932	445.756
493.667	754.54
498.4	1433.76
503.13	2290.88
507.858	2638.59
512.583	2431.99
517.306	2493.41
522.026	2864.31
526.744	2873.74
531.459	3087.71
536.172	3045.36
540.882	3325.77
545.59	4675.87
550.295	6764.65
554.998	10403.1
559.698	13156.3
564.396	16548.2
569.091	16077.5
573.784	8556.41
578.474	3613.45
583.162	1460.69
587.847	907.745
592.529	899.06
597.209	1374.04
601.887	2639.8
606.562	3977.73
611.235	4112.73
615.905	3223.01
620.572	2099.1
625.237	1745.23
629.9	1124.2
634.56	324.426
639.217	80.666
643.872	16.6465
648.524	90.0986
653.174	286.144
657.821	613.298
662.466	1422.39
667.108	2075.05
671.748	2367.48
676.385	3475.51
681.02	4875.56
685.652	6768.64
690.281	8142.78
694.908	9272.21
699.533	11304.3
704.155	14076.7
708.774	14626.4
713.391	11620.4
718.005	8245.02
722.617	7373.09
727.226	8423.18
731.833	9960.95
736.437	11662.8
741.039	12528.1
745.638	12150.1
750.234	10990.6
754.828	10124.7
759.419	9444.08
764.008	8079.55
768.595	6664.36
773.178	5430.26
777.759	4216.51
782.338	3086.59
786.914	2081.3
791.488	1638.47
796.059	1079.5
800.627	582.176
805.193	754.527
809.756	933.576
814.317	1049.35
818.875	1132.02
823.431	1034.66
827.984	1074.01
832.534	964.662
837.082	891.619
841.627	588.623
846.17	622.044
850.71	288.917
855.248	138.2
859.783	351.234
864.316	483.206
868.846	638.655
873.373	636.432
877.898	442.816
882.42	77.7666
886.94	648.083
891.457	1480.32
895.971	2760.54
900.483	4864.74
904.993	8036.97
909.5	16989.2
914.004	16442.6
918.505	13442.2
923.004	18991.2
927.501	25684.4
931.995	22273.9
936.486	25408.1
940.975	21864.4
945.461	31560.1
949.945	28338.2
954.426	15403.8
958.904	11661
963.38	9860.45
967.853	9017.83
972.324	8356.91
976.792	8527.56
981.258	8674.8
985.72	9086.66
990.181	10497
994.639	12570.5
999.094	13860.7
1003.55	13725.4
1008	13120.8
1012.44	12521
1016.89	12706.4
1021.33	12970.5
1025.77	13314
1030.21	13601.1
1034.64	12565.9
1039.07	10937.3
1043.5	9469.35
1047.93	8413.09
1052.35	8209.5
1056.78	9067.6
1061.19	11344.4
1065.61	15186.9
1070.02	18088.2
1074.43	17856
1078.84	15788.3
1083.25	13268
1087.65	11936.4
1092.05	11178.6
1096.45	10112.7
1100.85	7771.03
1105.24	5342.23
1109.63	3432.81
1114.02	2337.56
1118.4	1899.47
1122.78	1900.53
1127.16	1597.35
1131.54	1548.22
1135.92	1630.09
1140.29	1587.04
1144.66	1397.56
1149.02	1253.75
1153.39	1152.6
1157.75	1006.82
1162.11	924.036
1166.46	874.644
1170.82	930.256
1175.17	520.5
1179.52	501.445
1183.86	334.076
1188.21	135.191
1192.55	62.3184
1196.89	144.731
1201.22	217.688
1205.55	373.729
1209.88	202.42
1214.21	190.972
1218.54	148.691
1222.86	11.46
1227.18	157.661
1231.5	51.2744
1235.81	196.924
1240.12	368.396
1244.43	469.587
1248.74	720.376
1253.04	771.7
1257.34	898.494
1261.64	1002.68
1265.94	1175.18
1270.23	1326.89
1274.52	1279.73
1278.81	1026.05
1283.1	993.349
1287.38	1371.09
1291.66	1355.65
1295.94	1480.06
1300.21	1315.44
1304.48	1505.37
1308.75	1370.65
1313.02	1298.2
1317.29	1429.43
1321.55	1332.44
1325.81	1237.68
1330.06	1326.25
1334.32	1350.8
1338.57	1242.82
1342.82	1383.97
1347.06	1532.76
1351.31	2441.49
1355.55	4796.4
1359.79	8971.44
1364.02	6988.71
1368.26	3093.99
1372.49	1709.02
1376.71	1749
1380.94	1751.97
1385.16	1520.17
1389.38	2192.68
1393.6	4964.78
1397.81	4527.41
1402.02	1574.39
1406.23	121.965
1410.44	151.301
1414.64	288.888
1418.85	150.853
1423.04	867.592
1427.24	1186.37
1431.43	548.209
1435.62	579.237
1439.81	1204.54
1444	1780.84
1448.18	1780.04
1452.36	1365.05
1456.54	1504.78
1460.71	2140.17
1464.89	2101.65
1469.06	1602.66
1473.22	1596.97
1477.39	1531.12
1481.55	1427.97
1485.71	1309.93
1489.86	1224.1
1494.02	1048.82
1498.17	709.419
1502.32	763.697
1506.46	696.039
1510.61	526.247
1514.75	424.152
1518.88	389.357
1523.02	125.353
1527.15	166.709
1531.28	242.356
1535.41	186.904
1539.53	93.1074
1543.66	187.829
1547.78	206.632
1551.89	320.908
1556.01	343.732
1560.12	217.91
1564.23	278.861
1568.33	265.111
