Measurement: Raman, 514 nm, ccw, Raman Data Processed
Mineral: Eudialyte
Rruff sample: R060035
Ideal chemistry: Na_15_Ca_6_Fe_3_Zr_3_Si(Si_25_O_73_)(O,OH,H_2_O)_3_(Cl,OH)_2_
Locality: Chibini, Kola Peninsula, Russia
Source: University of Arizona Mineral Museum
Description: Deep pink coarsely crystalline
Measured chemistry: (Na_14.86_K_0.14_)_Σ=15_Ca_6.00_(Fe_1.52_Mn_1.48_)_Σ=3_(Zr_2.82_Ti_0.18_)_Σ=3_(Si_0.93_Nb_0.07_)_Σ=1_(Si_25.00_O_73_)((OH)_1.01_(H_2_O)_1.99_)_Σ=3_(Cl_1.65_(OH)_0.35_)_Σ=2_
Pin_id: M00150
Orientation: Laser parallel to c* (0 0 1). Fiducial mark perpendicular to laser is parallel to b [0 1 0]
Raman shift (cm-1)	intensity
118.134	0
123.058	414.609
127.979	15.6582
132.898	661.115
137.814	1767.97
142.728	1887
147.639	1541.15
152.549	858.047
157.455	324.328
162.359	483.951
167.261	450.053
172.161	708.16
177.058	1225
181.952	2339.72
186.845	4182.2
191.734	6778.97
196.622	8914.16
201.507	10354.2
206.389	10208.5
211.269	8511.88
216.147	6645.53
221.022	4503.77
225.895	2903.62
230.765	1524.87
235.633	618.547
240.498	57.6348
245.361	133.123
250.222	167.775
255.08	274.81
259.936	976.385
264.789	1271.63
269.64	1624.99
274.488	1713.61
279.334	1313.11
284.178	1536.4
289.019	1462.99
293.857	1655.45
298.693	1758.28
303.527	2354.92
308.358	2506.29
313.187	2533.4
318.013	2387.52
322.837	2595.54
327.659	2737.42
332.478	3081.51
337.294	3508.04
342.108	3713.92
346.92	3587.86
351.729	3782.24
356.535	3761.14
361.34	3034.09
366.141	2592.32
370.94	2220.78
375.737	1925.29
380.531	1443.77
385.323	1749.45
390.113	2212.66
394.9	2648.99
399.684	2571.25
404.466	1926.89
409.245	1300.69
414.022	1067.76
418.797	521.117
423.569	260.67
428.338	74.0644
433.105	116.102
437.87	315.883
442.632	817.65
447.391	1057.61
452.149	1215.76
456.903	872.106
461.655	185.627
466.405	103.781
471.152	391.197
475.897	364.08
480.639	178.938
485.378	59.8594
490.116	236.897
494.85	595.92
499.582	868.102
504.312	1215.54
509.039	1718.23
513.764	2116.2
518.486	1989.2
523.206	2258.99
527.923	2540.96
532.638	3556.78
537.35	5609.39
542.059	8894.03
546.766	12764.9
551.471	17827.3
556.173	23448.8
560.873	25330.4
565.57	25976.3
570.264	18471.6
574.957	9412.59
579.646	4788.5
584.333	3105.86
589.018	3286.29
593.7	3685.24
598.379	4939.61
603.056	5923.8
607.73	5735.62
612.402	5175.93
617.072	3728.51
621.739	2768.68
626.403	2908.8
631.065	2516.74
635.724	1698.2
640.381	778.932
645.035	608.42
649.687	503.648
654.336	808.619
658.983	910.324
663.627	1272.44
668.268	1860.74
672.907	2551.26
677.544	3622.36
682.178	4792.56
686.809	6635.33
691.438	8673.57
696.065	11647.8
700.688	13826.5
705.31	15040
709.929	13090.9
714.545	9181.14
719.158	5459.62
723.77	3493.12
728.378	3349.61
732.984	3920.8
737.588	5228.15
742.189	6517.63
746.787	6475.66
751.383	6019.03
755.976	5322.56
760.567	4795.95
765.155	4474.56
769.741	3979.58
774.324	3974.79
778.904	3795.1
783.482	3109.49
788.058	2407.93
792.631	1562.44
797.201	853.006
801.769	102.594
806.334	86.9473
810.897	146.652
815.457	18.5488
820.014	75.5938
824.569	114.459
829.122	65.3496
833.671	240.795
838.219	69.5762
842.763	152.744
847.306	39.8164
851.845	135.076
856.382	59.7871
860.917	7.87109
865.448	226.926
869.978	505.828
874.505	554.004
879.029	735.484
883.55	969.289
888.069	1069.43
892.586	1542.9
897.1	2284.69
901.611	2712.82
906.12	3844.3
910.626	4463.16
915.129	5468.43
919.63	5877.16
924.129	5955.53
928.625	5356.47
933.118	4295
937.609	3875.55
942.097	3322.31
946.582	3180
951.065	3307.18
955.546	2965.2
960.023	2582.24
964.499	2608.78
968.971	2120.71
973.441	2566.54
977.909	3106.66
982.374	3429.72
986.836	3997.8
991.295	4537.96
995.753	4883.85
1000.21	4555.87
1004.66	3848.37
1009.11	3312.8
1013.55	2500.72
1018	2430.12
1022.44	2475.09
1026.88	2112.7
1031.32	2297.1
1035.75	2436.35
1040.18	2873.27
1044.61	2897.71
1049.04	2674.77
1053.46	3219.17
1057.88	3765.4
1062.3	4649.6
1066.71	5903.41
1071.13	6599.01
1075.54	7234.34
1079.94	8238.84
1084.35	9505.05
1088.75	10505.7
1093.15	10548.2
1097.55	9521.59
1101.94	7185.48
1106.34	4900.27
1110.73	4068.28
1115.11	3178.57
1119.5	2471.03
1123.88	2628.66
1128.26	2610.92
1132.63	2011.11
1137.01	1782.47
1141.38	1407.57
1145.75	699.031
1150.12	562.602
1154.48	468.481
1158.84	515.434
1163.2	593.391
1167.55	739.367
1171.91	186.473
1176.26	149.879
1180.61	10.0508
1184.95	75.3438
1189.29	104.211
1193.63	111.215
1197.97	427.32
1202.31	29.4297
1206.64	122.746
1210.97	125.797
1215.29	2.35547
1219.62	310.539
1223.94	183.055
1228.26	319.762
1232.57	237.66
1236.89	109.559
1241.2	15.8555
1245.51	401.977
1249.81	30.1211
1254.12	152.793
1258.42	225.211
1262.72	370.172
1267.01	141.731
1271.3	273.191
1275.59	166.457
1279.88	311.211
1284.17	218.047
1288.45	99.8672
1292.73	228.219
1297.01	297.184
1301.28	285.219
1305.55	259.336
1309.82	405.172
1314.09	447.477
1318.35	159.68
1322.61	365.894
1326.87	432.121
1331.13	232.32
1335.38	439.117
1339.63	101.57
1343.88	143.785
1348.12	401.402
1352.37	173.934
1356.61	286.633
1360.85	106.762
1365.08	517.691
1369.31	239.801
1373.54	447.652
1377.77	357.938
1381.99	73.5117
1386.22	87.1797
1390.43	266.812
1394.65	219.523
1398.87	27.5977
1403.08	28.3438
1407.29	266.359
1411.49	227.094
1415.69	251.133
1419.89	318.098
1424.09	235.801
1428.29	359.379
1432.48	304.137
1436.67	476.539
1440.86	315.102
1445.04	649.414
1449.23	287.766
1453.4	253.113
1457.58	451.883
1461.76	351.586
1465.93	214.836
1470.1	553.961
1474.26	597.676
1478.43	213.809
1482.59	433.562
1486.75	398.652
1490.9	283.098
1495.06	560.797
1499.21	520.691
1503.35	233.324
1507.5	12.9219
1511.64	500.41
1515.78	505.156
1519.92	378.625
1524.05	97.4727
1528.18	269.438
1532.31	358.731
1536.44	341.141
1540.56	352.008
1544.69	600.707
1548.8	683.637
1552.92	1029.96
1557.03	386.82
1561.14	334.434
1565.25	631.207
1569.36	14.9922
