Measurement: Raman, 514 nm, ccw, Raman Data Processed
Mineral: Eudialyte
Rruff sample: R050230
Ideal chemistry: Na_15_Ca_6_Fe_3_Zr_3_Si(Si_25_O_73_)(O,OH,H_2_O)_3_(Cl,OH)_2_
Locality: Kipawa alkaline complex, near Sheffield Lake, Villedieu Township, Temiscamingue County, Quebec, Canada
Source: Marcus Origlieri
Description: Massive aggregate of red crystals
Measured chemistry: (Na_14.50_K_0.35_Ca_0.15_)_Σ=15_Ca_6.00_(Fe_1.86_Mn_1.01_Mg_0.13_)_Σ=3_(Zr_2.91_Ti_0.09_)_3_(Si_0.94_Nb_0.06_)_Σ=1.00_(Si_25.00_O_73_)(OH)_1.10_(H_2_O)_1.90_)_Σ=3_(Cl_1.17_(OH)_0.83_)_Σ=2_
Pin_id: M00176
Orientation: Laser parallel to a* (1 0 0). Fiducial mark perpendicular to laser is parallel to c [0 0 1]
Raman shift (cm-1)	intensity
118.134	0
123.058	309.541
127.979	1202.92
132.898	3211.42
137.814	5196.42
142.728	6212.65
147.639	5703.54
152.549	4001.95
157.455	2266.11
162.359	1563.86
167.261	728.08
172.161	400.519
177.058	52.4277
181.952	36.9375
186.845	434.701
191.734	521.826
196.622	763.514
201.507	888.951
206.389	759.943
211.269	972.146
216.147	741.727
221.022	781.744
225.895	163.072
230.765	100.027
235.633	142.065
240.498	76.7441
245.361	380.402
250.222	682.137
255.08	851.41
259.936	1703.94
264.789	2029.57
269.64	2618.94
274.488	3325.49
279.334	3920.37
284.178	4115.74
289.019	4039.54
293.857	3702.74
298.693	3346.01
303.527	2906.86
308.358	2712.39
313.187	2686.57
318.013	2927.52
322.837	3262.94
327.659	3678.72
332.478	4399.08
337.294	5006.79
342.108	5417.48
346.92	5192.24
351.729	5212.39
356.535	4861.8
361.34	4462.42
366.141	3846.8
370.94	2999.38
375.737	2564.84
380.531	2069.37
385.323	2193.57
390.113	2494.57
394.9	2648.42
399.684	2720.71
404.466	2733.44
409.245	2339.67
414.022	2117.89
418.797	1691.02
423.569	1431.93
428.338	1061.55
433.105	1151
437.87	497.777
442.632	184.21
447.391	149.934
452.149	110.798
456.903	222.734
461.655	101.577
466.405	267.123
471.152	477.84
475.897	232.438
480.639	20.501
485.378	107.569
490.116	101.215
494.85	1.12305
499.582	185.697
504.312	417.522
509.039	839.797
513.764	1098.69
518.486	1274.25
523.206	1648.71
527.923	1997.06
532.638	2324.14
537.35	2850.93
542.059	3845.47
546.766	5671.81
551.471	8632.12
556.173	12503.8
560.873	17022.2
565.57	20980.8
570.264	22576.8
574.957	17565.2
579.646	11195.2
584.333	7499.55
589.018	6339.17
593.7	6736
598.379	8272.89
603.056	9791.68
607.73	9758.82
612.402	8108.62
617.072	5812.77
621.739	3975.89
626.403	3353.9
631.065	2942.66
635.724	2709.2
640.381	2638.6
645.035	2734.21
649.687	3461.34
654.336	4104.28
658.983	5501.15
663.627	6726.92
668.268	8150.38
672.907	9649.53
677.544	11342.9
682.178	13291.5
686.809	14983.9
691.438	16928.1
696.065	18551
700.688	19916.9
705.31	19370.5
709.929	16139.8
714.545	11775.5
719.158	9138.74
723.77	7979.46
728.378	8126.53
732.984	8894.59
737.588	10036.9
742.189	10816.5
746.787	10589.2
751.383	9797.43
755.976	8840.84
760.567	7777.33
765.155	6866.91
769.741	6148.61
774.324	5331.15
778.904	4525.21
783.482	3773.57
788.058	3051.12
792.631	2516.81
797.201	2097.61
801.769	1726.53
806.334	1268.58
810.897	988.758
815.457	875.039
820.014	639.371
824.569	329.639
829.122	276.432
833.671	97.0234
838.219	113.455
842.763	11.0645
847.306	236.258
851.845	273.893
856.382	225.981
860.917	310.205
865.448	179.285
869.978	127.201
874.505	123.783
879.029	25.8965
883.55	259.853
888.069	217.332
892.586	246.641
897.1	98.6641
901.611	221.981
906.12	390.66
910.626	559.811
915.129	802.561
919.63	1186.04
924.129	1621.38
928.625	1865.71
933.118	1686.18
937.609	2104.92
942.097	2161.07
946.582	2560.08
951.065	2856.66
955.546	3475.04
960.023	3685.69
964.499	3989.4
968.971	4305.99
973.441	4335.25
977.909	4762.07
982.374	5151.31
986.836	5927.01
991.295	6761.53
995.753	7868.35
1000.21	8223.68
1004.66	8291.63
1009.11	7354.05
1013.55	5954.68
1018	5446.37
1022.44	5162.06
1026.88	5042.3
1031.32	5454.35
1035.75	5784.34
1040.18	6994.4
1044.61	8068.72
1049.04	9687.47
1053.46	11891.7
1057.88	14242.4
1062.3	17198.7
1066.71	19289.7
1071.13	19946.4
1075.54	21205.9
1079.94	22532.5
1084.35	23379.3
1088.75	22286.4
1093.15	18555.2
1097.55	13979.8
1101.94	9917.67
1106.34	6740.31
1110.73	5172.13
1115.11	4138.63
1119.5	3669.65
1123.88	3788.31
1128.26	3788.83
1132.63	3198.07
1137.01	2180.39
1141.38	1127.87
1145.75	148.125
1150.12	753.242
1154.48	1990.78
1158.84	3925.34
1163.2	6174.08
1167.55	8548.44
1171.91	10147.5
1176.26	10269.1
1180.61	10118.2
1184.95	9763.17
1189.29	9266.2
1193.63	8548.51
1197.97	7344.19
1202.31	5550.12
1206.64	3921.75
1210.97	2579.47
1215.29	1553.54
1219.62	789.799
1223.94	774
1228.26	598.889
1232.57	708.336
1236.89	743.856
1241.2	742.396
1245.51	432.565
1249.81	277.287
1254.12	416.32
1258.42	398.26
1262.72	711.867
1267.01	758.826
1271.3	706.949
1275.59	574.871
1279.88	310.731
1284.17	393.908
1288.45	213.15
1292.73	31.5723
1297.01	258.504
1301.28	153.672
1305.55	11.5332
1309.82	76.1387
1314.09	24.1035
1318.35	19.1055
1322.61	64.8828
1326.87	37.2246
1331.13	79.5957
1335.38	128.055
1339.63	161.994
1343.88	43.4824
1348.12	154.898
1352.37	24.793
1356.61	326.953
1360.85	212
1365.08	150.603
1369.31	50.252
1373.54	234.269
1377.77	9.74805
1381.99	42.9512
1386.22	252.19
1390.43	52.8027
1394.65	44.6504
1398.87	196.107
1403.08	187.756
1407.29	279.623
1411.49	540.359
1415.69	812.631
1419.89	996.947
1424.09	1198.12
1428.29	1503.45
1432.48	2247.57
1436.67	2671.31
1440.86	3259.18
1445.04	3883.31
1449.23	4575.52
1453.4	5174.13
1457.58	5677.49
1461.76	6018.48
1465.93	5980.82
1470.1	6151.24
1474.26	6087.32
1478.43	6036.16
1482.59	5316.18
1486.75	5484.92
1490.9	5175.51
1495.06	5446
1499.21	5815.63
1503.35	5715.93
1507.5	6019.32
1511.64	6530.97
1515.78	6148.67
1519.92	5989.57
1524.05	5652.07
1528.18	5064.75
1532.31	4226.62
1536.44	3525.16
1540.56	2423.99
1544.69	1621.38
1548.8	993.977
1552.92	417.477
1557.03	116.055
1561.14	80.9453
1565.25	490.199
1569.36	255.531
