Measurement: Raman, 514 nm, ccw, Raman Data Processed
Mineral: Eudialyte
Rruff sample: R050230
Ideal chemistry: Na_15_Ca_6_Fe_3_Zr_3_Si(Si_25_O_73_)(O,OH,H_2_O)_3_(Cl,OH)_2_
Locality: Kipawa alkaline complex, near Sheffield Lake, Villedieu Township, Temiscamingue County, Quebec, Canada
Source: Marcus Origlieri
Description: Massive aggregate of red crystals
Measured chemistry: (Na_14.50_K_0.35_Ca_0.15_)_Σ=15_Ca_6.00_(Fe_1.86_Mn_1.01_Mg_0.13_)_Σ=3_(Zr_2.91_Ti_0.09_)_3_(Si_0.94_Nb_0.06_)_Σ=1.00_(Si_25.00_O_73_)(OH)_1.10_(H_2_O)_1.90_)_Σ=3_(Cl_1.17_(OH)_0.83_)_Σ=2_
Pin_id: M00392
Orientation: Laser parallel to c* (0 0 1). Fiducial mark perpendicular to laser is parallel to -a [-1 0 0]
Raman shift (cm-1)	intensity
118.134	0
123.058	673.67
127.979	14.832
132.898	526.484
137.814	2447.22
142.728	2792.4
147.639	2989.25
152.549	3108.78
157.455	4280.67
162.359	5138.68
167.261	4396.32
172.161	2616.46
177.058	1821.91
181.952	2765.73
186.845	5676.29
191.734	9459.56
196.622	13896.5
201.507	18997.5
206.389	21868.4
211.269	21667.1
216.147	19014.1
221.022	13890.3
225.895	8647.79
230.765	4002.17
235.633	1595.51
240.498	889.889
245.361	1931.15
250.222	3449.29
255.08	4361.22
259.936	5603.81
264.789	5000.16
269.64	5698.21
274.488	6482.03
279.334	7571.38
284.178	8710.1
289.019	9957.22
293.857	10933.8
298.693	12149.3
303.527	13159.8
308.358	14475.6
313.187	16481.4
318.013	18804.4
322.837	18814.9
327.659	19480
332.478	22534
337.294	23914.2
342.108	20262.6
346.92	15164.3
351.729	12324.3
356.535	10946
361.34	9879.17
366.141	8143.95
370.94	6674.81
375.737	5522.6
380.531	5048.85
385.323	5279.39
390.113	5754.17
394.9	6243.23
399.684	5963.56
404.466	5635.21
409.245	5309.27
414.022	4549.73
418.797	3861.94
423.569	3129.65
428.338	2486.49
433.105	2286.31
437.87	1780.94
442.632	1380.06
447.391	954.317
452.149	610.438
456.903	44.9668
461.655	618.208
466.405	890.831
471.152	1055.7
475.897	824.783
480.639	665.305
485.378	649.038
490.116	203.192
494.85	254.544
499.582	1126.05
504.312	1968.37
509.039	2897.14
513.764	3892.79
518.486	4622.16
523.206	5468.52
527.923	6153.85
532.638	8076.2
537.35	11797.6
542.059	15765.2
546.766	20674.9
551.471	27336.9
556.173	33025.4
560.873	33983.8
565.57	38335.8
570.264	36890.3
574.957	25906.3
579.646	15777.1
584.333	9741.19
589.018	7690.66
593.7	8183.35
598.379	10213.7
603.056	12181.4
607.73	12020
612.402	9911.19
617.072	8117.41
621.739	7770.94
626.403	8305.66
631.065	8083.31
635.724	7277.23
640.381	7005.64
645.035	7285.28
649.687	7963
654.336	9526.71
658.983	11340.2
663.627	13771.9
668.268	16013.4
672.907	18171.1
677.544	20706.8
682.178	22874.1
686.809	24677.1
691.438	26618.6
696.065	29086.1
700.688	30522.8
705.31	29283
709.929	24107.7
714.545	19487.9
719.158	16951
723.77	17008.5
728.378	18799.1
732.984	21266.6
737.588	23197.3
742.189	24761.8
746.787	24166.2
751.383	22458.1
755.976	20383.3
760.567	18830.4
765.155	17425.4
769.741	15687.3
774.324	14136.2
778.904	12942.1
783.482	11522.5
788.058	9687.93
792.631	7700.41
797.201	5695.89
801.769	4221.36
806.334	3509.82
810.897	2696.26
815.457	2126.69
820.014	1692.14
824.569	1295.56
829.122	977.8
833.671	526.516
838.219	205.977
842.763	175.426
847.306	340.629
851.845	599.455
856.382	615.314
860.917	750.054
865.448	913.218
869.978	897.804
874.505	852.874
879.029	664.394
883.55	598.452
888.069	399.696
892.586	356.853
897.1	1151.27
901.611	1876.17
906.12	3087.5
910.626	3981.99
915.129	5591.3
919.63	7330.84
924.129	8474.85
928.625	8743.57
933.118	7717.25
937.609	6069.17
942.097	4718.57
946.582	3591.75
951.065	2868.97
955.546	2313.3
960.023	1877.1
964.499	1869.9
968.971	1866.02
973.441	2359
977.909	2716.67
982.374	3684.27
986.836	4201.16
991.295	4939.52
995.753	5263.53
1000.21	5024.72
1004.66	4400.84
1009.11	3457.05
1013.55	2936.88
1018	2759.24
1022.44	2814.08
1026.88	3202.64
1031.32	3631.8
1035.75	4604.87
1040.18	5836.19
1044.61	7080.08
1049.04	8780.86
1053.46	11217.8
1057.88	15180.2
1062.3	21419.1
1066.71	24808
1071.13	23758.3
1075.54	25536.3
1079.94	29309
1084.35	32784.8
1088.75	32986.1
1093.15	32762.4
1097.55	30406.9
1101.94	27281.2
1106.34	24198.8
1110.73	21503.9
1115.11	19641.2
1119.5	17982
1123.88	17637.2
1128.26	17274.3
1132.63	14462.2
1137.01	9904.06
1141.38	5807.55
1145.75	3476.12
1150.12	3338.3
1154.48	5150.67
1158.84	8014.26
1163.2	11536.3
1167.55	14901.9
1171.91	16119.5
1176.26	14749.7
1180.61	12264.4
1184.95	10246.9
1189.29	8272.73
1193.63	6849.45
1197.97	5091.74
1202.31	3603.7
1206.64	2543.78
1210.97	1755.58
1215.29	2161.35
1219.62	3502.55
1223.94	5484.18
1228.26	7126.89
1232.57	8242.06
1236.89	8353.21
1241.2	7800.88
1245.51	6978.69
1249.81	5591.49
1254.12	5594.55
1258.42	6062.43
1262.72	6468.04
1267.01	6630.81
1271.3	5731.26
1275.59	4595.3
1279.88	3345.37
1284.17	2546.13
1288.45	1967.61
1292.73	1078.25
1297.01	647.375
1301.28	605.894
1305.55	144.438
1309.82	41.7109
1314.09	49.1797
1318.35	43.6191
1322.61	236.56
1326.87	281.24
1331.13	323.074
1335.38	173.766
1339.63	225.031
1343.88	152.166
1348.12	335.324
1352.37	146.408
1356.61	291.006
1360.85	296.027
1365.08	201.894
1369.31	84.0098
1373.54	216.998
1377.77	211.596
1381.99	230.252
1386.22	72.209
1390.43	62.2559
1394.65	108.461
1398.87	79.7012
1403.08	348.244
1407.29	546.42
1411.49	1878.48
1415.69	1285.09
1419.89	2071.78
1424.09	2513.32
1428.29	3154.78
1432.48	3828.51
1436.67	4736.27
1440.86	5631.95
1445.04	6632.65
1449.23	7378.72
1453.4	8317.37
1457.58	9005.47
1461.76	9087
1465.93	9428.29
1470.1	9080.2
1474.26	8936.97
1478.43	8575.52
1482.59	8140.12
1486.75	8019.23
1490.9	7906.88
1495.06	7817.6
1499.21	7886.15
1503.35	7801.51
1507.5	7737.89
1511.64	7898.84
1515.78	7501.41
1519.92	7044.74
1524.05	6425.48
1528.18	5604.9
1532.31	4636.5
1536.44	3356.04
1540.56	2378.06
1544.69	1221.9
1548.8	572.84
1552.92	111.734
1557.03	264.309
1561.14	188.887
1565.25	85.4922
1569.36	59.7461
