Measurement: Raman, 514 nm, ccw, Raman Data Processed
Mineral: Eudialyte
Rruff sample: R060035
Ideal chemistry: Na_15_Ca_6_Fe_3_Zr_3_Si(Si_25_O_73_)(O,OH,H_2_O)_3_(Cl,OH)_2_
Locality: Chibini, Kola Peninsula, Russia
Source: University of Arizona Mineral Museum
Description: Deep pink coarsely crystalline
Measured chemistry: (Na_14.86_K_0.14_)_Σ=15_Ca_6.00_(Fe_1.52_Mn_1.48_)_Σ=3_(Zr_2.82_Ti_0.18_)_Σ=3_(Si_0.93_Nb_0.07_)_Σ=1_(Si_25.00_O_73_)((OH)_1.01_(H_2_O)_1.99_)_Σ=3_(Cl_1.65_(OH)_0.35_)_Σ=2_
Pin_id: M00150
Orientation: Laser parallel to c* (0 0 1). Fiducial mark perpendicular to laser is parallel to b [0 1 0]
Raman shift (cm-1)	intensity
118.134	0
123.058	133.752
127.979	257.904
132.898	592.336
137.814	1287.08
142.728	1353.86
147.639	1036.59
152.549	601.693
157.455	327.647
162.359	319.127
167.261	328.951
172.161	718.994
177.058	892.918
181.952	1549.71
186.845	3200.55
191.734	4596.68
196.622	6775.93
201.507	7831.33
206.389	7647.31
211.269	6545.01
216.147	5088.51
221.022	3535.93
225.895	2369.39
230.765	1248.82
235.633	797.936
240.498	120.512
245.361	49.0625
250.222	86.5723
255.08	248.982
259.936	1069.15
264.789	757.488
269.64	1214.27
274.488	1538.73
279.334	1197.63
284.178	1235.06
289.019	1466.68
293.857	1609.51
298.693	2049.08
303.527	2328.09
308.358	2609.32
313.187	2169.83
318.013	2134.25
322.837	2175.76
327.659	2306.71
332.478	2665.67
337.294	2635.61
342.108	2471.91
346.92	2179.65
351.729	2428.5
356.535	1961.2
361.34	1725.3
366.141	1419.39
370.94	1129.39
375.737	1199.12
380.531	1160.44
385.323	1283.33
390.113	1901.81
394.9	2461.19
399.684	2421.52
404.466	2307.63
409.245	1564.35
414.022	1063.1
418.797	742.891
423.569	389.611
428.338	165.203
433.105	175.557
437.87	495.664
442.632	729.488
447.391	909.998
452.149	668.156
456.903	324.928
461.655	141.275
466.405	347.022
471.152	173.107
475.897	303.797
480.639	94.2988
485.378	177.809
490.116	3.82227
494.85	403.012
499.582	400.203
504.312	721.814
509.039	1155.17
513.764	1434.63
518.486	1734.51
523.206	1998.82
527.923	2394.69
532.638	2670.61
537.35	4125.42
542.059	6617.71
546.766	9412.26
551.471	12847.8
556.173	16264.7
560.873	16961.7
565.57	17455.2
570.264	12067.3
574.957	6169.45
579.646	3091.93
584.333	2159.94
589.018	2110.29
593.7	2507.96
598.379	3075.92
603.056	3775.18
607.73	3675.89
612.402	3341.99
617.072	2538.8
621.739	1786.84
626.403	2203.97
631.065	1711.63
635.724	1273.56
640.381	668.824
645.035	500.307
649.687	502.357
654.336	562.981
658.983	737.176
663.627	955.609
668.268	1452.72
672.907	1451.16
677.544	2300.55
682.178	3056.93
686.809	4424.88
691.438	6009.04
696.065	7855.25
700.688	9304.26
705.31	9964.79
709.929	9026.07
714.545	6227.06
719.158	3742.1
723.77	2565.47
728.378	2364.45
732.984	3070.16
737.588	3661.22
742.189	4745.39
746.787	4793.94
751.383	3903.94
755.976	3843.67
760.567	3300.09
765.155	3224.83
769.741	3080.47
774.324	2951.42
778.904	3097.51
783.482	2374.86
788.058	1749.18
792.631	1117.11
797.201	358.66
801.769	163.287
806.334	71.4844
810.897	73.2481
815.457	63.0488
820.014	49.7559
824.569	35.2383
829.122	14.8027
833.671	35.6074
838.219	357.65
842.763	65.2598
847.306	1.2168
851.845	76.0606
856.382	46.2969
860.917	334.568
865.448	175.143
869.978	647.068
874.505	790.418
879.029	1239.21
883.55	1505.47
888.069	1569.2
892.586	2107.41
897.1	3056.1
901.611	4327.26
906.12	5257.91
910.626	6391.06
915.129	7552.76
919.63	8750.01
924.129	8470.95
928.625	7701.01
933.118	5906.85
937.609	5294.96
942.097	4712.91
946.582	4363.12
951.065	3879.66
955.546	3234.98
960.023	3386.42
964.499	2621.34
968.971	2656.05
973.441	2556.5
977.909	2587.99
982.374	3114.79
986.836	3644.65
991.295	4232.6
995.753	4634.25
1000.21	4386.09
1004.66	3630.02
1009.11	2926.41
1013.55	2525.25
1018	2320.52
1022.44	2339.3
1026.88	2103.73
1031.32	2107.64
1035.75	2344.03
1040.18	1973.13
1044.61	2176.5
1049.04	2079.52
1053.46	2096.06
1057.88	2380.26
1062.3	2829.7
1066.71	3254.09
1071.13	3738.47
1075.54	4343.92
1079.94	5031.87
1084.35	5726.24
1088.75	6457.83
1093.15	7036.35
1097.55	5799.02
1101.94	4312.65
1106.34	3130.2
1110.73	2414.62
1115.11	2148.16
1119.5	1682.88
1123.88	1657.06
1128.26	1707.24
1132.63	1188.97
1137.01	1208.5
1141.38	1126.49
1145.75	222.57
1150.12	104.141
1154.48	594.449
1158.84	431.086
1163.2	190.902
1167.55	181.332
1171.91	165.305
1176.26	72.293
1180.61	186.684
1184.95	80.2578
1189.29	60.6445
1193.63	280.699
1197.97	257.035
1202.31	122.023
1206.64	143.934
1210.97	15.4922
1215.29	56.8984
1219.62	169.727
1223.94	307.422
1228.26	304.988
1232.57	75.832
1236.89	292.195
1241.2	259.465
1245.51	268.906
1249.81	253.223
1254.12	311.086
1258.42	298.023
1262.72	441.402
1267.01	270.477
1271.3	192.656
1275.59	303.203
1279.88	86.2344
1284.17	269.504
1288.45	66.2461
1292.73	326.488
1297.01	0.742188
1301.28	562.797
1305.55	422.488
1309.82	24.2734
1314.09	288.336
1318.35	464.387
1322.61	302.106
1326.87	428.496
1331.13	471.551
1335.38	320.934
1339.63	235.086
1343.88	278.5
1348.12	334.223
1352.37	434.75
1356.61	500.891
1360.85	192.266
1365.08	58.7656
1369.31	376.238
1373.54	115.719
1377.77	75.9453
1381.99	314.816
1386.22	37.7188
1390.43	91.1758
1394.65	136.773
1398.87	223.184
1403.08	33.9062
1407.29	226.465
1411.49	276.59
1415.69	189.082
1419.89	186.551
1424.09	311.641
1428.29	252.785
1432.48	157.188
1436.67	225.633
1440.86	548.312
1445.04	3.62891
1449.23	322.633
1453.4	314.957
1457.58	333.898
1461.76	489.492
1465.93	426.887
1470.1	164.414
1474.26	284.578
1478.43	378.254
1482.59	95.0898
1486.75	355.102
1490.9	571.578
1495.06	374.316
1499.21	234.848
1503.35	303.644
1507.5	255.176
1511.64	277.555
1515.78	277.773
1519.92	402.004
1524.05	53.3711
1528.18	605.551
1532.31	501.406
1536.44	122.871
1540.56	467.441
1544.69	974.805
1548.8	141.004
1552.92	308.219
1557.03	720.102
1561.14	115.492
1565.25	83.4688
1569.36	374.699
