Measurement: Raman, 514 nm, ccw, Raman Data Processed
Mineral: Eudialyte
Rruff sample: R060035
Ideal chemistry: Na_15_Ca_6_Fe_3_Zr_3_Si(Si_25_O_73_)(O,OH,H_2_O)_3_(Cl,OH)_2_
Locality: Chibini, Kola Peninsula, Russia
Source: University of Arizona Mineral Museum
Description: Deep pink coarsely crystalline
Measured chemistry: (Na_14.86_K_0.14_)_Σ=15_Ca_6.00_(Fe_1.52_Mn_1.48_)_Σ=3_(Zr_2.82_Ti_0.18_)_Σ=3_(Si_0.93_Nb_0.07_)_Σ=1_(Si_25.00_O_73_)((OH)_1.01_(H_2_O)_1.99_)_Σ=3_(Cl_1.65_(OH)_0.35_)_Σ=2_
Pin_id: M00465
Orientation: Laser parallel to a* (1 0 0). Fiducial mark perpendicular to laser is parallel to c [0 0 1]
Raman shift (cm-1)	intensity
118.134	0
123.058	451.475
127.979	178.236
132.898	1051.62
137.814	2571.79
142.728	3372.08
147.639	2526.3
152.549	1354.61
157.455	658.684
162.359	318.162
167.261	293.273
172.161	411.59
177.058	1014.62
181.952	1522.34
186.845	3086.42
191.734	4290.6
196.622	5124.2
201.507	5658.18
206.389	4962.43
211.269	4122.35
216.147	2605.27
221.022	1386.21
225.895	860.086
230.765	310.316
235.633	87.3926
240.498	102.99
245.361	47.5664
250.222	99.2637
255.08	457.768
259.936	1264.99
264.789	1318.08
269.64	1450.99
274.488	1989.39
279.334	2017.2
284.178	2820.86
289.019	3117.61
293.857	3617.55
298.693	4089.26
303.527	4746.98
308.358	5337.17
313.187	5141.7
318.013	4446.36
322.837	4807.91
327.659	5821.23
332.478	7228.19
337.294	8594.45
342.108	8004.49
346.92	7046.6
351.729	5784.81
356.535	5231.96
361.34	4889.18
366.141	4376.48
370.94	3593.75
375.737	3102.49
380.531	2872.82
385.323	3218.82
390.113	3741.62
394.9	4274.31
399.684	4233.22
404.466	3559.35
409.245	2441.49
414.022	1856.69
418.797	921.029
423.569	518.475
428.338	142.728
433.105	5.01172
437.87	233.166
442.632	798.951
447.391	993.656
452.149	918.338
456.903	543.918
461.655	83.7969
466.405	330.685
471.152	327.672
475.897	144.4
480.639	201.137
485.378	305.998
490.116	820.484
494.85	1638.21
499.582	2490.05
504.312	2879.17
509.039	3313.73
513.764	2714.95
518.486	2389.45
523.206	2226.14
527.923	2442.45
532.638	3053.62
537.35	4094.61
542.059	6124.38
546.766	8492.75
551.471	11953.5
556.173	16319.6
560.873	18973.2
565.57	21508.6
570.264	15443.5
574.957	7851.82
579.646	4081.45
584.333	2948.01
589.018	2634.86
593.7	3418.54
598.379	5096.02
603.056	8437.88
607.73	4839.17
612.402	4166.27
617.072	2476.07
621.739	1967.42
626.403	1644.43
631.065	1456.17
635.724	711.219
640.381	495.549
645.035	170.125
649.687	359.867
654.336	553.859
658.983	844.365
663.627	1376.92
668.268	1795.14
672.907	2310.86
677.544	3432.64
682.178	4516.89
686.809	5953.84
691.438	7911.02
696.065	10296.6
700.688	12722.3
705.31	13644
709.929	11794.4
714.545	7754.29
719.158	4522.73
723.77	3146.78
728.378	2968.31
732.984	3440.31
737.588	4498.85
742.189	5496.07
746.787	5446.5
751.383	4450.26
755.976	3693.22
760.567	3261.17
765.155	2884.46
769.741	2618.44
774.324	2419.98
778.904	2429.76
783.482	2101.76
788.058	1647.77
792.631	996.246
797.201	341.738
801.769	169.621
806.334	80.1523
810.897	109.887
815.457	142.394
820.014	167.566
824.569	97.9219
829.122	94.1523
833.671	308.242
838.219	75.125
842.763	24.5
847.306	120.672
851.845	387.91
856.382	501.301
860.917	898.922
865.448	1219.83
869.978	1454.09
874.505	1985.75
879.029	2435.88
883.55	2477.52
888.069	2743.72
892.586	3727.52
897.1	5336.94
901.611	6950.04
906.12	8354.88
910.626	9356.56
915.129	10263.2
919.63	10939
924.129	10734.2
928.625	10165.9
933.118	9280.01
937.609	9080.02
942.097	9392.02
946.582	10230.7
951.065	10176.8
955.546	8838.6
960.023	7841.42
964.499	7414.74
968.971	6834.91
973.441	6550.34
977.909	6487.63
982.374	6628.65
986.836	7582.13
991.295	8516.68
995.753	8876.91
1000.21	8375.82
1004.66	6974.4
1009.11	5582.58
1013.55	4622.69
1018	4300.69
1022.44	4422.77
1026.88	4465.92
1031.32	4967.04
1035.75	5281.11
1040.18	6175.8
1044.61	6118.3
1049.04	5666.62
1053.46	5910.98
1057.88	6726.69
1062.3	7959.68
1066.71	8905.75
1071.13	9894.85
1075.54	10706.2
1079.94	11464.5
1084.35	12329.4
1088.75	12935.8
1093.15	12290.7
1097.55	10706.9
1101.94	7611.96
1106.34	6130.53
1110.73	4285.39
1115.11	3492.76
1119.5	3429.83
1123.88	3793.33
1128.26	3199.48
1132.63	2590.78
1137.01	2315.23
1141.38	1561.39
1145.75	683.512
1150.12	365.098
1154.48	413.672
1158.84	596.988
1163.2	307.285
1167.55	97.0117
1171.91	106.324
1176.26	121.441
1180.61	288.789
1184.95	296.098
1189.29	11.3086
1193.63	105.812
1197.97	88.3984
1202.31	83.1133
1206.64	54.5195
1210.97	5.47266
1215.29	93.25
1219.62	56.5938
1223.94	109.133
1228.26	73.1133
1232.57	77.6562
1236.89	23.6719
1241.2	118.129
1245.51	130.148
1249.81	121.394
1254.12	240.359
1258.42	13.8867
1262.72	249.633
1267.01	774.152
1271.3	31.418
1275.59	71.9336
1279.88	57.2734
1284.17	140.844
1288.45	177.363
1292.73	187.758
1297.01	600.539
1301.28	367.047
1305.55	134.926
1309.82	461.152
1314.09	5.62891
1318.35	72.3281
1322.61	229.664
1326.87	323.211
1331.13	399.461
1335.38	191.406
1339.63	339.586
1343.88	420.769
1348.12	125.019
1352.37	497.043
1356.61	416.531
1360.85	50.2227
1365.08	256.367
1369.31	212.586
1373.54	253.277
1377.77	192.227
1381.99	257.918
1386.22	458.539
1390.43	50.0898
1394.65	205.293
1398.87	197.461
1403.08	54.3789
1407.29	148.434
1411.49	152.875
1415.69	308.797
1419.89	279.356
1424.09	600.535
1428.29	343.965
1432.48	540.035
1436.67	753.93
1440.86	1123.76
1445.04	1306.32
1449.23	918.801
1453.4	1059.48
1457.58	1306.32
1461.76	851.34
1465.93	1132.54
1470.1	647.828
1474.26	781.508
1478.43	1067.76
1482.59	659.367
1486.75	950.453
1490.9	847.559
1495.06	1181.07
1499.21	1015.31
1503.35	1272.73
1507.5	1006.91
1511.64	1197.05
1515.78	959.301
1519.92	808.434
1524.05	832.512
1528.18	405.144
1532.31	127.391
1536.44	296.512
1540.56	208.969
1544.69	327.414
1548.8	157.023
1552.92	397.152
1557.03	497.406
1561.14	400.625
1565.25	161.887
1569.36	12.457
