Measurement: Raman, 514 nm, ccw, Raman Data Processed
Mineral: Eudialyte
Rruff sample: R060206
Ideal chemistry: Na_15_Ca_6_Fe_3_Zr_3_Si(Si_25_O_73_)(O,OH,H_2_O)_3_(Cl,OH)_2_
Locality: Desourdy Quarry, Mont Saint-Hilaire, Rouville County, Quebec, Canada
Source: Royal Ontario Museum
Description: Yellowish-brown gemmy fragment
Measured chemistry: (Na_13.12_Ca_1.62_K_0.26_)_Σ=15_(Ca_4.47_Mn_1.00_Ce_0.32_La_0.21_)_Σ=6_(Fe_2.91_Mn_0.09_)_Σ=3_Zr_3.00_(Si_0.85_Nb_0.15_)_Σ=1_Si_25.00_O_73_((OH)_2.70_O_0.30_)_Σ=3_(Cl_1.20_(OH)_0.80_)_Σ=2_
Pin_id: M00448
Orientation: Laser parallel to -a* (-1 0 0). Fiducial mark perpendicular to laser is parallel to c [0 0 1]
Raman shift (cm-1)	intensity
98.416	0
103.349	41.6582
108.28	1261.11
113.208	3096.94
118.134	4424.03
123.058	5843.62
127.979	8241.07
132.898	11592.5
137.814	14311.4
142.728	13326.5
147.639	10311.2
152.549	6545.38
157.455	3267.5
162.359	1933.24
167.261	1500.06
172.161	1001.6
177.058	566.998
181.952	882.812
186.845	1642.33
191.734	2248.08
196.622	2646.06
201.507	3198.97
206.389	1565.03
211.269	918.777
216.147	324.826
221.022	54.9658
225.895	269.267
230.765	396.128
235.633	61.6426
240.498	288.538
245.361	383.967
250.222	606.679
255.08	786.758
259.936	1602.55
264.789	1811.82
269.64	2649.88
274.488	3101.99
279.334	3412.13
284.178	3575.66
289.019	3561.1
293.857	3174.3
298.693	3037.67
303.527	2922.36
308.358	2804.65
313.187	2687.33
318.013	2724.17
322.837	3139.29
327.659	4197.57
332.478	5544.25
337.294	6615.56
342.108	7518.16
346.92	8237.1
351.729	8630.77
356.535	8396.52
361.34	7553.91
366.141	7048.99
370.94	6508.18
375.737	7066.52
380.531	8275.38
385.323	9680.86
390.113	9730.09
394.9	8160.74
399.684	5998.67
404.466	4170.64
409.245	2506.48
414.022	1643.08
418.797	865.36
423.569	434.217
428.338	40.3125
433.105	198.864
437.87	275.058
442.632	196.481
447.391	198.667
452.149	289.402
456.903	128.275
461.655	42.7246
466.405	74.8731
471.152	85.9561
475.897	172.709
480.639	250.314
485.378	68.292
490.116	68.2422
494.85	326.129
499.582	801.734
504.312	1323.28
509.039	1732.87
513.764	2078.66
518.486	2736.26
523.206	3777.67
527.923	4414.38
532.638	4735.34
537.35	4914.6
542.059	5897.18
546.766	9658.11
551.471	15897.5
556.173	23501.2
560.873	34545.5
565.57	40031.5
570.264	31892.9
574.957	17425.2
579.646	8601.02
584.333	4972.4
589.018	4540.48
593.7	5620.7
598.379	8470.87
603.056	11813.1
607.73	13965.6
612.402	12559.6
617.072	9507.56
621.739	6480.82
626.403	4577.55
631.065	3186.49
635.724	1912.32
640.381	977.034
645.035	897.635
649.687	1077.3
654.336	1480.04
658.983	2347
663.627	3255.83
668.268	4388.91
672.907	6543.14
677.544	9359.54
682.178	12232.1
686.809	15280.9
691.438	18472
696.065	23550.3
700.688	29093.8
705.31	32818.7
709.929	29412.8
714.545	21041.2
719.158	13905.6
723.77	11717
728.378	12690.8
732.984	14962.9
737.588	17494.8
742.189	18332.7
746.787	16587.4
751.383	13670.1
755.976	11448
760.567	9778.92
765.155	8161.53
769.741	6742.24
774.324	5036.68
778.904	3557.66
783.482	2423.27
788.058	1594.33
792.631	897.895
797.201	686.953
801.769	440.052
806.334	247.577
810.897	276.161
815.457	301.285
820.014	259.965
824.569	487.226
829.122	504.09
833.671	1039.57
838.219	711.686
842.763	27.4385
847.306	13.7578
851.845	171.872
856.382	177.231
860.917	634.197
865.448	532.622
869.978	698.157
874.505	511.236
879.029	440.547
883.55	80.0059
888.069	314.763
892.586	1131.03
897.1	2079.92
901.611	3342.46
906.12	7214.67
910.626	11290.6
915.129	9961.24
919.63	9988.68
924.129	13475.9
928.625	14781.1
933.118	14876.1
937.609	15141.5
942.097	16994.4
946.582	21930.2
951.065	17294.1
955.546	11356.4
960.023	10021
964.499	10568.6
968.971	12059.2
973.441	13933.5
977.909	15581.5
982.374	16636.2
986.836	18519.6
991.295	21872.1
995.753	24729.3
1000.21	24580.9
1004.66	22098
1009.11	18722.9
1013.55	15764.6
1018	14081.9
1022.44	13361.1
1026.88	13493.2
1031.32	13726.8
1035.75	13146
1040.18	12462.7
1044.61	12015
1049.04	11887.9
1053.46	13769.4
1057.88	17604.6
1062.3	24307.4
1066.71	32627.1
1071.13	36482.8
1075.54	35311.8
1079.94	30628.3
1084.35	27923.2
1088.75	26428.9
1093.15	25504.9
1097.55	22466.1
1101.94	16832.8
1106.34	10800
1110.73	7186.86
1115.11	5032.35
1119.5	3892.87
1123.88	3654.84
1128.26	3351.45
1132.63	3298.77
1137.01	3314.06
1141.38	3008.25
1145.75	2396.67
1150.12	2055.74
1154.48	1430.16
1158.84	932.112
1163.2	868.044
1167.55	854.134
1171.91	848.367
1176.26	696.075
1180.61	466.092
1184.95	459.88
1189.29	282.774
1193.63	12.6504
1197.97	226.456
1202.31	183.698
1206.64	236.817
1210.97	253.215
1215.29	408.425
1219.62	260.11
1223.94	128.977
1228.26	74.8232
1232.57	88.9863
1236.89	105.893
1241.2	337.227
1245.51	383.014
1249.81	510.32
1254.12	454.098
1258.42	489.272
1262.72	624.756
1267.01	756.447
1271.3	462.25
1275.59	600.525
1279.88	765.278
1284.17	696.942
1288.45	742.529
1292.73	861.589
1297.01	902.98
1301.28	817.848
1305.55	921.694
1309.82	829.094
1314.09	928.549
1318.35	722.279
1322.61	1011.94
1326.87	886.174
1331.13	784.03
1335.38	899.04
1339.63	900.13
1343.88	1069.44
1348.12	1353.52
1352.37	2549.46
1356.61	4984.69
1360.85	4887.3
1365.08	2575.46
1369.31	1277.83
1373.54	1149.95
1377.77	1010.67
1381.99	974.458
1386.22	1328.73
1390.43	2956.48
1394.65	3082.65
1398.87	1136.46
1403.08	195.449
1407.29	45.1289
1411.49	124.875
1415.69	78.5029
1419.89	498.971
1424.09	752.923
1428.29	378.432
1432.48	306.161
1436.67	761.023
1440.86	1085.95
1445.04	1285.1
1449.23	1072.06
1453.4	1156.87
1457.58	1608.85
1461.76	1513.61
1465.93	1372.83
1470.1	1225.24
1474.26	1044.94
1478.43	1108.48
1482.59	1082.11
1486.75	1030
1490.9	860.071
1495.06	757.525
1499.21	566.565
1503.35	504.909
1507.5	422.512
1511.64	409.634
1515.78	587.117
1519.92	228.66
1524.05	378.913
1528.18	296.777
1532.31	343.859
1536.44	273.799
1540.56	271.758
1544.69	252.81
1548.8	460.508
1552.92	472.865
1557.03	68.0918
1561.14	85.2402
1565.25	70.4688
1569.36	0.134766
