Measurement: Raman, 514 nm, ccw, Raman Data Processed
Mineral: Eudialyte
Rruff sample: R050230
Ideal chemistry: Na_15_Ca_6_Fe_3_Zr_3_Si(Si_25_O_73_)(O,OH,H_2_O)_3_(Cl,OH)_2_
Locality: Kipawa alkaline complex, near Sheffield Lake, Villedieu Township, Temiscamingue County, Quebec, Canada
Source: Marcus Origlieri
Description: Massive aggregate of red crystals
Measured chemistry: (Na_14.50_K_0.35_Ca_0.15_)_Σ=15_Ca_6.00_(Fe_1.86_Mn_1.01_Mg_0.13_)_Σ=3_(Zr_2.91_Ti_0.09_)_3_(Si_0.94_Nb_0.06_)_Σ=1.00_(Si_25.00_O_73_)(OH)_1.10_(H_2_O)_1.90_)_Σ=3_(Cl_1.17_(OH)_0.83_)_Σ=2_
Pin_id: M00176
Orientation: Laser parallel to a* (1 0 0). Fiducial mark perpendicular to laser is parallel to c [0 0 1]
Raman shift (cm-1)	intensity
118.134	0
123.058	12.9375
127.979	164.262
132.898	1146.81
137.814	2298.15
142.728	2322.23
147.639	2116.76
152.549	1639.47
157.455	913.053
162.359	1333.25
167.261	1052.19
172.161	275.635
177.058	346.703
181.952	537.856
186.845	1810.92
191.734	2872.24
196.622	4216.88
201.507	5353.1
206.389	6103.17
211.269	6503.61
216.147	5793.6
221.022	4491.28
225.895	3171.45
230.765	1342.02
235.633	429.484
240.498	63.4844
245.361	505.293
250.222	1175.92
255.08	1661.32
259.936	2840.42
264.789	2714.43
269.64	3213.5
274.488	4255.69
279.334	5401.41
284.178	6403.06
289.019	7308.56
293.857	7699.13
298.693	8042.15
303.527	8277.63
308.358	8552.01
313.187	9387.54
318.013	9775.66
322.837	10268.5
327.659	10905.9
332.478	12289.2
337.294	14118.7
342.108	14183.4
346.92	12722.9
351.729	10480.8
356.535	8727.12
361.34	7376.62
366.141	5712.97
370.94	4589.89
375.737	3763.04
380.531	3194.16
385.323	3337.16
390.113	3757.05
394.9	4166.83
399.684	4676.51
404.466	5051.1
409.245	4953.68
414.022	4791.94
418.797	4167.96
423.569	3570.59
428.338	2922.74
433.105	2247.38
437.87	1620.48
442.632	961.006
447.391	625.841
452.149	299.717
456.903	43.706
461.655	312.944
466.405	380.026
471.152	474.033
475.897	639.051
480.639	543.986
485.378	95.1006
490.116	67.2266
494.85	678.792
499.582	1528.5
504.312	2107.28
509.039	2835.16
513.764	2922.14
518.486	2888.2
523.206	3067.36
527.923	3212.63
532.638	3629.55
537.35	4528.57
542.059	5983.47
546.766	7969.06
551.471	11018
556.173	14093.9
560.873	17084.3
565.57	19123.2
570.264	19368.8
574.957	15070.2
579.646	9495.76
584.333	6102.21
589.018	4950.63
593.7	5149.74
598.379	6430.87
603.056	7331.94
607.73	7406.71
612.402	6239.62
617.072	4887.34
621.739	3879.28
626.403	3527.22
631.065	3474.9
635.724	3223.4
640.381	3223.65
645.035	3275.05
649.687	3717.84
654.336	4386.98
658.983	5516.43
663.627	6568.87
668.268	8043.07
672.907	9546.78
677.544	11021.8
682.178	12379.8
686.809	13868.2
691.438	15534
696.065	16895.6
700.688	18092.5
705.31	17795.2
709.929	15567.8
714.545	12464.9
719.158	10672.9
723.77	10372.6
728.378	10798
732.984	12066.4
737.588	13157.1
742.189	13521.6
746.787	13580.1
751.383	12590.8
755.976	11453.6
760.567	10585.9
765.155	9637.92
769.741	8555.67
774.324	7344
778.904	6467.33
783.482	5449.52
788.058	4624.58
792.631	3433.5
797.201	2782.31
801.769	2019.02
806.334	1606.65
810.897	1305.19
815.457	757.562
820.014	535.326
824.569	168.797
829.122	16.5312
833.671	94.5801
838.219	402.67
842.763	485.637
847.306	588.518
851.845	709.607
856.382	470.531
860.917	613.965
865.448	216.836
869.978	49.6934
874.505	64.7695
879.029	360.131
883.55	593.176
888.069	1127.08
892.586	1667.66
897.1	2941.05
901.611	4008.39
906.12	4985.81
910.626	6086.48
915.129	7649.6
919.63	8658.36
924.129	10396
928.625	11353.6
933.118	11175.5
937.609	10610.9
942.097	11018
946.582	11517.1
951.065	12213.3
955.546	11733.4
960.023	10834.6
964.499	9165.21
968.971	7951.23
973.441	7152.23
977.909	6884.05
982.374	6667.34
986.836	7115.75
991.295	7787.8
995.753	8207.72
1000.21	8238.44
1004.66	8216.45
1009.11	7341.62
1013.55	6832.41
1018	6784.72
1022.44	6673.28
1026.88	6942.93
1031.32	6696.33
1035.75	6770.74
1040.18	7068.4
1044.61	7578.54
1049.04	8369.38
1053.46	9718.03
1057.88	11939
1062.3	14508.7
1066.71	16762.7
1071.13	16930.2
1075.54	17254.3
1079.94	18107.2
1084.35	18913.2
1088.75	18402.8
1093.15	16194.7
1097.55	13123.6
1101.94	10333.1
1106.34	7974.69
1110.73	6647.83
1115.11	5510.74
1119.5	5077.85
1123.88	4781.21
1128.26	4982.04
1132.63	3984.98
1137.01	2111.9
1141.38	139.303
1145.75	528.984
1150.12	65.1152
1154.48	1455.49
1158.84	3927.47
1163.2	6797.73
1167.55	9697.24
1171.91	11720.1
1176.26	11756.9
1180.61	11344.2
1184.95	10553.7
1189.29	9638.37
1193.63	8945.72
1197.97	7184.25
1202.31	5119.91
1206.64	3249.62
1210.97	2213.27
1215.29	1207.63
1219.62	939.543
1223.94	1192.4
1228.26	1517.45
1232.57	1769.03
1236.89	2044.33
1241.2	1812.85
1245.51	1347.21
1249.81	1194.4
1254.12	1102.32
1258.42	1219.42
1262.72	1698.83
1267.01	1829.56
1271.3	1523.61
1275.59	1444.98
1279.88	962.965
1284.17	768.176
1288.45	443.051
1292.73	458.859
1297.01	174.053
1301.28	64.1328
1305.55	81.3184
1309.82	21.1289
1314.09	136.406
1318.35	67.1113
1322.61	31.916
1326.87	72.4727
1331.13	5.33008
1335.38	136.992
1339.63	184.16
1343.88	133.945
1348.12	135.512
1352.37	48.4512
1356.61	49.2832
1360.85	139.188
1365.08	48.7383
1369.31	210.977
1373.54	204.789
1377.77	75.8809
1381.99	22.4727
1386.22	134.738
1390.43	78.8711
1394.65	44.543
1398.87	76.7656
1403.08	184.107
1407.29	345.041
1411.49	762.723
1415.69	1201.82
1419.89	1270.83
1424.09	1987.95
1428.29	2315.12
1432.48	3083.75
1436.67	3532.25
1440.86	4675.89
1445.04	5363.08
1449.23	6145.67
1453.4	6878.12
1457.58	7491.21
1461.76	7988.17
1465.93	7882.49
1470.1	8113.33
1474.26	8000.22
1478.43	7261.12
1482.59	7198.65
1486.75	6746.47
1490.9	6657.66
1495.06	7146.73
1499.21	7232.67
1503.35	7732.38
1507.5	7722.05
1511.64	7725.2
1515.78	7668.86
1519.92	7411.65
1524.05	6974.61
1528.18	6181
1532.31	5330.7
1536.44	4075.29
1540.56	3293.56
1544.69	1858.92
1548.8	1055.02
1552.92	607.688
1557.03	181.164
1561.14	51.5273
1565.25	431.285
1569.36	13.9766
