Measurement: Raman, 514 nm, ccw, Raman Data Processed
Mineral: Eudialyte
Rruff sample: R060035
Ideal chemistry: Na_15_Ca_6_Fe_3_Zr_3_Si(Si_25_O_73_)(O,OH,H_2_O)_3_(Cl,OH)_2_
Locality: Chibini, Kola Peninsula, Russia
Source: University of Arizona Mineral Museum
Description: Deep pink coarsely crystalline
Measured chemistry: (Na_14.86_K_0.14_)_Σ=15_Ca_6.00_(Fe_1.52_Mn_1.48_)_Σ=3_(Zr_2.82_Ti_0.18_)_Σ=3_(Si_0.93_Nb_0.07_)_Σ=1_(Si_25.00_O_73_)((OH)_1.01_(H_2_O)_1.99_)_Σ=3_(Cl_1.65_(OH)_0.35_)_Σ=2_
Pin_id: M00465
Orientation: Laser parallel to a* (1 0 0). Fiducial mark perpendicular to laser is parallel to c [0 0 1]
Raman shift (cm-1)	intensity
118.134	0
123.058	44.2246
127.979	326.531
132.898	1097.02
137.814	2323.1
142.728	2252.59
147.639	1827.12
152.549	839.598
157.455	454.15
162.359	578.66
167.261	898.564
172.161	1462.66
177.058	2341.6
181.952	3947.26
186.845	6596.92
191.734	10150.6
196.622	13406.5
201.507	15647.9
206.389	14815
211.269	12901.1
216.147	10150.9
221.022	6969.31
225.895	4480.86
230.765	2421.06
235.633	1234.83
240.498	230.299
245.361	19.2715
250.222	150.922
255.08	329.312
259.936	1595.24
264.789	1631.29
269.64	2371.95
274.488	2074.07
279.334	1761.92
284.178	1619.7
289.019	1577.24
293.857	1927.16
298.693	2555.2
303.527	2981.61
308.358	3127.28
313.187	2952.73
318.013	2691.05
322.837	2700.83
327.659	3011.52
332.478	3022.23
337.294	3705.49
342.108	3513.36
346.92	3405
351.729	3452.15
356.535	3844.37
361.34	3400.13
366.141	2971.78
370.94	2412.78
375.737	1990.85
380.531	1945.81
385.323	1830.6
390.113	3063.35
394.9	3871.5
399.684	3595.22
404.466	2749.48
409.245	1835.71
414.022	1558.36
418.797	770.514
423.569	475.062
428.338	553.865
433.105	465.795
437.87	620.801
442.632	1096.91
447.391	1189.1
452.149	1071.35
456.903	526.584
461.655	187.643
466.405	227.174
471.152	651.684
475.897	408.435
480.639	318.008
485.378	245.971
490.116	435.377
494.85	290.897
499.582	664.986
504.312	1085.83
509.039	1772.52
513.764	2305.06
518.486	2725.47
523.206	3114.74
527.923	3863.95
532.638	4808.72
537.35	7604.4
542.059	12158.4
546.766	17259.5
551.471	23659.6
556.173	30158.8
560.873	31583.5
565.57	33018.1
570.264	23024.2
574.957	11563.8
579.646	6080.54
584.333	4311.71
589.018	4078.84
593.7	5198.88
598.379	6754.08
603.056	8381.06
607.73	7887.14
612.402	6510.79
617.072	4979.68
621.739	4148.83
626.403	4251.59
631.065	3548.39
635.724	2453.86
640.381	1389.07
645.035	938.703
649.687	1102.89
654.336	1201.62
658.983	1515.92
663.627	2016.94
668.268	2478.61
672.907	3190.38
677.544	4193.56
682.178	5945.1
686.809	8235.22
691.438	11295.5
696.065	14436.3
700.688	17402.5
705.31	18458.2
709.929	15791
714.545	10187
719.158	6135.33
723.77	4712.65
728.378	4230.1
732.984	5603.25
737.588	7461.42
742.189	9172.71
746.787	9214.64
751.383	8153.77
755.976	7231.25
760.567	6648.35
765.155	5982.44
769.741	5687.54
774.324	5422.94
778.904	5308.5
783.482	4351.13
788.058	3187.8
792.631	1690.52
797.201	769.289
801.769	318.106
806.334	60.3203
810.897	167.137
815.457	230.383
820.014	122.324
824.569	201.961
829.122	81.6445
833.671	92.6211
838.219	207.672
842.763	71.9453
847.306	9.22266
851.845	25.9336
856.382	92.4102
860.917	159.961
865.448	315.656
869.978	749.777
874.505	901.363
879.029	1095.46
883.55	1351.08
888.069	2150.24
892.586	2546.92
897.1	3671.12
901.611	4733.84
906.12	5923.08
910.626	7411.88
915.129	8842.27
919.63	9865.3
924.129	9737.08
928.625	8429.07
933.118	6615.91
937.609	5793.85
942.097	5130.51
946.582	4857.74
951.065	4254.09
955.546	3953.55
960.023	3429.29
964.499	3380.2
968.971	3133.05
973.441	3488.74
977.909	3817.2
982.374	4438.41
986.836	4870.8
991.295	5658.77
995.753	6130.86
1000.21	6053.65
1004.66	4929.12
1009.11	3819.48
1013.55	3227.78
1018	2709.06
1022.44	2871.41
1026.88	2819.98
1031.32	3153.69
1035.75	3250.54
1040.18	3406.6
1044.61	2998.85
1049.04	3048.23
1053.46	3649.25
1057.88	4485.28
1062.3	5409.44
1066.71	6039.09
1071.13	7152.86
1075.54	7944.29
1079.94	8924.32
1084.35	10504.4
1088.75	11658.7
1093.15	11698.7
1097.55	9864.24
1101.94	7574.7
1106.34	5291.04
1110.73	4124.71
1115.11	3491.36
1119.5	3238.44
1123.88	3071.18
1128.26	3049.48
1132.63	2620.43
1137.01	1901.55
1141.38	1230.44
1145.75	649.688
1150.12	573.731
1154.48	729.664
1158.84	895.629
1163.2	800.441
1167.55	649.723
1171.91	307.848
1176.26	133.914
1180.61	228.406
1184.95	46.0312
1189.29	79.6484
1193.63	43.4297
1197.97	320.996
1202.31	89.9648
1206.64	52.543
1210.97	202.719
1215.29	14.4531
1219.62	514.523
1223.94	7.65625
1228.26	33.8594
1232.57	138.731
1236.89	168.59
1241.2	74.5859
1245.51	20.4492
1249.81	248.766
1254.12	65.1641
1258.42	244.672
1262.72	541.43
1267.01	341.195
1271.3	305.613
1275.59	295.379
1279.88	244.277
1284.17	177.613
1288.45	135.703
1292.73	168.078
1297.01	197.531
1301.28	206.164
1305.55	196.109
1309.82	384.41
1314.09	480.711
1318.35	347.465
1322.61	295.762
1326.87	375.762
1331.13	227.949
1335.38	183.977
1339.63	515.488
1343.88	324.894
1348.12	174.285
1352.37	265.629
1356.61	474.289
1360.85	159.621
1365.08	248.93
1369.31	57.3906
1373.54	196.984
1377.77	145.394
1381.99	345.113
1386.22	0.863281
1390.43	15.8984
1394.65	212.402
1398.87	16.2305
1403.08	45.5977
1407.29	24.3984
1411.49	100.371
1415.69	413.363
1419.89	298.695
1424.09	171.207
1428.29	352.402
1432.48	381.352
1436.67	692.301
1440.86	911.434
1445.04	1072.5
1449.23	1193.32
1453.4	860.922
1457.58	1116.81
1461.76	753.758
1465.93	811.934
1470.1	897.336
1474.26	802.219
1478.43	747.816
1482.59	598.328
1486.75	816.566
1490.9	621.566
1495.06	822.457
1499.21	663.688
1503.35	963.574
1507.5	847.34
1511.64	988.906
1515.78	623.684
1519.92	557.195
1524.05	473.465
1528.18	574.086
1532.31	276.262
1536.44	420.609
1540.56	405.734
1544.69	776.375
1548.8	340.965
1552.92	540.172
1557.03	628.539
1561.14	574.051
1565.25	78.1406
1569.36	233.496
