Measurement: Raman, 514 nm, ccw, Raman Data Processed
Mineral: Eudialyte
Rruff sample: R050230
Ideal chemistry: Na_15_Ca_6_Fe_3_Zr_3_Si(Si_25_O_73_)(O,OH,H_2_O)_3_(Cl,OH)_2_
Locality: Kipawa alkaline complex, near Sheffield Lake, Villedieu Township, Temiscamingue County, Quebec, Canada
Source: Marcus Origlieri
Description: Massive aggregate of red crystals
Measured chemistry: (Na_14.50_K_0.35_Ca_0.15_)_Σ=15_Ca_6.00_(Fe_1.86_Mn_1.01_Mg_0.13_)_Σ=3_(Zr_2.91_Ti_0.09_)_3_(Si_0.94_Nb_0.06_)_Σ=1.00_(Si_25.00_O_73_)(OH)_1.10_(H_2_O)_1.90_)_Σ=3_(Cl_1.17_(OH)_0.83_)_Σ=2_
Pin_id: M00176
Orientation: Laser parallel to a* (1 0 0). Fiducial mark perpendicular to laser is parallel to c [0 0 1]
Raman shift (cm-1)	intensity
118.134	0
123.058	488.768
127.979	254.953
132.898	640.836
137.814	1335.77
142.728	1432.16
147.639	1484.8
152.549	1624.97
157.455	1822.31
162.359	2183.41
167.261	2248.71
172.161	1971.87
177.058	1892.8
181.952	2549.2
186.845	4375.37
191.734	7009.1
196.622	9760.95
201.507	12739.3
206.389	14417.2
211.269	15403.5
216.147	14048.4
221.022	11270.8
225.895	7819.97
230.765	4635.97
235.633	2591.06
240.498	1795.83
245.361	1505.87
250.222	1988.71
255.08	2377.44
259.936	3644.89
264.789	2929.27
269.64	3492.21
274.488	4153.5
279.334	4717.28
284.178	5370.96
289.019	5532.01
293.857	6321.35
298.693	6703.44
303.527	7368.28
308.358	7856.68
313.187	8934.91
318.013	9802.62
322.837	10371.6
327.659	11213.8
332.478	12044.5
337.294	13115.9
342.108	12628.8
346.92	10521.9
351.729	8436.63
356.535	7511.76
361.34	6675.02
366.141	5552.6
370.94	4501.39
375.737	4035.2
380.531	3194.74
385.323	2993.91
390.113	3338.69
394.9	3410.08
399.684	3613.08
404.466	3575.69
409.245	3438.97
414.022	2991.4
418.797	2872.19
423.569	2333.16
428.338	1793.41
433.105	1414.84
437.87	1214.38
442.632	754.943
447.391	453.315
452.149	18.8184
456.903	269.586
461.655	433.168
466.405	593.471
471.152	651.146
475.897	624.672
480.639	638.818
485.378	364.01
490.116	73.5332
494.85	231.418
499.582	733.318
504.312	1313.69
509.039	1802.79
513.764	2547.7
518.486	2947.43
523.206	3603.98
527.923	4232.39
532.638	5464.66
537.35	7224.82
542.059	10152.9
546.766	13665
551.471	17925.3
556.173	21870.3
560.873	24787.7
565.57	25670.7
570.264	26156.2
574.957	20994.2
579.646	13339.2
584.333	7893.4
589.018	6114.14
593.7	5784.5
598.379	6889.17
603.056	8375.32
607.73	8459.16
612.402	7457.11
617.072	5824.81
621.739	5187.69
626.403	5352.72
631.065	5307.52
635.724	4844.65
640.381	4153.61
645.035	5989.3
649.687	4600.92
654.336	5378.36
658.983	6471.58
663.627	7980.55
668.268	9699.25
672.907	10819.6
677.544	12771.1
682.178	14196.4
686.809	15854.2
691.438	17183
696.065	19136.5
700.688	20251.4
705.31	19960.1
709.929	17260
714.545	13438.9
719.158	11160.3
723.77	11077.9
728.378	12139.5
732.984	13604.5
737.588	15299.9
742.189	16461
746.787	16316
751.383	15089
755.976	13766.3
760.567	12767.7
765.155	11865.5
769.741	10660.7
774.324	9001.47
778.904	8047.15
783.482	6760.51
788.058	5624.44
792.631	4414.92
797.201	3448.95
801.769	2383.52
806.334	1920.65
810.897	1427.33
815.457	1204.57
820.014	804.35
824.569	584.479
829.122	133.557
833.671	101.334
838.219	86.8086
842.763	331.289
847.306	457.721
851.845	529.055
856.382	452.793
860.917	551.894
865.448	340.17
869.978	322.141
874.505	463.24
879.029	366.522
883.55	15.8516
888.069	46.6211
892.586	451.232
897.1	1058.81
901.611	1924.2
906.12	2758.52
910.626	3574.91
915.129	4629.52
919.63	5867.5
924.129	7233.03
928.625	7660.3
933.118	7267.45
937.609	6518.68
942.097	5914.17
946.582	5683.1
951.065	5716.3
955.546	5312.71
960.023	4748.57
964.499	4005.59
968.971	3467.73
973.441	3210.42
977.909	3366.57
982.374	3529.66
986.836	3997.16
991.295	4451.6
995.753	4561.17
1000.21	4570.82
1004.66	4271.17
1009.11	3935.49
1013.55	3542.2
1018	3379.97
1022.44	3538.59
1026.88	3743.8
1031.32	3654.7
1035.75	3829.52
1040.18	4471.49
1044.61	4753.92
1049.04	5981.01
1053.46	7320.85
1057.88	9483.58
1062.3	12737.4
1066.71	15668.4
1071.13	15340.6
1075.54	15136.4
1079.94	16163.5
1084.35	18569.3
1088.75	19574.6
1093.15	17091.2
1097.55	14922
1101.94	12566.3
1106.34	10431.9
1110.73	8812.4
1115.11	7847.68
1119.5	7197.07
1123.88	7370.27
1128.26	6850.02
1132.63	5708.36
1137.01	3705.46
1141.38	1404.36
1145.75	229.639
1150.12	601.135
1154.48	1912.53
1158.84	3884.68
1163.2	6298.06
1167.55	8854.27
1171.91	10243.3
1176.26	10031.9
1180.61	9221.07
1184.95	8136.72
1189.29	7476.22
1193.63	6444.44
1197.97	5240.62
1202.31	3928.03
1206.64	2623.61
1210.97	1485.37
1215.29	1009.04
1219.62	1212.39
1223.94	1586.93
1228.26	2419.57
1232.57	2987.36
1236.89	3165.01
1241.2	2800.12
1245.51	2538
1249.81	2020.56
1254.12	1687.28
1258.42	2159.28
1262.72	2611.22
1267.01	2564.15
1271.3	2267.24
1275.59	2031.85
1279.88	1461.66
1284.17	1190.44
1288.45	766.965
1292.73	525.664
1297.01	248.529
1301.28	147.613
1305.55	29.4219
1309.82	258.799
1314.09	14.2285
1318.35	164.168
1322.61	38.3633
1326.87	5.46094
1331.13	230.26
1335.38	83.4824
1339.63	160.783
1343.88	75.4121
1348.12	53.123
1352.37	260.994
1356.61	201.957
1360.85	46.7148
1365.08	277.494
1369.31	36.0391
1373.54	111.311
1377.77	118.643
1381.99	162.885
1386.22	324.477
1390.43	117.174
1394.65	0.958984
1398.87	73.1953
1403.08	146.981
1407.29	303.389
1411.49	573.146
1415.69	758.148
1419.89	1157.4
1424.09	1649.64
1428.29	1886.72
1432.48	2730.7
1436.67	3366.09
1440.86	4159.48
1445.04	4414.23
1449.23	5137.85
1453.4	6034.6
1457.58	6414.34
1461.76	6809.76
1465.93	6885.77
1470.1	7032.09
1474.26	6560.48
1478.43	6320.98
1482.59	6187.36
1486.75	6137.5
1490.9	6109.38
1495.06	6028.27
1499.21	6273.21
1503.35	6328.56
1507.5	6637.44
1511.64	6931.1
1515.78	6663.25
1519.92	6313.91
1524.05	5592.82
1528.18	5256.92
1532.31	4490.41
1536.44	3609.42
1540.56	2818.13
1544.69	1570.91
1548.8	979.535
1552.92	609.996
1557.03	289.582
1561.14	54.8398
1565.25	262.617
1569.36	0.113281
