Measurement: Raman, 514 nm, ccw, Raman Data Processed
Mineral: Eudialyte
Rruff sample: R060206
Ideal chemistry: Na_15_Ca_6_Fe_3_Zr_3_Si(Si_25_O_73_)(O,OH,H_2_O)_3_(Cl,OH)_2_
Locality: Desourdy Quarry, Mont Saint-Hilaire, Rouville County, Quebec, Canada
Source: Royal Ontario Museum
Description: Yellowish-brown gemmy fragment
Measured chemistry: (Na_13.12_Ca_1.62_K_0.26_)_Σ=15_(Ca_4.47_Mn_1.00_Ce_0.32_La_0.21_)_Σ=6_(Fe_2.91_Mn_0.09_)_Σ=3_Zr_3.00_(Si_0.85_Nb_0.15_)_Σ=1_Si_25.00_O_73_((OH)_2.70_O_0.30_)_Σ=3_(Cl_1.20_(OH)_0.80_)_Σ=2_
Pin_id: M00202
Orientation: Laser parallel to -c* (0 0 -1). Fiducial mark perpendicular to laser is parallel to a [1 0 0]
Raman shift (cm-1)	intensity
118.134	0
123.058	99.8418
127.979	484.115
132.898	2203.77
137.814	3830.54
142.728	3715.28
147.639	2163.23
152.549	1109.27
157.455	603.641
162.359	853.904
167.261	1719.89
172.161	3013.32
177.058	5317.59
181.952	8943.9
186.845	14367
191.734	20658.7
196.622	27679.6
201.507	32192.6
206.389	30404.3
211.269	24225.8
216.147	16970.4
221.022	10861.3
225.895	6691.71
230.765	3770.24
235.633	2071.62
240.498	485.514
245.361	345.543
250.222	558.422
255.08	31.4277
259.936	1411.14
264.789	2216.72
269.64	3898.14
274.488	5231.06
279.334	5675.29
284.178	6202.48
289.019	6724.09
293.857	7384.3
298.693	7386.8
303.527	7188.57
308.358	6863.98
313.187	5914.27
318.013	5092.8
322.837	5306.54
327.659	6611.74
332.478	8227.44
337.294	8748.22
342.108	7958.19
346.92	7724.04
351.729	7902.85
356.535	8250.61
361.34	7923.9
366.141	6925.42
370.94	6250.45
375.737	6159.73
380.531	6741.02
385.323	8597.75
390.113	9949.69
394.9	9843.18
399.684	7950.14
404.466	6327.21
409.245	5447.44
414.022	4622.17
418.797	3899.23
423.569	2807.52
428.338	1826.97
433.105	1331.97
437.87	1258.1
442.632	1360.96
447.391	843.345
452.149	309.208
456.903	37.8916
461.655	120.981
466.405	269.937
471.152	310.878
475.897	390.306
480.639	394.168
485.378	601.144
490.116	556.596
494.85	179.487
499.582	137.951
504.312	906.062
509.039	1755.65
513.764	2668.15
518.486	3917.69
523.206	5389.4
527.923	6745.41
532.638	8459.2
537.35	11581.8
542.059	14649.8
546.766	18444.2
551.471	26628.4
556.173	37629.8
560.873	40367.3
565.57	45717
570.264	36620.2
574.957	17342.2
579.646	7941.88
584.333	3978.99
589.018	2631.54
593.7	3409.79
598.379	5473.14
603.056	8848.6
607.73	11894.8
612.402	11883.7
617.072	9518.26
621.739	8125.96
626.403	8067.92
631.065	6425.41
635.724	4158.43
640.381	2501.95
645.035	1838.88
649.687	1532.95
654.336	1948.26
658.983	2396.31
663.627	3197.17
668.268	4325.91
672.907	6258.58
677.544	8811.23
682.178	11927.8
686.809	14363.5
691.438	18066.1
696.065	22553.9
700.688	28264.8
705.31	33568.9
709.929	33047.3
714.545	27214.1
719.158	24297.5
723.77	27900.1
728.378	34845.6
732.984	42554.8
737.588	48300.8
742.189	49734.8
746.787	46633.4
751.383	42770.9
755.976	41697.4
760.567	38551
765.155	33634.3
769.741	28146
774.324	22231.6
778.904	16985.7
783.482	13026.2
788.058	10447.8
792.631	8110.52
797.201	5908.19
801.769	4985.81
806.334	5089.36
810.897	6143.1
815.457	7494.11
820.014	7892.26
824.569	6509.22
829.122	4578.92
833.671	3479.42
838.219	2545.14
842.763	1144.41
847.306	399.839
851.845	261.317
856.382	665.762
860.917	805.945
865.448	942.333
869.978	638.076
874.505	543.744
879.029	374.656
883.55	139.051
888.069	882.12
892.586	1561.28
897.1	2516.47
901.611	3451.63
906.12	4484.71
910.626	5483.62
915.129	6406.32
919.63	8192.82
924.129	10945.2
928.625	14158.6
933.118	16242.2
937.609	16227.2
942.097	14034.9
946.582	11676.7
951.065	9524.27
955.546	7353.52
960.023	6463.37
964.499	6281.46
968.971	6789.49
973.441	7235.44
977.909	8025.26
982.374	8798.92
986.836	10185.8
991.295	12354.2
995.753	14471.3
1000.21	15612.4
1004.66	15721.6
1009.11	15276.8
1013.55	14733.2
1018	13922.7
1022.44	13174
1026.88	12527.2
1031.32	11780.3
1035.75	10651.9
1040.18	9457.53
1044.61	8840.39
1049.04	9151.02
1053.46	10718.6
1057.88	13671
1062.3	18108.8
1066.71	26283.6
1071.13	28036.7
1075.54	25402.9
1079.94	21565.6
1084.35	18181.5
1088.75	17052
1093.15	16124.9
1097.55	14163.2
1101.94	10707.8
1106.34	6837.81
1110.73	4662.76
1115.11	3402.76
1119.5	2897.8
1123.88	2809.9
1128.26	2267.79
1132.63	1790.5
1137.01	1395.43
1141.38	1243.3
1145.75	731.71
1150.12	413.556
1154.48	380.758
1158.84	43.1992
1163.2	22.1387
1167.55	73.8682
1171.91	130.056
1176.26	109.66
1180.61	59.3545
1184.95	8.4541
1189.29	123.856
1193.63	38.1572
1197.97	193.341
1202.31	223.744
1206.64	181.016
1210.97	81.4863
1215.29	152.934
1219.62	192.12
1223.94	30.4023
1228.26	223.455
1232.57	206.435
1236.89	83.7715
1241.2	186.91
1245.51	216.79
1249.81	286.728
1254.12	165.861
1258.42	253.425
1262.72	495.006
1267.01	353.523
1271.3	390.483
1275.59	425.155
1279.88	432.685
1284.17	368.144
1288.45	280.04
1292.73	540.05
1297.01	533.66
1301.28	365.777
1305.55	338.227
1309.82	405.926
1314.09	369.906
1318.35	533.111
1322.61	453.349
1326.87	491.865
1331.13	294.885
1335.38	218.393
1339.63	176.328
1343.88	183.602
1348.12	261.617
1352.37	292.685
1356.61	406.843
1360.85	240.092
1365.08	298.029
1369.31	246.043
1373.54	221.155
1377.77	151.564
1381.99	106.393
1386.22	133.861
1390.43	261.115
1394.65	251.857
1398.87	171.366
1403.08	32.7998
1407.29	83.0566
1411.49	37.083
1415.69	70.7481
1419.89	172.765
1424.09	52.0957
1428.29	191.374
1432.48	194.773
1436.67	157.099
1440.86	374.703
1445.04	262.634
1449.23	354.854
1453.4	380.962
1457.58	563.308
1461.76	507.969
1465.93	421.655
1470.1	465.587
1474.26	321.315
1478.43	386.31
1482.59	334.884
1486.75	345.574
1490.9	467.398
1495.06	298.377
1499.21	140.679
1503.35	309.74
1507.5	470.356
1511.64	272.482
1515.78	322.34
1519.92	345.521
1524.05	298.728
1528.18	148.766
1532.31	133.713
1536.44	96.6689
1540.56	224.831
1544.69	59.1201
1548.8	312.874
1552.92	211.946
1557.03	42.1865
1561.14	160.487
1565.25	99.1807
1569.36	16.7959
