Measurement: Raman, 514 nm, ccw, Raman Data Processed
Mineral: Eudialyte
Rruff sample: R060206
Ideal chemistry: Na_15_Ca_6_Fe_3_Zr_3_Si(Si_25_O_73_)(O,OH,H_2_O)_3_(Cl,OH)_2_
Locality: Desourdy Quarry, Mont Saint-Hilaire, Rouville County, Quebec, Canada
Source: Royal Ontario Museum
Description: Yellowish-brown gemmy fragment
Measured chemistry: (Na_13.12_Ca_1.62_K_0.26_)_Σ=15_(Ca_4.47_Mn_1.00_Ce_0.32_La_0.21_)_Σ=6_(Fe_2.91_Mn_0.09_)_Σ=3_Zr_3.00_(Si_0.85_Nb_0.15_)_Σ=1_Si_25.00_O_73_((OH)_2.70_O_0.30_)_Σ=3_(Cl_1.20_(OH)_0.80_)_Σ=2_
Pin_id: M00448
Orientation: Laser parallel to -a* (-1 0 0). Fiducial mark perpendicular to laser is parallel to c [0 0 1]
Raman shift (cm-1)	intensity
121.827	0
126.749	95.5977
131.668	1576.06
136.585	3739.35
141.5	5422.55
146.412	5214.19
151.321	1947.68
156.229	0.958984
161.134	207.928
166.036	1074.58
170.936	2128.87
175.834	3431.45
180.729	6073.99
185.622	10235.2
190.512	16103.8
195.4	21935.3
200.286	25741.9
205.169	24441.1
210.049	19932
214.928	14392.9
219.803	10020.6
224.677	6666.25
229.548	3837.06
234.416	2016.22
239.282	1373.51
244.146	225.934
249.007	315.965
253.866	220.379
258.722	2663.48
263.576	1711.87
268.427	2455.5
273.276	3241.82
278.123	3882.05
282.967	4461.05
287.809	5214.02
292.648	5435.7
297.485	7480.16
302.319	6166.11
307.151	5569.5
311.98	5189.06
316.807	5169.3
321.631	5188.93
326.454	6049.44
331.273	7283.62
336.09	7674.93
340.905	6936.32
345.717	6640.17
350.527	6704.43
355.334	6855.44
360.139	6499.57
364.941	5937.68
369.741	5234.31
374.538	4971.24
379.333	5336.42
384.126	6473.74
388.916	7988.67
393.703	7988.88
398.488	6852.43
403.271	5362.84
408.051	4177.47
412.828	3645.64
417.603	3197.42
422.376	2289.68
427.146	1639.28
431.914	955.878
436.679	957.188
441.442	1066.24
446.202	614.069
450.96	169.501
455.715	6.39648
460.467	198.642
465.218	354.797
469.965	473.732
474.711	420.528
479.454	427.867
484.194	419.567
488.932	143.501
493.667	60.3711
498.4	312.521
503.13	712.926
507.858	1288.9
512.583	1892.86
517.306	2952.99
522.026	4262.4
526.744	5128.19
531.459	6371.52
536.172	8392.6
540.882	11310.7
545.59	14360
550.295	20529.1
554.998	28881.3
559.698	32802.7
564.396	35242.3
569.091	30823
573.784	16009.3
578.474	7033.38
583.162	2978.36
587.847	1616.49
592.529	1794.36
597.209	3413.57
601.887	5486.96
606.562	7894.17
611.235	8213.56
615.905	6505.9
620.572	5354.19
625.237	5278.56
629.9	4567.6
634.56	2419.53
639.217	1396.25
643.872	445.293
648.524	252.23
653.174	459.044
657.821	1290.13
662.466	2312.55
667.108	3620.34
671.748	4809.58
676.385	6473.28
681.02	9342.46
685.652	12232.1
690.281	14900.4
694.908	17793.1
699.533	22577.5
704.155	27231.6
708.774	28506.4
713.391	24283.2
718.005	20778.1
722.617	22960.5
727.226	27860.3
731.833	33654
736.437	38339.1
741.039	40450.8
745.638	38707.3
750.234	36079
754.828	34564.3
759.419	31884.6
764.008	28153.3
768.595	23630.8
773.178	19192
777.759	14832.2
782.338	11609.3
786.914	8944.9
791.488	6915.97
796.059	5451.43
800.627	4430.27
805.193	4337.47
809.756	5372.16
814.317	6320.91
818.875	6971.16
823.431	5818.77
827.984	4877.73
832.534	4992.05
837.082	5069.68
841.627	2347.62
846.17	1227.82
850.71	1397.26
855.248	443.907
859.783	170.636
864.316	167.6
868.846	953.757
873.373	940.938
877.898	903.234
882.42	494.945
886.94	112.456
891.457	1083.35
895.971	1997.11
900.483	3275.7
904.993	6148.12
909.5	15629.4
914.004	17170.4
918.505	13741.3
923.004	21425
927.501	29394.6
931.995	25527.2
936.486	27528.4
940.975	22552.2
945.461	31761.4
949.945	30254
954.426	12612.2
958.904	8619.22
963.38	7197.58
967.853	6893.38
972.324	6875.31
976.792	7005.47
981.258	7656.7
985.72	8632.06
990.181	10417.6
994.639	12652.5
999.094	14522
1003.55	14638.9
1008	14047.5
1012.44	13907.6
1016.89	13501.5
1021.33	13152.1
1025.77	13218.1
1030.21	12831.4
1034.64	11935.1
1039.07	10372.6
1043.5	9779.84
1047.93	9364.86
1052.35	10162.7
1056.78	12387.3
1061.19	15770.8
1065.61	21514.1
1070.02	24137.3
1074.43	22363.5
1078.84	18585.6
1083.25	15792.4
1087.65	14627.7
1092.05	13858.5
1096.45	12087.8
1100.85	9433.7
1105.24	6395.45
1109.63	4171.67
1114.02	3228.11
1118.4	2673.77
1122.78	2448.64
1127.16	2121.08
1131.54	2130.86
1135.92	1963.5
1140.29	1710.39
1144.66	1708.37
1149.02	1651.8
1153.39	1463.03
1157.75	1483.77
1162.11	1229.96
1166.46	1234.73
1170.82	984.607
1175.17	1048.15
1179.52	705.402
1183.86	344.387
1188.21	196.824
1192.55	66.5996
1196.89	200.435
1201.22	153.859
1205.55	353.434
1209.88	345.012
1214.21	380.346
1218.54	380.445
1222.86	255.022
1227.18	56.0527
1231.5	264.496
1235.81	339.56
1240.12	519.322
1244.43	690.586
1248.74	931.293
1253.04	867.342
1257.34	1226.02
1261.64	1271.16
1265.94	1435.72
1270.23	1488.22
1274.52	1424.51
1278.81	1443.67
1283.1	1399.61
1287.38	1686.45
1291.66	1652.98
1295.94	1657.86
1300.21	1719.77
1304.48	1638.66
1308.75	1674.6
1313.02	1732.88
1317.29	1646.4
1321.55	1653.61
1325.81	1585.33
1330.06	1445.89
1334.32	1458.38
1338.57	1339.08
1342.82	1720.9
1347.06	1860.94
1351.31	2634.78
1355.55	5230.64
1359.79	10267
1364.02	7970.08
1368.26	3533.59
1372.49	1879.22
1376.71	2078.06
1380.94	1913.33
1385.16	1672.3
1389.38	2754.41
1393.6	5524.13
1397.81	5285.5
1402.02	1752.65
1406.23	250.094
1410.44	176.609
1414.64	103.541
1418.85	93.9883
1423.04	819.557
1427.24	1423.3
1431.43	754.412
1435.62	820.303
1439.81	1619.09
1444	2303.96
1448.18	2332.16
1452.36	1935.98
1456.54	2275.39
1460.71	2668.22
1464.89	2579.7
1469.06	1939.01
1473.22	1720.08
1477.39	1697.58
1481.55	1413.86
1485.71	1757.16
1489.86	1523.27
1494.02	1104.18
1498.17	829.158
1502.32	699.189
1506.46	824.719
1510.61	675.066
1514.75	657.066
1518.88	434.668
1523.02	372.522
1527.15	274.68
1531.28	48.3223
1535.41	226.576
1539.53	22.9551
1543.66	79.7637
1547.78	299.422
1551.89	455.367
1556.01	568.742
1560.12	216.107
1564.23	190.951
1568.33	260.572
