Measurement: Raman, 514 nm, ccw, Raman Data Processed
Mineral: Eudialyte
Rruff sample: R060206
Ideal chemistry: Na_15_Ca_6_Fe_3_Zr_3_Si(Si_25_O_73_)(O,OH,H_2_O)_3_(Cl,OH)_2_
Locality: Desourdy Quarry, Mont Saint-Hilaire, Rouville County, Quebec, Canada
Source: Royal Ontario Museum
Description: Yellowish-brown gemmy fragment
Measured chemistry: (Na_13.12_Ca_1.62_K_0.26_)_Σ=15_(Ca_4.47_Mn_1.00_Ce_0.32_La_0.21_)_Σ=6_(Fe_2.91_Mn_0.09_)_Σ=3_Zr_3.00_(Si_0.85_Nb_0.15_)_Σ=1_Si_25.00_O_73_((OH)_2.70_O_0.30_)_Σ=3_(Cl_1.20_(OH)_0.80_)_Σ=2_
Pin_id: M00202
Orientation: Laser parallel to -c* (0 0 -1). Fiducial mark perpendicular to laser is parallel to a [1 0 0]
Raman shift (cm-1)	intensity
116.903	0
121.827	3.41992
126.749	475.606
131.668	2008.88
136.585	3705.84
141.5	4374.42
146.412	2649.12
151.321	1719.67
156.229	701.709
161.134	997.764
166.036	1977.04
170.936	2955.4
175.834	5051.85
180.729	8349.06
185.622	13302.7
190.512	19666.9
195.4	26969.3
200.286	32484.9
205.169	32914.7
210.049	27088
214.928	19268.4
219.803	12558.4
224.677	7613.86
229.548	4604.27
234.416	2442.51
239.282	921.523
244.146	134.523
249.007	507.749
253.866	490.199
258.722	612.011
263.576	1672.9
268.427	3613.69
273.276	5250.14
278.123	5908.44
282.967	6496.37
287.809	7286.06
292.648	7699.92
297.485	8141.58
302.319	8294.65
307.151	7965.2
311.98	6862.63
316.807	5676.84
321.631	5432.55
326.454	6791.94
331.273	8433.61
336.09	9068.71
340.905	7864.78
345.717	6806.72
350.527	6546.71
355.334	6943.09
360.139	6804.64
364.941	5681.19
369.741	5113.81
374.538	5032.61
379.333	5820.64
384.126	7229.71
388.916	8922.77
393.703	9398.01
398.488	8468.73
403.271	6613.65
408.051	5400.95
412.828	4820.07
417.603	4274.84
422.376	3249.13
427.146	2073.84
431.914	1401.84
436.679	1252.77
441.442	1472.58
446.202	890.393
450.96	447.022
455.715	51.8838
460.467	230.871
465.218	326.274
469.965	390.964
474.711	311.653
479.454	444.017
484.194	464.646
488.932	521.554
493.667	386.326
498.4	105.794
503.13	660.038
507.858	1349.87
512.583	2417.37
517.306	3753.78
522.026	5568.22
526.744	7076.8
531.459	8441.69
536.172	11204.1
540.882	14534.8
545.59	17718.2
550.295	24193.4
554.998	35541.4
559.698	39903.5
564.396	43525.7
569.091	40625.6
573.784	20905.1
578.474	9553.96
583.162	4609.54
587.847	2822.51
592.529	2762.09
597.209	4694.99
601.887	7868.93
606.562	10979.1
611.235	11868.3
615.905	9890.37
620.572	7878.58
625.237	8159.5
629.9	7144.02
634.56	4713.31
639.217	2972.1
643.872	2010.38
648.524	1604.64
653.174	1871.23
657.821	2442.49
662.466	3060.48
667.108	4067.29
671.748	5664.97
676.385	7972.58
681.02	10814.1
685.652	13656.7
690.281	16920.3
694.908	20777
699.533	26315.9
704.155	31837.9
708.774	33673.2
713.391	28406.8
718.005	24430.2
722.617	27101.9
727.226	33805.3
731.833	41655.4
736.437	48432.1
741.039	50163.5
745.638	47975.6
750.234	44539
754.828	42984.2
759.419	40756.7
764.008	36295.3
768.595	30291.5
773.178	24102.4
777.759	18598.8
782.338	14246.3
786.914	11054.2
791.488	8542.17
796.059	6416.28
800.627	5095.46
805.193	5015.68
809.756	5890.92
814.317	7351.15
818.875	8090.35
823.431	6960.51
827.984	5064.44
832.534	3776.51
837.082	2773.29
841.627	1484.86
846.17	489.176
850.71	34.8945
855.248	595.279
859.783	959.879
864.316	767.149
868.846	852.204
873.373	671.769
877.898	314.93
882.42	117.443
886.94	938.086
891.457	1771.98
895.971	2841.05
900.483	3537.28
904.993	4889.57
909.5	6146.86
914.004	7100.11
918.505	8706.32
923.004	11593.6
927.501	15153
931.995	18258.8
936.486	18393
940.975	16579
945.461	13720.6
949.945	10756.2
954.426	8024.54
958.904	6703.6
963.38	6467.95
967.853	6786.42
972.324	7501.78
976.792	8027.01
981.258	8684.03
985.72	9953.63
990.181	11982.4
994.639	14287.8
999.094	15919.1
1003.55	16149.4
1008	16224.1
1012.44	15686.6
1016.89	15207.2
1021.33	14790.6
1025.77	14122
1030.21	13188.4
1034.64	11852.9
1039.07	10680.2
1043.5	9399.5
1047.93	9431.87
1052.35	10512.4
1056.78	12914
1061.19	17074.3
1065.61	23962.2
1070.02	27685.7
1074.43	25407.3
1078.84	21693.1
1083.25	18204.8
1087.65	16840.4
1092.05	15784.2
1096.45	14061.6
1100.85	10993.8
1105.24	7427.22
1109.63	4865.27
1114.02	3472.96
1118.4	2913.9
1122.78	2503.35
1127.16	2113.93
1131.54	1862.33
1135.92	1397.57
1140.29	1154.37
1144.66	907.727
1149.02	456.144
1153.39	301.481
1157.75	54.5283
1162.11	41.6201
1166.46	157.857
1170.82	108.726
1175.17	96.2598
1179.52	28.6299
1183.86	26.4062
1188.21	68.0381
1192.55	104.367
1196.89	147.944
1201.22	183.629
1205.55	162.422
1209.88	252.787
1214.21	170.824
1218.54	118.296
1222.86	98.1445
1227.18	103.709
1231.5	60.6191
1235.81	146.292
1240.12	316.515
1244.43	164.106
1248.74	230.65
1253.04	379.785
1257.34	225.581
1261.64	261.593
1265.94	486.768
1270.23	343.307
1274.52	446.712
1278.81	355.589
1283.1	370.519
1287.38	358.269
1291.66	435.56
1295.94	360.258
1300.21	422.969
1304.48	411.026
1308.75	472.359
1313.02	533.914
1317.29	354.112
1321.55	499.706
1325.81	344.125
1330.06	303.588
1334.32	244.829
1338.57	333.021
1342.82	122.624
1347.06	210.649
1351.31	274.711
1355.55	289.772
1359.79	487.075
1364.02	275.969
1368.26	139.35
1372.49	214.112
1376.71	228.09
1380.94	128.133
1385.16	57.9141
1389.38	224.231
1393.6	214.305
1397.81	74.6592
1402.02	39.7685
1406.23	97.4053
1410.44	29.0361
1414.64	44.5869
1418.85	183.029
1423.04	164.819
1427.24	117.2
1431.43	154.262
1435.62	117.019
1439.81	283.491
1444	329.334
1448.18	235.814
1452.36	444.606
1456.54	449.137
1460.71	458.781
1464.89	342.544
1469.06	404.134
1473.22	434.727
1477.39	360.918
1481.55	312.052
1485.71	286.777
1489.86	311.874
1494.02	366.603
1498.17	244.227
1502.32	302.898
1506.46	171.552
1510.61	244.298
1514.75	355.737
1518.88	198.531
1523.02	304.318
1527.15	161.52
1531.28	201.262
1535.41	219.182
1539.53	42.9238
1543.66	111.194
1547.78	60.708
1551.89	174.816
1556.01	130.203
1560.12	80.3809
1564.23	107.683
1568.33	140.218
