Measurement: Raman, 514 nm, ccw, Raman Data Processed
Mineral: Eudialyte
Rruff sample: R060035
Ideal chemistry: Na_15_Ca_6_Fe_3_Zr_3_Si(Si_25_O_73_)(O,OH,H_2_O)_3_(Cl,OH)_2_
Locality: Chibini, Kola Peninsula, Russia
Source: University of Arizona Mineral Museum
Description: Deep pink coarsely crystalline
Measured chemistry: (Na_14.86_K_0.14_)_Σ=15_Ca_6.00_(Fe_1.52_Mn_1.48_)_Σ=3_(Zr_2.82_Ti_0.18_)_Σ=3_(Si_0.93_Nb_0.07_)_Σ=1_(Si_25.00_O_73_)((OH)_1.01_(H_2_O)_1.99_)_Σ=3_(Cl_1.65_(OH)_0.35_)_Σ=2_
Pin_id: M00150
Orientation: Laser parallel to c* (0 0 1). Fiducial mark perpendicular to laser is parallel to b [0 1 0]
Raman shift (cm-1)	intensity
118.134	0
123.058	322.188
127.979	59.9707
132.898	572.707
137.814	1072.62
142.728	1601.19
147.639	1366.92
152.549	848.172
157.455	334.211
162.359	412.545
167.261	634.787
172.161	669.18
177.058	989.467
181.952	2109.52
186.845	3627.96
191.734	5718.26
196.622	7660.39
201.507	9497.14
206.389	9096.61
211.269	7861.68
216.147	6094.28
221.022	4209.8
225.895	2706.38
230.765	1427.88
235.633	680.844
240.498	121.658
245.361	23.3047
250.222	12.6699
255.08	198.67
259.936	863.098
264.789	1068.05
269.64	1532.34
274.488	1656.23
279.334	1327.35
284.178	1370.1
289.019	1473.96
293.857	1864.09
298.693	2183.57
303.527	2730.79
308.358	2795.07
313.187	2401.25
318.013	2376.21
322.837	2550.12
327.659	2575.04
332.478	3189.48
337.294	3465.46
342.108	3324.65
346.92	3055.62
351.729	2934.67
356.535	2862.44
361.34	2414.94
366.141	2138.28
370.94	1743.74
375.737	1496.69
380.531	1164.99
385.323	1388.58
390.113	2148.47
394.9	2964.7
399.684	2706.15
404.466	2378.94
409.245	1724.1
414.022	1264.02
418.797	853.713
423.569	524.098
428.338	206.051
433.105	91.3789
437.87	200.174
442.632	733.426
447.391	985.139
452.149	971.277
456.903	716.816
461.655	31.709
466.405	118.606
471.152	301.83
475.897	252.162
480.639	377.852
485.378	181.269
490.116	184.625
494.85	510.459
499.582	870.721
504.312	1160.21
509.039	1572.93
513.764	1639.22
518.486	2063.4
523.206	2196.84
527.923	2345.61
532.638	3028.72
537.35	5050.68
542.059	7822.79
546.766	11174.1
551.471	15463.6
556.173	19839.1
560.873	21484
565.57	22050.5
570.264	15568.9
574.957	7909.79
579.646	4124.19
584.333	2747.53
589.018	2373.15
593.7	3271.97
598.379	4139.96
603.056	4901.56
607.73	5133.85
612.402	4256.69
617.072	3327.24
621.739	2463.86
626.403	2408.54
631.065	2148.42
635.724	1440.31
640.381	683.936
645.035	342.588
649.687	151.76
654.336	543.439
658.983	851.109
663.627	1057.07
668.268	1662.4
672.907	1972.4
677.544	2937.65
682.178	3958.52
686.809	5532.54
691.438	7225.96
696.065	9724.91
700.688	11850.9
705.31	12768.8
709.929	11351.9
714.545	7792.83
719.158	4755.36
723.77	3301.57
728.378	2871.2
732.984	3273.43
737.588	4519.51
742.189	5409.6
746.787	5826.09
751.383	5138.92
755.976	4670.43
760.567	4125.87
765.155	3667.68
769.741	3402.13
774.324	3283
778.904	3411.86
783.482	2927.71
788.058	2242.2
792.631	1262.02
797.201	571.836
801.769	184.559
806.334	288.078
810.897	167.586
815.457	37.0234
820.014	81.9727
824.569	133.84
829.122	56.457
833.671	398.496
838.219	278.234
842.763	44.75
847.306	58.8477
851.845	73.6289
856.382	85.6289
860.917	152.551
865.448	147.547
869.978	762.723
874.505	871.184
879.029	946.941
883.55	1375.04
888.069	1695.48
892.586	2157.93
897.1	3206.23
901.611	4011.91
906.12	5137.8
910.626	6109.09
915.129	6901.82
919.63	8147.2
924.129	8000.65
928.625	7289.72
933.118	5950.85
937.609	5136.69
942.097	4644.48
946.582	5235.27
951.065	4022.42
955.546	3571.83
960.023	2823.32
964.499	3137.85
968.971	2926.72
973.441	2934.99
977.909	3379.4
982.374	3476.73
986.836	3853.69
991.295	4639.26
995.753	5028.89
1000.21	4630.22
1004.66	3826.38
1009.11	3196.95
1013.55	2791.2
1018	2635.04
1022.44	2335.59
1026.88	2467.03
1031.32	1999.67
1035.75	2267.52
1040.18	2478.23
1044.61	2380.57
1049.04	2446.73
1053.46	2496.72
1057.88	3153.73
1062.3	4103.06
1066.71	4541.4
1071.13	5376.72
1075.54	5982.43
1079.94	6610.73
1084.35	7681.42
1088.75	9126.82
1093.15	8505.84
1097.55	7986.56
1101.94	5863.12
1106.34	4178.61
1110.73	3262.29
1115.11	2580.18
1119.5	2132.01
1123.88	1845.25
1128.26	2097.46
1132.63	1674.34
1137.01	1384.66
1141.38	1294.01
1145.75	354.867
1150.12	35.9219
1154.48	355.781
1158.84	215.766
1163.2	361.348
1167.55	365.68
1171.91	58.5273
1176.26	308.406
1180.61	116.875
1184.95	156.301
1189.29	265.594
1193.63	10.3477
1197.97	141.293
1202.31	207.941
1206.64	36.5586
1210.97	260.797
1215.29	107.918
1219.62	382.164
1223.94	276.113
1228.26	291.828
1232.57	271.07
1236.89	349.703
1241.2	17.8242
1245.51	9.76562
1249.81	302.461
1254.12	378.371
1258.42	395.652
1262.72	397.289
1267.01	337.305
1271.3	103.438
1275.59	101.434
1279.88	188.418
1284.17	26.0898
1288.45	218.426
1292.73	148.769
1297.01	5.92578
1301.28	487.039
1305.55	183.973
1309.82	324.941
1314.09	430.266
1318.35	351.984
1322.61	549.414
1326.87	507.578
1331.13	298.902
1335.38	210.812
1339.63	396.09
1343.88	346.375
1348.12	535.766
1352.37	504.867
1356.61	131.945
1360.85	367.684
1365.08	435.848
1369.31	278.082
1373.54	179.539
1377.77	414.891
1381.99	440.027
1386.22	253.523
1390.43	450.828
1394.65	31.0039
1398.87	242.746
1403.08	111.394
1407.29	72.7148
1411.49	327.023
1415.69	64.6172
1419.89	272.949
1424.09	20.2773
1428.29	40.6992
1432.48	294.281
1436.67	309.102
1440.86	171.387
1445.04	489.551
1449.23	467.738
1453.4	278.109
1457.58	287
1461.76	264.801
1465.93	242.352
1470.1	236.102
1474.26	431.531
1478.43	252.707
1482.59	368.328
1486.75	220.703
1490.9	528.383
1495.06	345.91
1499.21	108.074
1503.35	548.004
1507.5	93.5664
1511.64	335.176
1515.78	323.371
1519.92	196.344
1524.05	164.398
1528.18	296.633
1532.31	377.922
1536.44	400.559
1540.56	535.324
1544.69	300.098
1548.8	227.188
1552.92	429.004
1557.03	294.551
1561.14	244.352
1565.25	156.488
1569.36	22.4141
