Measurement: Raman, 514 nm, ccw, Raman Data Processed
Mineral: Eudialyte
Rruff sample: R050230
Ideal chemistry: Na_15_Ca_6_Fe_3_Zr_3_Si(Si_25_O_73_)(O,OH,H_2_O)_3_(Cl,OH)_2_
Locality: Kipawa alkaline complex, near Sheffield Lake, Villedieu Township, Temiscamingue County, Quebec, Canada
Source: Marcus Origlieri
Description: Massive aggregate of red crystals
Measured chemistry: (Na_14.50_K_0.35_Ca_0.15_)_Σ=15_Ca_6.00_(Fe_1.86_Mn_1.01_Mg_0.13_)_Σ=3_(Zr_2.91_Ti_0.09_)_3_(Si_0.94_Nb_0.06_)_Σ=1.00_(Si_25.00_O_73_)(OH)_1.10_(H_2_O)_1.90_)_Σ=3_(Cl_1.17_(OH)_0.83_)_Σ=2_
Pin_id: M00392
Orientation: Laser parallel to c* (0 0 1). Fiducial mark perpendicular to laser is parallel to -a [-1 0 0]
Raman shift (cm-1)	intensity
118.134	0
123.058	339.365
127.979	83.291
132.898	1053.12
137.814	2981.7
142.728	4526.24
147.639	3264.41
152.549	3006.45
157.455	3679.08
162.359	4870.02
167.261	4356.66
172.161	3017.54
177.058	2316.25
181.952	3571.05
186.845	7015.65
191.734	10983.5
196.622	16108.4
201.507	21764.9
206.389	25564
211.269	26247.9
216.147	23632.4
221.022	18410.9
225.895	12005.7
230.765	6725.53
235.633	3482.5
240.498	2410.71
245.361	2518.1
250.222	3826.53
255.08	4903.84
259.936	5446.53
264.789	5147.79
269.64	5716.93
274.488	6864.61
279.334	7926.94
284.178	9335
289.019	10604.2
293.857	11947.7
298.693	13329.3
303.527	14459.4
308.358	15272.5
313.187	17478.1
318.013	19853.2
322.837	19967.7
327.659	20633.7
332.478	23377.3
337.294	25566
342.108	22853
346.92	17959.9
351.729	14324.8
356.535	12600.5
361.34	10966.8
366.141	9337.11
370.94	7519.38
375.737	6389.07
380.531	5612.64
385.323	5668.8
390.113	6098.5
394.9	6793.65
399.684	6815.5
404.466	6625.79
409.245	6385.75
414.022	5611.87
418.797	4845.34
423.569	4359.77
428.338	3389.82
433.105	2748.3
437.87	2347.07
442.632	1774.02
447.391	1173.9
452.149	573.255
456.903	23.5645
461.655	430.185
466.405	964.369
471.152	1131.01
475.897	1142.51
480.639	861.707
485.378	703.346
490.116	412.693
494.85	32.4883
499.582	810.719
504.312	1788.69
509.039	3058.1
513.764	4180.33
518.486	5234.42
523.206	6147.4
527.923	7331.33
532.638	9033.24
537.35	12727.2
542.059	17607.2
546.766	23056.3
551.471	30030.8
556.173	37001.7
560.873	39828
565.57	42726.7
570.264	43051.5
574.957	32527.6
579.646	20042.7
584.333	12282.8
589.018	9201.38
593.7	9356.57
598.379	11329.3
603.056	13785.3
607.73	13876.8
612.402	12086.6
617.072	9391.43
621.739	8842.79
626.403	9278.34
631.065	9070.24
635.724	8427.55
640.381	7791.27
645.035	7749.77
649.687	8344.82
654.336	10030.4
658.983	11783.1
663.627	14327
668.268	16796
672.907	19537.2
677.544	22016.4
682.178	24502.7
686.809	26892.2
691.438	28868.7
696.065	31264.4
700.688	33453.9
705.31	32086.9
709.929	27213.9
714.545	21496.5
719.158	18226.1
723.77	17995
728.378	19592
732.984	22171.3
737.588	24992.5
742.189	26525.5
746.787	25911.5
751.383	24061.8
755.976	21866.8
760.567	20172.3
765.155	18401.4
769.741	16494.9
774.324	14467
778.904	12799.1
783.482	11391.6
788.058	9532.1
792.631	7239.5
797.201	5499.78
801.769	4085.94
806.334	3216.97
810.897	2599.89
815.457	2026.71
820.014	1797.44
824.569	1298.08
829.122	669.429
833.671	268.325
838.219	60.3525
842.763	304.532
847.306	530.731
851.845	625.191
856.382	821.101
860.917	935.286
865.448	773.711
869.978	813.067
874.505	749.208
879.029	737.01
883.55	387.307
888.069	160.122
892.586	757.693
897.1	1758.95
901.611	2970.8
906.12	4555.39
910.626	6069.9
915.129	8017.52
919.63	10629.5
924.129	12259.1
928.625	12978.6
933.118	11891.2
937.609	10128.3
942.097	8503.01
946.582	7521.73
951.065	6870.74
955.546	5858.33
960.023	5159.12
964.499	4486.31
968.971	4194.37
973.441	4450.85
977.909	4828.71
982.374	5724.99
986.836	6664.85
991.295	7304.68
995.753	7700.39
1000.21	7250.53
1004.66	6472.62
1009.11	5503.44
1013.55	4768.85
1018	4328.32
1022.44	4137.13
1026.88	4482.67
1031.32	4764.86
1035.75	5164.42
1040.18	6031.69
1044.61	7171.06
1049.04	8613.05
1053.46	11151.3
1057.88	14994.8
1062.3	21447.6
1066.71	25711
1071.13	24740.5
1075.54	25222.1
1079.94	28914.5
1084.35	31411
1088.75	32745.4
1093.15	32360.3
1097.55	29620.1
1101.94	25776.4
1106.34	22690.6
1110.73	19958.5
1115.11	17753.9
1119.5	16403.4
1123.88	15927.6
1128.26	15734.2
1132.63	13419.3
1137.01	9014.29
1141.38	4479.07
1145.75	2050.47
1150.12	1979.07
1154.48	3792.18
1158.84	6125.38
1163.2	9527.42
1167.55	12689.8
1171.91	14303.8
1176.26	13169.3
1180.61	11009.4
1184.95	8836.41
1189.29	6982.62
1193.63	5689.99
1197.97	4263.9
1202.31	2769.89
1206.64	1412.05
1210.97	1031.95
1215.29	1355.19
1219.62	2338.89
1223.94	4096.03
1228.26	5766.23
1232.57	7045.47
1236.89	7229.29
1241.2	6954.09
1245.51	5977.74
1249.81	5009.01
1254.12	4806.47
1258.42	5300.11
1262.72	5627.11
1267.01	5763.06
1271.3	5011.15
1275.59	4294.53
1279.88	3153.65
1284.17	2259.69
1288.45	1522.7
1292.73	995.221
1297.01	567.721
1301.28	178.583
1305.55	46.3574
1309.82	159.961
1314.09	240.193
1318.35	286.897
1322.61	285.468
1326.87	336.44
1331.13	246.958
1335.38	336.232
1339.63	402.402
1343.88	203.01
1348.12	225.916
1352.37	340.029
1356.61	101.584
1360.85	236.16
1365.08	180.629
1369.31	86.0684
1373.54	166.75
1377.77	10.8066
1381.99	65.3106
1386.22	61.2285
1390.43	94.9629
1394.65	19.4902
1398.87	250.92
1403.08	404.6
1407.29	650.385
1411.49	894.525
1415.69	1375.01
1419.89	1822.35
1424.09	2625.74
1428.29	3098.8
1432.48	3725.9
1436.67	4719.88
1440.86	5369.03
1445.04	6085.32
1449.23	7199.12
1453.4	7916.95
1457.58	8560.09
1461.76	8995.56
1465.93	9054.62
1470.1	8848.33
1474.26	8450.91
1478.43	8471.43
1482.59	7775.31
1486.75	7662.95
1490.9	7654.99
1495.06	7565.7
1499.21	7724.43
1503.35	7682.61
1507.5	7432.47
1511.64	7692.65
1515.78	7312.63
1519.92	7092.56
1524.05	6319.53
1528.18	5476.25
1532.31	4345.27
1536.44	3485.33
1540.56	2568.38
1544.69	1324.24
1548.8	567.129
1552.92	473.477
1557.03	200.434
1561.14	666.457
1565.25	253.062
1569.36	7.26562
