Measurement: Raman, 514 nm, ccw, Raman Data Processed
Mineral: Eudialyte
Rruff sample: R060035
Ideal chemistry: Na_15_Ca_6_Fe_3_Zr_3_Si(Si_25_O_73_)(O,OH,H_2_O)_3_(Cl,OH)_2_
Locality: Chibini, Kola Peninsula, Russia
Source: University of Arizona Mineral Museum
Description: Deep pink coarsely crystalline
Measured chemistry: (Na_14.86_K_0.14_)_Σ=15_Ca_6.00_(Fe_1.52_Mn_1.48_)_Σ=3_(Zr_2.82_Ti_0.18_)_Σ=3_(Si_0.93_Nb_0.07_)_Σ=1_(Si_25.00_O_73_)((OH)_1.01_(H_2_O)_1.99_)_Σ=3_(Cl_1.65_(OH)_0.35_)_Σ=2_
Pin_id: M00465
Orientation: Laser parallel to a* (1 0 0). Fiducial mark perpendicular to laser is parallel to c [0 0 1]
Raman shift (cm-1)	intensity
118.134	0
123.058	180.791
127.979	774.754
132.898	2900.71
137.814	6179.63
142.728	8057.65
147.639	6868.98
152.549	3847.76
157.455	1757.21
162.359	729.293
167.261	407.348
172.161	138.074
177.058	365.584
181.952	605.721
186.845	880.781
191.734	1627.25
196.622	2373.45
201.507	2631.31
206.389	1771.05
211.269	1162.52
216.147	353.772
221.022	123.812
225.895	210.83
230.765	177.516
235.633	41.2109
240.498	713.064
245.361	1188.44
250.222	1100.35
255.08	1358.1
259.936	1510.23
264.789	1194.06
269.64	1135.53
274.488	1392.35
279.334	1390.55
284.178	1717.79
289.019	2071.43
293.857	2402.82
298.693	2395.06
303.527	2509.58
308.358	2725.02
313.187	2816.37
318.013	2451.95
322.837	2539.56
327.659	3497.11
332.478	4302.54
337.294	4953.5
342.108	5320.45
346.92	5030.3
351.729	4696.94
356.535	4630.13
361.34	3850.8
366.141	2855.41
370.94	2539.14
375.737	2286.63
380.531	2027.09
385.323	2063.53
390.113	2372.05
394.9	2978.48
399.684	3082.11
404.466	2158.21
409.245	1318.85
414.022	925.264
418.797	563.842
423.569	177.019
428.338	14.9824
433.105	245.822
437.87	203.324
442.632	390.926
447.391	563.482
452.149	697.525
456.903	479.051
461.655	19.0469
466.405	145.613
471.152	219.691
475.897	164.012
480.639	104.443
485.378	282.092
490.116	443.182
494.85	616.803
499.582	964.973
504.312	1359.31
509.039	1342.94
513.764	1299.23
518.486	1432.86
523.206	1886.67
527.923	1750.5
532.638	2169.32
537.35	2706.8
542.059	3941.23
546.766	6380.8
551.471	10232.5
556.173	15780
560.873	21888.1
565.57	28514.2
570.264	21194.3
574.957	10809.2
579.646	5656.9
584.333	4266.13
589.018	4435.07
593.7	5635.62
598.379	7066.76
603.056	8290.21
607.73	7641.92
612.402	5769.56
617.072	4010.96
621.739	2624.74
626.403	1858.19
631.065	1422.86
635.724	859.281
640.381	890.385
645.035	850.146
649.687	839.555
654.336	885.264
658.983	1202.01
663.627	1808.66
668.268	2341.45
672.907	3271.86
677.544	4578.8
682.178	6070.7
686.809	8510.84
691.438	11599.7
696.065	14991.2
700.688	18489
705.31	20202.2
709.929	17397.5
714.545	11265
719.158	6519.76
723.77	4034.84
728.378	3463.95
732.984	3910.97
737.588	4976.76
742.189	6303.33
746.787	5906.52
751.383	4822.06
755.976	3611.44
760.567	2927.86
765.155	2174.14
769.741	2016.17
774.324	1828.94
778.904	1444.43
783.482	1185.67
788.058	733.639
792.631	364.344
797.201	374.674
801.769	144.637
806.334	43.1367
810.897	219.935
815.457	289.356
820.014	422.815
824.569	174.639
829.122	74.7109
833.671	198.041
838.219	56.4609
842.763	192.494
847.306	4.25391
851.845	45.6719
856.382	380.574
860.917	138.894
865.448	230.357
869.978	573.055
874.505	818.049
879.029	757.385
883.55	947.115
888.069	1328.27
892.586	1596.87
897.1	2532.97
901.611	2886.61
906.12	3958.85
910.626	4392.75
915.129	4546.41
919.63	5056.94
924.129	5481.34
928.625	4983.35
933.118	4426.75
937.609	4548.1
942.097	4692.09
946.582	4963.67
951.065	5000.22
955.546	4634.57
960.023	4479.57
964.499	4515.89
968.971	5050.88
973.441	5779.38
977.909	6760.18
982.374	8185.72
986.836	9574.9
991.295	11675.2
995.753	12113.1
1000.21	11369.7
1004.66	8910.69
1009.11	6584.97
1013.55	5333.82
1018	4354.47
1022.44	4171.85
1026.88	4349.39
1031.32	4963.99
1035.75	5471.17
1040.18	6232.85
1044.61	6646.66
1049.04	6961.57
1053.46	7902.16
1057.88	8390.51
1062.3	10034.1
1066.71	11438.8
1071.13	12848.3
1075.54	13638.2
1079.94	14825.9
1084.35	16980.4
1088.75	18945.2
1093.15	18635.7
1097.55	15715.5
1101.94	11588.3
1106.34	8115.27
1110.73	5825.54
1115.11	4937.19
1119.5	4636.29
1123.88	4671.7
1128.26	4698.85
1132.63	4217.07
1137.01	4128.85
1141.38	3701.77
1145.75	2232.84
1150.12	1156.82
1154.48	834.527
1158.84	700.375
1163.2	368.41
1167.55	196.613
1171.91	19.7305
1176.26	66.7578
1180.61	194.879
1184.95	239.289
1189.29	73.332
1193.63	127.902
1197.97	28.6406
1202.31	125.594
1206.64	78.5156
1210.97	9.96094
1215.29	294.894
1219.62	64.3711
1223.94	288.371
1228.26	289.449
1232.57	145.047
1236.89	23.5117
1241.2	120.992
1245.51	161.406
1249.81	57.3984
1254.12	180.394
1258.42	19.3008
1262.72	13.2969
1267.01	393.086
1271.3	79.2422
1275.59	86.3359
1279.88	95.5312
1284.17	178.231
1288.45	215.742
1292.73	96.3164
1297.01	314.199
1301.28	93.5508
1305.55	150.531
1309.82	389.242
1314.09	115.859
1318.35	259.324
1322.61	274.582
1326.87	220.035
1331.13	423.18
1335.38	83.6797
1339.63	340.43
1343.88	281.934
1348.12	315.691
1352.37	197.305
1356.61	251.301
1360.85	260.188
1365.08	99.6523
1369.31	41.5977
1373.54	363.394
1377.77	368.723
1381.99	147.184
1386.22	58.9766
1390.43	187.125
1394.65	165.742
1398.87	149.394
1403.08	207.426
1407.29	307.297
1411.49	81.5898
1415.69	169.738
1419.89	274.648
1424.09	204.898
1428.29	454.246
1432.48	623.691
1436.67	780.75
1440.86	805.574
1445.04	610.117
1449.23	952.691
1453.4	1127.65
1457.58	880.602
1461.76	942.68
1465.93	870.016
1470.1	909.043
1474.26	1178.83
1478.43	855.731
1482.59	1364.19
1486.75	1096.51
1490.9	1248.71
1495.06	1325.12
1499.21	1105.81
1503.35	1257.21
1507.5	1135.52
1511.64	1217.41
1515.78	1100.21
1519.92	1060.5
1524.05	882.898
1528.18	621.812
1532.31	783.047
1536.44	557.844
1540.56	30.5234
1544.69	320.957
1548.8	550.328
1552.92	509.004
1557.03	505.691
1561.14	101.125
1565.25	251.281
1569.36	14.1445
