Measurement: Raman, 514 nm, ccw, Raman Data Processed
Mineral: Fayalite
Rruff sample: R070374
Ideal chemistry: Fe^2+^_2_SiO_4_
Locality: Little Lake, Lake County, California, USA
Source: Michael Scott
Description: Large dark brown crystal fragment
Measured chemistry: (Fe^2+^_1.89_Mn^2+^_0.11_)_Î£=2_Si_1.00_O_4_ ; trace amounts of Mg
Pin_id: M01077
Orientation: Laser parallel to a* (1 0 0). Fiducial mark perpendicular to laser is parallel to b [0 1 0]
Raman shift (cm-1)	intensity
95.631	0
100.581	146.699
105.529	439.876
110.475	611.903
115.417	896.436
120.358	721.089
125.295	339.346
130.23	105.671
135.163	3.13306
140.092	76.8384
145.019	109.251
149.944	471.083
154.866	1227.28
159.785	799.779
164.702	1297.89
169.616	4004.43
174.528	3175.34
179.437	781.7
184.343	408.46
189.247	387.619
194.148	384.111
199.046	245.269
203.942	17.129
208.835	65.1316
213.726	1.97864
218.614	110.93
223.5	362.562
228.382	909.195
233.263	2030.67
238.14	3277.25
243.015	2953.93
247.888	1554.57
252.758	908.37
257.625	672.47
262.49	631.708
267.352	791.727
272.211	1141.85
277.068	1985.36
281.922	2704.12
286.773	2393.61
291.622	1733.94
296.469	1154.86
301.312	849.268
306.154	817.976
310.992	774.727
315.828	682.819
320.661	441.903
325.492	363.456
330.32	331.106
335.145	365.355
339.968	359.115
344.789	512.182
349.606	620.51
354.421	806.978
359.234	1234.96
364.043	1563.51
368.851	1797.06
373.655	1769.68
378.457	1348.29
383.256	1067.97
388.053	849.721
392.847	553.618
397.639	366.547
402.428	253.48
407.214	162.331
411.998	133.13
416.779	111.823
421.557	31.3538
426.333	43.6918
431.106	8.12707
435.877	14.8133
440.645	13.3054
445.41	14.4108
450.173	25.53
454.933	5.86523
459.691	1.6554
464.446	44.2527
469.198	37.1251
473.948	48.2852
478.695	98.1389
483.439	187.273
488.181	235.331
492.92	382.234
497.657	767.027
502.391	1338.38
507.122	1489.73
511.851	1060.57
516.577	684.81
521.301	523.097
526.022	446.683
530.74	399.518
535.456	490.221
540.169	482.627
544.879	545.514
549.587	635.127
554.292	667.438
558.995	699.106
563.695	639.112
568.392	577.897
573.087	563.903
577.779	467.976
582.469	474.777
587.156	516.763
591.84	435.264
596.522	354.559
601.201	311.003
605.877	174.39
610.551	138.281
615.222	47.7571
619.891	53.3099
624.557	35.045
629.22	78.2186
633.881	14.8344
638.539	30.8562
643.195	6.74756
647.848	41.0659
652.498	4.41186
657.145	17.9429
661.791	26.0038
666.433	5.59863
671.073	30.9069
675.71	8.99707
680.345	9.69006
684.977	17.9279
689.606	45.5848
694.233	30.236
698.857	4.51379
703.478	10.0479
708.097	0.876465
712.714	28.428
717.327	11.056
721.938	31.6311
726.547	14.469
731.153	2.48169
735.756	33.4392
740.356	80.3472
744.954	125.192
749.55	147.659
754.142	170.742
758.733	108.541
763.32	213.787
767.905	223.722
772.487	367.511
777.067	431.317
781.644	648.355
786.218	913.867
790.79	1340.11
795.359	2120.64
799.926	3672.9
804.49	7644.41
809.051	15054.2
813.61	22748.9
818.166	21226.4
822.72	16989.8
827.271	15236.7
831.819	15226.6
836.365	15626.9
840.908	14973.3
845.448	12473.5
849.986	9386.61
854.521	6748.2
859.054	4861.44
863.584	3618.56
868.111	2961.71
872.636	2546.35
877.158	2246.5
881.677	2244.15
886.194	2429.33
890.709	3070.05
895.22	4424.34
899.729	6327.65
904.236	6368.71
908.74	4175.98
913.241	2930.97
917.739	2619.32
922.235	2509.59
926.729	2299.62
931.219	2072.51
935.708	1797.43
940.193	1521.03
944.676	1285.75
949.156	1035.42
953.634	955.094
958.109	814.502
962.582	729.463
967.051	633.746
971.519	589.331
975.983	457.909
980.445	446.868
984.905	399.434
989.362	303.601
993.816	221.363
998.267	203.688
1002.72	196.528
1007.16	93.8794
1011.61	106.717
1016.05	65.0327
1020.49	49.822
1024.92	44.0693
1029.36	3.75537
1033.79	31.1562
1038.21	4.74072
1042.64	41.0352
1047.06	50.0491
1051.48	58.6931
1055.9	7.70776
1060.32	29.3982
1064.73	25.7715
1069.14	14.9258
1073.55	16.627
1077.95	18.1145
1082.35	37.9978
1086.75	42.5984
1091.15	93.6829
1095.54	100.867
1099.93	107.944
1104.32	65.8472
1108.71	118.235
1113.09	64.5049
1117.47	145.816
1121.85	154.363
1126.23	178.434
1130.6	240.374
1134.97	255.575
1139.34	237.017
1143.7	189.703
1148.07	227.392
1152.43	215.992
1156.79	193.967
1161.14	152.209
1165.49	108.654
1169.84	99.7266
1174.19	68.3643
1178.54	110.731
1182.88	107.983
1187.22	24.5088
1191.55	22.5615
1195.89	11.3852
1200.22	72.8455
1204.55	10.3955
1208.87	14.9334
1213.2	14.7896
1217.52	35.0261
1221.84	19.3223
1226.15	15.0581
1230.47	38.699
1234.78	51.1968
1239.09	87.417
1243.39	37.325
1247.69	70.9536
1251.99	4.66211
1256.29	68.4492
1260.59	110.351
1264.88	52.0232
1269.17	81.4702
1273.46	118.711
1277.74	95.7412
1282.02	108.554
1286.3	102.163
1290.58	120.577
1294.86	106.823
1299.13	98.9199
1303.39	176.86
1307.66	124.71
1311.93	145.446
1316.19	174.847
1320.45	202.074
1324.7	137.588
1328.96	189.16
1333.21	207.897
1337.45	144.627
1341.7	211.994
1345.94	112.303
1350.18	218.023
1354.42	138.998
1358.66	160.118
1362.89	89.4146
1367.12	137.241
1371.35	187.644
1375.57	209.826
1379.8	154.411
1384.02	168.379
1388.23	154.585
1392.45	162.227
1396.66	146.07
1400.87	153.42
1405.08	185.736
1409.28	132.113
1413.48	162.087
1417.68	173.769
1421.88	126.834
1426.07	231.968
1430.26	166.189
1434.45	130.521
1438.64	167.109
1442.82	188.759
1447	164.221
1451.18	181.27
1455.35	203.053
1459.53	137.27
1463.7	177.802
1467.87	157.892
1472.03	172.335
1476.19	141.038
1480.35	103.972
1484.51	213.071
1488.67	65.3381
1492.82	133.765
1496.97	112.371
1501.12	95.1423
1505.26	96.0727
1509.4	43.1594
1513.54	84.3574
1517.68	64.7136
1521.81	0.519287
1525.94	59.6431
1530.07	78.1858
1534.2	44.1338
1538.32	74.5381
1542.44	50.4722
1546.56	18.0603
1550.68	43.457
1554.79	87.8682
1558.9	52.5361
1563.01	51.8935
1567.12	21.6401
1571.22	102.478
1575.32	28.3064
