Measurement: Raman, 514 nm, ccw, Raman Data Processed
Mineral: Fayalite
Rruff sample: R070293
Ideal chemistry: Fe^2+^_2_SiO_4_
Locality: Pike's Peak, Teller County, Colorado, USA
Source: Michael Scott
Description: Black single crystal fragment with internal hints of red and green
Measured chemistry: (Fe^2+^_1.87_Mn^2+^_0.13_)_Î£=2_Si_1.00_O_4_ ; trace amounts of Mg
Pin_id: L00446
Orientation: Laser parallel to b* (0 1 0). Fiducial mark perpendicular to laser is parallel to c [0 0 1]
Raman shift (cm-1)	intensity
59.137	0
64.077	18.5847
69.015	124.611
73.951	301.545
78.885	29.0998
83.816	83.0222
88.745	33.0869
93.672	99.0681
98.597	311.223
103.52	659.533
108.441	732.299
113.359	455.156
118.275	593.038
123.189	665.722
128.101	152.468
133.01	28.1575
137.918	212.188
142.823	237.893
147.726	357.139
152.627	1027.66
157.525	1163.35
162.422	607.095
167.316	1244.81
172.208	2345.13
177.097	973.002
181.985	161.754
186.87	101.524
191.753	120.255
196.633	750.913
201.512	173.582
206.388	87.1467
211.262	69.7771
216.134	41.738
221.003	84.571
225.87	164.965
230.735	565.657
235.598	1253.87
240.458	1741.77
245.316	1176.91
250.172	783.164
255.026	552.904
259.877	486.235
264.726	556.204
269.573	749.807
274.417	1136.15
279.259	1908.47
284.099	3109.63
288.937	4619.15
293.772	4537.83
298.605	2965.34
303.436	2228.52
308.264	2100.96
313.09	1595.07
317.914	1027.2
322.735	667.298
327.554	445.461
332.371	328.901
337.185	279.981
341.997	222.384
346.807	346.849
351.615	522.738
356.42	642.155
361.222	1063.03
366.023	1538.87
370.821	1846.26
375.617	1832.95
380.41	1438.48
385.201	1215.85
389.99	1012
394.776	814.993
399.56	718.797
404.342	776.346
409.121	624.636
413.898	445.666
418.672	296.441
423.444	189.006
428.214	123.441
432.981	89.7018
437.746	55.6388
442.509	13.3154
447.269	30.3478
452.027	40.7809
456.782	12.7802
461.535	66.4729
466.286	2.48193
471.034	4.75
475.78	16.7275
480.523	14.4951
485.265	40.1838
490.003	113.425
494.739	104.08
499.473	176.435
504.204	236.097
508.933	270.254
513.66	199.48
518.384	262.121
523.106	206.688
527.825	257.897
532.542	230.593
537.256	387.279
541.968	560.527
546.677	844.264
551.384	1048.53
556.089	1095.35
560.791	1000.75
565.491	922.887
570.188	703.571
574.883	535.123
579.575	489.68
584.265	448.981
588.952	365.903
593.637	301.781
598.32	283.152
603	218.484
607.677	118.185
612.352	71.0873
617.025	10.1116
621.695	35.786
626.363	59.0225
631.028	11.0778
635.691	7.58264
640.351	49.7837
645.008	11.5503
649.664	25.8342
654.316	3.57239
658.966	9.75159
663.614	4.63684
668.259	17.6145
672.902	22.724
677.542	1.5199
682.18	21.4058
686.815	21.1383
691.448	61.6923
696.078	25.0804
700.705	0.684082
705.33	31.4064
709.953	83.3566
714.573	78.1947
719.19	76.9452
723.805	77.6343
728.418	91.2965
733.028	110.944
737.635	166.578
742.24	192.218
746.842	166.655
751.442	234.481
756.039	253.799
760.634	268.102
765.226	358.394
769.815	388.633
774.402	580.527
778.987	783.413
783.569	972.13
788.148	1473.01
792.725	2175.04
797.299	3430.51
801.871	6032.44
806.44	11714.5
811.006	20740.4
815.57	24326
820.131	19583.6
824.69	15119.5
829.246	13882.7
833.8	13972.2
838.351	14247.9
842.899	13205.9
847.445	10530.7
851.988	7729.14
856.529	5686.05
861.067	4293.87
865.603	3272.11
870.135	2467.65
874.666	1992.43
879.193	1608.7
883.718	1483.86
888.241	1334.63
892.761	1166.23
897.278	1338.11
901.792	1370.24
906.304	1332.08
910.814	1292.53
915.321	1089.72
919.825	1149.79
924.326	1227.78
928.825	1084.93
933.322	953.693
937.815	873.376
942.306	790.371
946.795	797.426
951.28	527.046
955.763	370.324
960.244	281.63
964.722	266.194
969.197	265.015
973.67	225.086
978.139	127.362
982.607	197.826
987.071	159.47
991.533	104.903
995.993	93.2822
1000.45	68.4324
1004.9	37.7258
1009.36	6.62842
1013.8	27.7012
1018.25	9.34912
1022.69	3.93823
1027.13	3.21997
1031.57	38.542
1036.01	13.0432
1040.44	25.7493
1044.87	19.4805
1049.3	34.2463
1053.72	16.9148
1058.14	1.39111
1062.56	1.04321
1066.98	72.3752
1071.39	29.6401
1075.8	77.4443
1080.21	129.685
1084.62	128.953
1089.02	104.157
1093.42	145.669
1097.82	114.698
1102.21	135.585
1106.61	142.594
1111	178.545
1115.38	206.299
1119.77	157.515
1124.15	276.99
1128.53	262.803
1132.9	245.185
1137.28	282.82
1141.65	289.315
1146.02	239.154
1150.38	254.106
1154.74	250.468
1159.11	213.285
1163.46	195.294
1167.82	151.298
1172.17	115.991
1176.52	94.3257
1180.86	96.0648
1185.21	30.0874
1189.55	83.1798
1193.89	24.3981
1198.22	79.8453
1202.55	7.07239
1206.88	26.1339
1211.21	1.02405
1215.54	7.73059
1219.86	0.163208
1224.18	19.7207
1228.49	42.1679
1232.81	53.8296
1237.12	16.5704
1241.42	106.624
1245.73	12.8497
1250.03	28.266
1254.33	2.94592
1258.63	61.8115
1262.92	45.5847
1267.21	19.2689
1271.5	81.8656
1275.79	65.3889
1280.07	100.851
1284.35	122.272
1288.63	76.6777
1292.9	135.083
1297.17	117.591
1301.44	153.146
1305.71	169.686
1309.97	75.2192
1314.23	143.715
1318.49	148.973
1322.75	56.919
1327	137.21
1331.25	185.938
1335.5	170.812
1339.74	199.559
1343.98	199.001
1348.22	194.809
1352.46	196.371
1356.69	208.657
1360.92	239.953
1365.15	244.842
1369.37	135.182
1373.6	183.162
1377.82	142.114
1382.03	188.658
1386.24	89.2087
1390.45	159.571
1394.66	187.996
1398.87	158.529
1403.07	100.605
1407.27	110.43
1411.47	66.1692
1415.66	168.981
1419.85	141.855
1424.04	155.785
1428.22	111.795
1432.41	94.8628
1436.59	111.337
1440.76	137.071
1444.94	181.468
1449.11	99.8726
1453.28	102.007
1457.44	136.668
1461.61	163.158
1465.77	137.103
1469.92	82.3855
1474.08	83.9167
1478.23	122.571
1482.38	102.376
1486.52	85.3015
1490.67	112.343
1494.81	58.4878
1498.94	91.7554
1503.08	7.15308
1507.21	40.6802
1511.34	46.3018
1515.46	32.0464
1519.59	88.0335
1523.71	49.3303
1527.83	67.904
1531.94	64.7634
1536.05	69.9375
1540.16	15.4766
1544.27	64.8774
1548.37	42.981
1552.47	55.2698
1556.57	61.0613
1560.66	102.153
1564.75	46.3467
1568.84	71.7605
1572.93	55.5881
