Measurement: Raman, 514 nm, ccw, Raman Data Processed
Mineral: Fayalite
Rruff sample: R070374
Ideal chemistry: Fe^2+^_2_SiO_4_
Locality: Little Lake, Lake County, California, USA
Source: Michael Scott
Description: Large dark brown crystal fragment
Measured chemistry: (Fe^2+^_1.89_Mn^2+^_0.11_)_Î£=2_Si_1.00_O_4_ ; trace amounts of Mg
Pin_id: M01315
Orientation: Laser parallel to c* (0 0 1). Fiducial mark perpendicular to laser is parallel to a [1 0 0]
Raman shift (cm-1)	intensity
88.2	0
93.155	97.2583
98.106	40.2224
103.056	72.1746
108.002	348.267
112.946	459.399
117.888	986.863
122.827	952.539
127.763	182.128
132.697	71.0955
137.628	50.0452
142.556	50.6758
147.482	154.698
152.405	597.242
157.326	604.403
162.244	296.204
167.159	275.764
172.072	342.984
176.982	200.691
181.89	207.285
186.795	165.968
191.697	288.129
196.597	304.28
201.494	277.248
206.389	7.97668
211.281	22.5272
216.17	5.7561
221.057	13.8267
225.941	27.9702
230.823	10.6765
235.702	25.2482
240.578	103.081
245.452	115.81
250.323	198.029
255.192	237.644
260.058	334.433
264.921	479.475
269.782	742.98
274.64	1138.84
279.495	2166.49
284.348	3944.09
289.198	6004.01
294.046	5284.07
298.891	2830.32
303.733	1518.32
308.573	995.384
313.41	732.086
318.245	530.373
323.077	442.776
327.906	422.07
332.733	345.955
337.557	422.15
342.379	501.258
347.198	682.433
352.014	1013.8
356.828	1439.04
361.639	2221.16
366.447	3059.62
371.253	3417.02
376.056	3008.37
380.857	2198.31
385.655	1518.32
390.451	1106.79
395.243	810.991
400.034	589.723
404.821	372.333
409.606	263.804
414.389	258.139
419.168	57.3404
423.945	74.4189
428.72	67.4182
433.492	70.3166
438.261	9.09729
443.028	32.7578
447.792	47.3196
452.553	67.7956
457.312	60.196
462.068	39.5187
466.822	51.764
471.573	72.9843
476.321	50.0586
481.067	63.3678
485.81	86.6055
490.551	85.9804
495.289	115.136
500.024	152.354
504.757	176.084
509.487	178.878
514.214	159.161
518.939	203.366
523.661	177.461
528.381	192.357
533.098	217.046
537.812	273.912
542.524	489.497
547.233	614.4
551.94	945.822
556.644	1256.74
561.345	1689.39
566.044	1647.78
570.74	1287.92
575.433	1020.79
580.124	711.243
584.812	589.594
589.498	480.897
594.181	395.915
598.861	374.611
603.539	241.356
608.214	135.805
612.887	44.0746
617.557	6.99353
622.224	0.420044
626.889	3.86926
631.551	15.7383
636.21	10.0636
640.867	6.84863
645.521	1.97864
650.173	66.5137
654.822	35.6669
659.468	8.39343
664.112	33.2524
668.753	7.86194
673.392	51.1909
678.028	10.7112
682.661	5.45728
687.292	22.4233
691.92	54.224
696.545	66.8755
701.168	35.389
705.788	109.773
710.406	135.038
715.021	60.1881
719.633	180.235
724.243	203.187
728.85	212.05
733.455	259.831
738.056	291.618
742.656	469.179
747.252	442.768
751.846	509.01
756.438	554.129
761.027	667.928
765.613	778.952
770.196	885.324
774.777	1125.04
779.356	1381.78
783.932	1902.4
788.505	2663.77
793.075	3909.98
797.643	6084.09
802.208	10635.3
806.771	20381.5
811.331	34707.3
815.888	37688.7
820.443	28192.5
824.995	21338.2
829.545	18717.5
834.092	18107
838.636	17509.8
843.178	15228.7
847.717	11446.8
852.254	7773.02
856.788	5258.48
861.319	3573.13
865.848	2379.98
870.374	1695.65
874.897	1118.26
879.418	852.716
883.936	632.158
888.452	466.009
892.965	328.5
897.475	294.076
901.983	155.847
906.488	134.399
910.99	212.175
915.49	147.718
919.988	213.892
924.482	418.206
928.974	507.421
933.464	557.596
937.951	512.733
942.435	598.22
946.917	666.086
951.396	544.28
955.872	466.741
960.346	471.378
964.817	434.149
969.285	342.054
973.751	279.099
978.215	305.281
982.675	215.59
987.134	214.011
991.589	217.519
996.042	113.118
1000.49	157.79
1004.94	136.529
1009.38	84.3264
1013.83	85.1749
1018.27	26.0418
1022.7	7.06409
1027.14	0.826538
1031.57	22.3273
1036	26.6206
1040.43	25.8294
1044.85	15.926
1049.27	5.01111
1053.69	27.0696
1058.11	18.5629
1062.52	20.6127
1066.93	61.2828
1071.34	34.6637
1075.75	55.554
1080.15	54.3757
1084.55	78.4856
1088.95	94.975
1093.35	94.8085
1097.74	86.6531
1102.13	113.8
1106.52	113.294
1110.9	139.664
1115.28	128.873
1119.66	187.936
1124.04	257.14
1128.41	190.662
1132.79	258.09
1137.16	309.319
1141.52	253.35
1145.89	227.205
1150.25	223.033
1154.61	223.354
1158.96	184.678
1163.32	201.412
1167.67	153.944
1172.02	121.671
1176.36	78.7954
1180.71	71.3921
1185.05	88.5186
1189.38	60.0278
1193.72	44.0237
1198.05	3.0846
1202.38	39.4226
1206.71	2.08252
1211.04	17.8608
1215.36	18.0727
1219.68	22.7755
1224	7.31372
1228.31	6.27686
1232.62	11.9796
1236.93	39.0654
1241.24	18.9919
1245.54	63.761
1249.84	65.4055
1254.14	49.948
1258.44	35.3855
1262.73	14.7368
1267.03	34.004
1271.31	54.1948
1275.6	48.3145
1279.88	75.3843
1284.16	88.3942
1288.44	109.368
1292.72	74.3342
1296.99	95.3464
1301.26	96.4292
1305.53	105.608
1309.79	39.884
1314.06	124.079
1318.32	154.54
1322.57	167.165
1326.83	120.231
1331.08	132.384
1335.33	84.1646
1339.58	127.793
1343.82	77.6831
1348.06	118.442
1352.3	137.557
1356.54	146.095
1360.77	159.635
1365.01	151.089
1369.23	99.4104
1373.46	117.903
1377.68	170.394
1381.9	173.654
1386.12	132.505
1390.34	133.322
1394.55	148.323
1398.76	104.401
1402.97	126.564
1407.18	100.818
1411.38	157.174
1415.58	147.637
1419.78	130.219
1423.97	140.93
1428.17	143.781
1432.36	132.789
1436.54	122.972
1440.73	155.523
1444.91	174.707
1449.09	133.609
1453.27	166.207
1457.44	152.408
1461.61	172.975
1465.78	131.843
1469.95	70.8774
1474.11	131.166
1478.27	117.696
1482.43	54.407
1486.59	76.2871
1490.74	99.3345
1494.89	62.5527
1499.04	60.9446
1503.19	57.51
1507.33	99.2415
1511.47	14.0339
1515.61	34.9194
1519.75	49.1113
1523.88	28.6572
1528.01	70.5601
1532.14	66.8291
1536.26	39.4758
1540.38	78.5881
1544.51	114.224
1548.62	52.5371
1552.74	83.6724
1556.85	52.8052
1560.96	16.7627
1565.07	29.4314
1569.17	68.6086
1573.27	42.5478
