Measurement: Raman, 514 nm, ccw, Raman Data Processed
Mineral: Fayalite
Rruff sample: R070374
Ideal chemistry: Fe^2+^_2_SiO_4_
Locality: Little Lake, Lake County, California, USA
Source: Michael Scott
Description: Large dark brown crystal fragment
Measured chemistry: (Fe^2+^_1.89_Mn^2+^_0.11_)_Î£=2_Si_1.00_O_4_ ; trace amounts of Mg
Pin_id: M01315
Orientation: Laser parallel to c* (0 0 1). Fiducial mark perpendicular to laser is parallel to a [1 0 0]
Raman shift (cm-1)	intensity
74.562	0
79.523	459.486
84.483	393.449
89.439	622.033
94.393	501.574
99.344	146.602
104.293	207.008
109.239	1481
114.182	1099.95
119.123	597.039
124.061	769.151
128.997	626.758
133.93	0.62207
138.86	99.5752
143.788	464.565
148.713	2168.38
153.636	5304.45
158.556	2931.36
163.473	1308.28
168.388	880.243
173.3	721.016
178.21	542.1
183.117	959.365
188.021	1333.16
192.923	1523.05
197.822	1472.9
202.718	465.463
207.612	25.9404
212.504	174.966
217.392	149.218
222.279	201.741
227.162	122.15
232.043	304.069
236.921	475.01
241.797	592.474
246.67	166.31
251.54	457.405
256.408	417.086
261.274	307.85
266.136	497.002
270.996	491.117
275.854	649.154
280.709	1040.16
285.561	1158.68
290.41	1800.79
295.257	2005.98
300.102	1239.58
304.944	1426.87
309.783	1813.65
314.619	1751.91
319.453	1181.18
324.285	740.114
329.113	823.375
333.939	562.954
338.763	422.663
343.584	479.535
348.402	678.264
353.218	974.806
358.031	1174.73
362.841	1821.92
367.649	2139.39
372.454	2585.09
377.257	2554.52
382.057	2725.78
386.854	2472.02
391.649	1876.82
396.441	1299.32
401.231	909.739
406.018	438.712
410.802	279.323
415.584	47.5171
420.363	115.144
425.139	115.836
429.913	313.688
434.684	152.832
439.453	46.9097
444.219	253.115
448.982	293.529
453.743	127.891
458.501	71.3296
463.257	83.1279
468.01	34.8516
472.76	45.6499
477.508	189.091
482.253	104.842
486.996	3.45019
491.736	151.569
496.473	441.812
501.207	721.688
505.94	899.71
510.669	686.924
515.396	618.177
520.12	608.511
524.842	476.661
529.561	440.173
534.277	342.815
538.991	501.176
543.702	610.717
548.41	689.049
553.116	821.773
557.819	947.196
562.52	1178.89
567.218	1114.84
571.913	932.724
576.606	753.894
581.296	668.063
585.984	546.483
590.669	463.514
595.351	295.287
600.031	253.337
604.708	232.411
609.383	0.39209
614.055	125.564
618.724	41.3193
623.391	8.12305
628.055	82.2539
632.716	21.6133
637.375	31.6958
642.031	14.3442
646.685	10.0483
651.335	2.44287
655.984	91.0073
660.63	39.437
665.273	42.7588
669.913	27.3706
674.551	32.313
679.186	24.7329
683.819	40.2378
688.449	21.9482
693.076	89.894
697.701	3.23828
702.323	15.0317
706.943	17.6899
711.56	29.9468
716.174	56.8716
720.786	77.1719
725.395	67.0571
730.001	72.5225
734.605	112.013
739.206	97.5288
743.805	178.283
748.401	236.06
752.995	248.487
757.585	289.013
762.173	330.976
766.759	302.449
771.342	419.231
775.922	476.021
780.5	550.352
785.075	727.484
789.648	1130.21
794.217	1809.45
798.785	2788.47
803.349	5329.71
807.911	10690.2
812.471	18178.5
817.027	19112
821.582	14395.3
826.133	11377.9
830.682	9973.16
835.228	9504.94
839.772	8666.78
844.313	6979.36
848.852	4943.92
853.387	3319.02
857.921	2051.28
862.451	1322.53
866.979	797.901
871.505	573.211
876.028	401.329
880.548	251.97
885.065	198.331
889.58	194.901
894.093	137.804
898.602	179.416
903.109	162.944
907.614	186.034
912.116	162.899
916.615	232.741
921.112	356.884
925.606	548.572
930.097	614.538
934.586	635.7
939.072	645.779
943.556	557.912
948.037	488.589
952.515	536.123
956.991	538.77
961.464	528.259
965.934	384.12
970.402	358.332
974.867	358.787
979.33	267.755
983.79	228.46
988.248	260.285
992.702	176.986
997.155	156.887
1001.6	211.989
1006.05	179.273
1010.5	198.741
1014.94	78.3779
1019.38	117.177
1023.81	9.82861
1028.25	36.3496
1032.68	60.5747
1037.11	5.92481
1041.53	40.0478
1045.96	130.856
1050.38	78.3599
1054.8	67.7563
1059.21	41.6899
1063.62	35.5859
1068.04	67.9121
1072.44	8.6875
1076.85	90.7148
1081.25	54.6992
1085.65	7.3042
1090.05	21.4477
1094.44	62.7139
1098.84	45.252
1103.22	93.7964
1107.61	267.867
1112	141.61
1116.38	33.0615
1120.76	122.625
1125.13	45.8491
1129.51	79.0425
1133.88	147.074
1138.25	192.449
1142.61	49.2095
1146.98	186.883
1151.34	136.62
1155.7	101.213
1160.05	144.128
1164.4	3.33447
1168.76	149.263
1173.1	38.9849
1177.45	42.7124
1181.79	36.269
1186.13	18.7764
1190.47	23.5684
1194.8	36.541
1199.14	25.7109
1203.46	15.9741
1207.79	23.1953
1212.12	14.1924
1216.44	14.7671
1220.76	20.186
1225.08	30.1875
1229.39	77.0586
1233.7	30.6436
1238.01	49.0815
1242.32	16.1089
1246.62	132.106
1250.92	91.0288
1255.22	35.7871
1259.51	48.4048
1263.81	134.888
1268.1	85.2324
1272.38	70.4365
1276.67	34.521
1280.95	52.4741
1285.23	57.2398
1289.51	167.831
1293.79	4.38281
1298.06	100.807
1302.33	61.1509
1306.6	42.374
1310.86	87.5273
1315.12	136.079
1319.38	74.3555
1323.64	79.2388
1327.89	171.853
1332.14	134.524
1336.39	88.4438
1340.64	97.5972
1344.88	109.012
1349.12	92.9751
1353.36	76.6846
1357.6	112.361
1361.83	139.684
1366.06	110.66
1370.29	140.412
1374.52	132.289
1378.74	219.234
1382.96	175.559
1387.18	159.043
1391.39	126.968
1395.61	96.0054
1399.82	93.481
1404.02	137.548
1408.23	146.912
1412.43	103.915
1416.63	169.666
1420.83	143.743
1425.02	150.329
1429.21	114.918
1433.4	114.355
1437.59	161.031
1441.77	116.654
1445.95	101.395
1450.13	122.979
1454.31	141.002
1458.48	101.24
1462.65	80.7036
1466.82	105.453
1470.99	120.469
1475.15	81.5708
1479.31	43.7983
1483.47	97.1152
1487.63	99.4853
1491.78	112.901
1495.93	119.579
1500.08	110.123
1504.22	81.9155
1508.37	5.17236
1512.51	65.812
1516.64	5.93604
1520.78	14.3262
1524.91	17.0532
1529.04	46.7866
1533.17	46.8633
1537.29	75.2192
1541.41	121.891
1545.53	103.792
1549.65	106.061
1553.77	132.114
1557.88	26.6777
1561.99	2.35449
1566.09	61.1958
1570.2	108.408
1574.3	0.001953
