Measurement: Raman, 514 nm, ccw, Raman Data Processed
Mineral: Fayalite
Rruff sample: R070293
Ideal chemistry: Fe^2+^_2_SiO_4_
Locality: Pike's Peak, Teller County, Colorado, USA
Source: Michael Scott
Description: Black single crystal fragment with internal hints of red and green
Measured chemistry: (Fe^2+^_1.87_Mn^2+^_0.13_)_Î£=2_Si_1.00_O_4_ ; trace amounts of Mg
Pin_id: L01546
Orientation: Laser parallel to c* (0 0 1). Fiducial mark perpendicular to laser is parallel to a [1 0 0]
Raman shift (cm-1)	intensity
99.344	0
104.293	71.0913
109.239	170.823
114.182	290.575
119.123	380.575
124.061	197.793
128.997	23.9468
133.93	73.3315
138.86	282.781
143.788	663.031
148.713	1634.71
153.636	3901.43
158.556	2481.58
163.473	570.935
168.388	332.406
173.3	324.118
178.21	185.635
183.117	192.133
188.021	423.659
192.923	787.492
197.822	922.554
202.718	346.803
207.612	85.1614
212.504	27.6148
217.392	76.572
222.279	6.36011
227.162	4.23218
232.043	4.21167
236.921	184.127
241.797	132.091
246.67	153.673
251.54	122.153
256.408	62.6338
261.274	212.111
266.136	156.436
270.996	325.562
275.854	487.451
280.709	953.871
285.561	1412.74
290.41	1883.75
295.257	1609.72
300.102	1206.76
304.944	1219.85
309.783	1489.73
314.619	1552.48
319.453	985.876
324.285	569.927
329.113	469.686
333.939	362.469
338.763	383.06
343.584	409.671
348.402	495.472
353.218	636.468
358.031	960.919
362.841	1378.3
367.649	1797.42
372.454	2196.66
377.257	2107.14
382.057	2157.55
386.854	2096.05
391.649	1565.87
396.441	1185.84
401.231	736.569
406.018	497.427
410.802	367.1
415.584	180.688
420.363	202.144
425.139	75.7485
429.913	86.5913
434.684	126.561
439.453	89.3779
444.219	53.0356
448.982	67.4678
453.743	92.7056
458.501	12.7602
463.257	94.5811
468.01	15.8491
472.76	20.4727
477.508	22.9194
482.253	15.9595
486.996	41.3286
491.736	34.2607
496.473	216.079
501.207	395.869
505.94	494.919
510.669	410.31
515.396	284.176
520.12	269.414
524.842	71.6445
529.561	124.004
534.277	273.335
538.991	288.948
543.702	324.933
548.41	447.394
553.116	601.602
557.819	812.027
562.52	952.647
567.218	994.085
571.913	942.99
576.606	752.5
581.296	641.297
585.984	612.848
590.669	496.025
595.351	387.868
600.031	267.722
604.708	185.135
609.383	212.79
614.055	147.561
618.724	69.1475
623.391	72.2095
628.055	121.736
632.716	60.4605
637.375	47.6191
642.031	42.4336
646.685	15.4751
651.335	94.0811
655.984	76.0523
660.63	63.1553
665.273	68.8096
669.913	16.9844
674.551	4.10693
679.186	92.7476
683.819	17.9619
688.449	45.9145
693.076	19.4512
697.701	118.912
702.323	14.9355
706.943	39.0054
711.56	12.7896
716.174	16.5869
720.786	58.8384
725.395	15.1143
730.001	65.2915
734.605	107.361
739.206	131.338
743.805	126.261
748.401	97.1333
752.995	27.8735
757.585	134.91
762.173	166.5
766.759	188.664
771.342	364.592
775.922	274.59
780.5	476.478
785.075	703.736
789.648	1056.68
794.217	1563.9
798.785	2670.92
803.349	5110.33
807.911	10068.4
812.471	15589.8
817.027	15530
821.582	11627.2
826.133	9365.4
830.682	8292.31
835.228	7941.24
839.772	7369.85
844.313	6104.78
848.852	4320.37
853.387	2843.68
857.921	1798.86
862.451	1227.4
866.979	844.922
871.505	431.759
876.028	275.67
880.548	177.968
885.065	284.51
889.58	134.321
894.093	195.141
898.602	84.1411
903.109	48.8716
907.614	212.501
912.116	121.043
916.615	207.003
921.112	260.225
925.606	423.161
930.097	542.595
934.586	484.682
939.072	479.992
943.556	401.543
948.037	380.211
952.515	368.761
956.991	369.231
961.464	423.054
965.934	405.097
970.402	191.448
974.867	195.08
979.33	196.806
983.79	207.685
988.248	315.782
992.702	230.054
997.155	52.4727
1001.6	92.6206
1006.05	180.67
1010.5	96.439
1014.94	14.314
1019.38	97.291
1023.81	39.3164
1028.25	90.3521
1032.68	56.5151
1037.11	10.0112
1041.53	40.1094
1045.96	47.2578
1050.38	28.5029
1054.8	4.9668
1059.21	54.2617
1063.62	95.3413
1068.04	25.2231
1072.44	124.78
1076.85	95.5356
1081.25	120.925
1085.65	50.6973
1090.05	56.5508
1094.44	20.6782
1098.84	114.462
1103.22	112.816
1107.61	50.3125
1112	81.1362
1116.38	35.9849
1120.76	111.816
1125.13	60.9819
1129.51	156.028
1133.88	80.9834
1138.25	145.845
1142.61	175.608
1146.98	133.794
1151.34	224.276
1155.7	57.5532
1160.05	181.894
1164.4	108.114
1168.76	54.6816
1173.1	154.438
1177.45	143.375
1181.79	138.958
1186.13	96.1475
1190.47	154.162
1194.8	49.5762
1199.14	42.6011
1203.46	76.5234
1207.79	10.521
1212.12	86.0464
1216.44	34.9609
1220.76	130.086
1225.08	33.9375
1229.39	78.3945
1233.7	187.913
1238.01	24.9746
1242.32	206.047
1246.62	25.0532
1250.92	92.5938
1255.22	174.13
1259.51	98.5527
1263.81	106.885
1268.1	161.128
1272.38	70.2847
1276.67	217.347
1280.95	170.321
1285.23	106.254
1289.51	151.142
1293.79	102.934
1298.06	97.3852
1302.33	182.202
1306.6	192.853
1310.86	160.083
1315.12	240.225
1319.38	96.6108
1323.64	35.3086
1327.89	146.711
1332.14	124.641
1336.39	32.3857
1340.64	89.1904
1344.88	95.7578
1349.12	167.297
1353.36	153.478
1357.6	121.103
1361.83	88.77
1366.06	86.3784
1370.29	302.077
1374.52	152.818
1378.74	108.419
1382.96	113.652
1387.18	135.455
1391.39	146.294
1395.61	16.1758
1399.82	135.202
1404.02	138.667
1408.23	44.7168
1412.43	97.835
1416.63	67.6157
1420.83	100.858
1425.02	198.199
1429.21	112.055
1433.4	162.819
1437.59	187.582
1441.77	137.368
1445.95	229.272
1450.13	189.942
1454.31	59.1103
1458.48	149.903
1462.65	85.9356
1466.82	162.278
1470.99	116.983
1475.15	114.893
1479.31	137.099
1483.47	61.4883
1487.63	17.9951
1491.78	101.667
1495.93	103.486
1500.08	1.37988
1504.22	177.392
1508.37	85.4658
1512.51	94.667
1516.64	122.066
1520.78	176.815
1524.91	126.906
1529.04	79.9688
1533.17	135.368
1537.29	52.2949
1541.41	190.389
1545.53	87.1914
1549.65	60.2139
1553.77	176.282
1557.88	40.4678
1561.99	100.783
1566.09	64.9424
1570.2	37.3643
1574.3	96.0254
