Measurement: Raman, 514 nm, ccw, Raman Data Processed
Mineral: Fayalite
Rruff sample: R070293
Ideal chemistry: Fe^2+^_2_SiO_4_
Locality: Pike's Peak, Teller County, Colorado, USA
Source: Michael Scott
Description: Black single crystal fragment with internal hints of red and green
Measured chemistry: (Fe^2+^_1.87_Mn^2+^_0.13_)_Î£=2_Si_1.00_O_4_ ; trace amounts of Mg
Pin_id: L00446
Orientation: Laser parallel to b* (0 1 0). Fiducial mark perpendicular to laser is parallel to c [0 0 1]
Raman shift (cm-1)	intensity
59.137	0
64.077	96.8359
69.015	246.555
73.951	263.491
78.885	6.25586
83.816	384.285
88.745	34.0579
93.672	142.25
98.597	201.267
103.52	335.846
108.441	655.848
113.359	513.787
118.275	801.432
123.189	694.598
128.101	39.8543
133.01	58.4602
137.918	56.5195
142.823	285.423
147.726	664.044
152.627	1869.16
157.525	1651.76
162.422	475.705
167.316	414.062
172.208	638.862
177.097	254.999
181.985	119.796
186.87	169.3
191.753	389.532
196.633	481.311
201.512	226.746
206.388	3.83276
211.262	29.6133
216.134	46.8845
221.003	20.1396
225.87	6.45019
230.735	36.6892
235.598	142.506
240.458	350.438
245.316	239.807
250.172	248.523
255.026	282.179
259.877	430.207
264.726	472.685
269.573	748.477
274.417	1255.72
279.259	2158.54
284.099	3651.49
288.937	5387.37
293.772	5006.44
298.605	2953.91
303.436	2079.36
308.264	1859.6
313.09	1477.89
317.914	956.958
322.735	709.131
327.554	463.465
332.371	464.096
337.185	432.978
341.997	436.891
346.807	684.763
351.615	888.35
356.42	1342.96
361.222	2095.97
366.023	2806.45
370.821	3117.65
375.617	3014.81
380.41	2575.74
385.201	1951.55
389.99	1553.55
394.776	1123.98
399.56	875.732
404.342	643.559
409.121	525.358
413.898	369.856
418.672	265.065
423.444	166.035
428.214	88.8287
432.981	75.404
437.746	70.7034
442.509	31.7014
447.269	49.384
452.027	34.7476
456.782	7.39966
461.535	34.4834
466.286	37.855
471.034	8.35229
475.78	0.908813
480.523	11.9481
485.265	59.3805
490.003	31.6975
494.739	105.556
499.473	83.886
504.204	98.1428
508.933	160.855
513.66	147.911
518.384	145.066
523.106	147.874
527.825	199.857
532.542	216.16
537.256	331.443
541.968	432.346
546.677	590.994
551.384	944.154
556.089	1123.74
560.791	1215.99
565.491	1242.9
570.188	1016.02
574.883	790.355
579.575	650.09
584.265	572.925
588.952	520.68
593.637	321.447
598.32	279.778
603	234.064
607.677	102.208
612.352	12.7015
617.025	16.4574
621.695	12.0598
626.363	25.025
631.028	0.646851
635.691	2.0968
640.351	59.9006
645.008	42.0093
649.664	77.479
654.316	7.2771
658.966	2.50928
663.614	59.9186
668.259	19.291
672.902	21.0431
677.542	6.89551
682.18	25.6066
686.815	0.12793
691.448	56.4663
696.078	70.1304
700.705	55.6792
705.33	111.575
709.953	128.347
714.573	98.0151
719.19	152.596
723.805	151.107
728.418	151.564
733.028	218.977
737.635	247.362
742.24	362.731
746.842	380.952
751.442	340.258
756.039	437.132
760.634	539.533
765.226	541.331
769.815	699.199
774.402	988.27
778.987	1145.01
783.569	1584.97
788.148	2122.18
792.725	3467.53
797.299	5394.17
801.871	9403.95
806.44	18744.6
811.006	31296
815.57	34501.6
820.131	26712.2
824.69	20347.8
829.246	17896
833.8	17200.4
838.351	16969.1
842.899	14802
847.445	11238.1
851.988	7765.44
856.529	5319.02
861.067	3739.83
865.603	2609.88
870.135	1864.17
874.666	1340.7
879.193	971.476
883.718	766.5
888.241	619.256
892.761	624.91
897.278	500.315
901.792	541.369
906.304	429.721
910.814	321.647
915.321	280.474
919.825	347.965
924.326	327.255
928.825	406.401
933.322	329.211
937.815	400.308
942.306	342.077
946.795	453.789
951.28	361.791
955.763	380.972
960.244	287.359
964.722	312.023
969.197	232.862
973.67	165.836
978.139	229.959
982.607	164.207
987.071	176.615
991.533	129.129
995.993	161.738
1000.45	115.434
1004.9	75.2085
1009.36	42.0542
1013.8	16.9627
1018.25	21.9268
1022.69	30.095
1027.13	17.1929
1031.57	4.58984
1036.01	45.831
1040.44	7.5144
1044.87	9.53735
1049.3	17.248
1053.72	3.0105
1058.14	41.4885
1062.56	61.48
1066.98	43.4958
1071.39	9.66089
1075.8	113.594
1080.21	96.1941
1084.62	66.1548
1089.02	122.973
1093.42	102.114
1097.82	100.297
1102.21	119.701
1106.61	91.3079
1111	131.063
1115.38	183.823
1119.77	180.078
1124.15	186.753
1128.53	250.253
1132.9	228.66
1137.28	277.84
1141.65	287.854
1146.02	263.701
1150.38	284.448
1154.74	252.153
1159.11	186.949
1163.46	162.325
1167.82	131.865
1172.17	87.0359
1176.52	82.5469
1180.86	60.2353
1185.21	79.2424
1189.55	14.8633
1193.89	1.68066
1198.22	41.1904
1202.55	67.5571
1206.88	18.9536
1211.21	10.2798
1215.54	30.6047
1219.86	8.16187
1224.18	10.26
1228.49	65.9834
1232.81	7.06689
1237.12	10.0122
1241.42	20.802
1245.73	18.4482
1250.03	32.9109
1254.33	60.2698
1258.63	52.5312
1262.92	35.698
1267.21	58.78
1271.5	66.7793
1275.79	7.698
1280.07	61.5386
1284.35	78.3384
1288.63	52.1284
1292.9	145.944
1297.17	111.819
1301.44	113.786
1305.71	126.87
1309.97	181.986
1314.23	112.043
1318.49	175.798
1322.75	127.687
1327	154.114
1331.25	165.605
1335.5	102.472
1339.74	163.637
1343.98	157.965
1348.22	133.676
1352.46	166.303
1356.69	152.162
1360.92	157.984
1365.15	80.9187
1369.37	182.649
1373.6	82.1101
1377.82	136.291
1382.03	117.634
1386.24	76.0356
1390.45	133.423
1394.66	164.331
1398.87	90.9014
1403.07	119.471
1407.27	100.188
1411.47	135.988
1415.66	116.876
1419.85	138.85
1424.04	116.918
1428.22	100.078
1432.41	141.358
1436.59	114.961
1440.76	117.327
1444.94	202.302
1449.11	102.604
1453.28	132.549
1457.44	120.103
1461.61	97.9106
1465.77	150.112
1469.92	96.3994
1474.08	130.011
1478.23	123.853
1482.38	81.8516
1486.52	35.9761
1490.67	136.226
1494.81	56.6221
1498.94	93.1631
1503.08	9.85107
1507.21	51.7776
1511.34	39.6362
1515.46	13.3242
1519.59	14.9487
1523.71	34.5483
1527.83	27.4553
1531.94	84.6763
1536.05	33.2451
1540.16	70.3591
1544.27	107.68
1548.37	39.8223
1552.47	51.0757
1556.57	5.99414
1560.66	31.9087
1564.75	25.5207
1568.84	1.50928
1572.93	45.0483
