Measurement: Raman, 514 nm, ccw, Raman Data Processed
Mineral: Fayalite
Rruff sample: R070293
Ideal chemistry: Fe^2+^_2_SiO_4_
Locality: Pike's Peak, Teller County, Colorado, USA
Source: Michael Scott
Description: Black single crystal fragment with internal hints of red and green
Measured chemistry: (Fe^2+^_1.87_Mn^2+^_0.13_)_Î£=2_Si_1.00_O_4_ ; trace amounts of Mg
Pin_id: L01491
Orientation: Laser parallel to a* (1 0 0). Fiducial mark perpendicular to laser is parallel to b [0 1 0]
Raman shift (cm-1)	intensity
121.961	0
126.873	85.3102
131.783	133.673
136.691	0.675049
141.597	89.4657
146.5	174.803
151.402	483.134
156.301	1332.22
161.198	446.124
166.092	645.195
170.985	1519.85
175.875	1235.48
180.763	312.683
185.649	307.098
190.532	352.409
195.413	461.32
200.292	428.644
205.169	33.13
210.044	29.1028
214.916	3.93897
219.786	38.3082
224.654	143.873
229.519	390.318
234.382	810.738
239.243	1382.99
244.102	1152.61
248.958	674.114
253.813	405.682
258.664	320.313
263.514	360.009
268.361	417.44
273.206	644.084
278.049	1119.01
282.889	1488.81
287.728	1552.73
292.563	1263.62
297.397	899.757
302.228	715.77
307.057	694.055
311.884	685.988
316.708	532.907
321.53	347.377
326.35	243.02
331.167	207.397
335.982	162.907
340.795	148.054
345.605	198.14
350.413	235.452
355.219	303.92
360.022	377.861
364.823	532.885
369.622	646.606
374.418	635.983
379.212	601.368
384.004	510.766
388.793	486.193
393.58	355.688
398.364	272.274
403.146	215.901
407.926	183.508
412.704	114.064
417.479	72.4675
422.251	78.7723
427.022	44.0166
431.79	2.79382
436.555	5.6853
441.319	10.699
446.079	1.85632
450.838	17.7922
455.594	0.69458
460.347	2.30688
465.099	19.9524
469.847	35.1912
474.594	12.7938
479.338	68.693
484.079	83.8242
488.819	84.4974
493.555	167.377
498.29	309.91
503.022	478.022
507.751	624.662
512.478	391.911
517.203	268.776
521.925	197.349
526.645	173.172
531.363	172.744
536.078	195.785
540.79	262.306
545.5	301.865
550.208	379.912
554.913	382.923
559.616	313.162
564.316	316.808
569.014	333.651
573.709	275.715
578.402	237.282
583.093	213.488
587.781	212.586
592.466	223.978
597.15	189.893
601.83	115.813
606.508	133.023
611.184	53.8122
615.857	28.532
620.528	43.2238
625.196	7.8775
629.862	9.62824
634.525	2.58563
639.186	2.49341
643.844	2.94562
648.5	7.29132
653.153	19.1942
657.804	3.19275
662.452	3.83649
667.098	27.2478
671.742	34.9259
676.382	29.4974
681.021	9.43543
685.656	25.355
690.29	1.98853
694.92	23.4801
699.549	23.8286
704.174	7.04175
708.797	15.8611
713.418	24.9297
718.036	27.1655
722.652	36.4476
727.265	16.9926
731.875	33.4978
736.483	15.9531
741.089	29.3662
745.692	51.751
750.292	79.8967
754.89	92.4724
759.485	87.9458
764.078	158.331
768.668	146.715
773.256	169.609
777.841	207.821
782.423	279.822
787.003	432.902
791.581	590.098
796.156	992.351
800.728	1752.71
805.298	3415.72
809.865	6901.1
814.429	10340.2
818.991	9439.65
823.551	7582.77
828.107	6836.07
832.662	6960.75
837.213	7108.97
841.762	7048.6
846.309	5910.88
850.853	4415.19
855.394	3248.35
859.933	2398.24
864.469	1854.23
869.002	1408.35
873.533	1161.78
878.062	985.435
882.587	971.321
887.11	1029.48
891.631	1222.86
896.149	1707.24
900.664	2384.35
905.177	2339.67
909.687	1531.58
914.194	1094.25
918.699	946.401
923.201	920.505
927.701	818.713
932.198	799.138
936.692	654.602
941.184	509.441
945.673	477.679
950.159	496.351
954.643	377.4
959.124	326.8
963.603	292.481
968.078	251.653
972.552	237.72
977.022	199.266
981.49	178.08
985.955	104.209
990.418	137.652
994.878	78.3934
999.335	92.3785
1003.79	55.594
1008.24	78.0442
1012.69	18.7152
1017.14	51.6027
1021.58	9.69971
1026.02	30.9949
1030.46	36.5523
1034.9	5.99512
1039.33	24.295
1043.76	22.3313
1048.19	15.3668
1052.62	13.8197
1057.04	19.2952
1061.46	5.02649
1065.88	43.1166
1070.29	32.2086
1074.7	10.0448
1079.11	59.324
1083.52	42.5459
1087.92	87.5104
1092.32	31.5421
1096.72	7.96997
1101.12	51.9983
1105.51	76.5311
1109.9	37.34
1114.29	60.5374
1118.67	85.7188
1123.06	116.474
1127.43	122.008
1131.81	107.419
1136.18	135.661
1140.56	125.045
1144.93	107.722
1149.29	89.1865
1153.65	110.869
1158.02	71.8737
1162.37	83.1766
1166.73	41.2451
1171.08	39.7096
1175.43	68.5046
1179.78	27.4594
1184.12	6.79456
1188.46	54.2162
1192.8	25.1488
1197.14	1.68347
1201.47	14.3567
1205.8	1.18286
1210.13	11.946
1214.45	3.85522
1218.78	57.0692
1223.1	12.8509
1227.41	18.5023
1231.73	6
1236.04	21.3206
1240.35	1.46875
1244.65	2.61438
1248.96	10.5529
1253.26	0.341797
1257.55	48.0033
1261.85	61.7239
1266.14	89.1945
1270.43	16.5492
1274.72	28.8026
1279	99.9587
1283.28	63.0244
1287.56	46.9982
1291.84	59.92
1296.11	115.779
1300.38	87.5789
1304.64	47.6596
1308.91	90.0092
1313.17	75.5627
1317.43	94.9303
1321.68	73.2961
1325.94	105.481
1330.19	149.548
1334.44	101.916
1338.68	71.8027
1342.92	82.9519
1347.16	73.8294
1351.4	42.5095
1355.63	106.421
1359.86	77.7588
1364.09	126.597
1368.32	81.9863
1372.54	86.0145
1376.76	103.576
1380.98	80.9376
1385.19	0.748169
1389.4	115.876
1393.61	110.691
1397.82	97.0203
1402.02	84.5341
1406.22	100.026
1410.42	45.2667
1414.61	108.355
1418.8	60.9631
1422.99	101.378
1427.18	108.489
1431.36	114.542
1435.54	97.7252
1439.72	63.5242
1443.89	77.3138
1448.07	69.8304
1452.24	48.1437
1456.4	89.5572
1460.57	66.0852
1464.73	94.7118
1468.88	95.2206
1473.04	91.9769
1477.19	82.7888
1481.34	53.6138
1485.49	26.452
1489.63	61.3252
1493.77	70.3348
1497.91	45.5278
1502.05	29.8782
1506.18	18.3834
1510.31	1.04895
1514.43	16.9084
1518.56	40.9945
1522.68	72.387
1526.8	36.1431
1530.91	98.8581
1535.02	12.525
1539.13	33.0564
1543.24	32.5061
1547.34	44.2378
