Measurement: Raman, 514 nm, ccw, Raman Data Processed
Mineral: Fayalite
Rruff sample: R070293
Ideal chemistry: Fe^2+^_2_SiO_4_
Locality: Pike's Peak, Teller County, Colorado, USA
Source: Michael Scott
Description: Black single crystal fragment with internal hints of red and green
Measured chemistry: (Fe^2+^_1.87_Mn^2+^_0.13_)_Î£=2_Si_1.00_O_4_ ; trace amounts of Mg
Pin_id: L00446
Orientation: Laser parallel to b* (0 1 0). Fiducial mark perpendicular to laser is parallel to c [0 0 1]
Raman shift (cm-1)	intensity
59.137	0
64.077	207.076
69.015	237.209
73.951	240.692
78.885	32.1704
83.816	480.002
88.745	4.77393
93.672	148.159
98.597	312.017
103.52	137.19
108.441	493.562
113.359	324.068
118.275	362.929
123.189	435.521
128.101	92.2788
133.01	17.4709
137.918	104.005
142.823	63.9397
147.726	44.2148
152.627	266.257
157.525	566.086
162.422	954.659
167.316	3041.98
172.208	6335.66
177.097	2396.54
181.985	469.028
186.87	101.428
191.753	52.6414
196.633	170.75
201.512	81.9893
206.388	13.5637
211.262	0.113525
216.134	195.647
221.003	452.26
225.87	756.038
230.735	1773.58
235.598	3581
240.458	4662.61
245.316	3013.04
250.172	1581.82
255.026	933.293
259.877	634.407
264.726	512.067
269.573	473.993
274.417	612.578
279.259	747.562
284.099	968.753
288.937	1000.74
293.772	854.01
298.605	524.819
303.436	450.547
308.264	426.433
313.09	334.394
317.914	227.16
322.735	172.757
327.554	61.8926
332.371	34.1113
337.185	37.748
341.997	28.5938
346.807	150.861
351.615	104.409
356.42	179.787
361.222	310.065
366.023	436.681
370.821	546.408
375.617	370.819
380.41	383.947
385.201	308.843
389.99	212.454
394.776	206.936
399.56	158.908
404.342	141.517
409.121	123.75
413.898	120.128
418.672	22.1052
423.444	101.252
428.214	37.2073
432.981	98.8774
437.746	59.2472
442.509	19.7184
447.269	0.136719
452.027	94.1814
456.782	4.74426
461.535	9.95337
466.286	34.9741
471.034	24.194
475.78	19.0636
480.523	56.5812
485.265	44.6754
490.003	96.7147
494.739	173.122
499.473	300.724
504.204	439.906
508.933	376.211
513.66	337.08
518.384	242.471
523.106	199.663
527.825	200.478
532.542	116.504
537.256	280.66
541.968	331.341
546.677	378.781
551.384	436.901
556.089	426.919
560.791	385.59
565.491	433.148
570.188	329.623
574.883	333.135
579.575	337.783
584.265	364.525
588.952	364.338
593.637	382.115
598.32	341.848
603	289.983
607.677	171.256
612.352	141.472
617.025	86.063
621.695	98.0037
626.363	60.6423
631.028	12.3489
635.691	3.03626
640.351	5.59204
645.008	29.8096
649.664	39.6248
654.316	47.9003
658.966	36.8663
663.614	29.739
668.259	37.0048
672.902	63.648
677.542	39.7925
682.18	13.5881
686.815	66.7771
691.448	13.8072
696.078	13.8168
700.705	29.3686
705.33	7.94812
709.953	5.63367
714.573	22.6242
719.19	6.77686
723.805	39.2019
728.418	21.6859
733.028	4.49316
737.635	5.21033
742.24	13.1389
746.842	4.50049
751.442	8.14099
756.039	24.3435
760.634	30.7114
765.226	61.9734
769.815	83.3519
774.402	146.408
778.987	247.519
783.569	328.952
788.148	532.664
792.725	836.646
797.299	1248.43
801.871	2236.55
806.44	4451.69
811.006	8150.52
815.57	10356.7
820.131	9275.61
824.69	8485.15
829.246	9045.79
833.8	10540.5
838.351	11772.3
842.899	11887.9
847.445	10334.2
851.988	8055.36
856.529	6165.15
861.067	4967.3
865.603	3809.03
870.135	3264.99
874.666	2733.3
879.193	2441.22
883.718	2303.77
888.241	2371.91
892.761	2353.31
897.278	2449.01
901.792	2681.58
906.304	2664.07
910.814	2614.82
915.321	2530.35
919.825	2543.3
924.326	2365.55
928.825	2064.5
933.322	1643.09
937.815	1273.95
942.306	989.697
946.795	692.872
951.28	573.285
955.763	487.928
960.244	372.784
964.722	367.853
969.197	325.219
973.67	204.864
978.139	264.729
982.607	211.826
987.071	162.123
991.533	172.656
995.993	141.432
1000.45	132.476
1004.9	61.6901
1009.36	115.107
1013.8	73.6856
1018.25	56.4117
1022.69	70.2805
1027.13	14.7275
1031.57	7.99011
1036.01	21.4337
1040.44	19.2538
1044.87	7.11902
1049.3	34.0176
1053.72	2.87231
1058.14	37.4495
1062.56	36.594
1066.98	38.569
1071.39	12.7084
1075.8	16.5627
1080.21	79.6001
1084.62	46.3955
1089.02	78.7612
1093.42	83.2787
1097.82	98.4128
1102.21	105.977
1106.61	148.17
1111	104.018
1115.38	148.048
1119.77	165.764
1124.15	234.216
1128.53	170.724
1132.9	251.667
1137.28	217.067
1141.65	145.359
1146.02	149.343
1150.38	181.259
1154.74	163.109
1159.11	162.967
1163.46	110.867
1167.82	109.513
1172.17	124.261
1176.52	99.3378
1180.86	43.5699
1185.21	77.0922
1189.55	37.8304
1193.89	58.8792
1198.22	88.4888
1202.55	10.0173
1206.88	9.2406
1211.21	30.3462
1215.54	8.69971
1219.86	24.8909
1224.18	19.9299
1228.49	28.7985
1232.81	5.36487
1237.12	55.6632
1241.42	7.81665
1245.73	31.8221
1250.03	12.7046
1254.33	31.3774
1258.63	0.892212
1262.92	43.2075
1267.21	24.4198
1271.5	53.5316
1275.79	52.5507
1280.07	91.4825
1284.35	36.3293
1288.63	30.104
1292.9	94.803
1297.17	105.433
1301.44	75.0682
1305.71	163.7
1309.97	117.307
1314.23	94.934
1318.49	110.344
1322.75	116.916
1327	165.646
1331.25	97.8157
1335.5	114.51
1339.74	97.4872
1343.98	91.8506
1348.22	78.3751
1352.46	91.2929
1356.69	62.1133
1360.92	53.198
1365.15	45.0052
1369.37	103.161
1373.6	80.9567
1377.82	85.3468
1382.03	70.5143
1386.24	52.7133
1390.45	98.6794
1394.66	78.4307
1398.87	132.416
1403.07	105.589
1407.27	138.793
1411.47	88.03
1415.66	107.294
1419.85	103.451
1424.04	100.855
1428.22	101.333
1432.41	102.897
1436.59	97.8897
1440.76	99.5975
1444.94	134.733
1449.11	114.415
1453.28	117.886
1457.44	61.606
1461.61	83.4641
1465.77	68.439
1469.92	63.6631
1474.08	19.213
1478.23	97.8938
1482.38	123.84
1486.52	64.0123
1490.67	28.2921
1494.81	47.6669
1498.94	88.1451
1503.08	103.735
1507.21	14.417
1511.34	45.1113
1515.46	25.8885
1519.59	37.8862
1523.71	35.1799
1527.83	7.76062
1531.94	53.6198
1536.05	81.7578
1540.16	64.2165
1544.27	21.0626
1548.37	40.4219
1552.47	106.696
1556.57	32.1284
1560.66	73.8351
1564.75	18.8961
1568.84	25.7703
1572.93	0.630981
