Measurement: Raman, 514 nm, ccw, Raman Data Processed
Mineral: Fayalite
Rruff sample: R070374
Ideal chemistry: Fe^2+^_2_SiO_4_
Locality: Little Lake, Lake County, California, USA
Source: Michael Scott
Description: Large dark brown crystal fragment
Measured chemistry: (Fe^2+^_1.89_Mn^2+^_0.11_)_Î£=2_Si_1.00_O_4_ ; trace amounts of Mg
Pin_id: M01107
Orientation: Laser parallel to b* (0 1 0). Fiducial mark perpendicular to laser is parallel to c [0 0 1]
Raman shift (cm-1)	intensity
94.393	0
99.344	89.9785
104.293	84.4067
109.239	245.914
114.182	373.898
119.123	180.359
124.061	180.998
128.997	88.5483
133.93	29.1506
138.86	155.213
143.788	4.55664
148.713	1.46777
153.636	141.509
158.556	32.4919
163.473	142.101
168.388	696.488
173.3	1480.86
178.21	415.448
183.117	272.937
188.021	205.725
192.923	198.811
197.822	317.211
202.718	233.664
207.612	38.0007
212.504	12.3904
217.392	3.30054
222.279	80.7331
227.162	142.467
232.043	366.937
236.921	752.841
241.797	787.755
246.67	519.72
251.54	184.575
256.408	142.495
261.274	106.272
266.136	17.0886
270.996	45.4619
275.854	114.916
280.709	15.9683
285.561	115.19
290.41	123.705
295.257	130.086
300.102	27.1152
304.944	78.8826
309.783	52.2356
314.619	16.5435
319.453	29.5713
324.285	18.4194
329.113	49.2165
333.939	19.3989
338.763	2.72827
343.584	29.9355
348.402	58.28
353.218	24.6145
358.031	87.4019
362.841	62.2844
367.649	84.3535
372.454	124.889
377.257	105.101
382.057	62.2446
386.854	62.1707
391.649	186.667
396.441	186.762
401.231	205.287
406.018	142.442
410.802	95.9312
415.584	114.139
420.363	49.6885
425.139	99.5588
429.913	91.3601
434.684	9.79883
439.453	94.4919
444.219	40.1401
448.982	56.8599
453.743	28.0591
458.501	26.1648
463.257	10.8572
468.01	10.2229
472.76	4.40137
477.508	24.2825
482.253	31.8611
486.996	2.76782
491.736	19.793
496.473	119.406
501.207	35.5632
505.94	105.481
510.669	84.2349
515.396	66.0156
520.12	98.3166
524.842	35.0667
529.561	96.0798
534.277	105.005
538.991	124.066
543.702	108.019
548.41	125.753
553.116	133.353
557.819	174.01
562.52	209.141
567.218	216.99
571.913	184.897
576.606	121.612
581.296	173.717
585.984	103.639
590.669	118.514
595.351	130.625
600.031	121.87
604.708	87.9089
609.383	72.9973
614.055	61.9487
618.724	99.229
623.391	84.1819
628.055	111.573
632.716	70.1912
637.375	92.2251
642.031	115.396
646.685	111.7
651.335	98.3374
655.984	129.699
660.63	86.0027
665.273	140.216
669.913	75.4055
674.551	111.561
679.186	146.616
683.819	170.632
688.449	66.5918
693.076	61.4938
697.701	61.3401
702.323	120.134
706.943	43.8854
711.56	95.5922
716.174	49.2535
720.786	74.8748
725.395	51.4484
730.001	33.9707
734.605	6.4292
739.206	22.8512
743.805	0.854126
748.401	50.7924
752.995	11.6576
757.585	0.587769
762.173	14.012
766.759	19.6656
771.342	13.3956
775.922	18.7119
780.5	30.679
785.075	55.5116
789.648	67.2606
794.217	132.959
798.785	158.596
803.349	329.018
807.911	750.537
812.471	1317
817.027	1530.4
821.582	1362.75
826.133	1305.04
830.682	1428.29
835.228	1771.47
839.772	2113.61
844.313	2032.85
848.852	1731.08
853.387	1326.09
857.921	1057.76
862.451	759.478
866.979	603.043
871.505	574.289
876.028	438.942
880.548	440.491
885.065	405.134
889.58	401.418
894.093	357.705
898.602	323.706
903.109	449.819
907.614	406.622
912.116	472.416
916.615	422.604
921.112	421.607
925.606	463.855
930.097	387.531
934.586	259.221
939.072	235.92
943.556	159.625
948.037	117.334
952.515	95.0707
956.991	100.844
961.464	29.6256
965.934	50.4159
970.402	3.21753
974.867	5.96472
979.33	50.7909
983.79	70.6495
988.248	4.54077
992.702	98.4337
997.155	19.3402
1001.6	89.2635
1006.05	16.2235
1010.5	47.255
1014.94	44.4305
1019.38	42.6605
1023.81	0.075562
1028.25	1.229
1032.68	36.6213
1037.11	2.1571
1041.53	12.6694
1045.96	37.7369
1050.38	29.8442
1054.8	0.526123
1059.21	38.7014
1063.62	23.3143
1068.04	25.0515
1072.44	68.689
1076.85	44.3376
1081.25	51.9971
1085.65	47.6432
1090.05	10.32
1094.44	38.0293
1098.84	22.0373
1103.22	52.6791
1107.61	19.4805
1112	38.6854
1116.38	46.593
1120.76	93.3451
1125.13	58.5566
1129.51	79.9814
1133.88	68.6218
1138.25	74.5145
1142.61	31.1306
1146.98	36.4685
1151.34	54.1045
1155.7	69.6813
1160.05	15.9775
1164.4	16.5499
1168.76	27.11
1173.1	45.6556
1177.45	25.0192
1181.79	45.3864
1186.13	56.1724
1190.47	33.8147
1194.8	12.7587
1199.14	44.6267
1203.46	22.9838
1207.79	23.3254
1212.12	4.34863
1216.44	49.8909
1220.76	27.084
1225.08	25.2626
1229.39	42.4247
1233.7	24.5654
1238.01	24.671
1242.32	18.8157
1246.62	14.156
1250.92	0.192871
1255.22	62.7599
1259.51	13.6855
1263.81	54.5949
1268.1	14.3746
1272.38	59.2374
1276.67	5.04382
1280.95	71.8246
1285.23	52.615
1289.51	26.3954
1293.79	58.2103
1298.06	20.0104
1302.33	32.7764
1306.6	90.7609
1310.86	48.5677
1315.12	80.3267
1319.38	55.179
1323.64	25.8265
1327.89	16.571
1332.14	53.3794
1336.39	75.1835
1340.64	86.4701
1344.88	49.9329
1349.12	111.914
1353.36	28.6964
1357.6	50.5101
1361.83	101.064
1366.06	62.6237
1370.29	97.9402
1374.52	31.266
1378.74	42.3565
1382.96	40.7655
1387.18	19.8993
1391.39	66.8976
1395.61	44.6239
1399.82	71.5817
1404.02	57.7926
1408.23	4.92883
1412.43	15.7192
1416.63	80.7874
1420.83	3.75269
1425.02	45.4185
1429.21	7.38562
1433.4	17.9576
1437.59	89.3276
1441.77	12.8811
1445.95	103.362
1450.13	32.5461
1454.31	19.8865
1458.48	91.9545
1462.65	39.1044
1466.82	72.3154
1470.99	43.5608
1475.15	42.9027
1479.31	53.359
1483.47	42.9048
1487.63	20.2858
1491.78	85.9672
1495.93	51.7012
1500.08	50.2367
1504.22	84.6971
1508.37	27.5531
1512.51	66.5537
1516.64	13.4641
1520.78	69.5123
1524.91	49.0105
1529.04	53.2003
1533.17	9.42541
1537.29	44.1613
1541.41	93.9364
1545.53	52.0171
1549.65	92.8117
1553.77	133.912
1557.88	87.2347
1561.99	81.6392
1566.09	85.0499
1570.2	109.502
1574.3	27.9265
