Measurement: Raman, 514 nm, ccw, Raman Data Processed
Mineral: Fayalite
Rruff sample: R070293
Ideal chemistry: Fe^2+^_2_SiO_4_
Locality: Pike's Peak, Teller County, Colorado, USA
Source: Michael Scott
Description: Black single crystal fragment with internal hints of red and green
Measured chemistry: (Fe^2+^_1.87_Mn^2+^_0.13_)_Î£=2_Si_1.00_O_4_ ; trace amounts of Mg
Pin_id: L01491
Orientation: Laser parallel to a* (1 0 0). Fiducial mark perpendicular to laser is parallel to b [0 1 0]
Raman shift (cm-1)	intensity
125.645	0
130.556	150.534
135.464	7.78296
140.371	143.237
145.275	4.70752
150.177	141.066
155.076	305.916
159.974	777.363
164.869	2666.09
169.762	5020.86
174.653	5949.75
179.541	1157.23
184.427	304.444
189.311	118.133
194.193	144.045
199.073	165.167
203.95	55.5483
208.825	8.01758
213.698	143.854
218.569	321.058
223.437	717.525
228.303	1653.53
233.167	3224.64
238.028	5269.72
242.888	5141.8
247.745	2955.18
252.599	1662.51
257.452	1168.03
262.302	1027.54
267.15	843.122
271.995	907.945
276.839	1220.95
281.68	1729.88
286.518	2376.4
291.355	2611.68
296.189	1924.07
301.02	1290.61
305.85	1263.83
310.677	1028.02
315.502	670.958
320.325	339.265
325.145	186.57
329.963	108.618
334.778	43.5695
339.592	54.8099
344.403	5.60535
349.211	0.649048
354.017	13.3149
358.821	67.2353
363.623	77.3707
368.422	58.0295
373.219	71.7573
378.014	102.03
382.806	51.3182
387.596	68.5946
392.383	125.976
397.168	173.402
401.951	299.893
406.732	287.415
411.51	231.986
416.285	148.583
421.059	92.1167
425.829	47.6295
430.598	5.83142
435.364	10.5526
440.128	4.21973
444.889	7.16162
449.648	23.3009
454.405	10.6631
459.159	16.7837
463.911	29.0775
468.66	45.2273
473.407	81.2669
478.152	63.7526
482.894	127.658
487.634	152.558
492.372	204.297
497.106	323.435
501.839	466.93
506.569	526.538
511.297	485.548
516.022	370.822
520.745	253.312
525.466	257.156
530.184	266.763
534.899	279.357
539.612	340.398
544.323	506.978
549.031	630.916
553.737	685.459
558.44	495.261
563.141	329.655
567.84	325.689
572.536	373.541
577.229	409.309
581.92	470.301
586.609	503.2
591.295	517.336
595.979	483.1
600.66	374.725
605.339	292.032
610.015	136.101
614.689	94.2599
619.36	55.1801
624.029	58.8296
628.696	30.1908
633.36	50.2841
638.021	42.1302
642.68	4.37585
647.336	20.342
651.99	16.5064
656.642	7.5686
661.291	4.83423
665.937	6.84778
670.581	31.319
675.222	2.61084
679.861	10.2445
684.498	6.31116
689.132	15.7208
693.763	9.45666
698.392	10.3269
703.018	8.02588
707.642	4.36914
712.263	22.4868
716.882	9.48291
721.498	8.37695
726.112	39.215
730.723	49.0128
735.332	117.781
739.938	134.52
744.541	154.217
749.142	182.893
753.741	189.488
758.337	203.415
762.93	269.087
767.521	333.097
772.109	420.094
776.695	531.763
781.278	656.718
785.859	963.501
790.437	1316.85
795.012	1983.15
799.585	3235.57
804.155	6162.95
808.723	11598.6
813.288	17461.6
817.851	17302.8
822.411	14862.1
826.968	14483.2
831.523	15831.5
836.076	17938.1
840.625	18718.6
845.172	17158.3
849.717	13753.8
854.259	10529.9
858.798	8277.07
863.335	6417.54
867.869	5182.33
872.401	4283.43
876.93	3562.84
881.456	3265.01
885.98	2987.37
890.501	3012.39
895.02	3063.04
899.536	3214.52
904.049	3217.43
908.56	2950.57
913.068	2863.6
917.573	2727.72
922.076	2506.8
926.576	2260.95
931.074	1755.62
935.569	1314.67
940.061	1022.14
944.551	749.115
949.038	666.62
953.522	561.575
958.004	445.058
962.483	374.015
966.96	332.487
971.434	273.392
975.905	298.706
980.373	199.447
984.839	192.613
989.303	120.164
993.763	108.036
998.221	112.223
1002.68	22.7279
1007.13	54.6776
1011.58	29.5675
1016.03	11.1154
1020.47	26.4331
1024.91	50.8214
1029.35	35.9663
1033.79	35.8011
1038.22	35.2353
1042.65	56.7343
1047.08	51.2244
1051.51	67.845
1055.93	0.0625
1060.35	67.4356
1064.77	76.9163
1069.19	87.279
1073.6	50.3156
1078.01	94.8784
1082.42	92.902
1086.82	98.1312
1091.22	144.086
1095.62	152.595
1100.02	191.688
1104.41	185.734
1108.8	167.561
1113.19	202.432
1117.58	191.881
1121.96	228.523
1126.34	265.751
1130.72	276.289
1135.09	347.52
1139.46	281.434
1143.83	272.956
1148.2	251.724
1152.56	237.019
1156.92	245.464
1161.28	157.531
1165.64	174.176
1169.99	122.065
1174.34	94.8761
1178.69	148.312
1183.04	52.5903
1187.38	68.7667
1191.72	43.4021
1196.05	53.7242
1200.39	46.9265
1204.72	33.9675
1209.05	18.207
1213.37	23.6417
1217.7	6.32825
1222.02	33.6973
1226.33	11.5553
1230.65	1.91956
1234.96	18.149
1239.27	36.0818
1243.58	68.7852
1247.88	20.7513
1252.18	78.4471
1256.48	14.4698
1260.78	40.2707
1265.07	59.8683
1269.36	50.3103
1273.64	72.6017
1277.93	92.729
1282.21	55.7148
1286.49	62.6062
1290.77	104.434
1295.04	137.21
1299.31	100.876
1303.58	133.505
1307.84	129.039
1312.11	117.49
1316.37	105.811
1320.62	113.98
1324.88	116.054
1329.13	108.272
1333.38	122.76
1337.62	62.7838
1341.86	54.0039
1346.1	128.451
1350.34	49.6309
1354.58	143.821
1358.81	27.1262
1363.04	100.179
1367.26	84.2106
1371.48	118.937
1375.7	108.485
1379.92	70.7119
1384.14	12.2607
1388.35	62.6392
1392.56	97.1106
1396.77	98.5061
1400.97	100.296
1405.17	89.047
1409.37	54.7544
1413.56	34.0581
1417.76	94.2974
1421.94	73.3246
1426.13	64.1315
1430.32	49.7186
1434.5	55.188
1438.68	59.7567
1442.85	79.5244
1447.02	91.5007
1451.19	67.751
1455.36	75.2374
1459.53	63.8856
1463.69	52.6881
1467.85	54.5071
1472	19.3639
1476.15	47.2662
1480.3	93.2917
1484.45	30.5464
1488.6	85.0922
1492.74	20.9294
1496.88	3.04358
1501.01	26.4647
1505.14	15.3064
1509.27	11.7158
1513.4	63.8328
1517.53	6.90894
1521.65	16.403
1525.77	61.0908
1529.88	53.4912
