Measurement: Raman, 514 nm, ccw, Raman Data Processed
Mineral: Fayalite
Rruff sample: R070374
Ideal chemistry: Fe^2+^_2_SiO_4_
Locality: Little Lake, Lake County, California, USA
Source: Michael Scott
Description: Large dark brown crystal fragment
Measured chemistry: (Fe^2+^_1.89_Mn^2+^_0.11_)_Î£=2_Si_1.00_O_4_ ; trace amounts of Mg
Pin_id: M01107
Orientation: Laser parallel to b* (0 1 0). Fiducial mark perpendicular to laser is parallel to c [0 0 1]
Raman shift (cm-1)	intensity
78.283	0
83.243	802.814
88.2	45.4839
93.155	375.619
98.106	408.036
103.056	349.244
108.002	939.06
112.946	352.409
117.888	416.392
122.827	566.159
127.763	93.5439
132.697	90.7124
137.628	18.0395
142.556	131.477
147.482	363.734
152.405	493.125
157.326	421.526
162.244	634.467
167.159	1018.38
172.072	1245.43
176.982	495.611
181.89	126.376
186.795	279.226
191.697	209.66
196.597	402.633
201.494	334.782
206.389	26.8877
211.281	40.3648
216.17	28.8994
221.057	21.144
225.941	275.914
230.823	574.096
235.702	633.469
240.578	832.056
245.452	530.299
250.323	398.11
255.192	266.659
260.058	199.873
264.921	363.243
269.782	514.691
274.64	923.53
279.495	1379.18
284.348	1979.02
289.198	2304.64
294.046	1946.49
298.891	1486.9
303.733	1167.99
308.573	1088.09
313.41	759.019
318.245	525.166
323.077	361.647
327.906	250.553
332.733	157.029
337.557	236.501
342.379	125.684
347.198	189.376
352.014	247.95
356.828	410.646
361.639	531.139
366.447	655.088
371.253	721.123
376.056	521.215
380.857	469.327
385.655	498.709
390.451	435.463
395.243	485.9
400.034	458.643
404.821	382.131
409.606	293.336
414.389	290.6
419.168	184.795
423.945	162.49
428.72	57.7395
433.492	31.523
438.261	18.1668
443.028	0.514893
447.792	6.58154
452.553	59.7891
457.312	43.3293
462.068	53.0015
466.822	34.6416
471.573	12.1382
476.321	43.7449
481.067	42.6057
485.81	73.5889
490.551	55.8179
495.289	102.975
500.024	232.245
504.757	232.767
509.487	220.245
514.214	158.616
518.939	209.747
523.661	219.608
528.381	223.208
533.098	321.558
537.812	370.67
542.524	608.585
547.233	739.33
551.94	885.892
556.644	894.263
561.345	731.525
566.044	827.4
570.74	691.55
575.433	569.744
580.124	459.508
584.812	493.365
589.498	371.279
594.181	324.504
598.861	376.425
603.539	324.075
608.214	364.685
612.887	296.873
617.557	378.225
622.224	345.598
626.889	405.455
631.551	428.285
636.21	387.647
640.867	381.421
645.521	383.619
650.173	336.652
654.822	378.584
659.468	363.534
664.112	305.393
668.753	387.165
673.392	366.855
678.028	324.467
682.661	327.004
687.292	360.469
691.92	361.863
696.545	335.191
701.168	310.462
705.788	335.703
710.406	326.923
715.021	250.129
719.633	154.344
724.243	186.679
728.85	104.127
733.455	60.5915
738.056	11.0252
742.656	1.61572
747.252	0.593018
751.846	58.293
756.438	60.5669
761.027	49.1934
765.613	8.19214
770.196	2.88916
774.777	162.929
779.356	177.075
783.932	368.23
788.505	559.434
793.075	1073.64
797.643	1885.84
802.208	3386.02
806.771	6150.26
811.331	8272.46
815.888	7827.64
820.443	6405.8
824.995	5456.94
829.545	5435.05
834.092	5876.13
838.636	5938.19
843.178	5389.22
847.717	4171.22
852.254	3061.19
856.788	2299.12
861.319	1678.03
865.848	1315.89
870.374	981.264
874.897	814.714
879.418	681.469
883.936	561.557
888.452	503.744
892.965	521.407
897.475	649.284
901.983	547.314
906.488	568.972
910.99	575.849
915.49	540.005
919.988	569.972
924.482	570.916
928.974	534.995
933.464	433.64
937.951	374.61
942.435	290.662
946.917	262.375
951.396	267.582
955.872	190.001
960.346	185.239
964.817	171.765
969.285	222.27
973.751	53.4373
978.215	104.491
982.675	216.446
987.134	181.581
991.589	125.214
996.042	193.921
1000.49	187.546
1004.94	113.093
1009.38	66.5986
1013.83	73.2009
1018.27	37.5813
1022.7	22.0837
1027.14	18.6721
1031.57	66.6326
1036	17.9885
1040.43	12.5662
1044.85	25.3777
1049.27	26.6145
1053.69	0.24292
1058.11	26.5159
1062.52	129.08
1066.93	29.2185
1071.34	10.8938
1075.75	99.6331
1080.15	57.1211
1084.55	57.6963
1088.95	100.101
1093.35	43.4575
1097.74	57.6306
1102.13	108.436
1106.52	90.7234
1110.9	92.2544
1115.28	75.6653
1119.66	139.954
1124.04	112.126
1128.41	123.18
1132.79	90.1199
1137.16	147.946
1141.52	170.55
1145.89	141.149
1150.25	129.226
1154.61	148.439
1158.96	58.0632
1163.32	37.7988
1167.67	50.27
1172.02	75.9607
1176.36	4.59741
1180.71	68.6121
1185.05	0.432373
1189.38	1.1958
1193.72	124.686
1198.05	56.4468
1202.38	7.71118
1206.71	44.5276
1211.04	4.19678
1215.36	31.7705
1219.68	39.1633
1224	46.5718
1228.31	106.736
1232.62	14.1924
1236.93	34.0337
1241.24	56.2676
1245.54	29.4985
1249.84	41.6409
1254.14	24.8862
1258.44	82.1238
1262.73	80.3467
1267.03	82.5559
1271.31	123.755
1275.6	95.9495
1279.88	89.1497
1284.16	137.353
1288.44	145.577
1292.72	117.779
1296.99	181.143
1301.26	185.459
1305.53	113.874
1309.79	169.586
1314.06	154.04
1318.32	108.867
1322.57	204.803
1326.83	152.01
1331.08	96.8731
1335.33	135.943
1339.58	113.876
1343.82	88.165
1348.06	116.287
1352.3	99.3936
1356.54	144.621
1360.77	54.5207
1365.01	133.147
1369.23	103.843
1373.46	136.686
1377.68	159.788
1381.9	144.7
1386.12	60.6838
1390.34	140.779
1394.55	135.962
1398.76	127.24
1402.97	65.6497
1407.18	86.1301
1411.38	104.721
1415.58	25.333
1419.78	97.9275
1423.97	63.5923
1428.17	166.352
1432.36	69.2022
1436.54	146.144
1440.73	156.325
1444.91	158.715
1449.09	178.061
1453.27	114.783
1457.44	115.671
1461.61	102.737
1465.78	81.0085
1469.95	88.4971
1474.11	128.156
1478.27	80.884
1482.43	99.6716
1486.59	49.5837
1490.74	41.6397
1494.89	34.8398
1499.04	45.8115
1503.19	106.705
1507.33	19.605
1511.47	29.2373
1515.61	29.1921
1519.75	51.4109
1523.88	42.906
1528.01	22.676
1532.14	81.7573
1536.26	25.1919
1540.38	95.823
1544.51	69.0562
1548.62	45.5442
1552.74	248.731
1556.85	51.5066
1560.96	139.283
1565.07	80.5796
1569.17	73.3494
1573.27	18.8137
