Measurement: Raman, 514 nm, ccw, Raman Data Processed
Mineral: Fayalite
Rruff sample: R070293
Ideal chemistry: Fe^2+^_2_SiO_4_
Locality: Pike's Peak, Teller County, Colorado, USA
Source: Michael Scott
Description: Black single crystal fragment with internal hints of red and green
Measured chemistry: (Fe^2+^_1.87_Mn^2+^_0.13_)_Î£=2_Si_1.00_O_4_ ; trace amounts of Mg
Pin_id: L01546
Orientation: Laser parallel to c* (0 0 1). Fiducial mark perpendicular to laser is parallel to a [1 0 0]
Raman shift (cm-1)	intensity
99.344	0
104.293	111.144
109.239	219.522
114.182	503.655
119.123	176.478
124.061	204.889
128.997	326.57
133.93	22.4951
138.86	107.644
143.788	163.649
148.713	143.446
153.636	346.263
158.556	364.652
163.473	401.921
168.388	445.545
173.3	364.798
178.21	116.986
183.117	194.915
188.021	256.354
192.923	330.887
197.822	289.81
202.718	92.6992
207.612	51.1143
212.504	3.53027
217.392	119.577
222.279	35.5488
227.162	266.771
232.043	328.347
236.921	490.324
241.797	510.35
246.67	153.503
251.54	243.377
256.408	15.0088
261.274	147.523
266.136	111.753
270.996	86.9404
275.854	251.884
280.709	288.543
285.561	446.588
290.41	270.69
295.257	350.002
300.102	408.651
304.944	411.695
309.783	576.577
314.619	735.026
319.453	582.249
324.285	441.269
329.113	401.968
333.939	244.82
338.763	522.601
343.584	435.944
348.402	613.612
353.218	724.915
358.031	958.568
362.841	1228.72
367.649	1374.09
372.454	1161.06
377.257	961.593
382.057	523.537
386.854	422.018
391.649	120.608
396.441	185.196
401.231	130.478
406.018	11.792
410.802	2.91406
415.584	96.0166
420.363	77.3594
425.139	149.23
429.913	227.829
434.684	216.542
439.453	209.335
444.219	162.621
448.982	1.77344
453.743	18.0737
458.501	147.222
463.257	22.4688
468.01	2.18213
472.76	36.353
477.508	113.501
482.253	40.4355
486.996	113.432
491.736	276.775
496.473	615.25
501.207	1161.69
505.94	1491.57
510.669	1161.44
515.396	853.412
520.12	472.491
524.842	515.866
529.561	383.56
534.277	527.961
538.991	530.538
543.702	572.067
548.41	782.941
553.116	1054.82
557.819	1281.64
562.52	1815.43
567.218	1914.15
571.913	1655.1
576.606	1181.93
581.296	872.755
585.984	780.779
590.669	648.031
595.351	617.339
600.031	476.31
604.708	397.758
609.383	185.506
614.055	189.461
618.724	157.043
623.391	151.458
628.055	165.886
632.716	50.1533
637.375	67.4658
642.031	102.276
646.685	142.6
651.335	68.3799
655.984	21.582
660.63	91.2881
665.273	120.502
669.913	123.372
674.551	135.629
679.186	43.6455
683.819	14.7539
688.449	175.4
693.076	35.2188
697.701	16.4463
702.323	35.5254
706.943	2.19824
711.56	92.415
716.174	27.0459
720.786	26.6504
725.395	13.834
730.001	102.603
734.605	30.2471
739.206	96.5615
743.805	5.2666
748.401	40.6006
752.995	40.0127
757.585	45.6924
762.173	89.1865
766.759	170.294
771.342	38.9307
775.922	186.374
780.5	337.949
785.075	365.335
789.648	855.446
794.217	1225.83
798.785	2206.51
803.349	4800.86
807.911	9489.19
812.471	13940.5
817.027	13728.2
821.582	10627.7
826.133	8784.98
830.682	7897.75
835.228	7353.38
839.772	6362.53
844.313	4841.82
848.852	3226
853.387	2047.75
857.921	1151.35
862.451	673.357
866.979	381.832
871.505	281.302
876.028	186.349
880.548	311.498
885.065	305.708
889.58	679.257
894.093	669.607
898.602	619.769
903.109	880.415
907.614	765.18
912.116	603.232
916.615	619.439
921.112	850.184
925.606	944.317
930.097	1050.27
934.586	996.312
939.072	954.164
943.556	934.487
948.037	902.194
952.515	562.335
956.991	670.197
961.464	481.897
965.934	422.012
970.402	401.522
974.867	249.853
979.33	480.125
983.79	268.236
988.248	338.609
992.702	272.664
997.155	381.085
1001.6	297.786
1006.05	261.783
1010.5	142.068
1014.94	185.576
1019.38	222.351
1023.81	32.3809
1028.25	120.099
1032.68	62.7666
1037.11	11.2422
1041.53	7.26172
1045.96	39.9678
1050.38	109.519
1054.8	5.0918
1059.21	86.8799
1063.62	159.407
1068.04	44.0127
1072.44	67.6035
1076.85	31.5156
1081.25	182.73
1085.65	49.4805
1090.05	135.417
1094.44	80.6885
1098.84	16.1445
1103.22	78.4648
1107.61	29.9902
1112	94.333
1116.38	109.506
1120.76	158.566
1125.13	198.739
1129.51	224.994
1133.88	91.918
1138.25	227.915
1142.61	275.516
1146.98	267.2
1151.34	122.793
1155.7	264.903
1160.05	78.3731
1164.4	182.065
1168.76	105.299
1173.1	9.69727
1177.45	127.335
1181.79	149.016
1186.13	26.8096
1190.47	80.125
1194.8	158.302
1199.14	53.0586
1203.46	67.0156
1207.79	141.837
1212.12	78.584
1216.44	214.233
1220.76	53.2764
1225.08	107.022
1229.39	156.412
1233.7	97.4863
1238.01	248.817
1242.32	110.305
1246.62	191.561
1250.92	128.894
1255.22	30.0586
1259.51	154.059
1263.81	63.9102
1268.1	239.611
1272.38	182.134
1276.67	296.487
1280.95	129.913
1285.23	58.8857
1289.51	249.342
1293.79	97.2285
1298.06	68.9834
1302.33	167.695
1306.6	133.802
1310.86	172.949
1315.12	211.116
1319.38	170.184
1323.64	215.032
1327.89	268.709
1332.14	255.275
1336.39	294.926
1340.64	211.893
1344.88	280.7
1349.12	196.433
1353.36	153.423
1357.6	136.863
1361.83	173.605
1366.06	110.077
1370.29	211.588
1374.52	93.041
1378.74	123.801
1382.96	155.987
1387.18	27.5391
1391.39	177.031
1395.61	116.562
1399.82	74.374
1404.02	246.064
1408.23	101.781
1412.43	99.8408
1416.63	106.709
1420.83	313.583
1425.02	265.575
1429.21	268.897
1433.4	46.919
1437.59	65.7861
1441.77	45.8301
1445.95	185.656
1450.13	102.297
1454.31	231.841
1458.48	159.49
1462.65	189.459
1466.82	227.788
1470.99	9.58008
1475.15	283.572
1479.31	33.6895
1483.47	92.9629
1487.63	120.384
1491.78	197.044
1495.93	153.702
1500.08	142.561
1504.22	84.2793
1508.37	256.795
1512.51	52.9805
1516.64	153.953
1520.78	88.3594
1524.91	140.203
1529.04	117.484
1533.17	228.986
1537.29	234.103
1541.41	106.829
1545.53	95.6992
1549.65	304.62
1553.77	162.829
1557.88	126.139
1561.99	72.6348
1566.09	81.3984
1570.2	342.054
1574.3	55.4375
