Measurement: Raman, 514 nm, ccw, Raman Data Processed
Mineral: Fayalite
Rruff sample: R070374
Ideal chemistry: Fe^2+^_2_SiO_4_
Locality: Little Lake, Lake County, California, USA
Source: Michael Scott
Description: Large dark brown crystal fragment
Measured chemistry: (Fe^2+^_1.89_Mn^2+^_0.11_)_Î£=2_Si_1.00_O_4_ ; trace amounts of Mg
Pin_id: M01077
Orientation: Laser parallel to a* (1 0 0). Fiducial mark perpendicular to laser is parallel to b [0 1 0]
Raman shift (cm-1)	intensity
83.243	0
88.2	2.28552
93.155	83.9104
98.106	142.122
103.056	216.394
108.002	416.525
112.946	317.007
117.888	583.579
122.827	465.884
127.763	88.7048
132.697	33.0405
137.628	90.5708
142.556	73.0314
147.482	101.321
152.405	157.68
157.326	405.415
162.244	1201.35
167.159	3100.46
172.072	6700.74
176.982	2239.15
181.89	412.676
186.795	198.155
191.697	57.9324
196.597	136.169
201.494	169.748
206.389	26.4835
211.281	64.7557
216.17	197.403
221.057	386.293
225.941	935.191
230.823	1996.2
235.702	3710.28
240.578	4776.97
245.452	3025.77
250.323	1636.59
255.192	1001.42
260.058	696.956
264.921	592.615
269.782	511.381
274.64	665.242
279.495	799.225
284.348	1129.1
289.198	1259.29
294.046	1041.45
298.891	650.028
303.733	488.406
308.573	477.159
313.41	345.943
318.245	173.917
323.077	63.7968
327.906	35.6679
332.733	57.4948
337.557	43.8477
342.379	35.5271
347.198	35.9187
352.014	86.5339
356.828	83.3627
361.639	175.782
366.447	284.248
371.253	296.776
376.056	236.325
380.857	220.883
385.655	142.426
390.451	140.936
395.243	149.484
400.034	94.0184
404.821	162.511
409.606	113.975
414.389	107.413
419.168	28.8308
423.945	31.2237
428.72	27.671
433.492	24.8971
438.261	5.61218
443.028	39.3436
447.792	31.2961
452.553	17.4939
457.312	15.8816
462.068	32.5553
466.822	14.137
471.573	38.0446
476.321	53.1185
481.067	23.9003
485.81	71.1715
490.551	133.649
495.289	212.761
500.024	281.472
504.757	388.499
509.487	364.739
514.214	301.91
518.939	220.243
523.661	149.038
528.381	176.296
533.098	144.676
537.812	194.727
542.524	225.131
547.233	283.143
551.94	392.078
556.644	288.554
561.345	174.476
566.044	217.246
570.74	274.696
575.433	241.501
580.124	326.029
584.812	330.87
589.498	351.537
594.181	336.434
598.861	308.656
603.539	217.744
608.214	128.144
612.887	135.974
617.557	64.4364
622.224	23.0154
626.889	52.3033
631.551	39.5511
636.21	18.3931
640.867	7.61401
645.521	22.8919
650.173	3.08289
654.822	6.95312
659.468	21.5741
664.112	30.9968
668.753	48.2634
673.392	46.3545
678.028	23.1732
682.661	10.8215
687.292	9.6571
691.92	36.7002
696.545	5.87952
701.168	25.898
705.788	21.2614
710.406	25.3396
715.021	19.218
719.633	9.91663
724.243	14.173
728.85	1.74292
733.455	11.353
738.056	83.4158
742.656	31.4802
747.252	53.5474
751.846	77.5875
756.438	91.561
761.027	111.101
765.613	151.13
770.196	122.73
774.777	211.262
779.356	264.051
783.932	454.064
788.505	603.886
793.075	979.526
797.643	1433.09
802.208	2559.24
806.771	5070.9
811.331	9287.76
815.888	11033.5
820.443	9864.45
824.995	9012.55
829.545	9920.67
834.092	11393.1
838.636	12850.1
843.178	12822.6
847.717	10873
852.254	8594.05
856.788	6595.08
861.319	5060.45
865.848	4119.14
870.374	3352.67
874.897	2780.4
879.418	2554.7
883.936	2442.18
888.452	2329.29
892.965	2417.54
897.475	2599.87
901.983	2728.95
906.488	2633.58
910.99	2398.67
915.49	2408.39
919.988	2326.34
924.482	2191.03
928.974	1876
933.464	1432.23
937.951	1089.73
942.435	814.519
946.917	598.581
951.396	508.95
955.872	422.571
960.346	357.47
964.817	281.65
969.285	279.097
973.751	267.398
978.215	184.213
982.675	188.291
987.134	190.522
991.589	135.246
996.042	71.3391
1000.49	40.6205
1004.94	36.8188
1009.38	37.7867
1013.83	11.6351
1018.27	6.39807
1022.7	25.2867
1027.14	17.108
1031.57	13.8281
1036	2.52978
1040.43	16.2327
1044.85	6.9436
1049.27	6.60107
1053.69	15.8013
1058.11	11.2517
1062.52	12.754
1066.93	16.856
1071.34	75.9916
1075.75	63.3903
1080.15	137.746
1084.55	100.229
1088.95	91.8951
1093.35	75.4388
1097.74	111.437
1102.13	141.029
1106.52	143.046
1110.9	114.486
1115.28	166.156
1119.66	148.822
1124.04	195.33
1128.41	192.582
1132.79	214.836
1137.16	216.274
1141.52	223.095
1145.89	185.073
1150.25	156.741
1154.61	160.385
1158.96	97.281
1163.32	114.653
1167.67	113.598
1172.02	76.3342
1176.36	66.6805
1180.71	84.4613
1185.05	46.5523
1189.38	50.8003
1193.72	22.9684
1198.05	24.0406
1202.38	0.059692
1206.71	64.6139
1211.04	27.839
1215.36	0.472046
1219.68	16.2614
1224	12.2919
1228.31	1.50342
1232.62	32.1666
1236.93	13.7042
1241.24	16.104
1245.54	3.37927
1249.84	10.5277
1254.14	54.4279
1258.44	92.1691
1262.73	0.812256
1267.03	0.68689
1271.31	79.6554
1275.6	51.9164
1279.88	94.1097
1284.16	82.2341
1288.44	54.2803
1292.72	73.2922
1296.99	70.2864
1301.26	89.2878
1305.53	151.261
1309.79	93.198
1314.06	90.0924
1318.32	125.954
1322.57	115.743
1326.83	117.993
1331.08	110.411
1335.33	103.213
1339.58	104.612
1343.82	84.2022
1348.06	68.8992
1352.3	25.9576
1356.54	48.1711
1360.77	107.478
1365.01	75.3043
1369.23	128.291
1373.46	90.3558
1377.68	100.61
1381.9	35.8372
1386.12	89.8019
1390.34	75.031
1394.55	59.6748
1398.76	67.7494
1402.97	124.871
1407.18	105.126
1411.38	119.305
1415.58	69.4713
1419.78	70.3229
1423.97	110.718
1428.17	74.1993
1432.36	68.7101
1436.54	63.4315
1440.73	84.0729
1444.91	95.9771
1449.09	76.2522
1453.27	103.304
1457.44	106.158
1461.61	73.1221
1465.78	101.281
1469.95	41.5898
1474.11	62.0028
1478.27	64.5642
1482.43	86.307
1486.59	84.2543
1490.74	63.3806
1494.89	72.5886
1499.04	81.8828
1503.19	34.2343
1507.33	76.6615
1511.47	84.1499
1515.61	36.6838
1519.75	74.4093
1523.88	57.3654
1528.01	49.5571
1532.14	32.9913
1536.26	38.6572
1540.38	38.5814
1544.51	33.8218
1548.62	92.4263
1552.74	84.564
1556.85	34.2827
1560.96	54.8872
1565.07	0.316406
1569.17	26.7443
1573.27	13.3829
