Measurement: Raman, 514 nm, ccw, Raman Data Processed
Mineral: Fayalite
Rruff sample: R070374
Ideal chemistry: Fe^2+^_2_SiO_4_
Locality: Little Lake, Lake County, California, USA
Source: Michael Scott
Description: Large dark brown crystal fragment
Measured chemistry: (Fe^2+^_1.89_Mn^2+^_0.11_)_Î£=2_Si_1.00_O_4_ ; trace amounts of Mg
Pin_id: M01077
Orientation: Laser parallel to a* (1 0 0). Fiducial mark perpendicular to laser is parallel to b [0 1 0]
Raman shift (cm-1)	intensity
95.631	0
100.581	21.4171
105.529	142.699
110.475	138.153
115.417	241.1
120.358	97.0617
125.295	25.3353
130.23	30.9699
135.163	71.2709
140.092	459.529
145.019	1692.91
149.944	2844.53
154.866	4087.97
159.785	1391.92
164.702	684.885
169.616	908.44
174.528	714.338
179.437	242.557
184.343	284.128
189.247	596.015
194.148	926.253
199.046	586.947
203.942	13.2566
208.835	66.9884
213.726	13.853
218.614	55.5383
223.5	214.161
228.382	560.773
233.263	1026.46
238.14	1448.42
243.015	1095.22
247.888	675.43
252.758	425.426
257.625	306.908
262.49	351.622
267.352	398.655
272.211	534.98
277.068	826.727
281.922	1157.19
286.773	1490.12
291.622	1489.46
296.469	1426.46
301.312	1553.35
306.154	1899.2
310.992	1975.81
315.828	1677.97
320.661	1161.94
325.492	1050.56
330.32	956.344
335.145	962.173
339.968	1256.9
344.789	1510.46
349.606	1988.24
354.421	2762.8
359.234	3733.67
364.043	4793.37
368.851	5312.02
373.655	5102.95
378.457	4393.13
383.256	3584.56
388.053	2801.26
392.847	2008.31
397.639	1279.57
402.428	807.009
407.214	513.802
411.998	374.258
416.779	211.902
421.557	126.534
426.333	95.8969
431.106	3.44153
435.877	51.8859
440.645	21.973
445.41	10.9199
450.173	26.4968
454.933	42.7664
459.691	20.7747
464.446	21.4911
469.198	14.2867
473.948	115.921
478.695	134.434
483.439	255.151
488.181	518.912
492.92	916.226
497.657	1825.95
502.391	2880.09
507.122	3125.97
511.851	2118.71
516.577	1265.24
521.301	878.824
526.022	662.531
530.74	645.921
535.456	689.814
540.169	763.525
544.879	852.176
549.587	931.001
554.292	1061.62
558.995	1239.43
563.695	1271.24
568.392	1129.51
573.087	959.81
577.779	846.561
582.469	811.035
587.156	727.714
591.84	655.508
596.522	518.955
601.201	354.794
605.877	232.429
610.551	160.857
615.222	66.8835
619.891	74.7206
624.557	72.7373
629.22	19.4297
633.881	32.2385
638.539	33.6495
643.195	30.7749
647.848	3.80127
652.498	61.2832
657.145	35.2748
661.791	39.8848
666.433	16.5463
671.073	64.3417
675.71	16.2816
680.345	86.0835
684.977	46.8674
689.606	14.5376
694.233	22.5786
698.857	0.672852
703.478	44.4477
708.097	24.793
712.714	46.7353
717.327	66.3621
721.938	70.7231
726.547	89.8469
731.153	91.8159
735.756	122.606
740.356	175.232
744.954	271.728
749.55	317.515
754.142	374.121
758.733	407.919
763.32	603.969
767.905	692.098
772.487	732.528
777.067	1104.87
781.644	1413.17
786.218	2079.22
790.79	3148.95
795.359	5271.38
799.926	9744.71
804.49	19963.5
809.051	36784.1
813.61	47830.1
818.166	42211.7
822.72	32537.1
827.271	27509.3
831.819	24918.3
836.365	22958.1
840.908	19098.5
845.448	13949.3
849.986	9122.01
854.521	5519.34
859.054	3300.35
863.584	2050.06
868.111	1340.48
872.636	808.64
877.158	620.551
881.677	530.229
886.194	544.694
890.709	637.998
895.22	968.203
899.729	1332.32
904.236	1200.72
908.74	826.787
913.241	677.546
917.739	928.273
922.235	1233.72
926.729	1641.65
931.219	1760.21
935.708	1709.62
940.193	1663.74
944.676	1552.54
949.156	1381.79
953.634	1327.99
958.109	1216.45
962.582	1128.23
967.051	1004.75
971.519	954.646
975.983	835.207
980.445	739.029
984.905	638.587
989.362	584.993
993.816	571.254
998.267	452.349
1002.72	320.242
1007.16	304.922
1011.61	213.356
1016.05	191.528
1020.49	156.429
1024.92	38.3066
1029.36	103.328
1033.79	0.712891
1038.21	44.1055
1042.64	41.2651
1047.06	64.9905
1051.48	46.8264
1055.9	7.9707
1060.32	40.906
1064.73	31.8594
1069.14	10.6187
1073.55	75.0249
1077.95	19.0674
1082.35	25.4097
1086.75	6.46265
1091.15	38.1306
1095.54	10.0244
1099.93	48.6821
1104.32	78.606
1108.71	5.59912
1113.09	97.5254
1117.47	132.029
1121.85	187.977
1126.23	239.128
1130.6	276.713
1134.97	371.947
1139.34	370.035
1143.7	297.837
1148.07	225.709
1152.43	293.766
1156.79	154.339
1161.14	97.7734
1165.49	115.503
1169.84	32.5737
1174.19	92.8774
1178.54	27.6326
1182.88	83.7625
1187.22	27.6426
1191.55	38.958
1195.89	31.0886
1200.22	34.8257
1204.55	31.0671
1208.87	19.5671
1213.2	7.52173
1217.52	6.14551
1221.84	4.94873
1226.15	37.2048
1230.47	14.0786
1234.78	70.116
1239.09	108.902
1243.39	71.238
1247.69	36.2102
1251.99	121.778
1256.29	76.9263
1260.59	84.6804
1264.88	89.062
1269.17	124.37
1273.46	178.767
1277.74	97.1157
1282.02	140.116
1286.3	169.784
1290.58	136.125
1294.86	146.135
1299.13	108.644
1303.39	210.018
1307.66	130.448
1311.93	218.356
1316.19	165.883
1320.45	182.589
1324.7	249.973
1328.96	260.179
1333.21	303.638
1337.45	185.292
1341.7	194.639
1345.94	264.516
1350.18	247.977
1354.42	239.877
1358.66	195.608
1362.89	234.491
1367.12	262.715
1371.35	215.145
1375.57	209.028
1379.8	191.597
1384.02	201.53
1388.23	200.892
1392.45	174.763
1396.66	260.947
1400.87	200.078
1405.08	274.751
1409.28	255.693
1413.48	196.74
1417.68	267.803
1421.88	280.484
1426.07	247.369
1430.26	230.51
1434.45	201.867
1438.64	138.329
1442.82	231.037
1447	158.361
1451.18	203.546
1455.35	189.595
1459.53	239.424
1463.7	155.001
1467.87	165.269
1472.03	186.106
1476.19	116.031
1480.35	104.122
1484.51	100.442
1488.67	165.923
1492.82	165.527
1496.97	79.2837
1501.12	76.2095
1505.26	89.3381
1509.4	39.6511
1513.54	108.003
1517.68	53.7495
1521.81	81.8472
1525.94	52.3552
1530.07	78.2563
1534.2	104.585
1538.32	62.406
1542.44	60.8044
1546.56	47.9075
1550.68	41.897
1554.79	126.751
1558.9	4.30664
1563.01	25.4492
1567.12	17.2312
1571.22	14.5972
1575.32	0.675049
