Measurement: Raman, 514 nm, ccw, Raman Data Processed
Mineral: Fayalite
Rruff sample: R070293
Ideal chemistry: Fe^2+^_2_SiO_4_
Locality: Pike's Peak, Teller County, Colorado, USA
Source: Michael Scott
Description: Black single crystal fragment with internal hints of red and green
Measured chemistry: (Fe^2+^_1.87_Mn^2+^_0.13_)_Î£=2_Si_1.00_O_4_ ; trace amounts of Mg
Pin_id: L01491
Orientation: Laser parallel to a* (1 0 0). Fiducial mark perpendicular to laser is parallel to b [0 1 0]
Raman shift (cm-1)	intensity
125.645	0
129.328	41.6881
133.01	1.18075
136.691	1.80377
140.371	103.396
144.049	4.04652
147.726	83.4729
151.402	144.486
155.076	312.368
158.75	149.685
162.422	76.1337
166.092	133.27
169.762	401.692
173.43	686.882
177.097	277.919
180.763	67.1476
184.427	87.8552
188.091	109.596
191.753	168.498
195.413	264.53
199.073	224.675
202.731	192.975
206.388	41.6851
210.044	29.5946
213.698	13.6541
217.351	9.45766
221.003	21.6136
224.654	78.4477
228.303	221.308
231.951	375.257
235.598	679.204
239.243	956.26
242.888	935.351
246.53	514.202
250.172	334.111
253.813	148.047
257.452	149.068
261.089	138.155
264.726	124.309
268.361	151.565
271.995	126.606
275.628	194.574
279.259	259.379
282.889	359.678
286.518	425.208
290.146	427.034
293.772	425.439
297.397	361.929
301.02	310.076
304.643	301.141
308.264	337.629
311.884	349.567
315.502	340.824
319.119	358.857
322.735	275.757
326.35	290.515
329.963	311.233
333.575	361.952
337.185	402.716
340.795	495.445
344.403	590.38
348.009	725.288
351.615	861.997
355.219	1094.3
358.821	1449.88
362.423	1804.78
366.023	2126.91
369.622	2281.1
373.219	2144.34
376.815	1684.64
380.41	1296.96
384.004	906.361
387.596	658.847
391.187	456.002
394.776	322.076
398.364	187.762
401.951	100.49
405.537	89.2983
409.121	49.1609
412.704	48.0329
416.285	3.06743
419.865	12.8227
423.444	7.26605
427.022	12.6119
430.598	2.90617
434.173	6.0972
437.746	14.8193
441.319	3.31204
444.889	14.9362
448.459	14.6892
452.027	27.3043
455.594	0.700109
459.159	19.1895
462.723	19.9652
466.286	83.6507
469.847	42.7487
473.407	57.1046
476.966	115.677
480.523	154.915
484.079	216.495
487.634	277.189
491.187	382.209
494.739	533.33
498.29	971.391
501.839	1620.47
505.387	2226.27
508.933	2059.17
512.478	1477.91
516.022	993.296
519.565	711.346
523.106	529.118
526.645	475.45
530.184	440.969
533.72	423.596
537.256	464.846
540.79	518.144
544.323	546.291
547.854	562.925
551.384	689.299
554.913	761.694
558.44	844.62
561.966	945.563
565.491	915.379
569.014	749.287
572.536	565.031
576.056	488.878
579.575	429.969
583.093	379.866
586.609	327.763
590.124	333.953
593.637	262.255
597.15	263.702
600.66	216.937
604.17	174.935
607.677	116.295
611.184	65.8188
614.689	67.5518
618.193	41.0068
621.695	53.1739
625.196	66.057
628.696	35.6359
632.194	60.9108
635.691	2.89826
639.186	23.5268
642.68	26.8652
646.172	16.8727
649.664	5.61146
653.153	14.0321
656.642	22.1192
660.129	15.8851
663.614	14.3272
667.098	35.2767
670.581	5.18552
674.062	3.55951
677.542	5.01288
681.021	12.7222
684.498	18.7253
687.973	6.0632
691.448	16.6532
694.92	7.46193
698.392	12.4572
701.862	14.135
705.33	11.6688
708.797	8.42193
712.263	1.73507
715.728	7.4491
719.19	18.4791
722.652	5.80223
726.112	15.2747
729.57	14.8788
733.028	45.4084
736.483	71.6192
739.938	47.761
743.391	87.9147
746.842	105.267
750.292	129.518
753.741	107.591
757.188	166.768
760.634	219.936
764.078	211.535
767.521	280.124
770.962	295.332
774.402	338.775
777.841	416.607
781.278	503.227
784.714	633.628
788.148	811.563
791.581	1259.74
795.012	1752.93
798.442	2779.9
801.871	4606.24
805.298	8029.59
808.723	13994.9
812.147	21570.3
815.57	25145
818.991	22106.1
822.411	17721.4
825.829	14762.4
829.246	13303.2
832.662	12178.5
836.076	11471.8
839.488	10459.4
842.899	8937.09
846.309	6793.39
849.717	4881.39
853.124	3332.09
856.529	2201.31
859.933	1410.43
863.335	867.121
866.736	554.131
870.135	267.629
873.533	123.401
876.93	110.453
880.325	86.7871
883.718	12.5966
887.11	36.305
890.501	101.323
893.89	220.068
897.278	403.012
900.664	642.676
904.049	586.234
907.432	423.721
910.814	229.876
914.194	302.945
917.573	391.65
920.95	635.188
924.326	854.402
927.701	1088.72
931.074	1221.76
934.445	1239.57
937.815	1251.98
941.184	1191.73
944.551	1169.04
947.916	1088.32
951.28	1013.99
954.643	863.469
958.004	891.134
961.364	787.022
964.722	727.011
968.078	707.091
971.434	599.817
974.787	564.914
978.139	535.122
981.49	421.487
984.839	491.209
988.187	398.254
991.533	320.643
994.878	358.356
998.221	301.399
1001.56	278.76
1004.9	216.409
1008.24	199.336
1011.58	166.536
1014.91	94.9417
1018.25	117.035
1021.58	87.0155
1024.91	35.2753
1028.24	1.78583
1031.57	8.53724
1034.9	27.5179
1038.22	51.7728
1041.55	41.7308
1044.87	47.4665
1048.19	71.9588
1051.51	21.8923
1054.83	2.06888
1058.14	9.3484
1061.46	13.8836
1064.77	69.8477
1068.08	13.4538
1071.39	13.452
1074.7	10.1372
1078.01	1.70154
1081.32	0.705506
1084.62	17.1998
1087.92	10.0387
1091.22	30.8829
1094.52	1.87917
1097.82	20.1476
1101.12	30.583
1104.41	11.5276
1107.7	60.7339
1111	78.2137
1114.29	91.4645
1117.58	26.0126
1120.86	137.357
1124.15	96.4103
1127.43	180.351
1130.72	105.713
1134	146.254
1137.28	130.879
1140.56	169.72
1143.83	148.505
1147.11	130.29
1150.38	72.9413
1153.65	52.5869
1156.92	128.858
1160.19	72.1621
1163.46	61.3546
1166.73	102.087
1169.99	14.2094
1173.26	19.0754
1176.52	31.1356
1179.78	22.5763
1183.04	26.3801
1186.29	2.35048
1189.55	2.18484
1192.8	83.0003
1196.05	75.0787
1199.31	0.002917
1202.55	30.6734
1205.8	10.8147
1209.05	8.60651
1212.29	15.944
1215.54	6.00816
1218.78	2.05815
1222.02	12.0257
1225.26	11.393
1228.49	43.5166
1231.73	4.57759
1234.96	21.9039
1238.19	6.01667
1241.42	53.7616
1244.65	73.5636
1247.88	5.2358
1251.11	8.76991
1254.33	23.1665
1257.55	24.4291
1260.78	48.5524
1263.99	62.5517
1267.21	30.4292
1270.43	60.1771
1273.64	21.8003
1276.86	42.29
1280.07	21.6561
1283.28	3.10369
1286.49	62.9967
1289.7	72.9815
1292.9	83.8531
1296.11	66.6171
1299.31	59.9075
1302.51	89.1103
1305.71	92.5763
1308.91	82.2228
1312.11	97.2894
1315.3	79.4314
1318.49	27.2177
1321.68	63.6148
1324.88	85.7437
1328.06	134.214
1331.25	113.25
1334.44	111.183
1337.62	128.102
1340.8	96.2477
1343.98	104.323
1347.16	107.447
1350.34	100.972
1353.52	59.2875
1356.69	72.6594
1359.86	78.5161
1363.04	95.6917
1366.2	116.936
1369.37	112.668
1372.54	77.0888
1375.7	86.6263
1378.87	53.0232
1382.03	47.8669
1385.19	127.079
1388.35	88.8453
1391.51	83.8556
1394.66	96.6261
1397.82	92.437
1400.97	103.896
1404.12	28.821
1407.27	37.4621
1410.42	93.7535
1413.56	49.8668
1416.71	56.0136
1419.85	104.198
1422.99	61.5188
1426.13	35.9012
1429.27	64.2257
1432.41	63.9419
1435.54	52.8382
1438.68	6.15212
1441.81	4.18102
1444.94	25.9439
1448.07	20.0064
1451.19	31.9257
1454.32	56.522
1457.44	34.9572
1460.57	9.81682
1463.69	82.6855
1466.81	3.57214
1469.92	65.2371
1473.04	91.812
1476.15	49.5835
1479.27	3.1975
1482.38	13.5923
