Measurement: Raman, 514 nm, ccw, Raman Data Processed
Mineral: Fayalite
Rruff sample: R070374
Ideal chemistry: Fe^2+^_2_SiO_4_
Locality: Little Lake, Lake County, California, USA
Source: Michael Scott
Description: Large dark brown crystal fragment
Measured chemistry: (Fe^2+^_1.89_Mn^2+^_0.11_)_Î£=2_Si_1.00_O_4_ ; trace amounts of Mg
Pin_id: M01315
Orientation: Laser parallel to c* (0 0 1). Fiducial mark perpendicular to laser is parallel to a [1 0 0]
Raman shift (cm-1)	intensity
69.598	0
74.562	3601.09
79.523	1420.72
84.483	1196.24
89.439	178.685
94.393	404.889
99.344	952.801
104.293	472.367
109.239	2322.65
114.182	1367.02
119.123	224.17
124.061	1288.59
128.997	974.584
133.93	1034.27
138.86	226.949
143.788	672.092
148.713	1492.01
153.636	1008.76
158.556	375.096
163.473	1751.5
168.388	433.018
173.3	1416.13
178.21	853.387
183.117	540.998
188.021	1727.96
192.923	2088.68
197.822	1940.65
202.718	543.525
207.612	205.096
212.504	813.916
217.392	362.924
222.279	136.531
227.162	409.774
232.043	1487.98
236.921	1536.25
241.797	1914.03
246.67	1375.56
251.54	664.636
256.408	611.296
261.274	842.053
266.136	781.368
270.996	741.852
275.854	416.077
280.709	865.053
285.561	916.758
290.41	525.366
295.257	2247.49
300.102	752.061
304.944	902.064
309.783	963.485
314.619	760.802
319.453	645
324.285	765.673
329.113	525.394
333.939	493.767
338.763	995.258
343.584	1156.83
348.402	1166.59
353.218	1887.06
358.031	2709.48
362.841	3586.45
367.649	3587.21
372.454	3445.85
377.257	2851.55
382.057	1744.6
386.854	1455.67
391.649	801.94
396.441	311.079
401.231	5.94727
406.018	401.86
410.802	4.13379
415.584	89.6875
420.363	106.058
425.139	65.5342
429.913	531.7
434.684	70.6709
439.453	3.17969
444.219	174.525
448.982	586.46
453.743	785.761
458.501	664.28
463.257	397.822
468.01	430.465
472.76	138.421
477.508	600.463
482.253	730.72
486.996	1252.38
491.736	1832.29
496.473	2622.82
501.207	3842.43
505.94	4165.27
510.669	3032.69
515.396	2172.47
520.12	1960.37
524.842	1952.91
529.561	1696.92
534.277	1544.64
538.991	2052.13
543.702	1916.57
548.41	2117.2
553.116	2518.94
557.819	2530.97
562.52	2941.28
567.218	3296.83
571.913	2112.83
576.606	1445.51
581.296	1142.4
585.984	685.708
590.669	513.168
595.351	281.377
600.031	261.569
604.708	129.377
609.383	13.3975
614.055	23.8931
618.724	29.0586
623.391	38.2876
628.055	34.7622
632.716	2.86035
637.375	78.582
642.031	164.173
646.685	32.1963
651.335	49.2432
655.984	10.2661
660.63	32.6782
665.273	103.051
669.913	113.312
674.551	3.55127
679.186	39.4536
683.819	48.2417
688.449	159.779
693.076	3.13818
697.701	62.5337
702.323	84.0898
706.943	42.7666
711.56	87.9077
716.174	26.2588
720.786	137.309
725.395	98.3389
730.001	91.3652
734.605	136.092
739.206	295.983
743.805	316.884
748.401	282.427
752.995	391.939
757.585	376.138
762.173	443.565
766.759	499.179
771.342	637.375
775.922	741.72
780.5	988.229
785.075	1322
789.648	2119.82
794.217	3358.41
798.785	6250.56
803.349	12979.7
807.911	25790.6
812.471	37728
817.027	36935.9
821.582	29093.2
826.133	23527.8
830.682	20897
835.228	19280.7
839.772	16029.6
844.313	12164.5
848.852	7953.55
853.387	4735.32
857.921	2762.86
862.451	1593.95
866.979	1502.69
871.505	467.164
876.028	141.546
880.548	84.4199
885.065	29.1816
889.58	176.826
894.093	281.517
898.602	376.87
903.109	457.218
907.614	433.144
912.116	482.815
916.615	878.217
921.112	1256.49
925.606	1670.9
930.097	2059.01
934.586	2247.06
939.072	2016.33
943.556	1939.36
948.037	1736.52
952.515	1504.71
956.991	1456.41
961.464	1418.67
965.934	1154.7
970.402	1128.14
974.867	947.48
979.33	857.81
983.79	855.174
988.248	653.674
992.702	648.808
997.155	428.526
1001.6	387.853
1006.05	454.837
1010.5	431.416
1014.94	299.519
1019.38	105.236
1023.81	34.2847
1028.25	53.8721
1032.68	16.0645
1037.11	85.6318
1041.53	83.1714
1045.96	65.7129
1050.38	8.18408
1054.8	20.6416
1059.21	18.2041
1063.62	92.5688
1068.04	36.0859
1072.44	165.019
1076.85	20.3384
1081.25	37.9204
1085.65	0.437012
1090.05	2.78955
1094.44	10.6416
1098.84	24.9297
1103.22	103.924
1107.61	41.6621
1112	66.8745
1116.38	10.6313
1120.76	17.0962
1125.13	228.052
1129.51	252.218
1133.88	276.412
1138.25	234.848
1142.61	180.81
1146.98	211.588
1151.34	204.018
1155.7	100.583
1160.05	242.845
1164.4	119.105
1168.76	23.1562
1173.1	82.6641
1177.45	8.8623
1181.79	81.0034
1186.13	69.2559
1190.47	23.188
1194.8	20.4629
1199.14	18.5288
1203.46	13.0479
1207.79	80.4541
1212.12	33.2266
1216.44	21.8403
1220.76	78.624
1225.08	84.3306
1229.39	37.9663
1233.7	38.0405
1238.01	74.2119
1242.32	50.4126
1246.62	16.9126
1250.92	73.5894
1255.22	89.6831
1259.51	126.339
1263.81	25.5166
1268.1	63.0605
1272.38	136.138
1276.67	165.819
1280.95	151.106
1285.23	69.0029
1289.51	84.5044
1293.79	183.606
1298.06	198.848
1302.33	93.9033
1306.6	91.9072
1310.86	184.607
1315.12	133.845
1319.38	221.84
1323.64	229.323
1327.89	221.471
1332.14	216.505
1336.39	236.573
1340.64	186.581
1344.88	106.269
1349.12	283.109
1353.36	196.45
1357.6	299.06
1361.83	186.452
1366.06	148.56
1370.29	259.015
1374.52	146.433
1378.74	99.6807
1382.96	130.246
1387.18	212.474
1391.39	203.041
1395.61	227.227
1399.82	234.435
1404.02	267.655
1408.23	144.919
1412.43	129.922
1416.63	172.717
1420.83	127.28
1425.02	143.054
1429.21	198.303
1433.4	190.977
1437.59	245.299
1441.77	145.775
1445.95	159.651
1450.13	293.805
1454.31	113.77
1458.48	69.4277
1462.65	154.71
1466.82	114.353
1470.99	193.191
1475.15	141.115
1479.31	178.865
1483.47	131.553
1487.63	75.7383
1491.78	87.2412
1495.93	139.966
1500.08	92.9678
1504.22	138.233
1508.37	139.776
1512.51	86.5107
1516.64	171.319
1520.78	124.096
1524.91	181.584
1529.04	156.116
1533.17	163.308
1537.29	109.201
1541.41	101.816
1545.53	135.482
1549.65	97.4209
1553.77	189.931
1557.88	157.424
1561.99	36.6162
1566.09	151.656
1570.2	8.52148
1574.3	39.9434
