Measurement: Raman, 514 nm, ccw, Raman Data Processed
Mineral: Fayalite
Rruff sample: R070293
Ideal chemistry: Fe^2+^_2_SiO_4_
Locality: Pike's Peak, Teller County, Colorado, USA
Source: Michael Scott
Description: Black single crystal fragment with internal hints of red and green
Measured chemistry: (Fe^2+^_1.87_Mn^2+^_0.13_)_Î£=2_Si_1.00_O_4_ ; trace amounts of Mg
Pin_id: L01546
Orientation: Laser parallel to c* (0 0 1). Fiducial mark perpendicular to laser is parallel to a [1 0 0]
Raman shift (cm-1)	intensity
103.056	0
108.002	247.931
112.946	296.559
117.888	742.486
122.827	618.379
127.763	27.9431
132.697	32.1929
137.628	69.6743
142.556	42.0618
147.482	198.463
152.405	482.59
157.326	361.44
162.244	199.462
167.159	246.744
172.072	284.954
176.982	148.472
181.89	125.335
186.795	231.906
191.697	296.97
196.597	298.202
201.494	214.688
206.389	14.6643
211.281	10.0254
216.17	23.5093
221.057	35.5349
225.941	24.7468
230.823	6.79834
235.702	8.11914
240.578	69.3315
245.452	66.2185
250.323	99.2446
255.192	194.138
260.058	266.401
264.921	449.374
269.782	720.615
274.64	1124.66
279.495	2070.17
284.348	3334.23
289.198	4652.26
294.046	3961.99
298.891	2310.49
303.733	1282.55
308.573	761.251
313.41	650.267
318.245	488.323
323.077	417.383
327.906	340.575
332.733	365.041
337.557	399.294
342.379	462.127
347.198	612.412
352.014	892.378
356.828	1269.94
361.639	1898.03
366.447	2611.98
371.253	2708.71
376.056	2435.16
380.857	1845.63
385.655	1351.96
390.451	941.336
395.243	595.967
400.034	456.789
404.821	343.532
409.606	171.232
414.389	180.84
419.168	74.3608
423.945	128.784
428.72	62.1641
433.492	100.285
438.261	60.6382
443.028	51.7332
447.792	8.73584
452.553	54.6467
457.312	26.4724
462.068	49.2244
466.822	30.8936
471.573	2.21094
476.321	29.0767
481.067	2.66797
485.81	0.579834
490.551	74.1897
495.289	106.943
500.024	124.043
504.757	181.969
509.487	128.722
514.214	47.1934
518.939	91.0032
523.661	119.57
528.381	134.249
533.098	155.671
537.812	230.608
542.524	359.278
547.233	519.454
551.94	840.159
556.644	1096.62
561.345	1469.61
566.044	1445.68
570.74	1206.08
575.433	951.551
580.124	703.85
584.812	580.981
589.498	421.773
594.181	405.409
598.861	314.565
603.539	185.99
608.214	148.099
612.887	34.7751
617.557	78.3738
622.224	42.7434
626.889	30.4497
631.551	30.7161
636.21	28.0603
640.867	46.8125
645.521	44.4421
650.173	37.1609
654.822	14.2261
659.468	34.5398
664.112	38.3674
668.753	50.1934
673.392	45.5581
678.028	53.3543
682.661	23.0808
687.292	47.5789
691.92	1.22949
696.545	29.043
701.168	47.095
705.788	37.0632
710.406	76.9534
715.021	78.7725
719.633	52.2231
724.243	90.385
728.85	181.83
733.455	215.27
738.056	262.834
742.656	304.581
747.252	337.112
751.846	417.091
756.438	354.991
761.027	539.184
765.613	624.252
770.196	716.622
774.777	837.17
779.356	1137.85
783.932	1581.02
788.505	2357.32
793.075	3412.59
797.643	5435.41
802.208	9968.53
806.771	18343.9
811.331	28989.9
815.888	30458.2
820.443	23113.3
824.995	17686.9
829.545	15728.7
834.092	15111.2
838.636	14648.9
843.178	12638.8
847.717	9476.85
852.254	6426.06
856.788	4434.43
861.319	2896.96
865.848	1925.66
870.374	1400.52
874.897	1083.54
879.418	654.736
883.936	483.096
888.452	453.629
892.965	304.108
897.475	220.618
901.983	122.961
906.488	157.668
910.99	35.0881
915.49	55.0325
919.988	135.592
924.482	278.328
928.974	396.952
933.464	434.898
937.951	422.995
942.435	436.154
946.917	427.706
951.396	423.526
955.872	331.696
960.346	398.832
964.817	388.146
969.285	283.523
973.751	271.532
978.215	242.259
982.675	207.105
987.134	207.855
991.589	155.753
996.042	92.6929
1000.49	184.668
1004.94	125.672
1009.38	125.699
1013.83	66.7402
1018.27	61.791
1022.7	62.8442
1027.14	26.1558
1031.57	73.3227
1036	30.1255
1040.43	20.4878
1044.85	52.7412
1049.27	41.3838
1053.69	17.4673
1058.11	15.6768
1062.52	18.103
1066.93	10.9883
1071.34	4.95215
1075.75	24.4219
1080.15	73.6675
1084.55	62.2432
1088.95	124.197
1093.35	87.4546
1097.74	171.287
1102.13	1.91064
1106.52	63.7744
1110.9	189.18
1115.28	177.905
1119.66	123.09
1124.04	204.508
1128.41	220.805
1132.79	239.038
1137.16	225.991
1141.52	237.76
1145.89	187.363
1150.25	229.798
1154.61	248.065
1158.96	178.178
1163.32	143.412
1167.67	135.183
1172.02	105.304
1176.36	107.419
1180.71	105.753
1185.05	89.7725
1189.38	79.875
1193.72	65.4766
1198.05	60.1162
1202.38	6.74365
1206.71	11.8994
1211.04	0.929688
1215.36	36.6846
1219.68	8.92627
1224	58.4639
1228.31	83.585
1232.62	34.8076
1236.93	93.8613
1241.24	108.413
1245.54	194.855
1249.84	61.1846
1254.14	76.3833
1258.44	52.4956
1262.73	36.5303
1267.03	54.4902
1271.31	80.3984
1275.6	144.257
1279.88	91.0513
1284.16	83.7847
1288.44	117.501
1292.72	52.2783
1296.99	147.159
1301.26	128.021
1305.53	169.399
1309.79	198.267
1314.06	146.031
1318.32	185.004
1322.57	248.973
1326.83	192.279
1331.08	101.357
1335.33	156.88
1339.58	82.2178
1343.82	135.073
1348.06	159.722
1352.3	118.326
1356.54	203.634
1360.77	115.004
1365.01	113.116
1369.23	140.882
1373.46	254.221
1377.68	131.997
1381.9	99.438
1386.12	123.954
1390.34	179.336
1394.55	134.819
1398.76	206.898
1402.97	172.685
1407.18	254.54
1411.38	101.443
1415.58	196.428
1419.78	121.503
1423.97	212.676
1428.17	134.713
1432.36	225.831
1436.54	180.1
1440.73	197.5
1444.91	83.2803
1449.09	242.412
1453.27	142.97
1457.44	70.749
1461.61	160.745
1465.78	186.977
1469.95	144.642
1474.11	72.5815
1478.27	101.698
1482.43	187.004
1486.59	127.426
1490.74	122.89
1494.89	16.481
1499.04	137.219
1503.19	30.1094
1507.33	123.176
1511.47	81.4033
1515.61	39.7759
1519.75	54.481
1523.88	161.534
1528.01	60.9058
1532.14	101.451
1536.26	24.9912
1540.38	168.845
1544.51	58.8296
1548.62	66.7759
1552.74	89.9849
1556.85	93.4497
1560.96	7.46826
1565.07	2.31494
1569.17	1.99414
1573.27	42.1572
