Measurement: Raman, 514 nm, ccw, Raman Data Processed
Mineral: Fayalite
Rruff sample: R070374
Ideal chemistry: Fe^2+^_2_SiO_4_
Locality: Little Lake, Lake County, California, USA
Source: Michael Scott
Description: Large dark brown crystal fragment
Measured chemistry: (Fe^2+^_1.89_Mn^2+^_0.11_)_Î£=2_Si_1.00_O_4_ ; trace amounts of Mg
Pin_id: M01107
Orientation: Laser parallel to b* (0 1 0). Fiducial mark perpendicular to laser is parallel to c [0 0 1]
Raman shift (cm-1)	intensity
78.283	0
83.243	1234.53
88.2	281.61
93.155	423.409
98.106	198.089
103.056	121.618
108.002	534.193
112.946	697.739
117.888	572.811
122.827	265.063
127.763	380.663
132.697	118.158
137.628	169.394
142.556	289.762
147.482	109.91
152.405	430.877
157.326	538.721
162.244	374.722
167.159	492.995
172.072	258.241
176.982	358.918
181.89	304.805
186.795	283.502
191.697	546.663
196.597	371.262
201.494	493.618
206.389	35.3037
211.281	6.72803
216.17	155.919
221.057	190.194
225.941	44.3477
230.823	26.0435
235.702	49.5889
240.578	201.125
245.452	72.0098
250.323	220.042
255.192	197.63
260.058	408.642
264.921	501.405
269.782	724.181
274.64	1226.11
279.495	2109.66
284.348	3024.95
289.198	3403.12
294.046	2889.99
298.891	1900.23
303.733	1238.6
308.573	1014.16
313.41	773.558
318.245	489.992
323.077	477.022
327.906	346.898
332.733	416.29
337.557	471.047
342.379	427.669
347.198	662.004
352.014	801.473
356.828	1160.51
361.639	1433.38
366.447	1795.45
371.253	1898.3
376.056	1658.33
380.857	1262.74
385.655	984.091
390.451	802.941
395.243	625.296
400.034	571.551
404.821	568.253
409.606	406.245
414.389	237.362
419.168	189.105
423.945	90.8931
428.72	89.8008
433.492	79.8047
438.261	1.02002
443.028	78.3584
447.792	1.0918
452.553	23.3198
457.312	65.4644
462.068	4.88086
466.822	10.9663
471.573	18.9355
476.321	16.1694
481.067	6.396
485.81	21.5371
490.551	37.9204
495.289	53.4512
500.024	98.9331
504.757	141.364
509.487	92.8789
514.214	238.208
518.939	211.558
523.661	226.033
528.381	145.465
533.098	352.713
537.812	471.826
542.524	525.796
547.233	662.611
551.94	1017.95
556.644	1175.13
561.345	1460.82
566.044	1379.59
570.74	1184.26
575.433	986.984
580.124	882.911
584.812	753.559
589.498	719.046
594.181	593.046
598.861	556.917
603.539	610.614
608.214	543.107
612.887	577.989
617.557	509.327
622.224	525.747
626.889	606.54
631.551	534.792
636.21	433.563
640.867	471.071
645.521	407.437
650.173	473.006
654.822	466.565
659.468	444.12
664.112	416.773
668.753	462.457
673.392	442.267
678.028	403.041
682.661	474.784
687.292	459.494
691.92	371.176
696.545	281.841
701.168	276.517
705.788	241.217
710.406	230.946
715.021	142.715
719.633	117.535
724.243	83.417
728.85	49.3901
733.455	30.4849
738.056	34.7412
742.656	43.8398
747.252	25.4263
751.846	94.5469
756.438	20.332
761.027	92.0044
765.613	77.646
770.196	189.138
774.777	284.373
779.356	593.898
783.932	944.517
788.505	1508.4
793.075	2443.06
797.643	4211.76
802.208	7790.45
806.771	13994.1
811.331	19450.7
815.888	18321.3
820.443	13662.7
824.995	11044.1
829.545	10225.5
834.092	10079.7
838.636	9833.56
843.178	8420.97
847.717	6193.94
852.254	4163.81
856.788	2706.55
861.319	1855.16
865.848	1168.62
870.374	712.677
874.897	503.013
879.418	374.237
883.936	204.719
888.452	131.033
892.965	67.05
897.475	26.7803
901.983	33.426
906.488	40.6619
910.99	22.7737
915.49	72.5454
919.988	54.6787
924.482	217.074
928.974	278.943
933.464	303.375
937.951	226.021
942.435	416.042
946.917	299.401
951.396	308.317
955.872	292.958
960.346	176.836
964.817	305.192
969.285	218.513
973.751	224.326
978.215	235.004
982.675	233.14
987.134	286.021
991.589	226.665
996.042	269.07
1000.49	304.234
1004.94	190.161
1009.38	94.8623
1013.83	147.111
1018.27	58.7317
1022.7	72.0278
1027.14	67.8799
1031.57	27.3472
1036	19.7869
1040.43	26.6846
1044.85	36.5398
1049.27	33.6211
1053.69	10.5903
1058.11	61.1318
1062.52	48.4248
1066.93	92.1165
1071.34	109.252
1075.75	91.6501
1080.15	100.706
1084.55	85.4592
1088.95	119.316
1093.35	77.6938
1097.74	51.0881
1102.13	94.6716
1106.52	81.322
1110.9	123.771
1115.28	138.027
1119.66	148.376
1124.04	133.269
1128.41	171.989
1132.79	211.539
1137.16	123.926
1141.52	207.925
1145.89	137.875
1150.25	211.023
1154.61	158.821
1158.96	68.3345
1163.32	45.7869
1167.67	19.9922
1172.02	17.7766
1176.36	119.107
1180.71	43.019
1185.05	32.5586
1189.38	27.8306
1193.72	46.489
1198.05	13.3503
1202.38	15.1504
1206.71	69.1123
1211.04	3.99927
1215.36	50.8093
1219.68	104.511
1224	31.1394
1228.31	48.0579
1232.62	41.0515
1236.93	94.0764
1241.24	61.1272
1245.54	31.4106
1249.84	72.7725
1254.14	82.1682
1258.44	106.249
1262.73	136.053
1267.03	103.572
1271.31	125.143
1275.6	123.774
1279.88	146.464
1284.16	207.226
1288.44	111.062
1292.72	122.804
1296.99	194.434
1301.26	141.526
1305.53	143.552
1309.79	118.922
1314.06	217.619
1318.32	170.484
1322.57	217.466
1326.83	223.585
1331.08	172.879
1335.33	191.711
1339.58	127.858
1343.82	190.35
1348.06	172.102
1352.3	112.674
1356.54	127.115
1360.77	184.933
1365.01	196.137
1369.23	219.073
1373.46	168.748
1377.68	229.854
1381.9	97.8062
1386.12	82.0425
1390.34	42.5698
1394.55	83.5562
1398.76	104.892
1402.97	133.416
1407.18	134.017
1411.38	146.779
1415.58	153.595
1419.78	127.42
1423.97	157.268
1428.17	48.1118
1432.36	140.015
1436.54	105.297
1440.73	117.015
1444.91	150.412
1449.09	149.323
1453.27	100.986
1457.44	115.967
1461.61	106.361
1465.78	65.0708
1469.95	118.999
1474.11	159.148
1478.27	85.4194
1482.43	135.794
1486.59	99.2764
1490.74	63.8638
1494.89	38.6074
1499.04	74.4819
1503.19	1.38281
1507.33	46.9233
1511.47	2.59961
1515.61	53.1235
1519.75	86.2012
1523.88	53.6006
1528.01	131.315
1532.14	58.3701
1536.26	136.82
1540.38	115.322
1544.51	136.883
1548.62	135.041
1552.74	162.022
1556.85	163.145
1560.96	4.59912
1565.07	86.6367
1569.17	95.0293
1573.27	176.705
