Measurement: Raman, 514 nm, ccw, Raman Data Processed
Mineral: Ferberite
Rruff sample: R050090
Ideal chemistry: Fe^2+^WO_4_
Locality: Yaogangxian mine, Cheng Zhu City, South Hunan, China
Source: Rock Currier
Description: Dark gray tabular crystal
Measured chemistry: (Fe^2+^_0.56_Mn_0.44_)W_1.00_O_4_
Pin_id: L01369
Orientation: Laser parallel to c* (0 0 1). Fiducial mark perpendicular to laser is parallel to -a [-1 0 0]
Raman shift (cm-1)	intensity
98.416	0
103.349	36.0889
108.28	1659.69
113.208	626.268
118.134	1696.03
123.058	3356.44
127.979	10753.7
132.898	10495.9
137.814	13526
142.728	25071.5
147.639	25012.3
152.549	12371.5
157.455	5423.92
162.359	2858.27
167.261	2082.45
172.161	1600.16
177.058	1048.43
181.952	885.234
186.845	731.47
191.734	1062.83
196.622	1711.36
201.507	1613.8
206.389	763.796
211.269	155.694
216.147	7.23975
221.022	88.5244
225.895	91.0527
230.765	44.9375
235.633	3.45508
240.498	137.784
245.361	110.577
250.222	33.3565
255.08	283.737
259.936	795.496
264.789	808.493
269.64	564.726
274.488	324.275
279.334	270.799
284.178	197.841
289.019	261.478
293.857	358.058
298.693	405.342
303.527	519.283
308.358	804.88
313.187	1199.33
318.013	1986.47
322.837	3207.81
327.659	3404.16
332.478	2699.59
337.294	1741.05
342.108	1443.49
346.92	1167.91
351.729	1051.31
356.535	1033.69
361.34	1001.7
366.141	1109.2
370.94	1056.65
375.737	1323.87
380.531	1601.21
385.323	2147.66
390.113	3504.05
394.9	5897.58
399.684	6324.24
404.466	3604.85
409.245	2051.3
414.022	1127.59
418.797	754.52
423.569	393.046
428.338	182.431
433.105	198.16
437.87	83.7573
442.632	6.20312
447.391	78.125
452.149	84.1221
456.903	171.61
461.655	150.565
466.405	89.9487
471.152	120.573
475.897	93.3769
480.639	251.356
485.378	258.511
490.116	335.844
494.85	464.355
499.582	717.052
504.312	944.015
509.039	1148.77
513.764	1101.23
518.486	1014.66
523.206	801.87
527.923	573.87
532.638	591.88
537.35	491.707
542.059	305.853
546.766	175.181
551.471	95.6914
556.173	69.3838
560.873	11.2427
565.57	21.7754
570.264	1.95898
574.957	75.3081
579.646	119.258
584.333	8.38184
589.018	85.939
593.7	163.705
598.379	119.943
603.056	344.53
607.73	504.5
612.402	749.286
617.072	1038.79
621.739	1358.4
626.403	1759.12
631.065	2224.94
635.724	2301.87
640.381	2149.07
645.035	1681.02
649.687	1366.23
654.336	1182.52
658.983	1040.86
663.627	1054.25
668.268	1102.67
672.907	1279.11
677.544	1419.54
682.178	1759.97
686.809	1934.39
691.438	1787.79
696.065	1516.17
700.688	1075.76
705.31	803.822
709.929	754.548
714.545	224.553
719.158	72.1172
723.77	1.56103
728.378	62.7407
732.984	96.2744
737.588	4.63135
742.189	85.5815
746.787	139.06
751.383	206.673
755.976	356.408
760.567	531.293
765.155	780.221
769.741	832.195
774.324	852.191
778.904	781.197
783.482	755.211
788.058	738.245
792.631	695.326
797.201	666.419
801.769	654.525
806.334	590.646
810.897	725.785
815.457	671.942
820.014	807.121
824.569	918.322
829.122	1172.55
833.671	1449.8
838.219	1667.1
842.763	2263.47
847.306	2981.1
851.845	4335.94
856.382	6307.98
860.917	9487.45
865.448	14903.5
869.978	23881.3
874.505	38747.6
879.029	52046.3
883.55	48003.8
888.069	30900.4
892.586	16880.7
897.1	9340.98
901.611	5736.04
906.12	3825.3
910.626	2614.58
915.129	1951.91
919.63	1506.35
924.129	1183.68
928.625	889.398
933.118	707.254
937.609	525.213
942.097	481.296
946.582	405.496
951.065	383.778
955.546	231.145
960.023	261.591
964.499	220.116
968.971	158.715
973.441	124.04
977.909	149.14
982.374	242.957
986.836	184.837
991.295	48.7749
995.753	104.172
1000.21	9.10938
1004.66	8.34961
1009.11	20.5054
1013.55	2.07031
1018	128.173
1022.44	22.499
1026.88	102.555
1031.32	137.139
1035.75	28.1714
1040.18	103.874
1044.61	127.257
1049.04	81.9424
1053.46	106.426
1057.88	185.019
1062.3	92.8374
1066.71	179.083
1071.13	118.81
1075.54	127.471
1079.94	189.955
1084.35	449.622
1088.75	297.057
1093.15	158.453
1097.55	49.8438
1101.94	112.19
1106.34	37.499
1110.73	84.8047
1115.11	92.043
1119.5	168.242
1123.88	255.512
1128.26	230.592
1132.63	73.3472
1137.01	14.3467
1141.38	130.859
1145.75	2.09424
1150.12	92.7842
1154.48	40.7456
1158.84	22.9961
1163.2	59.0347
1167.55	86.2651
1171.91	6.94092
1176.26	53.2378
1180.61	81.4375
1184.95	33.5127
1189.29	4.60596
1193.63	8.59766
1197.97	37.0107
1202.31	29.5727
1206.64	146.016
1210.97	36.4014
1215.29	42.748
1219.62	112.076
1223.94	114.374
1228.26	110.651
1232.57	133.888
1236.89	97.0869
1241.2	186.243
1245.51	96.3579
1249.81	118.431
1254.12	37.5347
1258.42	76.4365
1262.72	142.506
1267.01	84.2671
1271.3	94.3272
1275.59	15.9233
1279.88	87.231
1284.17	19.9697
1288.45	25.52
1292.73	46.7954
1297.01	43.3296
1301.28	119.837
1305.55	103.269
1309.82	46.5147
1314.09	91.3599
1318.35	38.9595
1322.61	46.9834
1326.87	166.934
1331.13	70.9653
1335.38	105.954
1339.63	150.531
1343.88	56.1099
1348.12	229.457
1352.37	137.717
1356.61	97.0708
1360.85	195.727
1365.08	186.889
1369.31	178.269
1373.54	211.488
1377.77	236.716
1381.99	132.449
1386.22	152.749
1390.43	62.2866
1394.65	78.5122
1398.87	88.2939
1403.08	149.576
1407.29	48.1685
1411.49	81.5498
1415.69	71.8188
1419.89	164.514
1424.09	102.831
1428.29	144.292
1432.48	156.333
1436.67	193.055
1440.86	33.1108
1445.04	47.0527
1449.23	49.459
1453.4	99.0635
1457.58	21.3023
1461.76	12.7363
1465.93	121.741
1470.1	4.81787
1474.26	22.6172
1478.43	9.94043
1482.59	54.4663
1486.75	80.8179
1490.9	67.4805
1495.06	147.178
1499.21	73.02
1503.35	75.2686
1507.5	117.276
1511.64	138.081
1515.78	68.0005
1519.92	99.3862
1524.05	215.354
1528.18	120.376
1532.31	203.903
1536.44	70.8721
1540.56	144.455
1544.69	37.3916
1548.8	42.1807
1552.92	212.139
1557.03	272.385
1561.14	323.214
1565.25	198.152
1569.36	77.8955
