Measurement: Raman, 514 nm, ccw, Raman Data Processed
Mineral: Ferberite
Rruff sample: R050090
Ideal chemistry: Fe^2+^WO_4_
Locality: Yaogangxian mine, Cheng Zhu City, South Hunan, China
Source: Rock Currier
Description: Dark gray tabular crystal
Measured chemistry: (Fe^2+^_0.56_Mn_0.44_)W_1.00_O_4_
Pin_id: L01590
Orientation: Laser parallel to (1 0 1). Fiducial mark perpendicular to laser is parallel to b [0 1 0]
Raman shift (cm-1)	intensity
98.416	0
103.349	186.447
108.28	253.284
113.208	260.322
118.134	1035.72
123.058	1058.7
127.979	2696.18
132.898	6168.56
137.814	1385.51
142.728	1079.26
147.639	805.596
152.549	720.581
157.455	548.509
162.359	428.431
167.261	1435.4
172.161	2360.3
177.058	1181.24
181.952	1019.1
186.845	965.323
191.734	1173.47
196.622	1513
201.507	1905.75
206.389	1571.13
211.269	541.117
216.147	330.961
221.022	82.6648
225.895	16.7617
230.765	10.686
235.633	10.2949
240.498	73.8015
245.361	39.4692
250.222	3.69849
255.08	125.049
259.936	265.53
264.789	336.351
269.64	534.139
274.488	379.717
279.334	311.941
284.178	181.92
289.019	313.971
293.857	242.86
298.693	425.215
303.527	225.815
308.358	226.998
313.187	222.58
318.013	332.876
322.837	696.122
327.659	880.3
332.478	851.391
337.294	599.458
342.108	546.455
346.92	447.386
351.729	503.237
356.535	539.011
361.34	486.708
366.141	440.203
370.94	324.653
375.737	279.006
380.531	326.545
385.323	263.806
390.113	403.744
394.9	864.285
399.684	1461.6
404.466	848.318
409.245	427.134
414.022	323.799
418.797	139.316
423.569	70.6907
428.338	65.7615
433.105	40.2183
437.87	8.00684
442.632	21.8147
447.391	13.6751
452.149	69.2803
456.903	74.4749
461.655	117.309
466.405	159.395
471.152	83.0588
475.897	172.013
480.639	139.452
485.378	124.603
490.116	156.625
494.85	169.563
499.582	242.418
504.312	239.192
509.039	375.923
513.764	343.784
518.486	200.756
523.206	247.789
527.923	267.047
532.638	401.604
537.35	332.4
542.059	330.29
546.766	318.139
551.471	258.919
556.173	230.63
560.873	35.2742
565.57	125.855
570.264	127.07
574.957	70.9624
579.646	14.4492
584.333	11.5098
589.018	98.9299
593.7	2.10083
598.379	8.25513
603.056	30.3389
607.73	80.1646
612.402	36.5259
617.072	73.8682
621.739	25.1431
626.403	103.368
631.065	138.56
635.724	116.721
640.381	176.856
645.035	99.969
649.687	141.062
654.336	105.139
658.983	241.198
663.627	408.242
668.268	439.27
672.907	659.282
677.544	819.279
682.178	834.265
686.809	1029.26
691.438	1100.31
696.065	1027.38
700.688	822.468
705.31	612.58
709.929	381.713
714.545	263.898
719.158	202.052
723.77	18.1067
728.378	14.5938
732.984	25.3577
737.588	84.1333
742.189	31.2649
746.787	85.7161
751.383	269.514
755.976	463.04
760.567	823.057
765.155	1329.48
769.741	1690.94
774.324	1817.69
778.904	1583.48
783.482	1382.41
788.058	1054.47
792.631	849.676
797.201	674.034
801.769	556.547
806.334	324.221
810.897	305.146
815.457	286.694
820.014	315.874
824.569	253.8
829.122	320.058
833.671	518.919
838.219	620.723
842.763	891.459
847.306	1124.2
851.845	1581.89
856.382	2408.39
860.917	3660.47
865.448	5691.37
869.978	8966.74
874.505	14982.4
879.029	24058.2
883.55	29366.9
888.069	22099.8
892.586	12716.7
897.1	6012.54
901.611	3271.24
906.12	1990.16
910.626	1182.3
915.129	760.69
919.63	527.411
924.129	337.524
928.625	209.944
933.118	94.5867
937.609	68.4548
942.097	51.5815
946.582	2.92481
951.065	68.5154
955.546	21.6829
960.023	9.25659
964.499	5.71973
968.971	44.52
973.441	40.8174
977.909	55.3293
982.374	14.0112
986.836	79.8149
991.295	104.832
995.753	103.057
1000.21	70.488
1004.66	70.116
1009.11	21.093
1013.55	56.6614
1018	139.967
1022.44	56.0249
1026.88	106.749
1031.32	114.386
1035.75	225.439
1040.18	178.752
1044.61	238.721
1049.04	167.557
1053.46	155.586
1057.88	232.07
1062.3	230.728
1066.71	234.472
1071.13	287.76
1075.54	234.732
1079.94	280.022
1084.35	273.023
1088.75	175.603
1093.15	219.01
1097.55	286.643
1101.94	171.098
1106.34	191.919
1110.73	167.644
1115.11	247.929
1119.5	170.282
1123.88	202.299
1128.26	99.0842
1132.63	164.335
1137.01	8.98242
1141.38	150.968
1145.75	4.45361
1150.12	83.0508
1154.48	93.2896
1158.84	6.50391
1163.2	28.5159
1167.55	35.8872
1171.91	29.4231
1176.26	3.97705
1180.61	86.3037
1184.95	12.2214
1189.29	66.762
1193.63	27.9651
1197.97	17.8911
1202.31	45.1455
1206.64	70.029
1210.97	11.1956
1215.29	77.6482
1219.62	19.9521
1223.94	114.431
1228.26	22.9763
1232.57	35.1792
1236.89	32.7534
1241.2	100.022
1245.51	131.81
1249.81	4.5415
1254.12	169.519
1258.42	73.8589
1262.72	113.003
1267.01	108.449
1271.3	207.499
1275.59	147.088
1279.88	194.463
1284.17	108.473
1288.45	5.40039
1292.73	79.5979
1297.01	21.2454
1301.28	108.946
1305.55	36.001
1309.82	116.463
1314.09	34.7886
1318.35	48.3303
1322.61	85.3862
1326.87	33.2366
1331.13	56.6997
1335.38	76.4568
1339.63	117.882
1343.88	73.7961
1348.12	108.544
1352.37	41.5984
1356.61	76.8616
1360.85	104.702
1365.08	58.1863
1369.31	72.7996
1373.54	30.7895
1377.77	44.9475
1381.99	117.572
1386.22	72.4416
1390.43	100.929
1394.65	66.895
1398.87	30.3384
1403.08	33.9397
1407.29	91.5757
1411.49	7.14331
1415.69	94.6377
1419.89	86.1074
1424.09	59.259
1428.29	24.877
1432.48	12.625
1436.67	26.3679
1440.86	2.06567
1445.04	50.5335
1449.23	14.5505
1453.4	58.4128
1457.58	34.4202
1461.76	68.395
1465.93	69.1663
1470.1	66.3731
1474.26	71.5684
1478.43	37.7178
1482.59	46.8704
1486.75	82.479
1490.9	83.2615
1495.06	92.3574
1499.21	111.136
1503.35	55.5523
1507.5	82.6631
1511.64	21.2012
1515.78	85.9524
1519.92	112.793
1524.05	23.3347
1528.18	112.037
1532.31	9.10596
1536.44	124.852
1540.56	51.7964
1544.69	134.633
1548.8	190.129
1552.92	35.9683
1557.03	95.5588
1561.14	150.929
1565.25	24.571
1569.36	0.957275
