Measurement: Raman, 514 nm, ccw, Raman Data Processed
Mineral: Ferberite
Rruff sample: R050090
Ideal chemistry: Fe^2+^WO_4_
Locality: Yaogangxian mine, Cheng Zhu City, South Hunan, China
Source: Rock Currier
Description: Dark gray tabular crystal
Measured chemistry: (Fe^2+^_0.56_Mn_0.44_)W_1.00_O_4_
Pin_id: L01753
Orientation: Laser parallel to a* (1 0 0). Fiducial mark perpendicular to laser is parallel to b [0 1 0]
Raman shift (cm-1)	intensity
98.416	0
103.349	325.695
108.28	522.293
113.208	910.968
118.134	2714.17
123.058	5992.9
127.979	5555.42
132.898	3106.78
137.814	1046.21
142.728	575.27
147.639	77.2935
152.549	235.732
157.455	92.8394
162.359	24.6704
167.261	537.798
172.161	786.178
177.058	711.642
181.952	685.138
186.845	954.745
191.734	1244.14
196.622	1772.8
201.507	2959.9
206.389	1936.36
211.269	907.777
216.147	643.981
221.022	257.952
225.895	107.705
230.765	22.7456
235.633	1.56201
240.498	107.862
245.361	82.4356
250.222	43.6533
255.08	110.309
259.936	73.2559
264.789	245.967
269.64	317.913
274.488	175.357
279.334	304.85
284.178	323.423
289.019	341.291
293.857	424.179
298.693	524.55
303.527	588.027
308.358	690.909
313.187	1312.38
318.013	1785.57
322.837	2222.72
327.659	2079.09
332.478	1680.33
337.294	1121.47
342.108	811.54
346.92	789.512
351.729	591.419
356.535	406.239
361.34	412.958
366.141	345.278
370.94	422.116
375.737	451.213
380.531	417.144
385.323	720.512
390.113	1358.1
394.9	1857.79
399.684	1563.08
404.466	1042.93
409.245	471.526
414.022	294.886
418.797	217.061
423.569	153.592
428.338	120.431
433.105	116.28
437.87	114.028
442.632	86.5264
447.391	109.986
452.149	180.791
456.903	267.537
461.655	303.46
466.405	149.059
471.152	393.622
475.897	374.786
480.639	383.992
485.378	438.2
490.116	359.463
494.85	553.933
499.582	673.472
504.312	781.544
509.039	696.514
513.764	958.422
518.486	1063.35
523.206	1250.43
527.923	1488.94
532.638	1556.9
537.35	1419.31
542.059	1200.12
546.766	956.004
551.471	660.867
556.173	520.67
560.873	383.436
565.57	235.887
570.264	55.3247
574.957	170.65
579.646	51.2822
584.333	66.3716
589.018	55.6128
593.7	150.873
598.379	51.0942
603.056	16.689
607.73	102.168
612.402	53.9463
617.072	39.9375
621.739	91.0107
626.403	94.8799
631.065	86.6401
635.724	36.6953
640.381	117.861
645.035	113.396
649.687	51.936
654.336	248.483
658.983	314.039
663.627	227.037
668.268	477.166
672.907	482.727
677.544	836.281
682.178	817.825
686.809	847.386
691.438	1004.07
696.065	775.81
700.688	525.626
705.31	364.554
709.929	307.381
714.545	332.474
719.158	101.649
723.77	172.757
728.378	69.4639
732.984	28.8931
737.588	84.3965
742.189	16.1797
746.787	43.5996
751.383	180.348
755.976	222.828
760.567	329.194
765.155	376.56
769.741	521.835
774.324	577.261
778.904	377.748
783.482	547.067
788.058	531.433
792.631	450.832
797.201	465.269
801.769	532.746
806.334	562.254
810.897	640.145
815.457	709.148
820.014	877.87
824.569	811.571
829.122	962.133
833.671	1396.62
838.219	1589.91
842.763	1972.01
847.306	2462.72
851.845	3371.81
856.382	4468.32
860.917	6709.57
865.448	10097.1
869.978	15655.1
874.505	21771.1
879.029	23284.2
883.55	17926.6
888.069	10840.4
892.586	6002.89
897.1	3459.93
901.611	2131.06
906.12	1464.56
910.626	1059.47
915.129	561.344
919.63	442.782
924.129	500.049
928.625	296.247
933.118	230.018
937.609	229.077
942.097	224.5
946.582	65.7998
951.065	72.0303
955.546	51.7988
960.023	70.4326
964.499	46.1328
968.971	40.6309
973.441	17.0059
977.909	80.2158
982.374	68.6856
986.836	16.5127
991.295	3.69141
995.753	72.6856
1000.21	79.3086
1004.66	81.9688
1009.11	86.1582
1013.55	59.4639
1018	8.3418
1022.44	103
1026.88	137.227
1031.32	133.547
1035.75	116.569
1040.18	209.201
1044.61	128.383
1049.04	76.6943
1053.46	185.099
1057.88	302.462
1062.3	115.414
1066.71	513.7
1071.13	229.05
1075.54	210.822
1079.94	144.227
1084.35	333.66
1088.75	209.004
1093.15	115.8
1097.55	99.6953
1101.94	0.393555
1106.34	140.378
1110.73	182.253
1115.11	63.8008
1119.5	83.0977
1123.88	52.4795
1128.26	124.135
1132.63	40.1289
1137.01	61.3867
1141.38	45.8291
1145.75	5.45215
1150.12	71.374
1154.48	142.866
1158.84	87.5371
1163.2	138.159
1167.55	170.873
1171.91	84.9551
1176.26	260.38
1180.61	122.469
1184.95	2.78613
1189.29	124.255
1193.63	46.6602
1197.97	50.7676
1202.31	145.14
1206.64	75.8076
1210.97	111.126
1215.29	69.8281
1219.62	216.538
1223.94	205.817
1228.26	188.19
1232.57	196.939
1236.89	92.5068
1241.2	207.756
1245.51	286.679
1249.81	243.209
1254.12	215.112
1258.42	221.677
1262.72	395.891
1267.01	438.316
1271.3	714.879
1275.59	390.501
1279.88	558.264
1284.17	624.395
1288.45	603.297
1292.73	653.336
1297.01	587.879
1301.28	500.743
1305.55	736.476
1309.82	828.294
1314.09	793.781
1318.35	726.19
1322.61	872.276
1326.87	794.14
1331.13	774.494
1335.38	913.132
1339.63	915.844
1343.88	995.523
1348.12	826.271
1352.37	859.239
1356.61	903.672
1360.85	859.974
1365.08	855.846
1369.31	660.771
1373.54	820.495
1377.77	912.619
1381.99	798.52
1386.22	706.415
1390.43	612.467
1394.65	696.301
1398.87	427.231
1403.08	513.566
1407.29	423.773
1411.49	267.952
1415.69	516.865
1419.89	292.812
1424.09	303.003
1428.29	171.826
1432.48	193.482
1436.67	243.84
1440.86	73.0713
1445.04	118.328
1449.23	60.0303
1453.4	100.658
1457.58	98.9014
1461.76	55.0459
1465.93	86.9258
1470.1	108.983
1474.26	15.4355
1478.43	116.231
1482.59	211.197
1486.75	197.482
1490.9	113.866
1495.06	220.143
1499.21	251.36
1503.35	239.552
1507.5	351.414
1511.64	271.259
1515.78	218.168
1519.92	255.789
1524.05	353.854
1528.18	253.298
1532.31	179.531
1536.44	592.789
1540.56	276.06
1544.69	179.662
1548.8	150.052
1552.92	66.0459
1557.03	170.349
1561.14	198.869
1565.25	243.946
1569.36	4.39648
