Measurement: Raman, 514 nm, ccw, Raman Data Processed
Mineral: Ferberite
Rruff sample: R050632
Ideal chemistry: Fe^2+^WO_4_
Locality: Chance mine, Boulder, Colorado, USA
Source: University of Arizona Mineral Museum
Description: Dark brown rectangular prismatic crystals
Measured chemistry: Fe^2+^_1.00_WO_4_
Pin_id: M00317
Orientation: Laser parallel to (1 0 1). Fiducial mark perpendicular to laser is parallel to b [0 1 0]
Raman shift (cm-1)	intensity
241.714	0
245.361	93.6445
249.007	203.508
252.651	40.7227
256.294	344.494
259.936	111.859
263.576	0.835938
267.215	335.938
270.852	395.217
274.488	485.609
278.123	437.971
281.756	130.115
285.388	273.463
289.019	201.658
292.648	448.484
296.276	769.75
299.902	917.703
303.527	932.356
307.151	1159.88
310.773	1527.91
314.394	2165.24
318.013	3302.02
321.631	4299.92
325.248	5181.15
328.864	5132.82
332.478	4280.96
336.09	3224.58
339.701	2393.82
343.311	2041.35
346.92	1490.41
350.527	1318.09
354.132	1021.33
357.737	882.385
361.34	746.312
364.941	587.732
368.541	502.551
372.14	503.441
375.737	407.898
379.333	514.521
382.928	502.06
386.521	823.367
390.113	1329.74
393.703	2202.18
397.292	3831.07
400.88	4446.58
404.466	3194.84
408.051	2030.74
411.634	1028.19
415.216	582.133
418.797	487.494
422.376	356.232
425.954	381.299
429.53	250.654
433.105	167.269
436.679	191.119
440.251	122.18
443.822	133.426
447.391	161.838
450.96	159.269
454.526	166.695
458.091	138.125
461.655	399.654
465.218	495.006
468.779	395.164
472.338	916.803
475.897	763.418
479.454	939.562
483.009	1195.25
486.563	1193.95
490.116	1155.66
493.667	1594.86
497.217	1735.99
500.765	2019.3
504.312	2081.68
507.858	2109.21
511.402	2311.7
514.945	2687.85
518.486	2909.76
522.026	3025
525.565	3529.47
529.102	3737.72
532.638	3778.86
536.172	3797.91
539.705	3645.86
543.236	3752.7
546.766	3277.39
550.295	3274.93
553.822	2982.31
557.348	2734.52
560.873	2255.55
564.396	2277.4
567.917	2007.05
571.438	2057.5
574.957	1523.1
578.474	1328.7
581.99	828.531
585.504	350.152
589.018	202.555
592.529	40.2695
596.04	189.518
599.549	11.0801
603.056	148.35
606.562	60.2656
610.067	17.1719
613.57	241.291
617.072	2.06641
620.572	105.762
624.071	125.322
627.569	25.8242
631.065	130.043
634.56	94.0898
638.053	74.7949
641.545	115.016
645.035	57.7656
648.524	30.957
652.012	53.4941
655.498	127.824
658.983	19.0586
662.466	183.815
665.948	265.531
669.428	472.096
672.907	775.514
676.385	1082.79
679.861	1221.94
683.336	1766.95
686.809	1773.85
690.281	1949.63
693.752	1828.96
697.221	1690.89
700.688	1352.37
704.155	1147.77
707.619	1052.09
711.083	726.346
714.545	685.545
718.005	365.697
721.464	303.812
724.922	348.92
728.378	270.062
731.833	39.2148
735.286	358.053
738.738	176.215
742.189	362.856
745.638	368.363
749.085	381.315
752.531	27.8105
755.976	424.086
759.419	238.938
762.861	160.522
766.302	533.6
769.741	622.115
773.178	722.922
776.614	627.637
780.049	697.695
783.482	395.932
786.914	573.219
790.345	745.453
793.773	863.471
797.201	216.18
800.627	626.49
804.052	409.957
807.475	306.572
810.897	647.445
814.317	680.455
817.736	614.697
821.153	745.293
824.569	759.25
827.984	1121.58
831.397	1292.28
834.808	1841.37
838.219	1939.84
841.627	2336.71
845.035	3696.98
848.441	4028.67
851.845	5149.36
855.248	6557.89
858.65	8865.15
862.05	11854.1
865.448	16172.4
868.846	22316.9
872.241	30209.7
875.636	37221.7
879.029	38638.9
882.42	34011.7
885.81	25648.3
889.199	17628.6
892.586	12170.5
895.971	8607.33
899.356	5960.3
902.738	5358.17
906.12	3199.79
909.5	2492.27
912.878	1951.48
916.255	1833.37
919.63	1460.97
923.004	1191.17
926.377	1109.94
929.748	1168.39
933.118	1221.04
936.486	1192.31
939.853	1025.05
943.218	956.277
946.582	854.023
949.945	811.311
953.306	931.059
956.665	723.34
960.023	547.139
963.38	417.193
966.735	466.748
970.089	286.717
973.441	372.086
976.792	415.844
980.141	294.002
983.489	139.547
986.836	135.473
990.181	163.801
993.524	115.49
996.866	88.5449
1000.21	279.697
1003.55	41.7539
1006.88	4.08398
1010.22	279.918
1013.55	279.685
1016.89	23.0195
1020.22	48.7617
1023.55	7.73047
1026.88	24.4668
1030.21	100.051
1033.53	163.6
1036.86	114.57
1040.18	235.498
1043.5	194.119
1046.82	140.356
1050.14	334.978
1053.46	406.051
1056.78	369.957
1060.09	580.764
1063.4	303.135
1066.71	691.285
1070.02	451.887
1073.33	331.31
1076.64	652.49
1079.94	697.135
1083.25	748.287
1086.55	549.695
1089.85	543.113
1093.15	471.691
1096.45	650.371
1099.75	411.41
1103.04	592.465
1106.34	338.109
1109.63	320.275
1112.92	453.246
1116.21	485.691
1119.5	634.234
1122.78	847.537
1126.07	425.664
1129.35	396.377
1132.63	399.488
1135.92	281.318
1139.19	175.262
1142.47	35.043
1145.75	245.81
1149.02	104.688
1152.3	332.938
1155.57	138.482
1158.84	151.385
1162.11	93.4551
1165.38	176.137
1168.64	204.383
1171.91	74.2012
1175.17	58.2227
1178.43	54.709
1181.69	171.877
1184.95	145.719
1188.21	46.9746
1191.46	29.2793
1194.72	94.2656
1197.97	285.027
1201.22	189.057
1204.47	64.4473
1207.72	99.5684
1210.97	4.50781
1214.21	219.867
1217.46	28.0059
1220.7	177.424
1223.94	82.4727
1227.18	267.957
1230.42	53.2285
1233.65	319.264
1236.89	224.103
1240.12	245.74
1243.35	342.137
1246.59	162.359
1249.81	219.859
1253.04	51.3262
1256.27	91.3184
1259.49	227.928
1262.72	249.764
1265.94	431.621
1269.16	137.957
1272.38	293.818
1275.59	90.4414
1278.81	153.635
1282.03	164.225
1285.24	375.353
1288.45	296.504
1291.66	233.379
1294.87	256.809
1298.08	85.6953
1301.28	285.57
1304.48	397.637
1307.69	203.885
1310.89	277.394
1314.09	103.467
1317.29	358.75
1320.48	182.228
1323.68	332.893
1326.87	83.0547
1330.06	219.125
1333.26	369.699
1336.44	273.553
1339.63	176.865
1342.82	373.154
1346	310.139
1349.19	332.166
1352.37	264.1
1355.55	203.533
1358.73	367.693
1361.9	366.201
1365.08	323.164
1368.26	339.496
1371.43	146.084
1374.6	183.893
1377.77	56.168
1380.94	222.682
1384.11	358.492
1387.27	102.824
1390.43	195.975
1393.6	475.572
1396.76	118.717
1399.92	164.148
1403.08	499.103
1406.23	300.004
1409.39	267.371
1412.54	150.688
1415.69	233.647
1418.85	205.428
1421.99	120.191
1425.14	167.75
1428.29	194.879
1431.43	224.469
1434.58	201.221
1437.72	79.6816
1440.86	140.045
1444	164.879
1447.13	91.8613
1450.27	78.7793
1453.4	363.269
1456.54	59.0254
1459.67	268.147
1462.8	32.1543
1465.93	23.041
1469.06	153.709
1472.18	29.3848
1475.31	67.7461
1478.43	93.6231
1481.55	268.871
1484.67	124.316
1487.79	213.527
1490.9	96.6738
1494.02	189.762
1497.13	94.207
1500.24	19.0449
1503.35	78.4102
1506.46	59.0605
1509.57	54.7344
1512.68	13.498
1515.78	201.676
1518.88	230.953
1521.99	410.685
1525.09	332.156
1528.18	132.777
1531.28	186.055
1534.38	256.231
1537.47	385.682
1540.56	303.59
1543.66	18.9727
1546.74	568.541
1549.83	364.451
1552.92	419.344
1556.01	307.641
1559.09	224.801
1562.17	21.4727
1565.25	113.564
1568.33	3.5293
1571.41	0
