Measurement: Raman, 514 nm, ccw, Raman Data Processed
Mineral: Ferberite
Rruff sample: R050632
Ideal chemistry: Fe^2+^WO_4_
Locality: Chance mine, Boulder, Colorado, USA
Source: University of Arizona Mineral Museum
Description: Dark brown rectangular prismatic crystals
Measured chemistry: Fe^2+^_1.00_WO_4_
Pin_id: M00461
Orientation: Laser parallel to b* (0 1 0). Fiducial mark perpendicular to laser is parallel to c [0 0 1]
Raman shift (cm-1)	intensity
157.455	0
162.359	420.559
167.261	562.246
172.161	429.363
177.058	554.43
181.952	552.734
186.845	1209.68
191.734	1822.65
196.622	2823.96
201.507	3963.22
206.389	1855.05
211.269	2198.52
216.147	1213.25
221.022	506.348
225.895	441.086
230.765	147.359
235.633	106.008
240.498	59.8984
245.361	62.9766
250.222	45.7461
255.08	17.0703
259.936	31.8516
264.789	58.4492
269.64	11.0938
274.488	27.0508
279.334	70.9141
284.178	0.894531
289.019	150.113
293.857	429.602
298.693	49.9648
303.527	223.637
308.358	373.094
313.187	454.16
318.013	299.941
322.837	585.019
327.659	583.215
332.478	770.215
337.294	731.269
342.108	425.352
346.92	363.156
351.729	466.766
356.535	38.1875
361.34	386.414
366.141	648.519
370.94	480.711
375.737	447.805
380.531	518.004
385.323	481.816
390.113	676.016
394.9	966.906
399.684	775.445
404.466	884.602
409.245	631.781
414.022	315.625
418.797	435.051
423.569	743.422
428.338	636.5
433.105	766.012
437.87	754.266
442.632	728.426
447.391	849.91
452.149	890.18
456.903	1092.45
461.655	872.648
466.405	924.262
471.152	1031.59
475.897	743.508
480.639	1041.87
485.378	1281.36
490.116	1135
494.85	1465.77
499.582	1180.62
504.312	1332.44
509.039	1571.24
513.764	1138.8
518.486	1647.06
523.206	1633.89
527.923	1586.08
532.638	1648.01
537.35	1791.87
542.059	1771.5
546.766	1810.92
551.471	2091.19
556.173	1984.89
560.873	1761.04
565.57	1822.58
570.264	1739.7
574.957	1425.84
579.646	1026.4
584.333	556.102
589.018	519.953
593.7	372.953
598.379	375.715
603.056	246.914
607.73	492.922
612.402	87.4258
617.072	71.6641
621.739	106.887
626.403	133.324
631.065	23.5547
635.724	111.762
640.381	51.1055
645.035	153.93
649.687	61.6172
654.336	244.516
658.983	6.32812
663.627	303.785
668.268	268.32
672.907	759.219
677.544	1154.05
682.178	2114.84
686.809	2602.47
691.438	2026.69
696.065	1875.06
700.688	1531.22
705.31	743.398
709.929	588.535
714.545	328.078
719.158	485.027
723.77	289.356
728.378	427.051
732.984	296.09
737.588	184.43
742.189	126.016
746.787	85.1641
751.383	282.84
755.976	58.0469
760.567	156.074
765.155	147.148
769.741	590.379
774.324	164.547
778.904	279.043
783.482	99.4102
788.058	195.5
792.631	41.3086
797.201	64.1992
801.769	80.6094
806.334	29.5586
810.897	9.99219
815.457	35.3789
820.014	106.781
824.569	307.16
829.122	249.617
833.671	42.8477
838.219	239.578
842.763	220.172
847.306	347.941
851.845	638.898
856.382	795.055
860.917	2194.41
865.448	2232.97
869.978	3718.74
874.505	5301.08
879.029	4961.31
883.55	3246.28
888.069	1524.51
892.586	915.598
897.1	710.031
901.611	641.488
906.12	527.492
910.626	234.82
915.129	373.512
919.63	38.5977
924.129	361.172
928.625	213.883
933.118	345.246
937.609	1.42969
942.097	629.805
946.582	331.672
951.065	377.527
955.546	497.047
960.023	387.816
964.499	351.387
968.971	126.094
973.441	357.992
977.909	385.996
982.374	368.938
986.836	670.32
991.295	572.512
995.753	619.371
1000.21	758.914
1004.66	629.152
1009.11	702.106
1013.55	747.781
1018	796.488
1022.44	650.137
1026.88	700.394
1031.32	702.965
1035.75	837.398
1040.18	635.59
1044.61	1098.51
1049.04	925.129
1053.46	1151.7
1057.88	1109.07
1062.3	917.305
1066.71	1575.19
1071.13	1344.93
1075.54	945.926
1079.94	961.418
1084.35	1449.83
1088.75	957.445
1093.15	1073.77
1097.55	1014.78
1101.94	1143.44
1106.34	1030.12
1110.73	890.332
1115.11	871.769
1119.5	1189.49
1123.88	838.305
1128.26	1041.02
1132.63	577.578
1137.01	501.949
1141.38	584.793
1145.75	493.668
1150.12	230.277
1154.48	193.094
1158.84	327.609
1163.2	377.504
1167.55	318.594
1171.91	293.856
1176.26	302.836
1180.61	26.8711
1184.95	162.035
1189.29	42.9102
1193.63	287.144
1197.97	118.676
1202.31	130.047
1206.64	114.504
1210.97	240.789
1215.29	352.488
1219.62	20.5859
1223.94	58.3555
1228.26	161.449
1232.57	10.0625
1236.89	503.914
1241.2	402.281
1245.51	16.3359
1249.81	118.613
1254.12	78.4492
1258.42	198.242
1262.72	252.981
1267.01	311.898
1271.3	62.2539
1275.59	81.7969
1279.88	119.371
1284.17	765.574
1288.45	377.356
1292.73	15.0859
1297.01	268.285
1301.28	129.016
1305.55	363.348
1309.82	279.133
1314.09	555.715
1318.35	362.117
1322.61	316.309
1326.87	439.453
1331.13	352.379
1335.38	613.16
1339.63	533.766
1343.88	725.043
1348.12	203.57
1352.37	649.981
1356.61	566.461
1360.85	553.758
1365.08	43.8125
1369.31	469.375
1373.54	162.441
1377.77	220.664
1381.99	377.863
1386.22	432.934
1390.43	512.363
1394.65	514.191
1398.87	152.691
1403.08	501.051
1407.29	286.144
1411.49	393.68
1415.69	273.656
1419.89	185.031
1424.09	294.938
1428.29	52.4609
1432.48	446.531
1436.67	41.8789
1440.86	297.426
1445.04	290.207
1449.23	474.613
1453.4	220.379
1457.58	305.551
1461.76	75.2148
1465.93	180.125
1470.1	348.586
1474.26	70.1172
1478.43	527.785
1482.59	562.176
1486.75	370.211
1490.9	322.867
1495.06	232.613
1499.21	450.031
1503.35	95.7656
1507.5	698.168
1511.64	431.695
1515.78	115.707
1519.92	340.758
1524.05	120.016
1528.18	372.086
1532.31	132.5
1536.44	168.496
1540.56	120.973
1544.69	171.688
1548.8	290.144
1552.92	322.07
1557.03	378.047
1561.14	279.523
1565.25	3.80469
1569.36	175.312
