Measurement: Raman, 514 nm, ccw, Raman Data Processed
Mineral: Ferberite
Rruff sample: R050632
Ideal chemistry: Fe^2+^WO_4_
Locality: Chance mine, Boulder, Colorado, USA
Source: University of Arizona Mineral Museum
Description: Dark brown rectangular prismatic crystals
Measured chemistry: Fe^2+^_1.00_WO_4_
Pin_id: M00461
Orientation: Laser parallel to b* (0 1 0). Fiducial mark perpendicular to laser is parallel to c [0 0 1]
Raman shift (cm-1)	intensity
157.455	0
162.359	7.0625
167.261	442.371
172.161	620.086
177.058	555.957
181.952	614.137
186.845	1159.5
191.734	1874.48
196.622	2870.43
201.507	4291.72
206.389	2979.74
211.269	3022.44
216.147	1414.12
221.022	569.328
225.895	350.266
230.765	45.8672
235.633	23.4766
240.498	47.7148
245.361	143.106
250.222	21.7891
255.08	27.2109
259.936	71.4023
264.789	66.0234
269.64	42.7539
274.488	25.7656
279.334	117.117
284.178	55.8906
289.019	126.867
293.857	135.082
298.693	356.844
303.527	578.578
308.358	737.125
313.187	1468.37
318.013	2350.95
322.837	3971.78
327.659	5813.26
332.478	5316.78
337.294	3601.52
342.108	2644.77
346.92	1713.81
351.729	1439.1
356.535	1052.26
361.34	731.5
366.141	655.516
370.94	1152.62
375.737	253.973
380.531	303.773
385.323	340.391
390.113	447.035
394.9	335.746
399.684	510.094
404.466	497.926
409.245	483.152
414.022	399.984
418.797	507.394
423.569	530.469
428.338	568.07
433.105	418.84
437.87	592.918
442.632	494.781
447.391	551.5
452.149	569.703
456.903	477.301
461.655	471.129
466.405	646.266
471.152	650.43
475.897	545.5
480.639	761.434
485.378	717.305
490.116	935.121
494.85	1016.69
499.582	1284.74
504.312	1138.15
509.039	1098.54
513.764	1358.07
518.486	1576.81
523.206	1577.2
527.923	1437.25
532.638	1445.02
537.35	1351.25
542.059	1510.71
546.766	1661.4
551.471	1642.14
556.173	1684.96
560.873	1965.8
565.57	1634.74
570.264	1872.83
574.957	1343.07
579.646	996.629
584.333	633.172
589.018	470.394
593.7	379.391
598.379	270.336
603.056	394.242
607.73	238.363
612.402	238.098
617.072	173.062
621.739	2.32031
626.403	258.656
631.065	64.0742
635.724	321.453
640.381	395.508
645.035	206.59
649.687	372.285
654.336	259.172
658.983	133.781
663.627	161.961
668.268	409.809
672.907	953.356
677.544	749.859
682.178	1357.02
686.809	1295.78
691.438	1460.77
696.065	1137.56
700.688	561.879
705.31	604.344
709.929	510.926
714.545	436.598
719.158	129.254
723.77	134.203
728.378	33.5117
732.984	250.902
737.588	170.117
742.189	59.8867
746.787	59.9414
751.383	94.4492
755.976	182.941
760.567	33.3867
765.155	101.809
769.741	24.1523
774.324	32.6602
778.904	81.5703
783.482	137.449
788.058	100.375
792.631	33.9023
797.201	27.6719
801.769	13.0508
806.334	79.207
810.897	53.5938
815.457	7.98828
820.014	111.797
824.569	296.004
829.122	267.766
833.671	417.527
838.219	626.305
842.763	638.113
847.306	1059.97
851.845	1283.83
856.382	2421.31
860.917	3984.58
865.448	5907.46
869.978	10444
874.505	15139.1
879.029	15200
883.55	10198.6
888.069	6155.33
892.586	3703.56
897.1	2483.27
901.611	1767.07
906.12	1336.14
910.626	1083.31
915.129	1050.29
919.63	731.199
924.129	428.562
928.625	536.859
933.118	408.211
937.609	540.531
942.097	311.832
946.582	601.582
951.065	450.484
955.546	593.285
960.023	346.309
964.499	331.777
968.971	575.328
973.441	374.363
977.909	665.215
982.374	549.203
986.836	176.172
991.295	635
995.753	611.731
1000.21	744.652
1004.66	268.488
1009.11	450.215
1013.55	558.773
1018	429.32
1022.44	570.984
1026.88	465.57
1031.32	522.258
1035.75	720.766
1040.18	765.113
1044.61	670.273
1049.04	910.691
1053.46	1065.11
1057.88	994.18
1062.3	1228.36
1066.71	887.719
1071.13	947.215
1075.54	1252.91
1079.94	1136.46
1084.35	1398.51
1088.75	1207.68
1093.15	1017.45
1097.55	894.938
1101.94	969.301
1106.34	929.75
1110.73	945.898
1115.11	763.25
1119.5	704.824
1123.88	883.273
1128.26	724.371
1132.63	619.961
1137.01	277.09
1141.38	223.25
1145.75	635.047
1150.12	97.7812
1154.48	227.578
1158.84	147.375
1163.2	87.8672
1167.55	290.367
1171.91	197.027
1176.26	11.9609
1180.61	34.2227
1184.95	254.856
1189.29	604.188
1193.63	117.328
1197.97	239.777
1202.31	78.3594
1206.64	109.055
1210.97	27.207
1215.29	246.758
1219.62	43.3203
1223.94	305.898
1228.26	153.551
1232.57	50.7695
1236.89	155.137
1241.2	361.309
1245.51	153.734
1249.81	234.758
1254.12	70.8945
1258.42	120.238
1262.72	164.344
1267.01	26.4805
1271.3	134.981
1275.59	118.629
1279.88	23.6406
1284.17	37.4688
1288.45	168.023
1292.73	71.2891
1297.01	267.316
1301.28	345.168
1305.55	60.2812
1309.82	176.504
1314.09	204.519
1318.35	449.613
1322.61	194
1326.87	321.133
1331.13	343.023
1335.38	229.555
1339.63	533.231
1343.88	236.231
1348.12	540.152
1352.37	616.246
1356.61	535.625
1360.85	420.039
1365.08	348.535
1369.31	282.551
1373.54	260.469
1377.77	458.625
1381.99	414.902
1386.22	250.902
1390.43	277.641
1394.65	397.289
1398.87	416.531
1403.08	456.133
1407.29	332.902
1411.49	406.945
1415.69	272.781
1419.89	265.922
1424.09	582.629
1428.29	341.055
1432.48	134.812
1436.67	621.801
1440.86	264.383
1445.04	570.461
1449.23	169.312
1453.4	498.141
1457.58	561.285
1461.76	364.961
1465.93	355.09
1470.1	504.305
1474.26	426.5
1478.43	205.055
1482.59	193.391
1486.75	290.508
1490.9	318.742
1495.06	176.273
1499.21	472.527
1503.35	268.086
1507.5	202.246
1511.64	265.242
1515.78	468.606
1519.92	328.555
1524.05	522.508
1528.18	218.672
1532.31	194.113
1536.44	13.5234
1540.56	214.289
1544.69	250.797
1548.8	373.633
1552.92	400.59
1557.03	391.746
1561.14	272.836
1565.25	388.398
1569.36	2.77344
