Measurement: Raman, 514 nm, ccw, Raman Data Processed
Mineral: Ferberite
Rruff sample: R050090
Ideal chemistry: Fe^2+^WO_4_
Locality: Yaogangxian mine, Cheng Zhu City, South Hunan, China
Source: Rock Currier
Description: Dark gray tabular crystal
Measured chemistry: (Fe^2+^_0.56_Mn_0.44_)W_1.00_O_4_
Pin_id: L01753
Orientation: Laser parallel to a* (1 0 0). Fiducial mark perpendicular to laser is parallel to b [0 1 0]
Raman shift (cm-1)	intensity
98.416	0
103.349	15.333
108.28	412.785
113.208	968.587
118.134	2073.71
123.058	3701.58
127.979	4444.32
132.898	2447.12
137.814	769.987
142.728	448.41
147.639	164.69
152.549	360.359
157.455	151.226
162.359	269.964
167.261	920.349
172.161	1068.56
177.058	729.059
181.952	719.987
186.845	805.895
191.734	1116
196.622	1812.56
201.507	2715.33
206.389	2218.37
211.269	921.5
216.147	438.631
221.022	26.2363
225.895	62.1113
230.765	81.0049
235.633	41.4648
240.498	28.3701
245.361	98.8037
250.222	119.538
255.08	180.436
259.936	311.907
264.789	535.956
269.64	567.672
274.488	347.068
279.334	160.414
284.178	102.585
289.019	170.953
293.857	329.329
298.693	271.666
303.527	344.813
308.358	442.184
313.187	956.648
318.013	1653.34
322.837	1903.42
327.659	2043.56
332.478	1539.71
337.294	1015.81
342.108	829.801
346.92	702.732
351.729	513.246
356.535	487.4
361.34	334.112
366.141	247.793
370.94	142.273
375.737	120.569
380.531	29.2617
385.323	92.2939
390.113	349.926
394.9	535.958
399.684	530.172
404.466	235.973
409.245	79.4268
414.022	124.028
418.797	22.8027
423.569	1.21094
428.338	3.56348
433.105	121.989
437.87	255.874
442.632	150.07
447.391	291.084
452.149	337.947
456.903	369.211
461.655	414.607
466.405	310.447
471.152	451.488
475.897	434.514
480.639	466.51
485.378	481.288
490.116	481.505
494.85	516.798
499.582	942.854
504.312	913.668
509.039	970.213
513.764	987.712
518.486	829.112
523.206	932.102
527.923	962.663
532.638	970.619
537.35	1011.64
542.059	912.502
546.766	704.177
551.471	536.408
556.173	417.486
560.873	244.983
565.57	130.969
570.264	170.855
574.957	44.8154
579.646	13.6143
584.333	190.341
589.018	26.4072
593.7	42.1631
598.379	112.78
603.056	23.5332
607.73	35.7373
612.402	230.207
617.072	85.7529
621.739	151.596
626.403	37.3809
631.065	73.3809
635.724	57.2773
640.381	181.088
645.035	141.673
649.687	296.489
654.336	279.09
658.983	281.631
663.627	565.113
668.268	619.539
672.907	836.902
677.544	1060.2
682.178	1021.44
686.809	1410.62
691.438	1359.76
696.065	1158.95
700.688	1048.23
705.31	732.566
709.929	523.087
714.545	251.027
719.158	147.83
723.77	20.3584
728.378	119.311
732.984	20.0098
737.588	25.623
742.189	85.1709
746.787	119.141
751.383	146.387
755.976	652.752
760.567	609.233
765.155	821.602
769.741	957.926
774.324	840.847
778.904	681.939
783.482	683.398
788.058	580.846
792.631	631.386
797.201	490.001
801.769	484.681
806.334	609.424
810.897	623.225
815.457	621.188
820.014	813.401
824.569	862.812
829.122	686.481
833.671	1083.35
838.219	1350.39
842.763	1691.06
847.306	2061.9
851.845	2830.68
856.382	3840.67
860.917	5750.67
865.448	8554.69
869.978	13669.3
874.505	20167.2
879.029	23385.1
883.55	19190.7
888.069	12223.8
892.586	6908.32
897.1	3994.57
901.611	2701.95
906.12	1751.86
910.626	1201.88
915.129	949.467
919.63	917.524
924.129	540.629
928.625	454.057
933.118	490.604
937.609	259.822
942.097	276.635
946.582	124.212
951.065	79.6377
955.546	177.361
960.023	64.125
964.499	60.2578
968.971	84.8106
973.441	56.6572
977.909	41.4941
982.374	87.2949
986.836	20.377
991.295	7.00098
995.753	140.555
1000.21	73.6807
1004.66	21.8574
1009.11	68.0859
1013.55	109.969
1018	11.1895
1022.44	208.178
1026.88	137.833
1031.32	8.25293
1035.75	78.2295
1040.18	197.241
1044.61	29.5908
1049.04	226.962
1053.46	81.8018
1057.88	91.4297
1062.3	189.383
1066.71	220.821
1071.13	221.959
1075.54	267.25
1079.94	234.713
1084.35	96.1299
1088.75	178.34
1093.15	133.405
1097.55	115.719
1101.94	73.8994
1106.34	175.737
1110.73	23.3857
1115.11	59.833
1119.5	319.299
1123.88	293.232
1128.26	244.903
1132.63	223.586
1137.01	130.138
1141.38	23.5908
1145.75	222.593
1150.12	30.6416
1154.48	5.9834
1158.84	59.7158
1163.2	105.616
1167.55	33.5772
1171.91	184.928
1176.26	114.567
1180.61	6.15332
1184.95	235.613
1189.29	17.3369
1193.63	49.5908
1197.97	191.953
1202.31	95.0312
1206.64	91.0478
1210.97	166.818
1215.29	64.6592
1219.62	61.7715
1223.94	258.001
1228.26	267.533
1232.57	188.039
1236.89	268.522
1241.2	198.934
1245.51	151.858
1249.81	273.443
1254.12	144.407
1258.42	26.8154
1262.72	334.671
1267.01	484.304
1271.3	236.773
1275.59	559.055
1279.88	601.106
1284.17	484.527
1288.45	724.627
1292.73	623.784
1297.01	584.492
1301.28	691.612
1305.55	807.76
1309.82	662.378
1314.09	698.237
1318.35	891.381
1322.61	861.031
1326.87	777.644
1331.13	1182.27
1335.38	1011.31
1339.63	944.708
1343.88	1004.29
1348.12	931.669
1352.37	1080.47
1356.61	1104.4
1360.85	1131.76
1365.08	885.424
1369.31	1186.44
1373.54	1059.89
1377.77	868.704
1381.99	906.012
1386.22	1023.09
1390.43	916.246
1394.65	795.973
1398.87	648.258
1403.08	915.05
1407.29	776.794
1411.49	708.703
1415.69	524.186
1419.89	406.627
1424.09	551.106
1428.29	402.18
1432.48	343.971
1436.67	494.494
1440.86	350.453
1445.04	26.8496
1449.23	170.672
1453.4	171.014
1457.58	50.2285
1461.76	46.1953
1465.93	155.363
1470.1	4.82617
1474.26	13.1719
1478.43	193.978
1482.59	63.7324
1486.75	226.867
1490.9	158.248
1495.06	283.441
1499.21	151.959
1503.35	270.965
1507.5	264.125
1511.64	169.143
1515.78	242.547
1519.92	575.277
1524.05	271.25
1528.18	386.629
1532.31	395.228
1536.44	298.557
1540.56	127.715
1544.69	363.033
1548.8	506.279
1552.92	528.893
1557.03	617.393
1561.14	168.412
1565.25	55.4648
1569.36	220.225
