Measurement: Raman, 514 nm, ccw, Raman Data Processed
Mineral: Ferberite
Rruff sample: R040044
Ideal chemistry: Fe^2+^WO_4_
Locality: Chocote, Bolivia
Source: University of Arizona Mineral Museum
Description: Black tabular single crystal
Measured chemistry: (Fe_0.82_Mn_0.08_Mg_0.07_Pb_0.03_)_Î£=1_W_1.00_O_4_
Pin_id: M00266
Orientation: Laser parallel to a [1 0 0]. Fiducial mark perpendicular to laser is parallel to b* (0 1 0)
Raman shift (cm-1)	intensity
151.711	0
155.863	184.488
160.013	8.307
164.161	572.061
168.308	68.705
172.452	301.008
176.594	227.371
180.734	139.344
184.872	367.401
189.008	449.24
193.143	846.913
197.275	1221.96
201.405	1925.43
205.534	2374.03
209.66	2362.82
213.784	1413.59
217.907	865.31
222.027	595.262
226.146	663.067
230.263	432.53
234.377	246.377
238.49	76.118
242.601	37.745
246.709	14.974
250.816	30.32
254.921	146.484
259.024	17.02
263.125	16.87
267.224	45.885
271.321	103.298
275.416	254.16
279.51	62.432
283.601	5.331
287.69	203.298
291.778	79.372
295.863	294.27
299.947	372.438
304.029	518.809
308.108	709.604
312.186	962.435
316.262	1389.22
320.336	2179.51
324.408	2693.47
328.478	3052.75
332.546	2718.23
336.612	2030.52
340.677	1632.49
344.739	1274.24
348.799	991.357
352.858	900.445
356.915	895.19
360.969	687.328
365.022	632.463
369.073	595.183
373.122	578.619
377.169	682.073
381.215	747.251
385.258	730.887
389.299	938.184
393.339	1364.17
397.376	2011
401.412	2397.21
405.446	1926.45
409.478	1140.1
413.508	732.145
417.536	515.905
421.562	392.687
425.586	301.782
429.609	256.984
433.629	217.77
437.648	210.3
441.665	91.694
445.68	131.448
449.693	61.749
453.704	140.016
457.713	86.405
461.721	193.809
465.726	250.872
469.73	242.056
473.731	172.102
477.731	182.86
481.729	324.404
485.725	355.936
489.72	435.384
493.712	714.04
497.703	711.972
501.691	745.143
505.678	972.054
509.663	1002.69
513.646	1233.56
517.627	1265.94
521.607	1384.78
525.584	1519.82
529.56	1585.52
533.534	1622.35
537.506	1628.77
541.476	1338.72
545.444	1170.55
549.41	1030.21
553.375	900.666
557.337	791.601
561.298	598.107
565.257	489.209
569.214	425.885
573.17	401.062
577.123	241.995
581.075	145.513
585.024	202.104
588.972	202.017
592.918	94.347
596.863	137.438
600.805	6.832
604.746	6.597
608.685	11.928
612.621	42.479
616.557	49.848
620.49	50.599
624.421	91.366
628.351	24.638
632.279	58.495
636.205	23.687
640.129	5.489
644.051	50.101
647.972	27.227
651.89	5.471
655.807	60.538
659.722	19.156
663.636	55.218
667.547	102.259
671.457	243.683
675.365	204.074
679.271	515.931
683.175	1052.8
687.077	803.121
690.978	821.441
694.877	641.782
698.774	704.126
702.669	435.471
706.562	466.822
710.454	555.188
714.344	155.571
718.232	154.977
722.118	158.412
726.002	74.866
729.885	131.349
733.766	116.868
737.645	44.806
741.522	57.663
745.397	36.133
749.271	177.329
753.143	187.805
757.013	109.465
760.881	21.523
764.748	53.317
768.613	58.518
772.476	153.878
776.337	91.238
780.196	214.681
784.054	203.771
787.91	154.924
791.764	137.732
795.616	226.832
799.467	358.021
803.316	349.273
807.163	323.681
811.008	358.127
814.851	383.418
818.693	727.893
822.533	527.563
826.371	813.271
830.208	879.793
834.042	867.636
837.875	1260.66
841.706	1517.89
845.536	1960.58
849.363	2571.74
853.189	3254.26
857.013	4326.26
860.836	6046.5
864.656	8258.99
868.475	11486.7
872.292	14888.8
876.108	17047
879.922	16788.9
883.733	13792.6
887.544	10230.5
891.352	7232.9
895.159	4978.23
898.964	3271.79
902.767	2432.31
906.568	1589.82
910.368	1176.25
914.166	1010.32
917.962	740.288
921.757	516.524
925.55	421.074
929.341	311.584
933.13	356.18
936.918	254.663
940.703	152.365
944.488	123.395
948.27	221.736
952.051	88.295
955.83	131.075
959.607	37.107
963.383	110.443
967.156	24.921
970.928	82.919
974.699	89.976
978.468	132.213
982.234	74.58
986	56.465
989.763	60.686
993.525	2.66
997.285	8.297
1001.04	116.914
1004.8	131.312
1008.55	112.043
1012.31	122.131
1016.06	275.062
1019.81	210.83
1023.56	277.127
1027.31	192.201
1031.05	248.697
1034.79	182.811
1038.53	209.076
1042.27	278.535
1046.01	187.43
1049.75	309.459
1053.48	335.986
1057.22	307.561
1060.95	291.289
1064.68	251.709
1068.4	357.164
1072.13	367.373
1075.86	367.766
1079.58	457.168
1083.3	330.766
1087.02	302.223
1090.74	231.221
1094.45	271.609
1098.17	205.234
1101.88	316.705
1105.59	263.645
1109.3	163.459
1113.01	300.455
1116.71	173.678
1120.42	260.178
1124.12	787.5
1127.82	52.547
1131.52	246.014
1135.22	50.604
1138.91	28.225
1142.61	63.809
1146.3	19.807
1149.99	24.492
1153.68	34.662
1157.37	2.881
1161.06	17.941
1164.74	32.283
1168.42	55.459
1172.1	1.5
1175.78	51.729
1179.46	103.121
1183.14	116.938
1186.81	69.176
1190.48	64.963
1194.15	51.055
1197.83	1.527
1201.49	171.672
1205.16	95.887
1208.82	94.785
1212.49	83.578
1216.15	461.66
1219.81	73.008
1223.46	187.598
1227.12	172.43
1230.78	229.404
1234.43	148.318
1238.08	96.543
1241.73	179.559
1245.38	250.391
1249.03	228.213
1252.67	223.887
1256.31	437.062
1259.95	0.857
1263.6	261.65
1267.23	218.068
1270.87	217.053
1274.51	433.232
1278.14	174.295
1281.77	207.984
1285.4	101.887
1289.03	113.789
1292.66	97.885
1296.28	84.062
1299.91	185.84
1303.53	258.861
1307.15	1.1
1310.77	71.33
1314.38	28.277
1318	43.969
1321.61	177.943
1325.23	72.996
1328.84	119.621
1332.45	65.855
1336.06	13.283
1339.66	109.918
1343.27	52.98
1346.87	50.635
1350.47	122.826
1354.07	58.584
1357.67	201.469
1361.26	33.807
1364.86	52.621
1368.45	251.727
1372.04	128.783
1375.63	132.543
1379.22	319.037
1382.81	258.062
1386.39	205.941
1389.98	324.85
1393.56	253.098
1397.14	207.414
1400.72	175.418
1404.3	196.588
1407.87	302.473
1411.45	250.148
1415.02	285.924
1418.59	322.648
1422.16	588.688
1425.73	162.445
1429.29	195.436
1432.86	227.086
1436.42	116.264
1439.98	184.789
1443.54	275.795
1447.1	213.195
1450.66	190.418
1454.21	197.543
1457.77	174.238
1461.32	211.732
1464.87	106.541
1468.42	257.531
1471.96	143.73
1475.51	192.332
1479.06	189.475
1482.6	70.543
1486.14	107.67
1489.68	24.807
1493.22	114.686
1496.75	136.984
1500.29	150.545
1503.82	206.99
1507.35	199.689
1510.88	168.436
1514.41	114.654
1517.94	139.51
