Measurement: Raman, 514 nm, ccw, Raman Data Processed
Mineral: Ferberite
Rruff sample: R040044
Ideal chemistry: Fe^2+^WO_4_
Locality: Chocote, Bolivia
Source: University of Arizona Mineral Museum
Description: Black tabular single crystal
Measured chemistry: (Fe_0.82_Mn_0.08_Mg_0.07_Pb_0.03_)_Î£=1_W_1.00_O_4_
Pin_id: M00158
Orientation: Laser parallel to b* (0 1 0). Fiducial mark perpendicular to laser is parallel to c [0 0 1]
Raman shift (cm-1)	intensity
158.63	0
162.779	188.428
166.926	40.639
171.07	327.059
175.213	454.717
179.354	7.619
183.493	97.611
187.63	428.984
191.765	426.883
195.898	996.51
200.029	1420.93
204.158	2159.33
208.285	2591.09
212.41	2065.84
216.533	1508.18
220.654	838.535
224.773	578.635
228.891	523.533
233.006	332.707
237.119	293.039
241.231	227.424
245.34	86.309
249.448	28.451
253.553	92.99
257.657	232.58
261.758	246.004
265.858	252.918
269.956	244.438
274.052	342.713
278.146	185.342
282.237	14.77
286.327	79.807
290.416	24.885
294.502	5.9
298.586	173.453
302.668	218.363
306.749	550.316
310.827	772.674
314.903	1231
318.978	1959.25
323.051	2957.09
327.121	3979.03
331.19	4948.17
335.257	4858.95
339.322	4236.87
343.385	3495.57
347.446	2730.82
351.505	2152.28
355.563	1753.77
359.618	1260.92
363.672	1122.5
367.723	931.061
371.773	769.928
375.821	741.127
379.866	586.953
383.91	349.77
387.952	569.734
391.992	485.645
396.031	430.582
400.067	511.395
404.101	445.027
408.134	858.258
412.165	275.607
416.193	165.805
420.22	280.543
424.245	307.59
428.268	173.107
432.289	151.238
436.309	183.496
440.326	48.207
444.342	209.754
448.355	150.014
452.367	248.676
456.377	203.672
460.385	177.553
464.391	110.156
468.395	94.473
472.398	105.51
476.398	8.041
480.397	63.848
484.394	148.068
488.389	85.406
492.382	327.92
496.373	279.654
500.362	320.646
504.349	220.943
508.335	216.174
512.319	294.576
516.3	300.586
520.28	303.617
524.259	196.74
528.235	599.303
532.209	407.344
536.182	495.883
540.152	301.684
544.121	267.814
548.088	183.83
552.053	276.971
556.017	238.713
559.978	330.141
563.938	212.738
567.895	123.232
571.851	109.971
575.805	192.064
579.758	69.494
583.708	31.617
587.657	21.598
591.603	153.768
595.548	129.963
599.491	53.467
603.432	76.889
607.372	76.266
611.309	40.848
615.245	59.826
619.179	413.918
623.111	7.949
627.041	253.203
630.97	195.596
634.896	107.076
638.821	75.738
642.744	150.338
646.665	258.059
650.584	219.701
654.502	230.096
658.418	466.32
662.331	374.865
666.244	412.102
670.154	534.418
674.062	632.186
677.969	1024.17
681.874	1165.89
685.777	1557.83
689.678	1638.12
693.577	1520.41
697.475	1509.01
701.371	1247.51
705.265	1133.43
709.157	892.211
713.047	922.879
716.936	473.631
720.823	397.07
724.708	165.863
728.591	112.812
732.472	132.648
736.352	170.471
740.23	130.939
744.106	120.488
747.98	0.867
751.853	2.459
755.723	132.979
759.592	45.227
763.459	97.766
767.325	33.369
771.188	80.482
775.05	52.535
778.91	140.719
782.768	30.584
786.625	13.674
790.479	40.193
794.332	77.883
798.183	105.225
802.033	66.297
805.88	38.699
809.726	122.83
813.57	128.006
817.413	130.533
821.253	304.119
825.092	172.873
828.929	412.789
832.764	542.865
836.598	619.109
840.429	680.26
844.259	892.1
848.088	1257.93
851.914	1873.42
855.739	2529.03
859.562	3379.49
863.383	5061.28
867.203	7049.31
871.02	9965.57
874.836	12964.1
878.65	14797.8
882.463	13935.8
886.274	11294
890.083	8698.44
893.89	6266.12
897.695	4484.2
901.499	3343.93
905.301	2493.29
909.102	1919.34
912.9	1476.05
916.697	1204.61
920.492	1047.74
924.285	884.898
928.077	678.381
931.867	557.941
935.655	633.93
939.442	414.146
943.226	376.062
947.009	506.793
950.791	479.691
954.57	506.375
958.348	257.822
962.124	277.52
965.899	231.465
969.671	181.863
973.442	166.295
977.211	85.961
980.979	97.854
984.745	26.98
988.509	133.338
992.271	346.934
996.032	9.232
999.791	373.168
1003.55	203.799
1007.3	301.521
1011.06	126.787
1014.81	305.654
1018.56	291.721
1022.31	234.184
1026.06	240.795
1029.8	236.547
1033.55	411.51
1037.29	355.059
1041.03	247.973
1044.77	303.582
1048.5	418.252
1052.24	289.412
1055.97	408.662
1059.7	736.414
1063.43	264.109
1067.16	756.023
1070.89	387.027
1074.61	404.518
1078.34	402.752
1082.06	402.633
1085.78	349.268
1089.5	266.221
1093.21	214.377
1096.93	242.578
1100.64	183.102
1104.35	292.344
1108.06	183.527
1111.77	145.119
1115.48	13.131
1119.18	201.652
1122.89	394.424
1126.59	165.184
1130.29	85.293
1133.99	62.596
1137.68	119.066
1141.38	143.959
1145.07	59.197
1148.76	12.662
1152.45	6.725
1156.14	131.309
1159.83	87.066
1163.51	139.723
1167.19	86.637
1170.88	74.811
1174.56	64.195
1178.23	139.801
1181.91	45.555
1185.59	32.711
1189.26	130.691
1192.93	36.518
1196.6	269.812
1200.27	79.027
1203.94	191.559
1207.6	130.07
1211.27	205.629
1214.93	276.254
1218.59	119.496
1222.25	241.68
1225.9	133.535
1229.56	342.754
1233.21	515.771
1236.86	240.35
1240.51	340.742
1244.16	359.941
1247.81	283.08
1251.45	307.84
1255.1	144.393
1258.74	227.688
1262.38	158.838
1266.02	269.539
1269.66	345.895
1273.29	346.312
1276.93	236.09
1280.56	283.197
1284.19	183.654
1287.82	120.191
1291.45	151.119
1295.07	139.498
1298.7	256.859
1302.32	119.953
1305.94	51.094
1309.56	24.439
1313.18	45.715
1316.8	102.191
1320.41	8.867
1324.02	20.01
1327.63	164.232
1331.24	197.357
1334.85	159.232
1338.46	1.562
1342.06	185.25
1345.67	137.676
1349.27	152.27
1352.87	192.842
1356.47	154.713
1360.07	162.137
1363.66	232.475
1367.25	199.113
1370.85	308.75
1374.44	333.605
1378.03	405.771
1381.61	327.92
1385.2	687.625
1388.78	426.043
1392.37	443.883
1395.95	451.49
1399.53	346.594
1403.1	516.695
1406.68	269.492
1410.26	435.596
1413.83	398.453
1417.4	352.115
1420.97	237.344
1424.54	470.094
1428.1	532.172
1431.67	94.785
1435.23	410.986
1438.8	229.125
1442.36	340.66
1445.91	228.07
1449.47	281.471
1453.03	331.109
1456.58	218.637
1460.13	245.562
1463.68	287.652
1467.23	223.18
1470.78	246.588
1474.33	248.258
1477.87	213.135
1481.42	228.141
1484.96	168.717
1488.5	99.943
1492.04	161.084
1495.57	58.059
1499.11	33.756
1502.64	265.652
1506.17	162.711
1509.71	126.352
1513.23	40.566
1516.76	0.607
