Measurement: Raman, 514 nm, ccw, Raman Data Processed
Mineral: Ferberite
Rruff sample: R040044
Ideal chemistry: Fe^2+^WO_4_
Locality: Chocote, Bolivia
Source: University of Arizona Mineral Museum
Description: Black tabular single crystal
Measured chemistry: (Fe_0.82_Mn_0.08_Mg_0.07_Pb_0.03_)_Î£=1_W_1.00_O_4_
Pin_id: M00266
Orientation: Laser parallel to a [1 0 0]. Fiducial mark perpendicular to laser is parallel to b* (0 1 0)
Raman shift (cm-1)	intensity
147.557	0
151.711	24.322
155.863	197.367
160.013	47.232
164.161	173.309
168.308	19.748
172.452	215.994
176.594	382.859
180.734	397.248
184.872	460.861
189.008	505.953
193.143	671.639
197.275	1150.34
201.405	2035.26
205.534	2580.11
209.66	2639.93
213.784	1521.21
217.907	1027.39
222.027	495.545
226.146	331.783
230.263	155.139
234.377	29.539
238.49	43.234
242.601	86.389
246.709	56.677
250.816	65.781
254.921	256.144
259.024	439.714
263.125	423.527
267.224	569.967
271.321	606.257
275.416	408.815
279.51	210.676
283.601	49.288
287.69	102.081
291.778	52.628
295.863	245.809
299.947	230.544
304.029	327.447
308.108	461.553
312.186	428.127
316.262	688.508
320.336	1154.91
324.408	1605.42
328.478	1774.62
332.546	1592.35
336.612	1445.4
340.677	1230.67
344.739	965.665
348.799	896.03
352.858	863.104
356.915	673.597
360.969	606.739
365.022	650.98
369.073	447.794
373.122	426.547
377.169	376.258
381.215	309.354
385.258	327.974
389.299	350.06
393.339	375.504
397.376	597.914
401.412	543.162
405.446	435.862
409.478	488.696
413.508	225.059
417.536	61.711
421.562	41.24
425.586	186.84
429.609	40.562
433.629	128.89
437.648	204.101
441.665	237.111
445.68	115.73
449.693	36.082
453.704	272.03
457.713	173.142
461.721	226.166
465.726	256.472
469.73	262.771
473.731	220.744
477.731	310.771
481.729	373.808
485.725	444.092
489.72	458.674
493.712	665.602
497.703	749.928
501.691	908.63
505.678	1093.72
509.663	1289.24
513.646	1433.2
517.627	1030.56
521.607	969.398
525.584	1171.8
529.56	1104.92
533.534	979.344
537.506	1038.2
541.476	884.897
545.444	748.279
549.41	747.316
553.375	580.5
557.337	490.397
561.298	386.442
565.257	360.573
569.214	283.621
573.17	312.569
577.123	167.604
581.075	119.619
585.024	75.629
588.972	82.941
592.918	15.211
596.863	119.582
600.805	82.047
604.746	35.777
608.685	76.418
612.621	29.023
616.557	11.105
620.49	1.812
624.421	67.959
628.351	58.92
632.279	22.008
636.205	160.754
640.129	91.088
644.051	104.105
647.972	108.559
651.89	205.627
655.807	361.596
659.722	299.877
663.636	528.117
667.547	575.332
671.457	677.531
675.365	956.721
679.271	1103.93
683.175	1423.17
687.077	1492.52
690.978	1690.95
694.877	1507.48
698.774	1246.26
702.669	968.877
706.562	774.73
710.454	562.699
714.344	373.773
718.232	451.932
722.118	346.191
726.002	194.561
729.885	186.059
733.766	112.621
737.645	4.018
741.522	124.766
745.397	99.527
749.271	191.234
753.143	167.766
757.013	260.488
760.881	281.135
764.748	251.455
768.613	156.475
772.476	270.346
776.337	282.713
780.196	240.879
784.054	163.941
787.91	140.729
791.764	26.65
795.616	38.629
799.467	19.898
803.316	94.381
807.163	46.969
811.008	93.834
814.851	61.852
818.693	266.096
822.533	252.572
826.371	260.279
830.208	527.262
834.042	607.484
837.875	870.5
841.706	1090.25
845.536	1270.27
849.363	1848.55
853.189	3100.02
857.013	3511.72
860.836	4981.74
864.656	7205.51
868.475	10066.7
872.292	13891.6
876.108	16620.7
879.922	17813.2
883.733	14880.9
887.544	11604.9
891.352	8247.08
895.159	5701.82
898.964	4000.41
902.767	2801.64
906.568	2009.19
910.368	1474.09
914.166	1115.3
917.962	777.941
921.757	621.854
925.55	463.182
929.341	444.852
933.13	364.77
936.918	335.898
940.703	266.408
944.488	183.107
948.27	209.033
952.051	247.184
955.83	274.559
959.607	186.57
963.383	151.65
967.156	20.684
970.928	39.102
974.699	28.818
978.468	3.688
982.234	69.146
986	172.336
989.763	18.188
993.525	32.973
997.285	67.143
1001.04	27.797
1004.8	194.621
1008.55	106.666
1012.31	233.83
1016.06	133.264
1019.81	256.885
1023.56	386.529
1027.31	100.168
1031.05	229.826
1034.79	221.898
1038.53	104.795
1042.27	283.879
1046.01	310.988
1049.75	382.959
1053.48	378.734
1057.22	275.393
1060.95	359.898
1064.68	611.607
1068.4	145.281
1072.13	348.232
1075.86	404.189
1079.58	379.084
1083.3	316.084
1087.02	355.939
1090.74	313.795
1094.45	269.637
1098.17	257.525
1101.88	257.338
1105.59	254.082
1109.3	139.809
1113.01	226.885
1116.71	252.018
1120.42	171.457
1124.12	344.275
1127.82	127.994
1131.52	100.6
1135.22	150.99
1138.91	4.293
1142.61	68.832
1146.3	139.617
1149.99	304.314
1153.68	90.229
1157.37	61.383
1161.06	32.207
1164.74	36.779
1168.42	16.648
1172.1	45.684
1175.78	122.664
1179.46	56.436
1183.14	206.863
1186.81	156.076
1190.48	155.871
1194.15	89.766
1197.83	12.289
1201.49	131.266
1205.16	156.076
1208.82	147.783
1212.49	173.967
1216.15	129.109
1219.81	37.314
1223.46	242.209
1227.12	175.721
1230.78	247.885
1234.43	244.365
1238.08	300.779
1241.73	276.492
1245.38	234.811
1249.03	156.639
1252.67	264.012
1256.31	199.797
1259.95	193.951
1263.6	180.777
1267.23	75.598
1270.87	210.984
1274.51	268.092
1278.14	294.385
1281.77	197.166
1285.4	213.77
1289.03	102.842
1292.66	179.27
1296.28	140.334
1299.91	244.191
1303.53	44.6
1307.15	44.172
1310.77	98.508
1314.38	54.527
1318	76.561
1321.61	55.545
1325.23	158.83
1328.84	158.867
1332.45	269.432
1336.06	140.322
1339.66	402.146
1343.27	253.562
1346.87	321.252
1350.47	163.639
1354.07	89.523
1357.67	125.523
1361.26	140.557
1364.86	236.012
1368.45	302.553
1372.04	474.396
1375.63	320.373
1379.22	305.016
1382.81	218.49
1386.39	298.92
1389.98	256.33
1393.56	195.816
1397.14	335.779
1400.72	302.779
1404.3	73.643
1407.87	92.178
1411.45	177.723
1415.02	110.584
1418.59	158.695
1422.16	175.25
1425.73	120.143
1429.29	112.705
1432.86	15.1
1436.42	22.061
1439.98	0
