Measurement: Raman, 514 nm, ccw, Raman Data Processed
Mineral: Ferberite
Rruff sample: R050632
Ideal chemistry: Fe^2+^WO_4_
Locality: Chance mine, Boulder, Colorado, USA
Source: University of Arizona Mineral Museum
Description: Dark brown rectangular prismatic crystals
Measured chemistry: Fe^2+^_1.00_WO_4_
Pin_id: L00968
Orientation: Laser parallel to c* (0 0 1). Fiducial mark perpendicular to laser is parallel to a [1 0 0]
Raman shift (cm-1)	intensity
156.229	0
161.134	9.73145
166.036	833.524
170.936	1148.03
175.834	1072.53
180.729	1529.29
185.622	1628.86
190.512	1787.73
195.4	2673.97
200.286	2833
205.169	3051.32
210.049	2754.85
214.928	1880.16
219.803	905.219
224.677	530.764
229.548	206.007
234.416	253.292
239.282	22.3125
244.146	55.2012
249.007	20.8809
253.866	173.68
258.722	208.634
263.576	379.524
268.427	506.47
273.276	493.478
278.123	710.658
282.967	560.649
287.809	444.741
292.648	539.948
297.485	870.567
302.319	758.064
307.151	910.113
311.98	1007.11
316.807	1493.81
321.631	2147.1
326.454	2889.25
331.273	3270.62
336.09	2640.64
340.905	2379.43
345.717	2197.42
350.527	1998.49
355.334	1710.61
360.139	1420.9
364.941	1362.39
369.741	1243
374.538	946.721
379.333	949.469
384.126	734.778
388.916	935.553
393.703	1148.01
398.488	1797.38
403.271	1668.69
408.051	1002.25
412.828	635.769
417.603	72.2686
422.376	86.7627
427.146	51.665
431.914	12.2432
436.679	33.1318
441.442	29.8604
446.202	24.6367
450.96	73.7207
455.715	2.60254
460.467	127.257
465.218	29.7715
469.965	155.238
474.711	147.4
479.454	278.938
484.194	344.537
488.932	415.563
493.667	482.416
498.4	625.641
503.13	965.551
507.858	973.017
512.583	1229.78
517.306	1285.08
522.026	1483.21
526.744	1598.39
531.459	1632.89
536.172	1467.74
540.882	1319.81
545.59	1164.95
550.295	926.125
554.998	809.35
559.698	750.626
564.396	634.961
569.091	661.341
573.784	607.752
578.474	494.46
583.162	260.053
587.847	115.406
592.529	85.4443
597.209	13.4971
601.887	14.7158
606.562	127.394
611.235	92.5273
615.905	77.0283
620.572	36.4033
625.237	30.624
629.9	117.989
634.56	0.641602
639.217	7.60352
643.872	34.999
648.524	35.541
653.174	73.0478
657.821	7.42969
662.466	110.817
667.108	128.116
671.748	241.709
676.385	337.601
681.02	680.793
685.652	793.041
690.281	887.106
694.908	653.241
699.533	435.728
704.155	373.628
708.774	231.25
713.391	4.79102
718.005	15.5723
722.617	129.808
727.226	143.299
731.833	20.9678
736.437	88.3643
741.039	105.011
745.638	26.8057
750.234	265.575
754.828	239.576
759.419	570.556
764.008	279.834
768.595	304.79
773.178	382.681
777.759	291.769
782.338	429.744
786.914	368.313
791.488	233.611
796.059	584.502
800.627	156.428
805.193	304.107
809.756	306.246
814.317	140.848
818.875	274.915
823.431	530.319
827.984	554.451
832.534	680.919
837.082	1127.87
841.627	1443.14
846.17	2125.37
850.71	2897.32
855.248	3855.12
859.783	5506.15
864.316	7515.57
868.846	10856.5
873.373	14869
877.898	16003.7
882.42	11219
886.94	6414.3
891.457	3606.91
895.971	2391.9
900.483	1530.24
904.993	1048.97
909.5	968.222
914.004	938.846
918.505	901.273
923.004	1038.38
927.501	1019.22
931.995	991.45
936.486	1244.61
940.975	1497.05
945.461	1410.35
949.945	1251.64
954.426	717.356
958.904	464.34
963.38	282.566
967.853	144.087
972.324	49.7881
976.792	140.506
981.258	104.585
985.72	3.2168
990.181	52.0234
994.639	123.385
999.094	184.989
1003.55	198.617
1008	214.477
1012.44	84.5264
1016.89	98.7285
1021.33	240.311
1025.77	105.918
1030.21	184.178
1034.64	257.382
1039.07	149.352
1043.5	287.068
1047.93	290.433
1052.35	361.455
1056.78	301.534
1061.19	294.666
1065.61	507.793
1070.02	320.982
1074.43	434.434
1078.84	476.106
1083.25	458.819
1087.65	344.036
1092.05	345.048
1096.45	255.363
1100.85	332.475
1105.24	151.968
1109.63	381.671
1114.02	198.676
1118.4	254.495
1122.78	310.759
1127.16	189.537
1131.54	313.365
1135.92	312.949
1140.29	187.092
1144.66	264.375
1149.02	246.171
1153.39	220.178
1157.75	162.402
1162.11	242.103
1166.46	203.256
1170.82	229.653
1175.17	202.199
1179.52	196.898
1183.86	222.845
1188.21	272.894
1192.55	80.9522
1196.89	83.9766
1201.22	64.7109
1205.55	28.708
1209.88	7.83301
1214.21	56.0215
1218.54	223.565
1222.86	150.503
1227.18	21.8848
1231.5	139.303
1235.81	236.463
1240.12	123.682
1244.43	145.105
1248.74	129.817
1253.04	44.6523
1257.34	151.645
1261.64	182.316
1265.94	220.841
1270.23	111.248
1274.52	157.11
1278.81	258.732
1283.1	165.968
1287.38	171.043
1291.66	89.9268
1295.94	260.713
1300.21	297.515
1304.48	289.259
1308.75	311.054
1313.02	241.963
1317.29	300.921
1321.55	278.381
1325.81	210.812
1330.06	343.655
1334.32	200.151
1338.57	196.134
1342.82	125.043
1347.06	337.024
1351.31	116.438
1355.55	166.59
1359.79	294.793
1364.02	66.2783
1368.26	0.540039
1372.49	286.668
1376.71	109.173
1380.94	181.93
1385.16	209.981
1389.38	59.917
1393.6	154.574
1397.81	196.08
1402.02	152.5
1406.23	219.398
1410.44	258.582
1414.64	219.878
1418.85	372.725
1423.04	7.81348
1427.24	168.061
1431.43	222.888
1435.62	156.991
1439.81	149.14
1444	247.804
1448.18	113.946
1452.36	231.384
1456.54	198.429
1460.71	30.6104
1464.89	67.6279
1469.06	109.725
1473.22	182.969
1477.39	175.768
1481.55	286.633
1485.71	264.243
1489.86	10.169
1494.02	209.93
1498.17	56.6728
1502.32	201.394
1506.46	160.933
1510.61	241.288
1514.75	156.391
1518.88	330.708
1523.02	195.811
1527.15	265.067
1531.28	102.983
1535.41	94.8897
1539.53	265.63
1543.66	13.7441
1547.78	240.904
1551.89	94.2764
1556.01	196.398
1560.12	263.612
1564.23	3.90039
1568.33	142.774
