Measurement: Raman, 514 nm, ccw, Raman Data Processed
Mineral: Ferberite
Rruff sample: R050090
Ideal chemistry: Fe^2+^WO_4_
Locality: Yaogangxian mine, Cheng Zhu City, South Hunan, China
Source: Rock Currier
Description: Dark gray tabular crystal
Measured chemistry: (Fe^2+^_0.56_Mn_0.44_)W_1.00_O_4_
Pin_id: L01369
Orientation: Laser parallel to c* (0 0 1). Fiducial mark perpendicular to laser is parallel to -a [-1 0 0]
Raman shift (cm-1)	intensity
98.416	0
103.349	15.7539
108.28	1465.22
113.208	274.611
118.134	1014.12
123.058	2267.12
127.979	9656.04
132.898	8065.63
137.814	5153.5
142.728	8250.71
147.639	7559.45
152.549	3748.97
157.455	1798.63
162.359	1266.36
167.261	2377.64
172.161	2537.56
177.058	1433.24
181.952	1070.65
186.845	875.598
191.734	1081.79
196.622	1412.41
201.507	1856.43
206.389	1808.94
211.269	737.512
216.147	266.029
221.022	68.4917
225.895	131.04
230.765	93.6123
235.633	83.1187
240.498	49.5273
245.361	42.7798
250.222	98.5747
255.08	381.888
259.936	1070.34
264.789	1263.55
269.64	1278.29
274.488	853.656
279.334	486.446
284.178	317.267
289.019	370.832
293.857	581.003
298.693	412.19
303.527	336.846
308.358	478.584
313.187	786.842
318.013	1457.36
322.837	2280.35
327.659	2426.38
332.478	1918.48
337.294	1178.62
342.108	825.769
346.92	706.915
351.729	682.048
356.535	677.158
361.34	673.072
366.141	524.55
370.94	486.85
375.737	429.597
380.531	503.666
385.323	681.035
390.113	1177.12
394.9	2256.71
399.684	2534.21
404.466	1283.12
409.245	873.085
414.022	551.547
418.797	364.703
423.569	134.491
428.338	2.5835
433.105	22.9229
437.87	45.1709
442.632	57.7793
447.391	63.8691
452.149	145.037
456.903	167.199
461.655	86.7788
466.405	220.302
471.152	231.763
475.897	121.158
480.639	146.486
485.378	309.745
490.116	258.936
494.85	463.058
499.582	709.111
504.312	995.098
509.039	1276.11
513.764	1133.73
518.486	920.974
523.206	853.638
527.923	922.703
532.638	938.067
537.35	980.525
542.059	993.963
546.766	777.336
551.471	510.647
556.173	332.897
560.873	146.091
565.57	150.231
570.264	24.6748
574.957	67.3926
579.646	18.4976
584.333	87.2246
589.018	40.1343
593.7	57.5117
598.379	98.5928
603.056	107.599
607.73	95.8389
612.402	209.061
617.072	315.272
621.739	394.475
626.403	545.682
631.065	798.899
635.724	784.133
640.381	679.391
645.035	613.676
649.687	499.995
654.336	570.346
658.983	487.722
663.627	556.119
668.268	754.534
672.907	839.967
677.544	1011.42
682.178	1205.89
686.809	1290.4
691.438	1327.94
696.065	1244.52
700.688	852.147
705.31	583.839
709.929	471.648
714.545	250.723
719.158	144.311
723.77	8.16113
728.378	12.5962
732.984	147.249
737.588	58.5952
742.189	143.865
746.787	238.58
751.383	524.516
755.976	1072.67
760.567	1640.21
765.155	2330.15
769.741	2714.36
774.324	2687.83
778.904	2230.55
783.482	1843.5
788.058	1583.73
792.631	1163.21
797.201	1046.94
801.769	736.925
806.334	693.169
810.897	525.671
815.457	552.437
820.014	643.467
824.569	707.726
829.122	793.328
833.671	1088.16
838.219	1275.54
842.763	1672.03
847.306	2324.72
851.845	3319.84
856.382	4905.44
860.917	7607.22
865.448	11849.3
869.978	19147.4
874.505	31612
879.029	45860.9
883.55	45519.4
888.069	29735.2
892.586	15312.1
897.1	8401.97
901.611	4765.62
906.12	3021.75
910.626	1977.45
915.129	1423.3
919.63	1059.25
924.129	762.955
928.625	510.95
933.118	320.154
937.609	300.562
942.097	270.127
946.582	182.409
951.065	124.711
955.546	67.7329
960.023	95.8877
964.499	108.166
968.971	59.564
973.441	20.0708
977.909	97.7148
982.374	32.7593
986.836	55.5303
991.295	18.2993
995.753	12.8281
1000.21	32.9834
1004.66	30.7842
1009.11	23.5376
1013.55	0.797852
1018	46.4512
1022.44	33.7212
1026.88	49.9092
1031.32	1.04394
1035.75	13.0586
1040.18	13.6992
1044.61	89.5913
1049.04	157.051
1053.46	12.3345
1057.88	184.719
1062.3	187.115
1066.71	244.348
1071.13	271.308
1075.54	228.165
1079.94	353.933
1084.35	820.521
1088.75	543.383
1093.15	179.858
1097.55	115.231
1101.94	101.489
1106.34	141.678
1110.73	183.347
1115.11	135.243
1119.5	315.991
1123.88	347.616
1128.26	272.457
1132.63	126.016
1137.01	169.971
1141.38	46.4092
1145.75	89.4536
1150.12	116.198
1154.48	81.0874
1158.84	178.324
1163.2	119.176
1167.55	8.26611
1171.91	55.5195
1176.26	82.6909
1180.61	43.7954
1184.95	109.767
1189.29	41.521
1193.63	103.973
1197.97	49.3784
1202.31	62.688
1206.64	69.7729
1210.97	53.6855
1215.29	13.4888
1219.62	67.603
1223.94	129.708
1228.26	106.194
1232.57	50.5825
1236.89	150.49
1241.2	206.656
1245.51	106.464
1249.81	198.847
1254.12	46.1665
1258.42	57.1201
1262.72	105.076
1267.01	196.428
1271.3	89.4688
1275.59	3.82031
1279.88	139
1284.17	11.0664
1288.45	87.8071
1292.73	112.818
1297.01	162.218
1301.28	84.436
1305.55	38.2056
1309.82	165.457
1314.09	58.3252
1318.35	45.5698
1322.61	157.079
1326.87	15.0552
1331.13	175.74
1335.38	127.06
1339.63	125.844
1343.88	121.509
1348.12	169.814
1352.37	97.0015
1356.61	139.183
1360.85	22.7456
1365.08	212.835
1369.31	190.937
1373.54	76.1304
1377.77	83.5068
1381.99	66.3066
1386.22	88.5562
1390.43	144.997
1394.65	105.82
1398.87	59.9522
1403.08	117.659
1407.29	134.049
1411.49	118.285
1415.69	34.856
1419.89	166.645
1424.09	137.18
1428.29	127.44
1432.48	134.482
1436.67	95.0664
1440.86	44.2353
1445.04	146.904
1449.23	29.2842
1453.4	18.0571
1457.58	38.1831
1461.76	69.2661
1465.93	53.541
1470.1	163.417
1474.26	113.009
1478.43	90.7271
1482.59	135.135
1486.75	94.6758
1490.9	84.4155
1495.06	11.8735
1499.21	136.4
1503.35	33.7114
1507.5	47.9131
1511.64	100.909
1515.78	63.2451
1519.92	89.1558
1524.05	121.805
1528.18	74.0923
1532.31	109.1
1536.44	44.3545
1540.56	50.1963
1544.69	129.463
1548.8	166.14
1552.92	80.875
1557.03	126.096
1561.14	119.385
1565.25	86.4922
1569.36	144.558
