Measurement: Raman, 514 nm, ccw, Raman Data Processed
Mineral: Ferberite
Rruff sample: R050090
Ideal chemistry: Fe^2+^WO_4_
Locality: Yaogangxian mine, Cheng Zhu City, South Hunan, China
Source: Rock Currier
Description: Dark gray tabular crystal
Measured chemistry: (Fe^2+^_0.56_Mn_0.44_)W_1.00_O_4_
Pin_id: L01753
Orientation: Laser parallel to a* (1 0 0). Fiducial mark perpendicular to laser is parallel to b [0 1 0]
Raman shift (cm-1)	intensity
98.416	0
103.349	169.038
108.28	481.006
113.208	748.062
118.134	2204.86
123.058	2806.75
127.979	2339.95
132.898	1499.52
137.814	649.011
142.728	354.701
147.639	300.481
152.549	136.493
157.455	98.0688
162.359	27.4902
167.261	374.106
172.161	519.765
177.058	496.881
181.952	664.165
186.845	1090.76
191.734	1740.4
196.622	3084.89
201.507	4153.21
206.389	4352.41
211.269	1597.44
216.147	749.555
221.022	384.755
225.895	49.0283
230.765	78.6328
235.633	10.7485
240.498	49.166
245.361	57.477
250.222	99.4507
255.08	314.541
259.936	698.191
264.789	335.439
269.64	115.764
274.488	63.5679
279.334	134.046
284.178	89.2637
289.019	299.219
293.857	487.188
298.693	860.893
303.527	1234.59
308.358	2143.92
313.187	3772.03
318.013	5376.11
322.837	6406.11
327.659	5828.2
332.478	4368.91
337.294	2788.4
342.108	2025.42
346.92	1394.45
351.729	1020.46
356.535	820.45
361.34	516.505
366.141	424.429
370.94	163.903
375.737	160.329
380.531	211.144
385.323	155.29
390.113	53.9507
394.9	58.2847
399.684	155.825
404.466	153.215
409.245	175.006
414.022	41.477
418.797	52.751
423.569	3.28711
428.338	133.1
433.105	186.787
437.87	124.863
442.632	156.821
447.391	140.166
452.149	8.9126
456.903	154.911
461.655	238.414
466.405	238.301
471.152	218.58
475.897	209.46
480.639	262.587
485.378	213.754
490.116	264.723
494.85	161.608
499.582	195.41
504.312	367.452
509.039	276.085
513.764	360.647
518.486	281.176
523.206	288.845
527.923	356.684
532.638	363.511
537.35	407.328
542.059	322.096
546.766	291.61
551.471	175.245
556.173	155.582
560.873	94.8223
565.57	198.62
570.264	95.3027
574.957	41.227
579.646	39.5371
584.333	70.2559
589.018	37.3486
593.7	3.36328
598.379	44.7236
603.056	3.83301
607.73	48.4434
612.402	48.2959
617.072	28.9805
621.739	140.412
626.403	139.98
631.065	124.498
635.724	72.0176
640.381	14.4551
645.035	301.201
649.687	171.538
654.336	304.062
658.983	382.614
663.627	572.194
668.268	834.805
672.907	1037.44
677.544	1347.12
682.178	1849.84
686.809	2360.6
691.438	2295.42
696.065	2150.34
700.688	1845.44
705.31	1248.76
709.929	933.287
714.545	644.148
719.158	534.057
723.77	200.196
728.378	244.107
732.984	103.381
737.588	140.837
742.189	63.0732
746.787	54.29
751.383	122.963
755.976	31.1113
760.567	170.078
765.155	209.133
769.741	227.475
774.324	149.991
778.904	189.363
783.482	98.2441
788.058	104.005
792.631	224.572
797.201	186.284
801.769	152.683
806.334	232.538
810.897	290.598
815.457	314.863
820.014	278.502
824.569	430.515
829.122	556.927
833.671	689.674
838.219	1076.98
842.763	1315.18
847.306	1679.86
851.845	2337.07
856.382	3604.4
860.917	5492.91
865.448	8490.68
869.978	13285.6
874.505	19730.8
879.029	22699.9
883.55	18709.1
888.069	12867.4
892.586	7295.13
897.1	3881.66
901.611	2426.71
906.12	1711.98
910.626	1193.48
915.129	904.221
919.63	572.205
924.129	459.435
928.625	345.707
933.118	308.268
937.609	301.997
942.097	113.925
946.582	251.017
951.065	122.446
955.546	97.0947
960.023	209.908
964.499	121.887
968.971	93.957
973.441	74.8564
977.909	62.1797
982.374	149.289
986.836	64.4853
991.295	141.561
995.753	29.6787
1000.21	123.853
1004.66	64.9522
1009.11	71.2647
1013.55	71.5225
1018	102.129
1022.44	146.688
1026.88	82.2832
1031.32	129.925
1035.75	31.5449
1040.18	203.365
1044.61	128.864
1049.04	104.59
1053.46	240.689
1057.88	214.49
1062.3	141.145
1066.71	243.919
1071.13	196.669
1075.54	150.724
1079.94	140.953
1084.35	175.69
1088.75	210.768
1093.15	304.89
1097.55	181.118
1101.94	83.4805
1106.34	163.823
1110.73	191.668
1115.11	231.208
1119.5	334.69
1123.88	280.403
1128.26	369.83
1132.63	190.799
1137.01	107.226
1141.38	100.772
1145.75	48.1934
1150.12	121.425
1154.48	64.75
1158.84	104.445
1163.2	120.679
1167.55	16.7754
1171.91	147.612
1176.26	134.856
1180.61	232.919
1184.95	152.031
1189.29	31.1592
1193.63	195.465
1197.97	101.017
1202.31	102.477
1206.64	187.891
1210.97	138.92
1215.29	80.7978
1219.62	61.4824
1223.94	54.0059
1228.26	58.4131
1232.57	159.746
1236.89	172.685
1241.2	128.808
1245.51	142.11
1249.81	171.535
1254.12	46.7227
1258.42	130.787
1262.72	211.779
1267.01	40.7383
1271.3	108.192
1275.59	76.8613
1279.88	20.2188
1284.17	115.934
1288.45	206.782
1292.73	168.005
1297.01	229.253
1301.28	185.419
1305.55	308.96
1309.82	150.83
1314.09	239.283
1318.35	231.904
1322.61	102.151
1326.87	230.517
1331.13	116.826
1335.38	196.487
1339.63	169.254
1343.88	272.983
1348.12	252.802
1352.37	257.844
1356.61	113.951
1360.85	19.4336
1365.08	209.147
1369.31	235.356
1373.54	61.7353
1377.77	230.776
1381.99	261.329
1386.22	219.886
1390.43	199.053
1394.65	153.987
1398.87	253.018
1403.08	93.8955
1407.29	45.1621
1411.49	47.5596
1415.69	108.331
1419.89	170.227
1424.09	62.751
1428.29	118.957
1432.48	185.606
1436.67	70.7871
1440.86	32.373
1445.04	110.292
1449.23	12.0684
1453.4	164.551
1457.58	90.0107
1461.76	25.6328
1465.93	172.128
1470.1	95.8584
1474.26	55.5654
1478.43	146.329
1482.59	103.005
1486.75	64.5186
1490.9	48.6523
1495.06	15.79
1499.21	106.192
1503.35	11.3223
1507.5	71.332
1511.64	70.6094
1515.78	135.519
1519.92	191.264
1524.05	66.9053
1528.18	202.228
1532.31	180.605
1536.44	157.757
1540.56	128.042
1544.69	120.774
1548.8	34.6387
1552.92	145.816
1557.03	174.408
1561.14	215.038
1565.25	169.118
1569.36	46.9941
