Measurement: Raman, 514 nm, ccw, Raman Data Processed
Mineral: Ferberite
Rruff sample: R040044
Ideal chemistry: Fe^2+^WO_4_
Locality: Chocote, Bolivia
Source: University of Arizona Mineral Museum
Description: Black tabular single crystal
Measured chemistry: (Fe_0.82_Mn_0.08_Mg_0.07_Pb_0.03_)_Î£=1_W_1.00_O_4_
Pin_id: M00266
Orientation: Laser parallel to a [1 0 0]. Fiducial mark perpendicular to laser is parallel to b* (0 1 0)
Raman shift (cm-1)	intensity
144.787	0
148.942	81.037
153.096	210.492
157.247	256.404
161.396	235.039
165.544	169.754
169.689	329.23
173.833	133.576
177.974	202.303
182.114	120.014
186.251	436.479
190.387	657.473
194.52	1343.44
198.652	2377.78
202.782	3488.39
206.909	4083.53
211.035	3565.78
215.159	2394.33
219.281	1544.79
223.4	841.953
227.518	687.426
231.634	398.617
235.748	141.363
239.86	94.279
243.97	105.553
248.079	188.525
252.185	183.678
256.289	235.93
260.391	504.938
264.492	615.383
268.59	641.762
272.687	632.494
276.781	305.143
280.874	17.57
284.964	113.738
289.053	186.303
293.14	230.289
297.225	367.146
301.308	555.484
305.389	1037.35
309.468	1761.06
313.545	2744.73
317.62	4318.11
321.693	6094.4
325.765	8214.33
329.834	8395.84
333.902	7633.34
337.967	6010.8
342.031	4389.24
346.093	3184.27
350.153	2542.64
354.21	1924.7
358.267	1535.44
362.321	1210.88
366.373	1048.59
370.423	817.07
374.471	682.479
378.518	497.137
382.563	457.211
386.605	328.693
390.646	291.035
394.685	367.375
398.722	492.951
402.757	312.506
406.79	299.395
410.821	226.906
414.851	209.992
418.878	146.195
422.904	73.332
426.927	119.545
430.949	65.371
434.969	165.426
438.987	81.213
443.003	134.727
447.018	119.85
451.03	88.346
455.041	232.26
459.049	186.137
463.056	25.471
467.061	276.58
471.064	348.449
475.065	13.729
479.064	221.963
483.062	222.746
487.057	388.656
491.051	389.672
495.043	283.258
499.032	542.016
503.02	420.229
507.007	502.92
510.991	517.02
514.973	564.514
518.954	634.408
522.933	664.73
526.91	629.508
530.885	515.752
534.858	576.912
538.829	436.135
542.799	348.484
546.766	334.75
550.732	264.719
554.696	179.6
558.658	172.547
562.618	170.498
566.576	150.975
570.533	213.291
574.488	137.789
578.44	40.299
582.391	46.229
586.341	40.561
590.288	0.172
594.233	378.469
598.177	402.221
602.119	2.527
606.059	76.373
609.997	47.873
613.933	0.693
617.868	2.451
621.801	119.453
625.731	22.992
629.66	136.611
633.588	236.818
637.513	189.012
641.437	247.119
645.358	215.562
649.278	215.605
653.196	389.395
657.113	409.676
661.027	570.016
664.94	677.27
668.851	1078.45
672.76	1206.57
676.667	1657.64
680.572	2089.66
684.476	2586.65
688.378	2918.63
692.278	2945.59
696.176	2654.59
700.072	2263.64
703.967	1593.75
707.86	1258.96
711.751	1008.06
715.64	685.285
719.527	379.342
723.413	261.785
727.297	130.531
731.179	74.221
735.059	79.604
738.937	155.23
742.814	5.395
746.689	71.033
750.562	198.609
754.433	170.666
758.303	156.145
762.17	53.537
766.036	73
769.901	26.58
773.763	1.283
777.624	178.863
781.482	89.102
785.339	74.562
789.195	126.229
793.048	75.875
796.9	78.143
800.75	168.387
804.598	149.791
808.445	87.395
812.289	176.227
816.132	145.283
819.973	150.57
823.813	430.094
827.65	342.857
831.486	653.867
835.32	742.15
839.152	999.695
842.983	1317.51
846.812	1714.58
850.639	2372.93
854.464	3438.94
858.288	4623.97
862.11	6733.34
865.93	9972.19
869.748	14021.9
873.564	18908.2
877.379	22552.8
881.192	22271.9
885.004	17632.3
888.813	13205
892.621	9527.02
896.427	6573.13
900.232	4742.84
904.034	3467.95
907.835	2608.32
911.634	2179.56
915.432	1556.55
919.227	1328.1
923.021	1162.84
926.813	1052.39
930.604	917.982
934.393	879.656
938.18	541.814
941.965	475.543
945.749	552.553
949.53	419.549
953.311	346.541
957.089	429.227
960.866	358.045
964.641	312.133
968.414	253.514
972.185	327.158
975.955	141.066
979.723	110.236
983.49	162.666
987.254	84.475
991.017	38.395
994.779	237.908
998.538	65.369
1002.3	236.68
1006.05	235.252
1009.81	197.576
1013.56	329.486
1017.31	224.189
1021.06	268.439
1024.81	315.447
1028.55	445.971
1032.3	439.406
1036.04	366.961
1039.78	381.805
1043.52	583.736
1047.26	492.023
1050.99	424.893
1054.73	435.756
1058.46	429.617
1062.19	469.494
1065.92	450.383
1069.65	531.371
1073.37	506.49
1077.1	475.688
1080.82	358.16
1084.54	453.438
1088.26	375.732
1091.97	330.158
1095.69	388.502
1099.4	308.896
1103.12	308.695
1106.83	392.113
1110.54	306.742
1114.24	359.197
1117.95	588.816
1121.65	267.598
1125.35	319.68
1129.06	204.562
1132.75	66.688
1136.45	73.658
1140.15	7.336
1143.84	5.076
1147.53	38.066
1151.22	60.291
1154.91	22.459
1158.6	7.344
1162.28	94.553
1165.97	88.584
1169.65	55.549
1173.33	28.904
1177.01	120.152
1180.69	13.598
1184.36	197.121
1188.04	191.867
1191.71	45.648
1195.38	100.051
1199.05	252.182
1202.71	205.273
1206.38	261.064
1210.04	180.229
1213.71	237.582
1217.37	255.27
1221.03	250.912
1224.68	232.432
1228.34	457.166
1231.99	225.248
1235.65	212.449
1239.3	256.742
1242.95	216.246
1246.59	124.996
1250.24	246.006
1253.88	231.361
1257.53	141.582
1261.17	180.895
1264.81	170.477
1268.45	426.986
1272.08	206.037
1275.72	179.596
1279.35	397.973
1282.98	307.361
1286.61	220.629
1290.24	130.182
1293.87	280.545
1297.49	198.561
1301.11	70.027
1304.73	111.1
1308.36	32.01
1311.97	77.938
1315.59	53.93
1319.2	115.322
1322.82	50.939
1326.43	27.951
1330.04	147.029
1333.65	259.178
1337.26	352.68
1340.86	356.602
1344.47	358.486
1348.07	361.037
1351.67	235.475
1355.27	363.844
1358.87	313.441
1362.46	337.6
1366.06	268.861
1369.65	368.223
1373.24	443.6
1376.83	155.184
1380.42	259.682
1384	266.207
1387.59	267.07
1391.17	73.355
1394.75	14.527
1398.33	119.039
1401.91	1.934
