Measurement: Raman, 514 nm, ccw, Raman Data Processed
Mineral: Ferberite
Rruff sample: R040044
Ideal chemistry: Fe^2+^WO_4_
Locality: Chocote, Bolivia
Source: University of Arizona Mineral Museum
Description: Black tabular single crystal
Measured chemistry: (Fe_0.82_Mn_0.08_Mg_0.07_Pb_0.03_)_Î£=1_W_1.00_O_4_
Pin_id: L01748
Orientation: Laser parallel to (1 0 1). Fiducial mark perpendicular to laser is parallel to b [0 1 0]
Raman shift (cm-1)	intensity
99.344	0
104.293	779.213
109.239	3353.75
114.182	3202.63
119.123	2332.12
124.061	1272.96
128.997	1411.24
133.93	3353.59
138.86	1626.82
143.788	343.764
148.713	321.398
153.636	714.184
158.556	1018.24
163.473	1273.89
168.388	933.68
173.3	1110.75
178.21	2699.13
183.117	2691.44
188.021	1818.01
192.923	1953.61
197.822	2020.9
202.718	2762.62
207.612	1164.6
212.504	1720.47
217.392	1232.91
222.279	496.932
227.162	85.5371
232.043	82.2617
236.921	124.484
241.797	183.805
246.67	66.332
251.54	148.482
256.408	43.209
261.274	749.484
266.136	237.377
270.996	489.127
275.854	901.312
280.709	404.75
285.561	360.012
290.41	395.758
295.257	792.152
300.102	1282.34
304.944	1420.65
309.783	742.381
314.619	598.656
319.453	631.518
324.285	995.383
329.113	1147.45
333.939	1339.2
338.763	1150.57
343.584	1421.41
348.402	1254.69
353.218	1343.38
358.031	1438.44
362.841	1266.85
367.649	1098.62
372.454	1052.73
377.257	760.865
382.057	560.922
386.854	748.039
391.649	601.463
396.441	363.041
401.231	517.334
406.018	685.096
410.802	453.164
415.584	212.523
420.363	402.168
425.139	147.102
429.913	95.3203
434.684	62.8457
439.453	125.691
444.219	232.867
448.982	204.228
453.743	352
458.501	307.557
463.257	131.141
468.01	490.238
472.76	344.504
477.508	539.498
482.253	321.322
486.996	502.639
491.736	484.318
496.473	703.348
501.207	798.734
505.94	852.481
510.669	1211.59
515.396	1071.05
520.12	1012.05
524.842	828.748
529.561	911.611
534.277	926.467
538.991	784.529
543.702	962.606
548.41	1014.23
553.116	1029.23
557.819	881.623
562.52	944.408
567.218	895.594
571.913	631.506
576.606	306.19
581.296	214.223
585.984	143.461
590.669	315.738
595.351	71.2578
600.031	281.207
604.708	80.7109
609.383	175.129
614.055	71.7734
618.724	74.7344
623.391	254.812
628.055	132.797
632.716	245.152
637.375	242.953
642.031	438.25
646.685	300.047
651.335	535.352
655.984	546.457
660.63	1201.56
665.273	1389.47
669.913	1829.98
674.551	2161
679.186	2870.52
683.819	3678.53
688.449	4552.04
693.076	4990.07
697.701	4472.73
702.323	4000.04
706.943	3266.95
711.56	2510.44
716.174	1899.51
720.786	1330.38
725.395	902.887
730.001	762.906
734.605	437.059
739.206	270.055
743.805	329.004
748.401	6.52344
752.995	115.68
757.585	226.211
762.173	475.09
766.759	400.481
771.342	535.559
775.922	731.336
780.5	797.777
785.075	860.887
789.648	769.66
794.217	666.289
798.785	732.383
803.349	562.512
807.911	653.914
812.471	685.883
817.027	599.574
821.582	505.16
826.133	646.133
830.682	911.277
835.228	897.644
839.772	1348.68
844.313	1355.4
848.852	2103.46
853.387	2871.25
857.921	3898.39
862.451	6020.62
866.979	9468.62
871.505	14680.5
876.028	20777.1
880.548	23174.4
885.065	19003
889.58	13044.4
894.093	8176.97
898.602	5037.97
903.109	2857
907.614	1825.48
912.116	1248.53
916.615	966.023
921.112	453.957
925.606	546.32
930.097	898.793
934.586	77.0234
939.072	399.981
943.556	695.387
948.037	195.578
952.515	80.0469
956.991	299.863
961.464	170.019
965.934	8.42578
970.402	38.1992
974.867	10.6875
979.33	107.887
983.79	164.656
988.248	0.449219
992.702	57.9141
997.155	93.8125
1001.6	86.2383
1006.05	145.879
1010.5	130.266
1014.94	328.914
1019.38	26.2227
1023.81	3.32812
1028.25	17.7812
1032.68	161.266
1037.11	332.473
1041.53	458.922
1045.96	538.402
1050.38	326.047
1054.8	356.949
1059.21	475.43
1063.62	544.336
1068.04	421.488
1072.44	493.894
1076.85	804.219
1081.25	595.715
1085.65	665.289
1090.05	701.613
1094.44	588.34
1098.84	685.606
1103.22	379.699
1107.61	483.848
1112	323.414
1116.38	488.516
1120.76	574.043
1125.13	497.106
1129.51	459.246
1133.88	447.539
1138.25	336.141
1142.61	61.6758
1146.98	272.781
1151.34	74.9062
1155.7	92.2656
1160.05	156.969
1164.4	254.715
1168.76	294.523
1173.1	254.547
1177.45	122.453
1181.79	65.9414
1186.13	292.941
1190.47	16.0273
1194.8	133.008
1199.14	293.09
1203.46	777.266
1207.79	415.488
1212.12	270.766
1216.44	421.094
1220.76	277.172
1225.08	424.785
1229.39	190.289
1233.7	278.012
1238.01	248.793
1242.32	440.492
1246.62	76.8047
1250.92	138.059
1255.22	205.156
1259.51	14.2383
1263.81	152.066
1268.1	1.85547
1272.38	24.1562
1276.67	49.4258
1280.95	155.394
1285.23	346.023
1289.51	244.176
1293.79	305.394
1298.06	86.2422
1302.33	357.777
1306.6	250.918
1310.86	127.973
1315.12	375.926
1319.38	198.387
1323.64	288.231
1327.89	164.363
1332.14	354.82
1336.39	428.606
1340.64	125.133
1344.88	83.2188
1349.12	317.356
1353.36	227.445
1357.6	424.555
1361.83	357.176
1366.06	223.324
1370.29	238.394
1374.52	379.469
1378.74	342.473
1382.96	139.602
1387.18	256.453
1391.39	176.445
1395.61	117.863
1399.82	375.734
1404.02	350.996
1408.23	120.227
1412.43	245.773
1416.63	66.4141
1420.83	157.356
1425.02	111.719
1429.21	31.1836
1433.4	400.691
1437.59	344.094
1441.77	215.035
1445.95	153.715
1450.13	165.125
1454.31	261.023
1458.48	249.934
1462.65	237.879
1466.82	154.996
1470.99	52.8086
1475.15	45.0156
1479.31	163.957
1483.47	146.719
1487.63	167.262
1491.78	155.867
1495.93	276.633
1500.08	50.4375
1504.22	272.832
1508.37	224.516
1512.51	59.8086
1516.64	283.91
1520.78	55.6211
1524.91	88.4258
1529.04	255.902
1533.17	204.637
1537.29	178.68
1541.41	61.8984
1545.53	189.262
1549.65	211.164
1553.77	257.367
1557.88	47.2188
1561.99	266.797
1566.09	120.742
1570.2	0
