Measurement: Raman, 514 nm, ccw, Raman Data Processed
Mineral: Ferberite
Rruff sample: R050632
Ideal chemistry: Fe^2+^WO_4_
Locality: Chance mine, Boulder, Colorado, USA
Source: University of Arizona Mineral Museum
Description: Dark brown rectangular prismatic crystals
Measured chemistry: Fe^2+^_1.00_WO_4_
Pin_id: M00360
Orientation: Laser parallel to -a* (-1 0 0). Fiducial mark perpendicular to laser is parallel to b [0 1 0]
Raman shift (cm-1)	intensity
157.455	0
162.359	13.8242
167.261	362.615
172.161	932.562
177.058	1636.61
181.952	1178.67
186.845	1212.43
191.734	1609.44
196.622	2734.93
201.507	4733.75
206.389	4799.24
211.269	3946.47
216.147	1466.43
221.022	584.988
225.895	341.684
230.765	270.698
235.633	165.189
240.498	86.7617
245.361	165.125
250.222	127.238
255.08	163.483
259.936	594.264
264.789	273.791
269.64	531.121
274.488	436.115
279.334	245.905
284.178	272.373
289.019	670.628
293.857	660.632
298.693	950.352
303.527	1022.26
308.358	1456.87
313.187	2208.7
318.013	3857.23
322.837	6355.93
327.659	7276.52
332.478	5260.8
337.294	3326.11
342.108	2491.18
346.92	1802.47
351.729	1484.21
356.535	1115.37
361.34	755.07
366.141	861.216
370.94	626.688
375.737	818.345
380.531	741.085
385.323	1091.81
390.113	1906.07
394.9	3697.15
399.684	4668.15
404.466	2495.98
409.245	1136.2
414.022	497.664
418.797	385.396
423.569	303.423
428.338	274.772
433.105	276.428
437.87	73.3799
442.632	167.611
447.391	148.111
452.149	106.112
456.903	302.378
461.655	321.295
466.405	496.001
471.152	585.124
475.897	530.976
480.639	749.561
485.378	854.975
490.116	973.361
494.85	1396.6
499.582	1942.32
504.312	1873.96
509.039	2153.61
513.764	2473.74
518.486	2904.02
523.206	3258.52
527.923	3462.54
532.638	3402.99
537.35	2953.2
542.059	2569.04
546.766	2210.12
551.471	1696.26
556.173	945.567
560.873	828.708
565.57	936.386
570.264	800.53
574.957	724.437
579.646	271.554
584.333	181.836
589.018	23.6211
593.7	17.8066
598.379	59.9375
603.056	7.05664
607.73	72.4902
612.402	149.644
617.072	75.5019
621.739	34.6152
626.403	21.9199
631.065	129.272
635.724	51.9004
640.381	89.6484
645.035	389.613
649.687	129.523
654.336	186.277
658.983	313.019
663.627	493.32
668.268	744.746
672.907	1040.84
677.544	1641.06
682.178	1995.44
686.809	2501.96
691.438	2421.39
696.065	1835.02
700.688	1577.51
705.31	985.156
709.929	769.006
714.545	541.975
719.158	385.037
723.77	226.195
728.378	221.826
732.984	350.365
737.588	253.24
742.189	256.512
746.787	294.488
751.383	154.658
755.976	556.096
760.567	616.904
765.155	606.045
769.741	786.731
774.324	709.949
778.904	659.162
783.482	723.74
788.058	711.986
792.631	765.135
797.201	749.578
801.769	793.328
806.334	841.16
810.897	1020.42
815.457	727.049
820.014	1021.01
824.569	1267.94
829.122	1409.41
833.671	1897.75
838.219	2636.54
842.763	3138.42
847.306	4555.51
851.845	6256.5
856.382	9149.77
860.917	14226.3
865.448	22650.2
869.978	36154.4
874.505	44876
879.029	35630.1
883.55	20583.7
888.069	12118
892.586	6378.89
897.1	3758.21
901.611	2287.97
906.12	1370.11
910.626	1056.68
915.129	632.664
919.63	292.047
924.129	244.857
928.625	156.227
933.118	234.065
937.609	235.205
942.097	78.5644
946.582	12.9805
951.065	63.4414
955.546	84.8516
960.023	147.059
964.499	135.684
968.971	97.6914
973.441	7.20508
977.909	106.152
982.374	99.1152
986.836	137.281
991.295	140.648
995.753	353.219
1000.21	365.986
1004.66	411.945
1009.11	338.092
1013.55	319.416
1018	434.922
1022.44	518.592
1026.88	485.272
1031.32	245.018
1035.75	170.143
1040.18	494.019
1044.61	395.398
1049.04	632.072
1053.46	627.049
1057.88	571.146
1062.3	487.379
1066.71	592.053
1071.13	610.502
1075.54	664.16
1079.94	589.305
1084.35	657.33
1088.75	676.881
1093.15	501.107
1097.55	451.201
1101.94	410.147
1106.34	362.471
1110.73	379.668
1115.11	500.955
1119.5	1299.68
1123.88	1379.49
1128.26	785.41
1132.63	365.43
1137.01	332.539
1141.38	204.742
1145.75	169.477
1150.12	234.938
1154.48	111.633
1158.84	40.0977
1163.2	22.7051
1167.55	6.07617
1171.91	71.5586
1176.26	50.7305
1180.61	37.0586
1184.95	31.584
1189.29	91.1152
1193.63	11.5508
1197.97	58.4375
1202.31	19.6348
1206.64	63.7852
1210.97	100.072
1215.29	173.398
1219.62	218.82
1223.94	94.4844
1228.26	62.4902
1232.57	52.3516
1236.89	288.471
1241.2	118.281
1245.51	127.389
1249.81	182.529
1254.12	199.402
1258.42	98.166
1262.72	192.027
1267.01	110.981
1271.3	311.098
1275.59	3.14258
1279.88	200.215
1284.17	292.32
1288.45	340.647
1292.73	26.6523
1297.01	395.748
1301.28	75.7949
1305.55	272.027
1309.82	179.523
1314.09	315.535
1318.35	53.7207
1322.61	167.076
1326.87	326.068
1331.13	289.353
1335.38	126.92
1339.63	84.7832
1343.88	129.316
1348.12	267.672
1352.37	288.867
1356.61	274.318
1360.85	409.43
1365.08	134.912
1369.31	255.209
1373.54	594.842
1377.77	703.34
1381.99	853.643
1386.22	393.359
1390.43	337.256
1394.65	473.008
1398.87	246.068
1403.08	350.883
1407.29	169.857
1411.49	355.82
1415.69	154.236
1419.89	341.246
1424.09	300.016
1428.29	113.734
1432.48	357.176
1436.67	205.336
1440.86	239.541
1445.04	165.031
1449.23	47.5781
1453.4	215.174
1457.58	356.92
1461.76	289.84
1465.93	247.777
1470.1	51.6738
1474.26	225.068
1478.43	134.383
1482.59	133.295
1486.75	161.361
1490.9	248.424
1495.06	268.178
1499.21	28.0391
1503.35	115.502
1507.5	98.8223
1511.64	331.59
1515.78	354.273
1519.92	371.324
1524.05	431.461
1528.18	310.789
1532.31	322.258
1536.44	525.434
1540.56	123.152
1544.69	133.82
1548.8	375.193
1552.92	357.44
1557.03	403.135
1561.14	68.0488
1565.25	41.3281
1569.36	11.6953
