Measurement: Raman, 514 nm, ccw, Raman Data Processed
Mineral: Ferberite
Rruff sample: R050090
Ideal chemistry: Fe^2+^WO_4_
Locality: Yaogangxian mine, Cheng Zhu City, South Hunan, China
Source: Rock Currier
Description: Dark gray tabular crystal
Measured chemistry: (Fe^2+^_0.56_Mn_0.44_)W_1.00_O_4_
Pin_id: L01590
Orientation: Laser parallel to (1 0 1). Fiducial mark perpendicular to laser is parallel to b [0 1 0]
Raman shift (cm-1)	intensity
98.416	0
103.349	8.72266
108.28	303.352
113.208	744.199
118.134	1103.22
123.058	1497.59
127.979	5487.61
132.898	11839.9
137.814	1952.99
142.728	669.233
147.639	198.565
152.549	135.492
157.455	158.051
162.359	36.134
167.261	539.954
172.161	717.067
177.058	603.231
181.952	670.071
186.845	844.929
191.734	1194.48
196.622	1649.8
201.507	2332.28
206.389	2851.94
211.269	2010.7
216.147	920.422
221.022	270.102
225.895	58.7456
230.765	1.6394
235.633	0.047607
240.498	39.5662
245.361	110.865
250.222	55.5701
255.08	24.5596
259.936	406.611
264.789	268.565
269.64	188.389
274.488	210.294
279.334	115.075
284.178	97.5088
289.019	71.8333
293.857	159.752
298.693	245.098
303.527	255.631
308.358	418.865
313.187	702.622
318.013	1242.5
322.837	2183.69
327.659	2888.49
332.478	2199.47
337.294	1473.49
342.108	1097.49
346.92	763.467
351.729	623.464
356.535	536.476
361.34	415.529
366.141	456.273
370.94	358.466
375.737	428.667
380.531	434.627
385.323	513.268
390.113	796.368
394.9	1835.03
399.684	3121.22
404.466	1605.57
409.245	732.243
414.022	335.837
418.797	239.347
423.569	90.7727
428.338	70.0913
433.105	58.051
437.87	52.9329
442.632	11.2615
447.391	7.58106
452.149	164.32
456.903	143.315
461.655	149.674
466.405	102.39
471.152	155.073
475.897	126.876
480.639	175.05
485.378	259.082
490.116	223.822
494.85	266.075
499.582	321.831
504.312	368.104
509.039	512.868
513.764	533.6
518.486	765.318
523.206	934.05
527.923	1278.87
532.638	1475.97
537.35	1799.54
542.059	1784.5
546.766	1583.52
551.471	1104.52
556.173	779.494
560.873	492.444
565.57	380.374
570.264	260.286
574.957	179.584
579.646	19.1426
584.333	22.3503
589.018	28.3865
593.7	14.4214
598.379	18.3787
603.056	14.2637
607.73	37.8433
612.402	7.1355
617.072	1.17578
621.739	62.3135
626.403	38.1201
631.065	79.8726
635.724	7.5376
640.381	58.8691
645.035	21.5542
649.687	79.9731
654.336	98.3955
658.983	132.823
663.627	193.259
668.268	275.705
672.907	367.158
677.544	541.62
682.178	648.116
686.809	872.617
691.438	1044.24
696.065	973.892
700.688	896.581
705.31	649.306
709.929	435.041
714.545	280.533
719.158	135.04
723.77	137.127
728.378	32.2109
732.984	8.63281
737.588	68.6099
742.189	55.7632
746.787	49.8091
751.383	37.5713
755.976	17.1626
760.567	180.536
765.155	321.755
769.741	464.82
774.324	469.209
778.904	493.371
783.482	356.781
788.058	320.703
792.631	354.978
797.201	325.473
801.769	374.078
806.334	314.836
810.897	398.668
815.457	355.254
820.014	407.305
824.569	497.703
829.122	563.123
833.671	655.362
838.219	877.981
842.763	1194.53
847.306	1598.46
851.845	2042.39
856.382	2833.46
860.917	4197.68
865.448	6512.17
869.978	10282.8
874.505	16878.5
879.029	26599.8
883.55	30664
888.069	21912.8
892.586	11417.8
897.1	5641.75
901.611	2957.88
906.12	1792.19
910.626	1119.71
915.129	704.457
919.63	493.5
924.129	327.732
928.625	205.123
933.118	119.666
937.609	1.5874
942.097	9.31445
946.582	68.3672
951.065	24.4624
955.546	3.21143
960.023	65.1372
964.499	3.55664
968.971	41.8423
973.441	15.3101
977.909	20.5986
982.374	4.30029
986.836	66.1362
991.295	39.7622
995.753	128.963
1000.21	31.3159
1004.66	94.8232
1009.11	57.4702
1013.55	113.299
1018	117.244
1022.44	10.4487
1026.88	61.9497
1031.32	53.0493
1035.75	35.5195
1040.18	122.077
1044.61	162.541
1049.04	151.325
1053.46	147.885
1057.88	192.772
1062.3	223.939
1066.71	264.711
1071.13	213.201
1075.54	242.929
1079.94	241.568
1084.35	229.217
1088.75	249.746
1093.15	209.098
1097.55	169.785
1101.94	99.4634
1106.34	137.5
1110.73	94.1245
1115.11	77.1162
1119.5	9.5127
1123.88	99.3159
1128.26	129.53
1132.63	166.167
1137.01	8.81885
1141.38	74.3023
1145.75	83.9072
1150.12	20.6465
1154.48	133.001
1158.84	25.8154
1163.2	51.9878
1167.55	34.7046
1171.91	120.857
1176.26	49.0708
1180.61	83.7744
1184.95	81.3477
1189.29	51.124
1193.63	44.8613
1197.97	40.54
1202.31	23.1152
1206.64	62.6387
1210.97	51.126
1215.29	55.6011
1219.62	8.80176
1223.94	2.71582
1228.26	81.5166
1232.57	70.707
1236.89	192.37
1241.2	110.13
1245.51	90.603
1249.81	15.208
1254.12	22.0693
1258.42	71.1103
1262.72	38.2602
1267.01	87.5581
1271.3	39.5684
1275.59	91.3066
1279.88	75.9663
1284.17	61.5156
1288.45	52.0239
1292.73	136.399
1297.01	225.501
1301.28	51.6313
1305.55	39.9741
1309.82	69.0669
1314.09	57.498
1318.35	89.896
1322.61	111.599
1326.87	76.1045
1331.13	132.394
1335.38	61.415
1339.63	198.813
1343.88	48.6982
1348.12	138.659
1352.37	26.5967
1356.61	90.5273
1360.85	154.773
1365.08	69.1079
1369.31	51.375
1373.54	55.5366
1377.77	46.9258
1381.99	155.669
1386.22	126.899
1390.43	10.5825
1394.65	128.331
1398.87	87.2519
1403.08	90.4219
1407.29	45.2529
1411.49	127.264
1415.69	107.968
1419.89	78.0815
1424.09	113.091
1428.29	80.2002
1432.48	40.1645
1436.67	82.5425
1440.86	89.772
1445.04	33.3862
1449.23	97.9927
1453.4	44.1196
1457.58	33.1958
1461.76	27.0078
1465.93	74.4292
1470.1	52.4292
1474.26	45.4341
1478.43	31.7402
1482.59	81.6587
1486.75	119.746
1490.9	84.6118
1495.06	176.145
1499.21	94.7568
1503.35	131.108
1507.5	157.726
1511.64	122.116
1515.78	79.5718
1519.92	154.525
1524.05	56.9463
1528.18	98.4829
1532.31	152.119
1536.44	24.1401
1540.56	149.414
1544.69	32.5063
1548.8	167.796
1552.92	79.7808
1557.03	125.778
1561.14	65.5796
1565.25	0.283203
1569.36	83.3779
