Measurement: Raman, 514 nm, ccw, Raman Data Processed
Mineral: Ferberite
Rruff sample: R050632
Ideal chemistry: Fe^2+^WO_4_
Locality: Chance mine, Boulder, Colorado, USA
Source: University of Arizona Mineral Museum
Description: Dark brown rectangular prismatic crystals
Measured chemistry: Fe^2+^_1.00_WO_4_
Pin_id: M00461
Orientation: Laser parallel to b* (0 1 0). Fiducial mark perpendicular to laser is parallel to c [0 0 1]
Raman shift (cm-1)	intensity
157.455	0
162.359	321.559
167.261	357.231
172.161	640.352
177.058	497.332
181.952	541.863
186.845	801.992
191.734	1531.13
196.622	2213.15
201.507	3001.45
206.389	344.664
211.269	614.629
216.147	252.059
221.022	147.887
225.895	15.5977
230.765	28.9258
235.633	0.832031
240.498	84.2461
245.361	174.957
250.222	128.527
255.08	11.9141
259.936	50.9648
264.789	114.391
269.64	20.3086
274.488	155.863
279.334	40.3516
284.178	109.828
289.019	140.516
293.857	142.891
298.693	240.668
303.527	275.203
308.358	276.887
313.187	4.80078
318.013	15.7227
322.837	123.078
327.659	358.828
332.478	327.973
337.294	302.004
342.108	291.383
346.92	51.7188
351.729	323.047
356.535	443.231
361.34	183.113
366.141	199.473
370.94	484.535
375.737	334.309
380.531	530.523
385.323	353.805
390.113	781.969
394.9	954.688
399.684	1631.56
404.466	1439.35
409.245	816.988
414.022	519.402
418.797	495.035
423.569	240.641
428.338	529.352
433.105	328.117
437.87	390.977
442.632	426.949
447.391	358.051
452.149	479.047
456.903	806.961
461.655	718.852
466.405	538.188
471.152	716.644
475.897	627.574
480.639	1226.4
485.378	862.606
490.116	739.969
494.85	756.555
499.582	997.379
504.312	1075.37
509.039	1076.64
513.764	1285.52
518.486	1231.12
523.206	1256.61
527.923	1301.5
532.638	1410.75
537.35	1258.69
542.059	1532.35
546.766	1272.48
551.471	1361.72
556.173	1331.03
560.873	1400.44
565.57	1188.91
570.264	1456.4
574.957	1135.9
579.646	850.535
584.333	769.711
589.018	319.531
593.7	297.66
598.379	235.57
603.056	86.8047
607.73	319.457
612.402	98.4453
617.072	207.289
621.739	279.117
626.403	296.504
631.065	216.457
635.724	202.582
640.381	15.2852
645.035	193.856
649.687	65.2695
654.336	85
658.983	59.793
663.627	387.129
668.268	380.84
672.907	516.746
677.544	597.184
682.178	1358.98
686.809	1086.57
691.438	1677.5
696.065	1022.9
700.688	532.344
705.31	602.5
709.929	238.008
714.545	39.8477
719.158	196.871
723.77	48.9062
728.378	29.3594
732.984	53.1836
737.588	69.1836
742.189	387.629
746.787	208.031
751.383	198.328
755.976	141.856
760.567	363.606
765.155	66.7734
769.741	177.699
774.324	279.211
778.904	233.84
783.482	60.625
788.058	57.5781
792.631	193.633
797.201	203.84
801.769	93.2695
806.334	115.43
810.897	258.637
815.457	47.4297
820.014	273.133
824.569	9.73047
829.122	242.465
833.671	7.57422
838.219	287.562
842.763	747.875
847.306	897.426
851.845	863.219
856.382	1937.13
860.917	2859.43
865.448	4596.98
869.978	7261.77
874.505	10523.8
879.029	9633.33
883.55	6665.69
888.069	3697.94
892.586	2716.56
897.1	1554.43
901.611	882.949
906.12	666.152
910.626	554.5
915.129	593.254
919.63	487.156
924.129	307.293
928.625	401.688
933.118	378.406
937.609	593.008
942.097	721.211
946.582	95.3555
951.065	305.981
955.546	381.488
960.023	221.637
964.499	206.41
968.971	320.394
973.441	415.699
977.909	746.676
982.374	599.328
986.836	360.856
991.295	343.387
995.753	601.789
1000.21	769.988
1004.66	731.949
1009.11	541.801
1013.55	767.387
1018	789.906
1022.44	731.258
1026.88	580.551
1031.32	533.644
1035.75	536.254
1040.18	968.121
1044.61	1293.77
1049.04	1111.96
1053.46	891.039
1057.88	1045.34
1062.3	1213.57
1066.71	1055.13
1071.13	1154.6
1075.54	1304.41
1079.94	1292.87
1084.35	1646.81
1088.75	852.566
1093.15	1293.16
1097.55	891.539
1101.94	1125.46
1106.34	1429.59
1110.73	1128.16
1115.11	1040.53
1119.5	937.652
1123.88	931.93
1128.26	461.492
1132.63	799.805
1137.01	492.57
1141.38	276.684
1145.75	432.168
1150.12	431.082
1154.48	310.863
1158.84	189.512
1163.2	20.1523
1167.55	63.0312
1171.91	100.348
1176.26	43.7344
1180.61	58.7891
1184.95	42.2109
1189.29	105.766
1193.63	339.516
1197.97	73.3945
1202.31	198.609
1206.64	213.352
1210.97	72.0586
1215.29	74.7422
1219.62	69.0039
1223.94	412.012
1228.26	216.074
1232.57	299.172
1236.89	195.32
1241.2	310.613
1245.51	138.102
1249.81	124.547
1254.12	27.957
1258.42	216.043
1262.72	85.0703
1267.01	167.188
1271.3	408.894
1275.59	282.234
1279.88	48.9102
1284.17	49.3203
1288.45	19.1758
1292.73	446.758
1297.01	278.023
1301.28	165.344
1305.55	325.016
1309.82	32.3906
1314.09	224.242
1318.35	256.402
1322.61	375.012
1326.87	519.051
1331.13	305
1335.38	184.625
1339.63	376.191
1343.88	418.688
1348.12	456.586
1352.37	595.484
1356.61	215.824
1360.85	190.832
1365.08	342.617
1369.31	621.098
1373.54	402.281
1377.77	90.1172
1381.99	397.68
1386.22	225.453
1390.43	241.441
1394.65	568.324
1398.87	307.981
1403.08	272.621
1407.29	88.6953
1411.49	445.062
1415.69	270.957
1419.89	193.234
1424.09	277.344
1428.29	79.3047
1432.48	294.691
1436.67	241.652
1440.86	73.3125
1445.04	446.785
1449.23	503.481
1453.4	297.644
1457.58	469.023
1461.76	224.676
1465.93	83.4609
1470.1	456.816
1474.26	125.777
1478.43	654.414
1482.59	95.2617
1486.75	600.008
1490.9	289.133
1495.06	0.003906
1499.21	151.519
1503.35	218.473
1507.5	147.644
1511.64	246.457
1515.78	223.613
1519.92	375.012
1524.05	257.742
1528.18	254.316
1532.31	190.555
1536.44	24.625
1540.56	293.191
1544.69	265.598
1548.8	331.344
1552.92	862.102
1557.03	605.32
1561.14	232.359
1565.25	8.87109
1569.36	105.422
