Measurement: Raman, 514 nm, ccw, Raman Data Processed
Mineral: Ferberite
Rruff sample: R050632
Ideal chemistry: Fe^2+^WO_4_
Locality: Chance mine, Boulder, Colorado, USA
Source: University of Arizona Mineral Museum
Description: Dark brown rectangular prismatic crystals
Measured chemistry: Fe^2+^_1.00_WO_4_
Pin_id: M00360
Orientation: Laser parallel to -a* (-1 0 0). Fiducial mark perpendicular to laser is parallel to b [0 1 0]
Raman shift (cm-1)	intensity
157.455	0
162.359	261.09
167.261	706.436
172.161	813.115
177.058	733.619
181.952	1133.81
186.845	1545.24
191.734	2243.05
196.622	3821.26
201.507	7384.55
206.389	9113.89
211.269	6293.28
216.147	2809.84
221.022	1051.96
225.895	482.594
230.765	102.531
235.633	115.004
240.498	120.768
245.361	64.0742
250.222	35.6504
255.08	588.947
259.936	1194.67
264.789	1729.93
269.64	1853.6
274.488	1084.47
279.334	413.045
284.178	78.416
289.019	213.588
293.857	626.088
298.693	1189.49
303.527	1204.45
308.358	2000
313.187	3903.56
318.013	6850.97
322.837	11580.8
327.659	13267
332.478	9594.98
337.294	5928.97
342.108	3988.9
346.92	2806.57
351.729	2177.56
356.535	1569.15
361.34	961.295
366.141	704.969
370.94	586.059
375.737	404.644
380.531	189.338
385.323	327.408
390.113	249.482
394.9	491.287
399.684	764.172
404.466	301.49
409.245	245.244
414.022	90.418
418.797	102.016
423.569	260.062
428.338	47.5566
433.105	235.1
437.87	154.42
442.632	72.9102
447.391	22.0898
452.149	172.381
456.903	286.522
461.655	19.582
466.405	93.1074
471.152	190.162
475.897	458.264
480.639	411.801
485.378	218.697
490.116	575.031
494.85	689.769
499.582	873.941
504.312	716.51
509.039	612.543
513.764	959.32
518.486	778.674
523.206	936.693
527.923	964.049
532.638	929.371
537.35	822.24
542.059	919.445
546.766	797.977
551.471	934.83
556.173	726.549
560.873	873.533
565.57	1107.69
570.264	990.902
574.957	832.291
579.646	558.922
584.333	54.9258
589.018	37.0391
593.7	124.285
598.379	122.336
603.056	57.6016
607.73	129.639
612.402	1.60742
617.072	114.248
621.739	175.26
626.403	314.523
631.065	351.926
635.724	226.959
640.381	372.922
645.035	342.342
649.687	469.748
654.336	811.479
658.983	1060.44
663.627	1482.21
668.268	1837.36
672.907	2998.5
677.544	3724.63
682.178	5299.28
686.809	5552.95
691.438	5067.65
696.065	3469.37
700.688	2281.12
705.31	1316.9
709.929	1010.7
714.545	654.523
719.158	559.359
723.77	58.7031
728.378	31.043
732.984	162.826
737.588	81.8809
742.189	203.094
746.787	117.769
751.383	168.664
755.976	174.191
760.567	267.666
765.155	215.998
769.741	237.291
774.324	8.63281
778.904	117.971
783.482	102.336
788.058	187.416
792.631	82.0391
797.201	66.6211
801.769	45.0117
806.334	227.869
810.897	71.6543
815.457	218.56
820.014	299.603
824.569	372.787
829.122	524.127
833.671	726.631
838.219	1067.31
842.763	1722.19
847.306	2809.24
851.845	3949.51
856.382	6008.99
860.917	10385.3
865.448	17597.3
869.978	29969.6
874.505	39526.4
879.029	33430.1
883.55	20726.4
888.069	12087.2
892.586	7435.3
897.1	4668.8
901.611	3374.69
906.12	2338.09
910.626	1778.32
915.129	1404.59
919.63	1060.86
924.129	865.006
928.625	748.6
933.118	597.756
937.609	707.055
942.097	365.422
946.582	430.41
951.065	404.938
955.546	271.006
960.023	224.637
964.499	211.84
968.971	216.631
973.441	75.9902
977.909	126.922
982.374	163.432
986.836	325.529
991.295	399.207
995.753	245.588
1000.21	311.82
1004.66	408.76
1009.11	326.385
1013.55	119.906
1018	238.992
1022.44	270.67
1026.88	329.31
1031.32	264.08
1035.75	407.295
1040.18	367.922
1044.61	335.732
1049.04	231.43
1053.46	331.795
1057.88	508.865
1062.3	594.637
1066.71	672.801
1071.13	665.164
1075.54	578.162
1079.94	511.961
1084.35	593.078
1088.75	482.699
1093.15	504.223
1097.55	248.383
1101.94	486.266
1106.34	307.547
1110.73	489.881
1115.11	596.518
1119.5	1087.93
1123.88	1586.7
1128.26	738.316
1132.63	274.137
1137.01	301.959
1141.38	94.1387
1145.75	214.553
1150.12	23.0254
1154.48	143.68
1158.84	198.543
1163.2	17.8418
1167.55	22.4551
1171.91	32.4102
1176.26	185.832
1180.61	168.656
1184.95	127.051
1189.29	27.3691
1193.63	60.0801
1197.97	37.9688
1202.31	164.674
1206.64	162.582
1210.97	237.502
1215.29	245.172
1219.62	158.949
1223.94	239.504
1228.26	212.211
1232.57	58.8047
1236.89	97.3398
1241.2	162.793
1245.51	140.154
1249.81	67.6758
1254.12	0.845703
1258.42	31.5859
1262.72	125.986
1267.01	218.184
1271.3	70.1816
1275.59	197.871
1279.88	123.082
1284.17	172.834
1288.45	174.824
1292.73	111.5
1297.01	106.699
1301.28	1.25586
1305.55	68.5215
1309.82	212.494
1314.09	39.7344
1318.35	164.65
1322.61	139.994
1326.87	179.09
1331.13	156.178
1335.38	118.666
1339.63	177.758
1343.88	137.723
1348.12	217.666
1352.37	88.4766
1356.61	297.234
1360.85	244.627
1365.08	190.107
1369.31	412.59
1373.54	256.523
1377.77	304.348
1381.99	346.223
1386.22	315.523
1390.43	336.422
1394.65	128.498
1398.87	151.025
1403.08	360.648
1407.29	146.379
1411.49	131.723
1415.69	54.9492
1419.89	519.811
1424.09	105.344
1428.29	221.152
1432.48	257.973
1436.67	282.184
1440.86	247.078
1445.04	186.109
1449.23	303.121
1453.4	87.8555
1457.58	197.301
1461.76	177.922
1465.93	221.531
1470.1	25.8711
1474.26	73.3418
1478.43	41.4023
1482.59	276.553
1486.75	123.053
1490.9	183.695
1495.06	262.234
1499.21	151.285
1503.35	229.248
1507.5	356.522
1511.64	245.51
1515.78	167.67
1519.92	262.1
1524.05	284.922
1528.18	103.074
1532.31	91.9941
1536.44	216.084
1540.56	196.348
1544.69	355.289
1548.8	502.42
1552.92	1021.22
1557.03	89.4824
1561.14	164.533
1565.25	232.715
1569.36	335.178
