Measurement: Raman, 514 nm, ccw, Raman Data Processed
Mineral: Ferberite
Rruff sample: R050090
Ideal chemistry: Fe^2+^WO_4_
Locality: Yaogangxian mine, Cheng Zhu City, South Hunan, China
Source: Rock Currier
Description: Dark gray tabular crystal
Measured chemistry: (Fe^2+^_0.56_Mn_0.44_)W_1.00_O_4_
Pin_id: L01590
Orientation: Laser parallel to (1 0 1). Fiducial mark perpendicular to laser is parallel to b [0 1 0]
Raman shift (cm-1)	intensity
98.416	0
103.349	284.391
108.28	279.388
113.208	236.275
118.134	400.2
123.058	495.889
127.979	1577.88
132.898	5000.16
137.814	980.705
142.728	597.75
147.639	40.6265
152.549	312.362
157.455	159.029
162.359	39.1907
167.261	757.239
172.161	927.545
177.058	621.733
181.952	686.706
186.845	740.834
191.734	978.542
196.622	1394.32
201.507	2637.59
206.389	1168.59
211.269	109.299
216.147	13.0356
221.022	44.8713
225.895	29.73
230.765	8.19653
235.633	25.8931
240.498	43.0864
245.361	13.1606
250.222	6.88843
255.08	11.8791
259.936	111.538
264.789	326.998
269.64	266.656
274.488	165.332
279.334	241.359
284.178	98.6545
289.019	104.902
293.857	97.3682
298.693	88.0327
303.527	96.4482
308.358	155.231
313.187	246.66
318.013	403.521
322.837	717.896
327.659	1065.17
332.478	931.408
337.294	647.592
342.108	499.681
346.92	430.664
351.729	379.581
356.535	360.963
361.34	391.642
366.141	397.802
370.94	402.719
375.737	369.173
380.531	371.34
385.323	406.038
390.113	671.01
394.9	1556.14
399.684	3131.19
404.466	1877.23
409.245	891.489
414.022	483.617
418.797	299.332
423.569	153.51
428.338	82.6338
433.105	40.5469
437.87	67.0325
442.632	54.2078
447.391	148.713
452.149	113.504
456.903	154.807
461.655	136.858
466.405	104.853
471.152	136.016
475.897	157.188
480.639	65.9524
485.378	77.2761
490.116	180.86
494.85	184.814
499.582	212.731
504.312	170.969
509.039	108.075
513.764	107.718
518.486	97.6255
523.206	80.7178
527.923	96.0317
532.638	152.543
537.35	203.158
542.059	133.811
546.766	104.483
551.471	105.142
556.173	73.8018
560.873	50.4182
565.57	18.0366
570.264	49.6497
574.957	4.26269
579.646	19.1853
584.333	13.8931
589.018	2.24585
593.7	11.0813
598.379	18.825
603.056	62.6016
607.73	94.6316
612.402	70.1826
617.072	125.73
621.739	83.7563
626.403	113.27
631.065	63.7297
635.724	87.125
640.381	54.1096
645.035	75.7363
649.687	90.9619
654.336	129.129
658.983	169.234
663.627	248.275
668.268	289.248
672.907	336.153
677.544	511.986
682.178	700.75
686.809	957.445
691.438	943.072
696.065	1001.64
700.688	807.153
705.31	640.613
709.929	376.675
714.545	162.293
719.158	148.673
723.77	12.4482
728.378	13.3816
732.984	39.6707
737.588	45.7659
742.189	5.02979
746.787	21.718
751.383	60.2629
755.976	124.777
760.567	140.285
765.155	363.8
769.741	498.927
774.324	507.291
778.904	509.854
783.482	294.446
788.058	466.074
792.631	231.742
797.201	300.459
801.769	231.227
806.334	206.055
810.897	244.949
815.457	259.912
820.014	247.042
824.569	310.165
829.122	382.376
833.671	425.449
838.219	610.851
842.763	788.432
847.306	989.088
851.845	1452.94
856.382	2297.85
860.917	3655.64
865.448	5508.22
869.978	8840.06
874.505	15071.4
879.029	25041.9
883.55	31760.8
888.069	24067.3
892.586	12912.1
897.1	6573.92
901.611	3592.94
906.12	2215.21
910.626	1474.73
915.129	958.533
919.63	665.637
924.129	539.033
928.625	323.696
933.118	251.593
937.609	184.731
942.097	112.161
946.582	113.822
951.065	8.2854
955.546	88.8652
960.023	45.2524
964.499	25.8777
968.971	57.7302
973.441	7.18433
977.909	15.1184
982.374	53.6414
986.836	37.3984
991.295	36.3948
995.753	67.6221
1000.21	65.1648
1004.66	0.894287
1009.11	31.4717
1013.55	49.3308
1018	51.8638
1022.44	28.3618
1026.88	5.49097
1031.32	65.2439
1035.75	21.0249
1040.18	60.2214
1044.61	103.333
1049.04	166.838
1053.46	102.372
1057.88	183.32
1062.3	122.802
1066.71	156.009
1071.13	256.391
1075.54	229.335
1079.94	132.81
1084.35	228.398
1088.75	247.38
1093.15	274.265
1097.55	115.622
1101.94	264.889
1106.34	146.363
1110.73	177.572
1115.11	170.708
1119.5	54.6711
1123.88	49.1982
1128.26	175.886
1132.63	203.365
1137.01	151.453
1141.38	27.1116
1145.75	34.1013
1150.12	47.2837
1154.48	11.6929
1158.84	8.95288
1163.2	8.8833
1167.55	18.4102
1171.91	1.72974
1176.26	9.94727
1180.61	4.38647
1184.95	23.9712
1189.29	48.2705
1193.63	17.9915
1197.97	76.1704
1202.31	30.2046
1206.64	36.3364
1210.97	83.9932
1215.29	20.1172
1219.62	67.6965
1223.94	70.1262
1228.26	29.2214
1232.57	53.8323
1236.89	85.0776
1241.2	219.091
1245.51	58.0378
1249.81	107.393
1254.12	151.62
1258.42	16.0764
1262.72	47.137
1267.01	37.0715
1271.3	7.88037
1275.59	48.0171
1279.88	74.0217
1284.17	67.7402
1288.45	32.5764
1292.73	22.6145
1297.01	65.2527
1301.28	50.5232
1305.55	100.606
1309.82	113.241
1314.09	199.858
1318.35	97.7034
1322.61	69.4907
1326.87	16.2539
1331.13	82.5764
1335.38	5.37012
1339.63	23.054
1343.88	55.7388
1348.12	121.683
1352.37	82.8794
1356.61	27.5476
1360.85	114.421
1365.08	86.0813
1369.31	74.2305
1373.54	80.7917
1377.77	39.6162
1381.99	73.9517
1386.22	69.3628
1390.43	11.7498
1394.65	95.7222
1398.87	110.007
1403.08	86.415
1407.29	74.6179
1411.49	54.8462
1415.69	104.422
1419.89	85.9675
1424.09	12.988
1428.29	89.0229
1432.48	85.5076
1436.67	26.0679
1440.86	62.5378
1445.04	118.578
1449.23	72.2793
1453.4	74.1191
1457.58	0.383789
1461.76	25.864
1465.93	109.312
1470.1	46.5623
1474.26	34.9243
1478.43	58.9014
1482.59	56.5886
1486.75	40.2353
1490.9	48.2192
1495.06	21.8362
1499.21	91.1936
1503.35	84.7185
1507.5	87.9453
1511.64	69.3679
1515.78	96.7153
1519.92	161.169
1524.05	84.7629
1528.18	75.2554
1532.31	102.786
1536.44	107.518
1540.56	63.7344
1544.69	64.6291
1548.8	25.6848
1552.92	7.97681
1557.03	135.03
1561.14	140.309
1565.25	172.931
1569.36	45.6284
