Measurement: Raman, 514 nm, ccw, Raman Data Processed
Mineral: Ferberite
Rruff sample: R050632
Ideal chemistry: Fe^2+^WO_4_
Locality: Chance mine, Boulder, Colorado, USA
Source: University of Arizona Mineral Museum
Description: Dark brown rectangular prismatic crystals
Measured chemistry: Fe^2+^_1.00_WO_4_
Pin_id: L00968
Orientation: Laser parallel to c* (0 0 1). Fiducial mark perpendicular to laser is parallel to a [1 0 0]
Raman shift (cm-1)	intensity
156.229	0
161.134	5.14648
166.036	323.026
170.936	925.451
175.834	1187.71
180.729	1267.56
185.622	1556.39
190.512	1543.73
195.4	2167.98
200.286	2409.37
205.169	2376.89
210.049	2535.76
214.928	2775.54
219.803	2050.36
224.677	650.693
229.548	136.134
234.416	7.83691
239.282	78.6943
244.146	10.8164
249.007	113.55
253.866	99.1221
258.722	1055.44
263.576	683.607
268.427	940.511
273.276	1144.95
278.123	1225.06
282.967	842.392
287.809	845.41
292.648	1005.84
297.485	1430.88
302.319	1849.57
307.151	973.972
311.98	1081.63
316.807	1372.57
321.631	1970.96
326.454	2759.58
331.273	2759.7
336.09	2426.16
340.905	2246.27
345.717	2241.48
350.527	2176.13
355.334	2022.57
360.139	1757.65
364.941	1744.62
369.741	1376.67
374.538	1131.08
379.333	893.989
384.126	775.935
388.916	710.448
393.703	1016.93
398.488	1538.68
403.271	1320.45
408.051	603.703
412.828	350.449
417.603	185.698
422.376	95.4219
427.146	54.6357
431.914	28.292
436.679	21.2188
441.442	90.8799
446.202	98.7217
450.96	8.99707
455.715	214.689
460.467	131.032
465.218	230.967
469.965	286.445
474.711	111.918
479.454	148.433
484.194	430.798
488.932	272.873
493.667	391.347
498.4	390.005
503.13	601.744
507.858	770.117
512.583	601.139
517.306	897.828
522.026	850.266
526.744	877.539
531.459	824.731
536.172	774.789
540.882	580.653
545.59	493.304
550.295	398.748
554.998	443.006
559.698	318.951
564.396	270.577
569.091	221.693
573.784	259.058
578.474	239.931
583.162	16.9902
587.847	41.417
592.529	38.8818
597.209	76.876
601.887	80.8203
606.562	26.5459
611.235	31.8359
615.905	79.4482
620.572	148.756
625.237	12.7803
629.9	86.7324
634.56	114.993
639.217	136.621
643.872	100.653
648.524	353.002
653.174	242.016
657.821	585.389
662.466	624.249
667.108	671.617
671.748	879.506
676.385	1382.93
681.02	2045.92
685.652	1758.48
690.281	1818.64
694.908	1590.41
699.533	1288.83
704.155	824.132
708.774	678.325
713.391	479.475
718.005	445.727
722.617	540.008
727.226	171.572
731.833	213.615
736.437	240.023
741.039	227.042
745.638	418.148
750.234	390.559
754.828	496.334
759.419	698.231
764.008	902.726
768.595	938.742
773.178	968.322
777.759	952.227
782.338	924.95
786.914	907.492
791.488	824.851
796.059	905.024
800.627	757.01
805.193	556.806
809.756	545.408
814.317	573.813
818.875	519.015
823.431	560.002
827.984	601.771
832.534	884.312
837.082	1214.04
841.627	1525.54
846.17	2179.1
850.71	3045.56
855.248	4222.5
859.783	6031.32
864.316	9090.29
868.846	13817.7
873.373	19158.2
877.898	18802.3
882.42	12557.9
886.94	7233.03
891.457	4196.13
895.971	2609.27
900.483	1724.81
904.993	1260.57
909.5	911.713
914.004	817.381
918.505	959.471
923.004	801.926
927.501	944.689
931.995	895.748
936.486	981.218
940.975	982.124
945.461	1071.3
949.945	951.683
954.426	606.238
958.904	376.945
963.38	172.77
967.853	64.6894
972.324	81.3369
976.792	33.7539
981.258	43.3809
985.72	87.6357
990.181	20.6885
994.639	30.2783
999.094	8.91602
1003.55	96.0215
1008	55.585
1012.44	105.698
1016.89	160.522
1021.33	104.607
1025.77	94.8164
1030.21	74.2168
1034.64	126.242
1039.07	44.0469
1043.5	134.655
1047.93	260.552
1052.35	386.011
1056.78	305.222
1061.19	418.161
1065.61	438.91
1070.02	494.591
1074.43	433.592
1078.84	439.104
1083.25	349.44
1087.65	479.091
1092.05	310.606
1096.45	354.397
1100.85	307.8
1105.24	345.276
1109.63	417.935
1114.02	299.096
1118.4	309.255
1122.78	278.118
1127.16	354.78
1131.54	273.853
1135.92	294.817
1140.29	178.059
1144.66	235.189
1149.02	73.9092
1153.39	190.728
1157.75	37.3897
1162.11	18.3125
1166.46	27.4023
1170.82	150.865
1175.17	2.89062
1179.52	9.83496
1183.86	285.731
1188.21	78.251
1192.55	155.389
1196.89	70.1094
1201.22	55.6475
1205.55	73.8262
1209.88	103.018
1214.21	60.9795
1218.54	87.3633
1222.86	290.438
1227.18	182.227
1231.5	132.736
1235.81	198.19
1240.12	237.45
1244.43	179.602
1248.74	134.944
1253.04	143.907
1257.34	295.724
1261.64	219.465
1265.94	131.073
1270.23	180.889
1274.52	288.239
1278.81	344.683
1283.1	72.9853
1287.38	204.023
1291.66	286.69
1295.94	162.213
1300.21	253.764
1304.48	331.552
1308.75	393.273
1313.02	243.489
1317.29	201.423
1321.55	223.454
1325.81	144.883
1330.06	251.288
1334.32	76.1172
1338.57	14.6357
1342.82	177.776
1347.06	137
1351.31	154.982
1355.55	211.89
1359.79	174.673
1364.02	154.175
1368.26	149.851
1372.49	32.8506
1376.71	94.0469
1380.94	90.209
1385.16	81.2285
1389.38	110.147
1393.6	184.384
1397.81	200.222
1402.02	149.558
1406.23	85.8223
1410.44	131.323
1414.64	52.2109
1418.85	191.18
1423.04	123.218
1427.24	9.18848
1431.43	4.29004
1435.62	56.3945
1439.81	27.5205
1444	111.238
1448.18	7.18457
1452.36	49.6006
1456.54	109.679
1460.71	226.506
1464.89	116.012
1469.06	141.356
1473.22	122.637
1477.39	208.742
1481.55	135.275
1485.71	163.799
1489.86	174.294
1494.02	134.665
1498.17	196.166
1502.32	117.848
1506.46	107.98
1510.61	95.3301
1514.75	137.805
1518.88	3.81641
1523.02	50.9766
1527.15	13.5693
1531.28	146.042
1535.41	105.153
1539.53	26.6328
1543.66	70.6689
1547.78	135.693
1551.89	281.593
1556.01	376.477
1560.12	166.36
1564.23	4.83984
1568.33	430.034
