Measurement: Raman, 514 nm, ccw, Raman Data Processed
Mineral: Ferberite
Rruff sample: R050632
Ideal chemistry: Fe^2+^WO_4_
Locality: Chance mine, Boulder, Colorado, USA
Source: University of Arizona Mineral Museum
Description: Dark brown rectangular prismatic crystals
Measured chemistry: Fe^2+^_1.00_WO_4_
Pin_id: M00317
Orientation: Laser parallel to (1 0 1). Fiducial mark perpendicular to laser is parallel to b [0 1 0]
Raman shift (cm-1)	intensity
238.066	0
241.714	214.738
245.361	271.971
249.007	116.412
252.651	383.982
256.294	752.209
259.936	620.805
263.576	800.785
267.215	654.947
270.852	918.127
274.488	868.328
278.123	592.148
281.756	130.09
285.388	160.859
289.019	52.7441
292.648	199.152
296.276	35.4863
299.902	338.225
303.527	223.371
307.151	808.879
310.773	1117.67
314.394	1514.08
318.013	2084.69
321.631	3147.77
325.248	3991.43
328.864	4011.68
332.478	3647.56
336.09	2936.01
339.701	2269.52
343.311	1835.81
346.92	1288.48
350.527	1024.96
354.132	529.385
357.737	809.004
361.34	400.416
364.941	117.006
368.541	301.639
372.14	394.184
375.737	308.334
379.333	343.086
382.928	488.422
386.521	658.43
390.113	1060.85
393.703	1638.34
397.292	2775.65
400.88	3619.77
404.466	3230.66
408.051	1666.05
411.634	1174.04
415.216	818.697
418.797	571.969
422.376	361.822
425.954	188.231
429.53	200.959
433.105	163.647
436.679	155.75
440.251	186.215
443.822	172.322
447.391	425.246
450.96	436.629
454.526	508.779
458.091	427.516
461.655	512.918
465.218	366.076
468.779	274.537
472.338	776.594
475.897	757.246
479.454	582.439
483.009	1087.23
486.563	1012.84
490.116	1084.83
493.667	1084.94
497.217	1484.33
500.765	1736.98
504.312	1779.9
507.858	1750.07
511.402	1699.48
514.945	2137.11
518.486	2276.96
522.026	2162.02
525.565	2007.28
529.102	2047.83
532.638	2096.76
536.172	2348.02
539.705	2351.57
543.236	2539.39
546.766	2611.48
550.295	2777.82
553.822	3142.41
557.348	2909.23
560.873	3111.27
564.396	2865.53
567.917	2946.01
571.438	3063.69
574.957	2586.59
578.474	1908.24
581.99	1269.24
585.504	522.518
589.018	321.44
592.529	69.0801
596.04	235.068
599.549	159.842
603.056	143.58
606.562	81.3828
610.067	41.9375
613.57	251.1
617.072	165.945
620.572	150.223
624.071	60.1777
627.569	4.50977
631.065	228.807
634.56	246.111
638.053	398.406
641.545	382.684
645.035	530.961
648.524	85.2363
652.012	152.885
655.498	465.723
658.983	625.941
662.466	635.152
665.948	707.35
669.428	877.076
672.907	959.75
676.385	1515.88
679.861	1538.99
683.336	1938.07
686.809	2030.12
690.281	1958.13
693.752	1817.11
697.221	1276.05
700.688	1099.94
704.155	596.807
707.619	225.627
711.083	106.406
714.545	176.143
718.005	212.815
721.464	9.7207
724.922	20.0996
728.378	76.2402
731.833	60.8652
735.286	34.5586
738.738	60.7246
742.189	57.6035
745.638	3.50391
749.085	147.519
752.531	172.795
755.976	282.832
759.419	214.359
762.861	143.266
766.302	272.793
769.741	569.473
773.178	380.236
776.614	483.072
780.049	503.443
783.482	427.481
786.914	419.332
790.345	200.853
793.773	210.447
797.201	93.1113
800.627	25.8516
804.052	153.674
807.475	135.549
810.897	186.467
814.317	108.467
817.736	104.572
821.153	239.818
824.569	113.129
827.984	406.588
831.397	668.182
834.808	667.914
838.219	845.791
841.627	1483.82
845.035	1879.01
848.441	2323.36
851.845	3218.88
855.248	4282.03
858.65	5808.5
862.05	8136.39
865.448	11396.1
868.846	16251.6
872.241	22905.8
875.636	29210.4
879.029	31975.2
882.42	29356.9
885.81	23528.6
889.199	17478.5
892.586	12426.6
895.971	9031.97
899.356	6760.16
902.738	5011.48
906.12	4026.2
909.5	3226.05
912.878	2584.82
916.255	2165.88
919.63	2099.47
923.004	1576.48
926.377	1435.91
929.748	1528.8
933.118	1266.1
936.486	1207.8
939.853	1193.9
943.218	1022.86
946.582	971.258
949.945	746.596
953.306	541.371
956.665	947.566
960.023	585.203
963.38	673.967
966.735	478.904
970.089	287.898
973.441	444.316
976.792	460.166
980.141	187.447
983.489	65.457
986.836	464.365
990.181	174.455
993.524	9.1582
996.866	332.607
1000.21	347.029
1003.55	373.486
1006.88	325.879
1010.22	340.231
1013.55	128.309
1016.89	23.041
1020.22	103.707
1023.55	171.547
1026.88	91.2363
1030.21	82.7324
1033.53	303.707
1036.86	253.695
1040.18	51.0195
1043.5	476.947
1046.82	327.648
1050.14	653.26
1053.46	344.746
1056.78	228.885
1060.09	781.787
1063.4	498.449
1066.71	679.729
1070.02	523.732
1073.33	498.631
1076.64	466.103
1079.94	655.67
1083.25	449.445
1086.55	470.668
1089.85	523.189
1093.15	518.236
1096.45	694.594
1099.75	407.834
1103.04	408.498
1106.34	365.266
1109.63	603.643
1112.92	662.875
1116.21	393.309
1119.5	601.32
1122.78	743.836
1126.07	430.902
1129.35	441.631
1132.63	100.086
1135.92	113.051
1139.19	239.09
1142.47	87.1133
1145.75	190.805
1149.02	95.8203
1152.3	59.252
1155.57	191.307
1158.84	101.949
1162.11	62.7715
1165.38	80.5019
1168.64	35.5703
1171.91	153.519
1175.17	21.3438
1178.43	112.377
1181.69	106.75
1184.95	168.961
1188.21	209.176
1191.46	82.3711
1194.72	154.754
1197.97	15.8457
1201.22	182.883
1204.47	119.334
1207.72	104.305
1210.97	101.947
1214.21	97.7715
1217.46	136.141
1220.7	141.023
1223.94	5.43945
1227.18	149.647
1230.42	188.758
1233.65	121.807
1236.89	206.773
1240.12	106.783
1243.35	283.656
1246.59	101.955
1249.81	279.57
1253.04	204.781
1256.27	255.176
1259.49	166.356
1262.72	68.0176
1265.94	67.9766
1269.16	208.877
1272.38	157.346
1275.59	344.809
1278.81	228.793
1282.03	230.045
1285.24	92.0801
1288.45	315.117
1291.66	121.252
1294.87	54.5547
1298.08	295.481
1301.28	273.525
1304.48	251.158
1307.69	172.834
1310.89	19.0918
1314.09	188.541
1317.29	34.7148
1320.48	196.006
1323.68	348.404
1326.87	285.803
1330.06	399.957
1333.26	179.035
1336.44	151.717
1339.63	38.168
1342.82	158.734
1346	134.324
1349.19	246.184
1352.37	241.094
1355.55	364.094
1358.73	406.1
1361.9	341.269
1365.08	408.678
1368.26	424.572
1371.43	277.629
1374.6	402.826
1377.77	275.537
1380.94	135.018
1384.11	409.293
1387.27	363.906
1390.43	148.894
1393.6	246.56
1396.76	407.707
1399.92	168.111
1403.08	89.5957
1406.23	398.318
1409.39	178.531
1412.54	223.834
1415.69	105.711
1418.85	302.24
1421.99	192.56
1425.14	100.91
1428.29	195.709
1431.43	68.0176
1434.58	44.1973
1437.72	301.42
1440.86	206.775
1444	213.539
1447.13	452.383
1450.27	303.154
1453.4	138.394
1456.54	166.113
1459.67	11.9258
1462.8	149.533
1465.93	181.398
1469.06	321.897
1472.18	69.7441
1475.31	418.65
1478.43	112.986
1481.55	199.184
1484.67	49.0117
1487.79	270.84
1490.9	182.137
1494.02	391.435
1497.13	71.9043
1500.24	250.949
1503.35	281.115
1506.46	327.992
1509.57	306.799
1512.68	162.762
1515.78	251.922
1518.88	42.5801
1521.99	295.078
1525.09	151.305
1528.18	74.0762
1531.28	326.002
1534.38	217.959
1537.47	327.096
1540.56	327.832
1543.66	302.065
1546.74	99.6113
1549.83	126.436
1552.92	219.803
1556.01	225.494
1559.09	403.978
1562.17	59.5371
1565.25	223.51
1568.33	3.28125
1571.41	0
