Measurement: Raman, 514 nm, ccw, Raman Data Processed
Mineral: Ferberite
Rruff sample: R050090
Ideal chemistry: Fe^2+^WO_4_
Locality: Yaogangxian mine, Cheng Zhu City, South Hunan, China
Source: Rock Currier
Description: Dark gray tabular crystal
Measured chemistry: (Fe^2+^_0.56_Mn_0.44_)W_1.00_O_4_
Pin_id: L01304
Orientation: Laser parallel to -b* (0 -1 0). Fiducial mark perpendicular to laser is parallel to c [0 0 1]
Raman shift (cm-1)	intensity
98.416	0
103.349	810.881
108.28	3052.34
113.208	3886.53
118.134	4586.9
123.058	1677.03
127.979	1906.49
132.898	1455.97
137.814	1665.8
142.728	577.396
147.639	62.5488
152.549	343.932
157.455	31.3848
162.359	259.139
167.261	321.688
172.161	892.385
177.058	1055.89
181.952	1228.16
186.845	1611.14
191.734	2100.35
196.622	3217.26
201.507	5748.8
206.389	7094.62
211.269	3705.32
216.147	1896.12
221.022	493.457
225.895	451.94
230.765	9.70703
235.633	286.555
240.498	106.539
245.361	158.783
250.222	226.853
255.08	155.984
259.936	1913.72
264.789	2269.47
269.64	1359.12
274.488	982.375
279.334	584.832
284.178	177.553
289.019	72.7441
293.857	297.766
298.693	137.475
303.527	70.2305
308.358	186.498
313.187	264.209
318.013	541.008
322.837	1033.09
327.659	988.574
332.478	704.295
337.294	453.832
342.108	410.525
346.92	111.291
351.729	334.135
356.535	249.709
361.34	173.281
366.141	213.85
370.94	298.727
375.737	148.334
380.531	35.3281
385.323	40.6035
390.113	359.797
394.9	744.449
399.684	687.148
404.466	598.602
409.245	276.217
414.022	300.572
418.797	306.764
423.569	218.711
428.338	581.189
433.105	572.504
437.87	512.848
442.632	715.266
447.391	553.066
452.149	458.49
456.903	485.332
461.655	490.367
466.405	525.791
471.152	719.246
475.897	660.615
480.639	693.379
485.378	703.564
490.116	732.854
494.85	824.291
499.582	824.102
504.312	812.158
509.039	1152.78
513.764	915.959
518.486	951.748
523.206	1427.3
527.923	1341.02
532.638	1228.32
537.35	1414.6
542.059	1562.71
546.766	1781.73
551.471	1204.56
556.173	1335.16
560.873	1312.2
565.57	1287.72
570.264	1182.4
574.957	1161.59
579.646	903.727
584.333	263.082
589.018	6.10547
593.7	338.096
598.379	200.201
603.056	64.3438
607.73	60.8594
612.402	22.793
617.072	128.004
621.739	267.916
626.403	16.0586
631.065	113.516
635.724	164.33
640.381	363.481
645.035	258.981
649.687	643.84
654.336	416.062
658.983	785.66
663.627	1053.68
668.268	1613.18
672.907	2490.12
677.544	3784.41
682.178	5598.11
686.809	7708.07
691.438	9658.58
696.065	9918.55
700.688	9012.19
705.31	6920.3
709.929	4849
714.545	3494.33
719.158	2334.08
723.77	1783.23
728.378	1711.15
732.984	1241.43
737.588	824.211
742.189	994.668
746.787	408.551
751.383	270.955
755.976	761.064
760.567	484.252
765.155	395.76
769.741	297.568
774.324	266.397
778.904	302.529
783.482	240.201
788.058	222.42
792.631	135.185
797.201	361.492
801.769	324.736
806.334	447.344
810.897	248.273
815.457	200.728
820.014	438.727
824.569	423.992
829.122	532.961
833.671	633.516
838.219	819.736
842.763	1201.4
847.306	1604.9
851.845	2165.61
856.382	3646.35
860.917	5198.06
865.448	8077.93
869.978	12449
874.505	20084.5
879.029	27636.2
883.55	26508.5
888.069	17128.5
892.586	9014.15
897.1	4866.2
901.611	2769.73
906.12	1402.74
910.626	1226.17
915.129	575.977
919.63	356.199
924.129	349.852
928.625	183.856
933.118	174.199
937.609	7.14453
942.097	164.793
946.582	18.0469
951.065	16.5469
955.546	42.1836
960.023	60.1055
964.499	118.801
968.971	158.062
973.441	46.7812
977.909	99.375
982.374	93.1133
986.836	2.73828
991.295	10.1172
995.753	97.8906
1000.21	176.898
1004.66	284.156
1009.11	95.4531
1013.55	392.273
1018	149.617
1022.44	148.516
1026.88	302.578
1031.32	331.519
1035.75	596.098
1040.18	477.293
1044.61	577.758
1049.04	591.438
1053.46	814.664
1057.88	632.848
1062.3	644.086
1066.71	535.922
1071.13	708.621
1075.54	667.539
1079.94	403.68
1084.35	567.801
1088.75	643.922
1093.15	456.781
1097.55	601.578
1101.94	492.906
1106.34	598.934
1110.73	427.16
1115.11	467.727
1119.5	484.152
1123.88	515.844
1128.26	580.066
1132.63	224.789
1137.01	420.703
1141.38	69.9961
1145.75	309.957
1150.12	374.594
1154.48	397.16
1158.84	318.074
1163.2	1.06641
1167.55	94.0977
1171.91	225.457
1176.26	156.82
1180.61	12.7305
1184.95	181.516
1189.29	354.902
1193.63	388.293
1197.97	40.6562
1202.31	180.926
1206.64	220.996
1210.97	153.801
1215.29	286.582
1219.62	304.438
1223.94	98.0391
1228.26	23.7148
1232.57	275.875
1236.89	357.938
1241.2	300.449
1245.51	173.617
1249.81	237.398
1254.12	443.941
1258.42	84.7383
1262.72	202.332
1267.01	48.75
1271.3	5.12891
1275.59	86.3711
1279.88	80.1406
1284.17	21.1992
1288.45	173.254
1292.73	313.742
1297.01	271.078
1301.28	263.531
1305.55	332.652
1309.82	274
1314.09	178.227
1318.35	24.7031
1322.61	77.8828
1326.87	562.144
1331.13	194.883
1335.38	146.906
1339.63	131.695
1343.88	453.406
1348.12	307.031
1352.37	522.094
1356.61	47.8672
1360.85	102.219
1365.08	329.477
1369.31	210.805
1373.54	431.941
1377.77	150.41
1381.99	402.387
1386.22	474.273
1390.43	472.289
1394.65	487.754
1398.87	376.566
1403.08	291.664
1407.29	373.203
1411.49	177.641
1415.69	306.211
1419.89	186.168
1424.09	115.809
1428.29	160.594
1432.48	175.055
1436.67	204.066
1440.86	232.863
1445.04	251.594
1449.23	239.598
1453.4	485.031
1457.58	253.062
1461.76	188.434
1465.93	388.66
1470.1	260.465
1474.26	165.859
1478.43	389.938
1482.59	11.2266
1486.75	260.531
1490.9	5.07422
1495.06	176.969
1499.21	69.1953
1503.35	533.16
1507.5	246.215
1511.64	234.727
1515.78	131.578
1519.92	206.5
1524.05	233.859
1528.18	207.324
1532.31	238.988
1536.44	295.547
1540.56	251.664
1544.69	138.484
1548.8	59.7188
1552.92	100.992
1557.03	111.981
1561.14	196.852
1565.25	221.098
1569.36	111.574
