Measurement: Raman, 514 nm, ccw, Raman Data Processed
Mineral: Ferberite
Rruff sample: R040044
Ideal chemistry: Fe^2+^WO_4_
Locality: Chocote, Bolivia
Source: University of Arizona Mineral Museum
Description: Black tabular single crystal
Measured chemistry: (Fe_0.82_Mn_0.08_Mg_0.07_Pb_0.03_)_Î£=1_W_1.00_O_4_
Pin_id: M00158
Orientation: Laser parallel to b* (0 1 0). Fiducial mark perpendicular to laser is parallel to c [0 0 1]
Raman shift (cm-1)	intensity
165.544	0
169.689	136.525
173.833	195.895
177.974	291.115
182.114	86.711
186.251	189.699
190.387	201.137
194.52	408.428
198.652	614.281
202.782	853.105
206.909	987.23
211.035	370.145
215.159	98.699
219.281	300.025
223.4	134.709
227.518	39.447
231.634	94.166
235.748	72.158
239.86	217.709
243.97	278.914
248.079	182.672
252.185	57.504
256.289	140.41
260.391	200.41
264.492	265.277
268.59	334.703
272.687	451.453
276.781	377.301
280.874	302.848
284.964	117.205
289.053	132.586
293.14	119.953
297.225	44.582
301.308	40.496
305.389	62.975
309.468	46.82
313.545	97.332
317.62	174.904
321.693	309.646
325.765	295.248
329.834	364.82
333.902	469.443
337.967	484.834
342.031	425.379
346.093	433.479
350.153	344.6
354.21	414.662
358.267	390.643
362.321	445.699
366.373	345.465
370.423	388.555
374.471	547.77
378.518	385.996
382.563	467.576
386.605	626.326
390.646	796.738
394.685	1374.24
398.722	2097.76
402.757	2300.27
406.79	1901.25
410.821	1229.24
414.851	798.797
418.878	492.857
422.904	446.887
426.927	320.84
430.949	240.297
434.969	201.801
438.987	217.578
443.003	247.471
447.018	225.951
451.03	86.092
455.041	127.639
459.049	199.348
463.056	101.941
467.061	124.83
471.064	173.258
475.065	62.893
479.064	160.141
483.062	160.467
487.057	218.137
491.051	193.98
495.043	271.357
499.032	295.365
503.02	370.479
507.007	294.545
510.991	347.156
514.973	345.285
518.954	354.158
522.933	440.121
526.91	439.244
530.885	537.969
534.858	408.748
538.829	421.258
542.799	398.775
546.766	349.275
550.732	427.574
554.696	261.744
558.658	304.779
562.618	265.684
566.576	121.43
570.533	163.035
574.488	179.525
578.44	209.904
582.391	219.67
586.341	70.52
590.288	59.736
594.233	63.506
598.177	47.379
602.119	59.412
606.059	56.766
609.997	8.627
613.933	53.078
617.868	91.516
621.801	11.342
625.731	76.328
629.66	53.943
633.588	179.25
637.513	26.834
641.437	97.682
645.358	95.463
649.278	94.453
653.196	225.32
657.113	206.895
661.027	203.855
664.94	315.801
668.851	620.74
672.76	698.678
676.667	1008.63
680.572	1355.62
684.476	1720.66
688.378	2071.76
692.278	2067.91
696.176	2123.09
700.072	1867.34
703.967	1522.66
707.86	1107.04
711.751	939.496
715.64	614.02
719.527	565.627
723.413	208.301
727.297	86.088
731.179	78.623
735.059	47.344
738.937	102.441
742.814	99.688
746.689	110.889
750.562	84.396
754.433	136.219
758.303	65.889
762.17	14.623
766.036	266.348
769.901	108.508
773.763	78.873
777.624	581.287
781.482	70.117
785.339	145.154
789.195	148.578
793.048	32.73
796.9	189.693
800.75	144.895
804.598	177.303
808.445	149.928
812.289	181.781
816.132	221.869
819.973	331.191
823.813	333.752
827.65	277.551
831.486	596.631
835.32	579.918
839.152	771.527
842.983	1095.52
846.812	1474.56
850.639	2011.89
854.464	2809.89
858.288	3937.85
862.11	5445.12
865.93	7975.63
869.748	11002.5
873.564	14657.6
877.379	17329
881.192	16944.7
885.004	13994.7
888.813	10585
892.621	7690.59
896.427	5376.52
900.232	3792.88
904.034	2648.61
907.835	2112.68
911.634	1686.12
915.432	1207.62
919.227	948.406
923.021	627.945
926.813	617.24
930.604	475.584
934.393	496.246
938.18	345.246
941.965	271.562
945.749	392.188
949.53	205.119
953.311	153.318
957.089	305.521
960.866	264.777
964.641	192.252
968.414	165.516
972.185	96.045
975.955	28.834
979.723	1.066
983.49	4.148
987.254	104.336
991.017	2.334
994.779	24.229
998.538	11.377
1002.3	91.02
1006.05	69.998
1009.81	68.822
1013.56	136.924
1017.31	123.291
1021.06	251.598
1024.81	162.633
1028.55	292.654
1032.3	115.301
1036.04	243.885
1039.78	289.146
1043.52	264.152
1047.26	180.996
1050.99	207.418
1054.73	379.406
1058.46	335.727
1062.19	352.934
1065.92	207.143
1069.65	241.951
1073.37	437.615
1077.1	316.365
1080.82	359.639
1084.54	337.328
1088.26	213.773
1091.97	180.078
1095.69	234.865
1099.4	179.883
1103.12	155.693
1106.83	240.668
1110.54	241.629
1114.24	296.764
1117.95	212.359
1121.65	538.262
1125.35	299.48
1129.06	71.725
1132.75	19.717
1136.45	40.805
1140.15	82.928
1143.84	61.289
1147.53	54.494
1151.22	8.623
1154.91	53.521
1158.6	386.848
1162.28	83.68
1165.97	58.512
1169.65	23.211
1173.33	19.75
1177.01	258.617
1180.69	12.854
1184.36	47.352
1188.04	136.906
1191.71	150.814
1195.38	225.305
1199.05	189.623
1202.71	4.758
1206.38	153.684
1210.04	38.553
1213.71	11.793
1217.37	208.744
1221.03	163.619
1224.68	226.186
1228.34	197.688
1231.99	199.354
1235.65	244.893
1239.3	259.982
1242.95	344.625
1246.59	251.016
1250.24	133.164
1253.88	198.062
1257.53	224.949
1261.17	109.936
1264.81	124.717
1268.45	233.99
1272.08	204.898
1275.72	216.502
1279.35	354.855
1282.98	292.551
1286.61	302.828
1290.24	199.604
1293.87	164.361
1297.49	167.082
1301.11	193.715
1304.73	2.648
1308.36	56.049
1311.97	18.73
1315.59	42.504
1319.2	145.061
1322.82	53.629
1326.43	40.893
1330.04	106.914
1333.65	206.299
1337.26	188.598
1340.86	156.771
1344.47	165.143
1348.07	278.977
1351.67	234.711
1355.27	20.85
1358.87	76.385
1362.46	198.98
1366.06	160.395
1369.65	352.324
1373.24	531.318
1376.83	154.76
1380.42	326.229
1384	324.293
1387.59	445.369
1391.17	264.549
1394.75	298.514
1398.33	196.027
1401.91	400.816
1405.49	223.395
1409.06	368.342
1412.64	389.42
1416.21	302.992
1419.78	151.045
1423.35	241.488
1426.91	214.656
1430.48	199.74
1434.05	182.73
1437.61	189.055
1441.17	210.73
1444.73	271.537
1448.29	129.322
1451.84	262.121
1455.4	157.727
1458.95	129.486
1462.5	87.203
1466.05	153.025
1469.6	200.805
1473.15	292.871
1476.69	118.748
1480.24	261.457
1483.78	206.25
1487.32	62.453
1490.86	48.746
1494.39	4.176
1497.93	129.67
1501.46	13.701
1505	5.525
