Measurement: Raman, 514 nm, ccw, Raman Data Processed
Mineral: Ferberite
Rruff sample: R050090
Ideal chemistry: Fe^2+^WO_4_
Locality: Yaogangxian mine, Cheng Zhu City, South Hunan, China
Source: Rock Currier
Description: Dark gray tabular crystal
Measured chemistry: (Fe^2+^_0.56_Mn_0.44_)W_1.00_O_4_
Pin_id: L01369
Orientation: Laser parallel to c* (0 0 1). Fiducial mark perpendicular to laser is parallel to -a [-1 0 0]
Raman shift (cm-1)	intensity
98.416	0
103.349	23.4614
108.28	1386.7
113.208	515.37
118.134	1570.53
123.058	3623.91
127.979	16028
132.898	13298.4
137.814	6695.47
142.728	10224.7
147.639	9182.01
152.549	4225.76
157.455	1599.26
162.359	655.401
167.261	962.073
172.161	1018.25
177.058	818.26
181.952	651.841
186.845	949.221
191.734	1250.63
196.622	2054.93
201.507	3243.62
206.389	4082.82
211.269	2332.14
216.147	834.159
221.022	305.871
225.895	16.2915
230.765	38.5649
235.633	94.7515
240.498	117.331
245.361	112.286
250.222	77.457
255.08	49.8652
259.936	364.253
264.789	466.287
269.64	565.056
274.488	615.35
279.334	446.041
284.178	241.711
289.019	231.908
293.857	365.811
298.693	409.35
303.527	555.585
308.358	921.246
313.187	1398.12
318.013	2595.17
322.837	4335.04
327.659	4835.96
332.478	3443.83
337.294	2256.62
342.108	1476.27
346.92	1301.79
351.729	925.176
356.535	886.432
361.34	805.555
366.141	832.097
370.94	828.835
375.737	887.88
380.531	917.453
385.323	1351.86
390.113	2278.53
394.9	4502.38
399.684	4902.68
404.466	2309.4
409.245	1066.12
414.022	595.594
418.797	328.823
423.569	89.814
428.338	23.2212
433.105	41.0596
437.87	41.6406
442.632	1.3457
447.391	18.4766
452.149	96.6553
456.903	227.737
461.655	151.799
466.405	97.4185
471.152	177.036
475.897	144.645
480.639	244.232
485.378	230.801
490.116	466.354
494.85	554.896
499.582	725.433
504.312	1043.96
509.039	1316.5
513.764	1394.1
518.486	1456
523.206	1778.39
527.923	2214.35
532.638	2572.19
537.35	2754.92
542.059	2454.34
546.766	2034.96
551.471	1516.64
556.173	857.356
560.873	531.127
565.57	334.96
570.264	150.789
574.957	96.0073
579.646	66.5938
584.333	9.14697
589.018	55.0752
593.7	19.4336
598.379	3.62695
603.056	78.3848
607.73	98.5908
612.402	105.696
617.072	305.176
621.739	485.763
626.403	537.458
631.065	811.268
635.724	895.193
640.381	787.239
645.035	659.407
649.687	450.702
654.336	386.125
658.983	371.675
663.627	408.349
668.268	535.139
672.907	704.034
677.544	891.037
682.178	1062.21
686.809	1467.48
691.438	1580.94
696.065	1542.58
700.688	1275.46
705.31	880.463
709.929	755.564
714.545	604.787
719.158	293.078
723.77	179.298
728.378	71.9482
732.984	51.6641
737.588	82.4575
742.189	47.2246
746.787	61.9463
751.383	3.78027
755.976	188.757
760.567	373.897
765.155	572.198
769.741	661.662
774.324	659.29
778.904	621.083
783.482	695.043
788.058	665.172
792.631	464.47
797.201	510.459
801.769	596.569
806.334	569.371
810.897	680.341
815.457	634.816
820.014	711.517
824.569	943.629
829.122	1122.24
833.671	1386.72
838.219	1669.37
842.763	2217.4
847.306	2859.6
851.845	3860.55
856.382	5572.89
860.917	8143.94
865.448	12396.2
869.978	20122.1
874.505	33229.5
879.029	46622.8
883.55	44197.8
888.069	27397.7
892.586	14049.4
897.1	7001.27
901.611	4125.3
906.12	2366.45
910.626	1456.78
915.129	998.335
919.63	660.104
924.129	446.172
928.625	339.066
933.118	190.249
937.609	112.54
942.097	125.926
946.582	74.439
951.065	24.0249
955.546	1.44727
960.023	32.082
964.499	80.7065
968.971	37.5405
973.441	2.55322
977.909	48.7812
982.374	42.4917
986.836	78.5908
991.295	103.708
995.753	82.8687
1000.21	12.3008
1004.66	56.2925
1009.11	12.3301
1013.55	66.5298
1018	96.5688
1022.44	49.0708
1026.88	70.8223
1031.32	60.4243
1035.75	84.9287
1040.18	184.388
1044.61	57.4316
1049.04	190.722
1053.46	251.755
1057.88	195.644
1062.3	296.83
1066.71	210.233
1071.13	240.173
1075.54	202.123
1079.94	214.901
1084.35	314.149
1088.75	318.798
1093.15	342.3
1097.55	210.587
1101.94	139.792
1106.34	162.951
1110.73	257.19
1115.11	109.163
1119.5	170.466
1123.88	227.017
1128.26	104.106
1132.63	224.654
1137.01	222.77
1141.38	85.7686
1145.75	66.2891
1150.12	51.8774
1154.48	92.5293
1158.84	13.0024
1163.2	43.3755
1167.55	71.6733
1171.91	55.8916
1176.26	20.9268
1180.61	44.5723
1184.95	56.5786
1189.29	9.93945
1193.63	102.191
1197.97	5.61035
1202.31	56.6416
1206.64	108.591
1210.97	80.9321
1215.29	64.7622
1219.62	23.5811
1223.94	86.1318
1228.26	105.967
1232.57	163.898
1236.89	101.867
1241.2	88.8101
1245.51	94.5405
1249.81	60.373
1254.12	22.6939
1258.42	6.14453
1262.72	132.157
1267.01	95.9849
1271.3	32.4507
1275.59	100.184
1279.88	78.9619
1284.17	106.18
1288.45	80.3657
1292.73	69.2915
1297.01	115.698
1301.28	151.173
1305.55	12.9932
1309.82	49.6934
1314.09	17.5278
1318.35	19.0205
1322.61	103.079
1326.87	58.9053
1331.13	94.2681
1335.38	57.605
1339.63	48.9746
1343.88	30.3882
1348.12	61.8042
1352.37	92.5078
1356.61	41.1279
1360.85	52.5073
1365.08	67.9717
1369.31	51.8833
1373.54	66.8179
1377.77	3.17871
1381.99	91.0996
1386.22	6.55273
1390.43	20.8936
1394.65	20.9668
1398.87	61.6943
1403.08	2.29981
1407.29	77.2822
1411.49	7.04883
1415.69	20.9043
1419.89	47.5625
1424.09	44.0532
1428.29	156.511
1432.48	210.286
1436.67	86.0508
1440.86	194.024
1445.04	84.5264
1449.23	104.942
1453.4	118.627
1457.58	97.2793
1461.76	110.636
1465.93	179.348
1470.1	130.074
1474.26	147.954
1478.43	49.1885
1482.59	152.169
1486.75	139.44
1490.9	78.5317
1495.06	162.785
1499.21	123.702
1503.35	71.7031
1507.5	199.785
1511.64	178.103
1515.78	111.895
1519.92	188.111
1524.05	124.806
1528.18	167.904
1532.31	169.385
1536.44	251.605
1540.56	173.363
1544.69	327.021
1548.8	324.646
1552.92	249.9
1557.03	316.131
1561.14	341.255
1565.25	475.532
1569.36	322.192
