Measurement: Raman, 514 nm, ccw, Raman Data Processed
Mineral: Ferberite
Rruff sample: R040044
Ideal chemistry: Fe^2+^WO_4_
Locality: Chocote, Bolivia
Source: University of Arizona Mineral Museum
Description: Black tabular single crystal
Measured chemistry: (Fe_0.82_Mn_0.08_Mg_0.07_Pb_0.03_)_Î£=1_W_1.00_O_4_
Pin_id: L01748
Orientation: Laser parallel to (1 0 1). Fiducial mark perpendicular to laser is parallel to b [0 1 0]
Raman shift (cm-1)	intensity
99.344	0
104.293	286.897
109.239	3547.39
114.182	2300.95
119.123	1788.31
124.061	2755.92
128.997	6014.97
133.93	14157.1
138.86	5294.86
143.788	545.039
148.713	36.5156
153.636	95.1523
158.556	66.4453
163.473	406.785
168.388	232.113
173.3	461.957
178.21	835.348
183.117	729.312
188.021	1202.07
192.923	1582.73
197.822	2389.36
202.718	3032.68
207.612	1782.42
212.504	2296.72
217.392	1533.3
222.279	620.158
227.162	202.338
232.043	186.871
236.921	73.209
241.797	44.2207
246.67	127.932
251.54	215.424
256.408	45.5703
261.274	391.674
266.136	57.6875
270.996	24.6113
275.854	287.08
280.709	124.35
285.561	260.441
290.41	215.057
295.257	377.56
300.102	599.287
304.944	733.848
309.783	856.856
314.619	1222.36
319.453	2275.56
324.285	3685.2
329.113	5030.81
333.939	5037.77
338.763	3922.22
343.584	2529.12
348.402	1774.44
353.218	1196.14
358.031	1172.24
362.841	973.769
367.649	781.717
372.454	753.766
377.257	599.598
382.057	688.381
386.854	1057.17
391.649	1308.69
396.441	2377.44
401.231	4173.89
406.018	3683.54
410.802	1876.1
415.584	1090.39
420.363	501.69
425.139	372.432
429.913	233.539
434.684	428.287
439.453	401.182
444.219	556.656
448.982	481.795
453.743	337.16
458.501	541.508
463.257	426.594
468.01	545.703
472.76	751.482
477.508	734.326
482.253	953.318
486.996	1097.52
491.736	1188.59
496.473	1393.16
501.207	1310.38
505.94	1808.98
510.669	1951.46
515.396	2119.56
520.12	2545.73
524.842	2846.1
529.561	3516.59
534.277	3669.93
538.991	3682.62
543.702	3370.29
548.41	2980.94
553.116	2539.09
557.819	2187.26
562.52	2067.89
567.218	1706.97
571.913	1434.47
576.606	892.434
581.296	667.834
585.984	377.67
590.669	299.935
595.351	133.68
600.031	53.8164
604.708	52.5371
609.383	65.5352
614.055	203.139
618.724	108.936
623.391	138.098
628.055	23.9375
632.716	96.3262
637.375	192.103
642.031	4.78906
646.685	118.475
651.335	117.33
655.984	82.7754
660.63	40.8438
665.273	9.79297
669.913	504.016
674.551	448.602
679.186	839.539
683.819	1166.81
688.449	1285.42
693.076	1903.36
697.701	1606.63
702.323	1218.3
706.943	969.352
711.56	771.787
716.174	497.647
720.786	421.9
725.395	250.766
730.001	256.269
734.605	261.682
739.206	86.7422
743.805	9.83789
748.401	142.082
752.995	103.301
757.585	159.232
762.173	211.432
766.759	285.207
771.342	435.522
775.922	374.207
780.5	398.481
785.075	497.697
789.648	358.072
794.217	311.484
798.785	476.994
803.349	579.135
807.911	703.623
812.471	511.545
817.027	909.9
821.582	822.691
826.133	945.916
830.682	1303.57
835.228	1423.99
839.772	1918.6
844.313	2636.33
848.852	3480.27
853.387	4382.5
857.921	6378.26
862.451	9113.4
866.979	14544.9
871.505	22696.6
876.028	32113
880.548	35344.3
885.065	28971.9
889.58	19821.4
894.093	12345.1
898.602	7128.56
903.109	4285.58
907.614	2952
912.116	1577.79
916.615	1270.02
921.112	822.764
925.606	680.137
930.097	252.078
934.586	332.734
939.072	326.955
943.556	210.565
948.037	279.547
952.515	105.881
956.991	202.555
961.464	100.609
965.934	262.086
970.402	245.875
974.867	229.873
979.33	12.0703
983.79	16.457
988.248	19.0898
992.702	85.1777
997.155	107.83
1001.6	178.74
1006.05	185.182
1010.5	122.912
1014.94	195.986
1019.38	117.373
1023.81	228.07
1028.25	90.8574
1032.68	103.064
1037.11	377.502
1041.53	597.168
1045.96	284.059
1050.38	153.168
1054.8	282.486
1059.21	258.416
1063.62	464.143
1068.04	428.75
1072.44	596.836
1076.85	517.596
1081.25	431.922
1085.65	478.519
1090.05	502.279
1094.44	442.16
1098.84	728.619
1103.22	154.412
1107.61	712.379
1112	453.719
1116.38	460.996
1120.76	401.941
1125.13	455.76
1129.51	464.121
1133.88	258.828
1138.25	137.769
1142.61	139.668
1146.98	253.184
1151.34	318.815
1155.7	218.559
1160.05	124.85
1164.4	161.674
1168.76	99.5957
1173.1	146.615
1177.45	364.732
1181.79	366.935
1186.13	2.22266
1190.47	124.826
1194.8	110.352
1199.14	328.514
1203.46	0.882813
1207.79	3.70703
1212.12	142.727
1216.44	237.725
1220.76	264.557
1225.08	46.9688
1229.39	137.522
1233.7	263.152
1238.01	162.887
1242.32	48.6562
1246.62	324.967
1250.92	98.916
1255.22	170.022
1259.51	9.49023
1263.81	161.816
1268.1	78.5918
1272.38	81.8613
1276.67	274.342
1280.95	274.863
1285.23	280.832
1289.51	60.6309
1293.79	142.242
1298.06	247.861
1302.33	268.065
1306.6	74.7051
1310.86	105.346
1315.12	53.582
1319.38	29.2227
1323.64	1.14258
1327.89	230.805
1332.14	332.949
1336.39	145.805
1340.64	51.6641
1344.88	101.978
1349.12	218.435
1353.36	232.613
1357.6	300.951
1361.83	292.434
1366.06	175.94
1370.29	206.027
1374.52	206.062
1378.74	174.945
1382.96	58.3203
1387.18	18.2461
1391.39	109.57
1395.61	317.603
1399.82	291.346
1404.02	79.0898
1408.23	20.9531
1412.43	198.473
1416.63	148.305
1420.83	198.336
1425.02	231.307
1429.21	223.17
1433.4	81.5723
1437.59	203.908
1441.77	230.305
1445.95	245.398
1450.13	227.133
1454.31	271.701
1458.48	265.201
1462.65	166.832
1466.82	211.414
1470.99	289.018
1475.15	102.35
1479.31	119.621
1483.47	252.496
1487.63	206.148
1491.78	351.18
1495.93	10.2129
1500.08	279.58
1504.22	282.506
1508.37	158.693
1512.51	337.103
1516.64	107.818
1520.78	503.754
1524.91	419.127
1529.04	310.822
1533.17	320.15
1537.29	231.772
1541.41	264.779
1545.53	286.006
1549.65	288.787
1553.77	1009.04
1557.88	126.572
1561.99	88.9648
1566.09	84.9668
1570.2	0
