Measurement: Raman, 514 nm, ccw, Raman Data Processed
Mineral: Ferberite
Rruff sample: R050632
Ideal chemistry: Fe^2+^WO_4_
Locality: Chance mine, Boulder, Colorado, USA
Source: University of Arizona Mineral Museum
Description: Dark brown rectangular prismatic crystals
Measured chemistry: Fe^2+^_1.00_WO_4_
Pin_id: L00968
Orientation: Laser parallel to c* (0 0 1). Fiducial mark perpendicular to laser is parallel to a [1 0 0]
Raman shift (cm-1)	intensity
156.229	0
161.134	51.7471
166.036	592.219
170.936	1036
175.834	1349.57
180.729	1170.64
185.622	1034.55
190.512	1248
195.4	1935.06
200.286	2798.93
205.169	3589.26
210.049	1651.69
214.928	951.226
219.803	390.331
224.677	113.863
229.548	78.3667
234.416	92.3726
239.282	134.562
244.146	65.5674
249.007	254.173
253.866	360.063
258.722	663.014
263.576	664.684
268.427	850.282
273.276	1061.9
278.123	853.945
282.967	381.301
287.809	274.457
292.648	335.301
297.485	470.604
302.319	348.002
307.151	143.111
311.98	190.963
316.807	442.261
321.631	672.158
326.454	901.629
331.273	849.555
336.09	669.007
340.905	565.591
345.717	642.54
350.527	537.873
355.334	300.266
360.139	365.147
364.941	260.248
369.741	298.789
374.538	249.431
379.333	379.538
384.126	278.182
388.916	689.843
393.703	1200.47
398.488	1741.67
403.271	1197.69
408.051	480.528
412.828	290.189
417.603	187.694
422.376	97.0571
427.146	138.264
431.914	67.3086
436.679	54.8911
441.442	69.0176
446.202	86.0644
450.96	7.46729
455.715	10.9053
460.467	4.24316
465.218	89.0376
469.965	74.0957
474.711	179.039
479.454	32.939
484.194	52.3984
488.932	96.5796
493.667	127.516
498.4	341.233
503.13	344.733
507.858	385.017
512.583	312.005
517.306	357.942
522.026	554.895
526.744	516.221
531.459	573.234
536.172	642.274
540.882	510.133
545.59	501.812
550.295	344.316
554.998	379.653
559.698	275.831
564.396	300.607
569.091	277.625
573.784	169.56
578.474	163.464
583.162	138.113
587.847	0.921387
592.529	60.4038
597.209	13.5273
601.887	17.7266
606.562	28.1592
611.235	62.1211
615.905	50.9385
620.572	42.5029
625.237	92.1387
629.9	45.5654
634.56	71.585
639.217	175.673
643.872	253.838
648.524	362.094
653.174	538.451
657.821	724.921
662.466	1163.51
667.108	1458.23
671.748	2143.08
676.385	2955.07
681.02	3831.22
685.652	4415.53
690.281	4429.06
694.908	3613.93
699.533	2578.05
704.155	1903.53
708.774	1454.35
713.391	967.484
718.005	770.074
722.617	316.507
727.226	300.328
731.833	455.16
736.437	162.654
741.039	179.448
745.638	17.4414
750.234	206.568
754.828	203.628
759.419	212.567
764.008	284.358
768.595	415.562
773.178	315.178
777.759	277.2
782.338	360.64
786.914	280.5
791.488	226.786
796.059	265.502
800.627	158.65
805.193	259.419
809.756	242.262
814.317	234.732
818.875	290.651
823.431	371.021
827.984	471.552
832.534	843.307
837.082	1158.15
841.627	1530.47
846.17	2630.65
850.71	3120.56
855.248	4504.01
859.783	6957.91
864.316	10581.3
868.846	16342.3
873.373	20806
877.898	18610.5
882.42	12022.2
886.94	7060.66
891.457	4309.5
895.971	2634.77
900.483	1733.41
904.993	1212.49
909.5	866.089
914.004	668.088
918.505	432.466
923.004	509.993
927.501	326.056
931.995	399.495
936.486	390.54
940.975	426.454
945.461	305.892
949.945	251.623
954.426	187.675
958.904	162.033
963.38	21.4971
967.853	19.9531
972.324	111.459
976.792	5.99609
981.258	12.5557
985.72	18.1289
990.181	182.779
994.639	175.558
999.094	136.546
1003.55	470.165
1008	3.92773
1012.44	79.5088
1016.89	54.4482
1021.33	65.5098
1025.77	84.3906
1030.21	167.198
1034.64	215.55
1039.07	244.645
1043.5	287.664
1047.93	278.998
1052.35	284.375
1056.78	297.272
1061.19	318.832
1065.61	400.134
1070.02	338.275
1074.43	331.074
1078.84	366.121
1083.25	298.509
1087.65	355.376
1092.05	376.342
1096.45	380.451
1100.85	275.711
1105.24	228.208
1109.63	370.146
1114.02	312.312
1118.4	116.648
1122.78	287.647
1127.16	317.385
1131.54	364.695
1135.92	55.0605
1140.29	132.768
1144.66	11.416
1149.02	99.7275
1153.39	30.29
1157.75	138.947
1162.11	14.1533
1166.46	18.1211
1170.82	50.667
1175.17	15.2168
1179.52	14.2754
1183.86	65.9346
1188.21	144.586
1192.55	151.839
1196.89	73.6826
1201.22	1.17773
1205.55	102.439
1209.88	154.792
1214.21	40.0469
1218.54	25.043
1222.86	82.5449
1227.18	138.273
1231.5	123.949
1235.81	25.5381
1240.12	220.114
1244.43	75.6621
1248.74	149.081
1253.04	113.382
1257.34	15.4688
1261.64	133.435
1265.94	72.4756
1270.23	97.7529
1274.52	101.538
1278.81	88.6904
1283.1	98.0186
1287.38	85.7598
1291.66	74.7158
1295.94	127.713
1300.21	123.269
1304.48	97.1875
1308.75	256.822
1313.02	40.9805
1317.29	142.053
1321.55	103.362
1325.81	164.117
1330.06	155.53
1334.32	170.887
1338.57	169.217
1342.82	130.526
1347.06	2.85352
1351.31	269.316
1355.55	272.898
1359.79	230.219
1364.02	114.073
1368.26	58.3223
1372.49	220.19
1376.71	148.433
1380.94	250.639
1385.16	148.403
1389.38	66.3291
1393.6	301.74
1397.81	181.06
1402.02	175.799
1406.23	114.647
1410.44	32.1045
1414.64	158.977
1418.85	137.661
1423.04	79.7051
1427.24	83.7383
1431.43	90.041
1435.62	117.067
1439.81	41.2353
1444	77.4453
1448.18	189.704
1452.36	70.8408
1456.54	108.033
1460.71	8.73145
1464.89	31.2822
1469.06	24.833
1473.22	95.8779
1477.39	166.931
1481.55	23.7227
1485.71	96.0195
1489.86	70.1055
1494.02	17.79
1498.17	107.589
1502.32	144.689
1506.46	103.556
1510.61	148.534
1514.75	129.357
1518.88	273.547
1523.02	133.388
1527.15	153.891
1531.28	48.5361
1535.41	23.1885
1539.53	158.387
1543.66	195.842
1547.78	165.235
1551.89	2.12695
1556.01	184.302
1560.12	228.588
1564.23	286.483
1568.33	2.12988
