Measurement: Raman, 514 nm, ccw, Raman Data Processed
Mineral: Ferberite
Rruff sample: R050090
Ideal chemistry: Fe^2+^WO_4_
Locality: Yaogangxian mine, Cheng Zhu City, South Hunan, China
Source: Rock Currier
Description: Dark gray tabular crystal
Measured chemistry: (Fe^2+^_0.56_Mn_0.44_)W_1.00_O_4_
Pin_id: L01304
Orientation: Laser parallel to -b* (0 -1 0). Fiducial mark perpendicular to laser is parallel to c [0 0 1]
Raman shift (cm-1)	intensity
98.416	0
103.349	234.508
108.28	3520.33
113.208	3256.76
118.134	4032.16
123.058	2624.05
127.979	3052.07
132.898	2597.75
137.814	781.185
142.728	374.324
147.639	102.681
152.549	305.662
157.455	203.317
162.359	18.749
167.261	669.702
172.161	449.327
177.058	297.603
181.952	609.507
186.845	726.99
191.734	934.81
196.622	1300.3
201.507	1735.65
206.389	1030.87
211.269	103.827
216.147	184.432
221.022	10.748
225.895	89.8047
230.765	44.498
235.633	35.8887
240.498	64.1484
245.361	118.299
250.222	121.047
255.08	246.834
259.936	573.277
264.789	648.828
269.64	619.918
274.488	366.82
279.334	392.734
284.178	158.268
289.019	271.596
293.857	164.711
298.693	47.459
303.527	100.215
308.358	79.9121
313.187	173.346
318.013	239.986
322.837	273.209
327.659	503.738
332.478	507.445
337.294	556.137
342.108	409.805
346.92	687.371
351.729	393.856
356.535	648.963
361.34	502.102
366.141	702.096
370.94	508.945
375.737	521.17
380.531	585.148
385.323	963.443
390.113	1395.43
394.9	3028.89
399.684	3743.63
404.466	1997.83
409.245	1154.43
414.022	552.924
418.797	428.344
423.569	324.728
428.338	357.217
433.105	235.348
437.87	237.652
442.632	245.045
447.391	140.574
452.149	281.309
456.903	314.516
461.655	335.658
466.405	253.676
471.152	344.996
475.897	358.633
480.639	395.807
485.378	365.785
490.116	499.859
494.85	465.701
499.582	421.586
504.312	554.748
509.039	480.736
513.764	567.443
518.486	531.693
523.206	778.609
527.923	784.166
532.638	851.543
537.35	800.768
542.059	793.547
546.766	815.65
551.471	675.074
556.173	585.822
560.873	686.481
565.57	578.316
570.264	534.084
574.957	354.213
579.646	222.721
584.333	198.635
589.018	1.04102
593.7	128.455
598.379	8.9668
603.056	134.41
607.73	78.0606
612.402	41.1758
617.072	29.8672
621.739	5.41602
626.403	5.60352
631.065	254.428
635.724	11.1465
640.381	190.59
645.035	244.576
649.687	63.8789
654.336	282.465
658.983	332.361
663.627	564.59
668.268	543.139
672.907	900.004
677.544	1426.18
682.178	1951.65
686.809	2726.44
691.438	2797.52
696.065	2793.9
700.688	2046.64
705.31	1837.76
709.929	1195.17
714.545	797.885
719.158	549.771
723.77	179.426
728.378	117.785
732.984	175.869
737.588	21.4512
742.189	25.0391
746.787	66.0332
751.383	100.732
755.976	229.459
760.567	117.268
765.155	157.287
769.741	48.3398
774.324	63.748
778.904	108.369
783.482	231.746
788.058	229.996
792.631	165.6
797.201	183.481
801.769	137.848
806.334	270.172
810.897	223.988
815.457	415.41
820.014	396.434
824.569	444.18
829.122	692.25
833.671	735.627
838.219	1270.65
842.763	1531.64
847.306	2297.93
851.845	2945.89
856.382	4475.86
860.917	6541.73
865.448	10701.2
869.978	17545.6
874.505	27938.6
879.029	35965.4
883.55	31963
888.069	20459.6
892.586	11175.2
897.1	6238.22
901.611	3761.53
906.12	2317.17
910.626	1606.05
915.129	1160.22
919.63	791.717
924.129	717.467
928.625	543.547
933.118	323.887
937.609	273.5
942.097	321.449
946.582	125.713
951.065	36.293
955.546	63.1699
960.023	158.303
964.499	190.666
968.971	145.25
973.441	211.865
977.909	160.594
982.374	80.5312
986.836	99.6562
991.295	127.807
995.753	19.9004
1000.21	43.0469
1004.66	56.0547
1009.11	17.0254
1013.55	121.309
1018	462.836
1022.44	10.5371
1026.88	98.5137
1031.32	242.67
1035.75	199.975
1040.18	273.572
1044.61	317.853
1049.04	310.582
1053.46	167.451
1057.88	215.481
1062.3	522.357
1066.71	299.539
1071.13	538.68
1075.54	401.74
1079.94	412.471
1084.35	542.529
1088.75	619.342
1093.15	419.307
1097.55	403
1101.94	404.408
1106.34	342.316
1110.73	495.982
1115.11	467.435
1119.5	504.297
1123.88	151.754
1128.26	249.674
1132.63	402.969
1137.01	260.9
1141.38	176.17
1145.75	217.867
1150.12	286.967
1154.48	152.103
1158.84	227.459
1163.2	165.969
1167.55	42.5078
1171.91	30.3691
1176.26	246.074
1180.61	103.43
1184.95	32.834
1189.29	37.9375
1193.63	224.758
1197.97	28.5332
1202.31	82.5606
1206.64	19.3965
1210.97	121.471
1215.29	28.0332
1219.62	30.1406
1223.94	11.4629
1228.26	124.934
1232.57	76
1236.89	83.1289
1241.2	192.223
1245.51	154.277
1249.81	6.2832
1254.12	15.3887
1258.42	141.478
1262.72	28.6914
1267.01	125.033
1271.3	16.6914
1275.59	171.764
1279.88	146.045
1284.17	172.037
1288.45	187.856
1292.73	116.684
1297.01	97.4805
1301.28	210.055
1305.55	206.861
1309.82	134.482
1314.09	120.519
1318.35	238.703
1322.61	174.123
1326.87	75.9844
1331.13	226.603
1335.38	127.701
1339.63	138.57
1343.88	139.223
1348.12	33.1484
1352.37	50.3223
1356.61	107.039
1360.85	274.315
1365.08	205.959
1369.31	274.906
1373.54	265.445
1377.77	96.2617
1381.99	140.426
1386.22	190.268
1390.43	180.924
1394.65	139.867
1398.87	155.809
1403.08	200.662
1407.29	117.305
1411.49	229.846
1415.69	104.475
1419.89	263.674
1424.09	156.803
1428.29	137.609
1432.48	218.303
1436.67	214.695
1440.86	191.211
1445.04	226.461
1449.23	257.582
1453.4	157.141
1457.58	90.8769
1461.76	280.207
1465.93	78.9961
1470.1	82.5488
1474.26	178.273
1478.43	173.695
1482.59	193.58
1486.75	58.375
1490.9	149.742
1495.06	283.231
1499.21	122.127
1503.35	65.0879
1507.5	277.637
1511.64	95.0117
1515.78	59.9023
1519.92	191.078
1524.05	94.7324
1528.18	200.049
1532.31	133.06
1536.44	20.6758
1540.56	41.7344
1544.69	156.898
1548.8	146.623
1552.92	181.625
1557.03	58.4082
1561.14	160.09
1565.25	19.4141
1569.36	52.5117
