Measurement: Raman, 514 nm, ccw, Raman Data Processed
Mineral: Ferberite
Rruff sample: R050090
Ideal chemistry: Fe^2+^WO_4_
Locality: Yaogangxian mine, Cheng Zhu City, South Hunan, China
Source: Rock Currier
Description: Dark gray tabular crystal
Measured chemistry: (Fe^2+^_0.56_Mn_0.44_)W_1.00_O_4_
Pin_id: L01304
Orientation: Laser parallel to -b* (0 -1 0). Fiducial mark perpendicular to laser is parallel to c [0 0 1]
Raman shift (cm-1)	intensity
98.416	0
103.349	15.4277
108.28	1576.53
113.208	2302.78
118.134	3764.52
123.058	3900.37
127.979	4786.02
132.898	2110.15
137.814	1034.85
142.728	444.76
147.639	227.664
152.549	163.49
157.455	12.7715
162.359	195.174
167.261	177.6
172.161	676.748
177.058	569.174
181.952	650.998
186.845	773.521
191.734	1590.11
196.622	2810.59
201.507	5150.62
206.389	4229.99
211.269	2194.02
216.147	1002.87
221.022	232.516
225.895	174.951
230.765	69.8047
235.633	9.17969
240.498	116.881
245.361	87.8535
250.222	381.707
255.08	711.729
259.936	647.852
264.789	451.859
269.64	200.457
274.488	115.961
279.334	54.334
284.178	159.4
289.019	278.453
293.857	516.697
298.693	663.133
303.527	1053.56
308.358	2189.53
313.187	3922.86
318.013	7307.52
322.837	9910.65
327.659	8882.92
332.478	6464.17
337.294	4111.82
342.108	2369.16
346.92	1705.43
351.729	1402.65
356.535	720.863
361.34	617.062
366.141	374.435
370.94	391.746
375.737	243.318
380.531	112.727
385.323	179.859
390.113	404.43
394.9	460.949
399.684	365.658
404.466	224.023
409.245	102.115
414.022	163.35
418.797	13.7363
423.569	107.728
428.338	126.441
433.105	160.527
437.87	339.328
442.632	184.908
447.391	330.414
452.149	326.805
456.903	255.361
461.655	415.115
466.405	275.853
471.152	332.211
475.897	356.553
480.639	274.283
485.378	291.512
490.116	267.889
494.85	351.383
499.582	395.947
504.312	565.639
509.039	586.438
513.764	479.33
518.486	654.832
523.206	876.949
527.923	959.354
532.638	983.731
537.35	1255.82
542.059	1231.5
546.766	1033.31
551.471	680.268
556.173	685.383
560.873	618.693
565.57	618.473
570.264	541.436
574.957	299.727
579.646	144.219
584.333	54.123
589.018	85.3613
593.7	107.381
598.379	96.3477
603.056	113.022
607.73	62.6113
612.402	17.1484
617.072	225.195
621.739	88.0918
626.403	96.3398
631.065	86.7676
635.724	0.322266
640.381	185.998
645.035	94.8301
649.687	205.82
654.336	211.969
658.983	27.9883
663.627	527.438
668.268	562.066
672.907	733.803
677.544	1230.67
682.178	2144.67
686.809	2677.81
691.438	3354.08
696.065	3551.51
700.688	2945.08
705.31	2258.79
709.929	1478.68
714.545	852.762
719.158	606.053
723.77	419.754
728.378	320.477
732.984	230.227
737.588	267.109
742.189	105.068
746.787	43.2168
751.383	37.0586
755.976	86.1269
760.567	47.5898
765.155	72.8867
769.741	188.699
774.324	59.5215
778.904	145.525
783.482	115.738
788.058	121.17
792.631	9.17969
797.201	76.4805
801.769	340.465
806.334	17.6406
810.897	235.035
815.457	334.66
820.014	354.523
824.569	751.621
829.122	455.963
833.671	539.547
838.219	1015.37
842.763	1092.47
847.306	1712.17
851.845	2320.31
856.382	3563.79
860.917	5814.78
865.448	9302.32
869.978	15363.7
874.505	26176.2
879.029	40052.2
883.55	39370.5
888.069	24090.1
892.586	12072.3
897.1	6378.29
901.611	3807.58
906.12	2565.18
910.626	1494.09
915.129	1047.34
919.63	798.871
924.129	765.682
928.625	355.201
933.118	259.463
937.609	433.342
942.097	225.09
946.582	141.435
951.065	190.111
955.546	178.055
960.023	172.268
964.499	90.7461
968.971	124.478
973.441	0.544922
977.909	73.1387
982.374	208.312
986.836	79.8711
991.295	44.3887
995.753	90.4785
1000.21	93.418
1004.66	16.2637
1009.11	32.0684
1013.55	106.641
1018	117.51
1022.44	183.728
1026.88	218.361
1031.32	239.133
1035.75	321.742
1040.18	272.014
1044.61	335.119
1049.04	327.303
1053.46	261.154
1057.88	378.889
1062.3	426.865
1066.71	260.26
1071.13	333.406
1075.54	343.977
1079.94	499.477
1084.35	309.685
1088.75	576.852
1093.15	356.602
1097.55	287.076
1101.94	364.861
1106.34	315.477
1110.73	281.84
1115.11	383.66
1119.5	358.992
1123.88	470.059
1128.26	516.158
1132.63	127.826
1137.01	275.94
1141.38	168.361
1145.75	266.728
1150.12	111.957
1154.48	84.6035
1158.84	382.102
1163.2	154.572
1167.55	90.0488
1171.91	230.035
1176.26	230.428
1180.61	36.8203
1184.95	33.625
1189.29	17.4902
1193.63	78.8594
1197.97	123.916
1202.31	76.4336
1206.64	96.5527
1210.97	97.7871
1215.29	238.598
1219.62	9.37109
1223.94	80.7168
1228.26	289.633
1232.57	150.617
1236.89	66.5019
1241.2	262.025
1245.51	208.447
1249.81	56.084
1254.12	237.236
1258.42	50.0293
1262.72	160.281
1267.01	64.7773
1271.3	149.787
1275.59	54.9453
1279.88	39.0898
1284.17	183.959
1288.45	202.666
1292.73	201.494
1297.01	311.627
1301.28	175.586
1305.55	305.891
1309.82	229.318
1314.09	151.623
1318.35	173.297
1322.61	107.295
1326.87	34.832
1331.13	85.8144
1335.38	184.752
1339.63	108.869
1343.88	216.264
1348.12	304.295
1352.37	119.705
1356.61	113.951
1360.85	137.935
1365.08	152.117
1369.31	134.244
1373.54	106.402
1377.77	22.9141
1381.99	298.725
1386.22	191.363
1390.43	203.99
1394.65	200.217
1398.87	114.414
1403.08	43.875
1407.29	121.592
1411.49	167.033
1415.69	52.3867
1419.89	288.211
1424.09	65.166
1428.29	47.084
1432.48	29.3867
1436.67	69.2832
1440.86	154.404
1445.04	236.135
1449.23	32.248
1453.4	195.971
1457.58	73.5527
1461.76	34.5215
1465.93	97.1504
1470.1	364.053
1474.26	179.748
1478.43	199.367
1482.59	269.185
1486.75	191.916
1490.9	187.658
1495.06	33.5859
1499.21	196.31
1503.35	124.232
1507.5	86.375
1511.64	146.781
1515.78	8.01758
1519.92	341.586
1524.05	249.465
1528.18	154.514
1532.31	390.644
1536.44	141.492
1540.56	36.9824
1544.69	300.037
1548.8	230.246
1552.92	613.135
1557.03	463.832
1561.14	68.1348
1565.25	195.397
1569.36	0.777344
