Measurement: Raman, 514 nm, ccw, Raman Data Processed
Mineral: Ferberite
Rruff sample: R040044
Ideal chemistry: Fe^2+^WO_4_
Locality: Chocote, Bolivia
Source: University of Arizona Mineral Museum
Description: Black tabular single crystal
Measured chemistry: (Fe_0.82_Mn_0.08_Mg_0.07_Pb_0.03_)_Î£=1_W_1.00_O_4_
Pin_id: L01748
Orientation: Laser parallel to (1 0 1). Fiducial mark perpendicular to laser is parallel to b [0 1 0]
Raman shift (cm-1)	intensity
96.519	0
101.503	22.7617
106.484	5355.77
111.462	2923.75
116.437	4013.35
121.409	1031.84
126.377	70.8359
131.343	433.07
136.305	544.971
141.264	454.84
146.22	9.83203
151.173	117.064
156.123	397.207
161.069	349.578
166.013	812.875
170.953	967.109
175.89	869.691
180.825	774.062
185.756	1108.1
190.683	1660.51
195.608	2405.12
200.53	3239.01
205.449	1640.42
210.364	1996.24
215.277	2039.95
220.186	1509.5
225.092	660.971
229.996	313.307
234.896	119.656
239.793	16.127
244.687	77.0293
249.578	23.5645
254.466	228.424
259.351	69.6856
264.233	493.445
269.112	1047.88
273.988	1144.03
278.86	1299.24
283.73	761.166
288.597	625.193
293.461	118.326
298.321	199.096
303.179	78.7695
308.034	162.69
312.885	141.154
317.734	87.7773
322.58	68.4375
327.422	73.1543
332.262	156.945
337.099	158.734
341.932	219.551
346.763	199.67
351.591	233.799
356.416	22.9277
361.238	175.805
366.056	142.603
370.872	229.492
375.685	88.3242
380.495	217.031
385.302	59.3066
390.106	129.633
394.908	236.992
399.706	544.93
404.501	735.879
409.294	777.5
414.083	336.223
418.869	255.051
423.653	330.99
428.434	87.0508
433.211	185.238
437.986	430.629
442.758	79.1602
447.527	155.195
452.293	175.731
457.057	356.238
461.817	620.234
466.575	606.934
471.329	601.602
476.081	577.707
480.83	779.691
485.576	766.977
490.319	776.199
495.059	637.805
499.796	986.891
504.531	942.809
509.262	1240.02
513.991	1384.68
518.717	1118.7
523.44	1056
528.161	1329.69
532.878	1541.9
537.593	1652.61
542.304	1624.91
547.013	1551.84
551.719	1887.1
556.423	1638.69
561.123	1568.63
565.821	1640.94
570.516	1327.61
575.208	1431.66
579.897	524.117
584.583	442.977
589.267	171.238
593.948	10.0547
598.626	13.0195
603.301	150.852
607.974	62.582
612.644	15.8984
617.311	18.8125
621.975	213.742
626.636	156.863
631.295	82.9844
635.951	36.6523
640.604	114.133
645.254	117.32
649.902	23.0195
654.547	445.106
659.189	594.785
663.828	596
668.465	1022.75
673.099	1524.06
677.73	2228
682.359	3460.53
686.984	4843.62
691.607	6327.27
696.228	7343.48
700.845	6405.31
705.46	5213.83
710.072	4057.23
714.682	2946.69
719.288	2008.92
723.893	1484.77
728.494	1065.79
733.093	805.988
737.689	674.996
742.282	582.641
746.873	513.422
751.461	297.453
756.046	256.547
760.628	91.3594
765.208	573.848
769.786	211.109
774.36	365.203
778.932	365.016
783.502	510.375
788.068	451.199
792.632	28.8828
797.194	46.9609
801.752	148.844
806.309	254.391
810.862	193.324
815.413	243.492
819.961	139.051
824.507	312.266
829.05	255.141
833.59	366.676
838.128	867.098
842.663	692.281
847.195	1043.32
851.725	1473.82
856.252	2381.89
860.777	3222.17
865.299	5382.05
869.819	8359.53
874.336	12459.7
878.85	16417.6
883.362	15996.5
887.871	11504.2
892.377	7829.22
896.881	4908.74
901.383	2999.01
905.882	1970.98
910.378	952.488
914.872	560.777
919.363	688.715
923.852	310.203
928.338	95.2188
932.821	230.684
937.302	78.6328
941.781	85.0547
946.257	206.902
950.73	191.086
955.201	318.309
959.669	106.418
964.135	181.055
968.598	389.273
973.059	32.3984
977.517	30.6211
981.973	177.125
986.426	109.934
990.877	238.352
995.325	34.0039
999.771	244.019
1004.21	402.406
1008.65	261.188
1013.09	320.312
1017.53	43.7461
1021.96	261.477
1026.39	143.496
1030.82	372.852
1035.25	173.516
1039.67	369.453
1044.09	355.656
1048.51	426.094
1052.92	217.641
1057.34	335.594
1061.75	585.773
1066.16	830.285
1070.56	464.363
1074.97	652.676
1079.37	532.602
1083.77	593.68
1088.16	582.012
1092.56	633.508
1096.95	399.16
1101.34	949.992
1105.72	465.512
1110.11	426.293
1114.49	454.457
1118.87	559.473
1123.25	882.004
1127.62	617.684
1131.99	338.578
1136.36	518.977
1140.73	310.238
1145.09	537.586
1149.46	191.856
1153.82	574.051
1158.17	281.969
1162.53	234.434
1166.88	270.781
1171.23	468.711
1175.58	181.281
1179.93	219.656
1184.27	290.547
1188.61	234.137
1192.95	343.879
1197.29	100.648
1201.62	197.453
1205.95	459.273
1210.28	316.129
1214.61	336.023
1218.93	257.777
1223.25	310.531
1227.57	312.32
1231.89	70.3594
1236.2	229.144
1240.52	317.504
1244.83	24.25
1249.13	200.844
1253.44	376.477
1257.74	306.019
1262.05	150.019
1266.34	111.277
1270.64	172.625
1274.93	152.914
1279.23	11.8477
1283.52	182.461
1287.8	181.461
1292.09	408.297
1296.37	285.152
1300.65	380.606
1304.93	72.1367
1309.2	11.5352
1313.48	291.547
1317.75	290.785
1322.02	383.777
1326.28	233.676
1330.55	226.742
1334.81	405.508
1339.07	255.519
1343.33	370.902
1347.58	327.43
1351.83	309.672
1356.08	378.258
1360.33	166.656
1364.58	262.367
1368.82	448.602
1373.06	211.438
1377.3	287.926
1381.54	202.641
1385.77	84.7891
1390.01	58.7148
1394.24	351.5
1398.46	121.723
1402.69	217.394
1406.91	134.871
1411.14	388.625
1415.36	296.035
1419.57	266.215
1423.79	54.3594
1428	98.3906
1432.21	363.246
1436.42	33.7344
1440.62	282.297
1444.83	233.211
1449.03	102.523
1453.23	78.6328
1457.42	173.574
1461.62	341.477
1465.81	314.414
1470	242.844
1474.19	369.703
1478.38	279.758
1482.56	6.64062
1486.74	224.781
1490.92	11.7109
1495.1	135.199
1499.27	202.57
1503.45	115.918
1507.62	79.8516
1511.79	145.852
1515.95	123.449
1520.12	131.336
1524.28	180.922
1528.44	77.5195
1532.6	227.375
1536.75	92.9648
1540.9	123.328
1545.06	109.84
1549.2	235.379
1553.35	142.109
1557.5	188.684
1561.64	61.043
1565.78	156.43
1569.92	77.8203
