Measurement: Raman, 514 nm, ccw, Raman Data Processed
Mineral: Ferberite
Rruff sample: R050632
Ideal chemistry: Fe^2+^WO_4_
Locality: Chance mine, Boulder, Colorado, USA
Source: University of Arizona Mineral Museum
Description: Dark brown rectangular prismatic crystals
Measured chemistry: Fe^2+^_1.00_WO_4_
Pin_id: M00360
Orientation: Laser parallel to -a* (-1 0 0). Fiducial mark perpendicular to laser is parallel to b [0 1 0]
Raman shift (cm-1)	intensity
157.455	0
162.359	227.027
167.261	480.144
172.161	1776.47
177.058	2349.16
181.952	1201.08
186.845	1455.55
191.734	1862.51
196.622	3234.51
201.507	6169.53
206.389	7115.36
211.269	4876.76
216.147	2237.74
221.022	843.68
225.895	284.072
230.765	11.2139
235.633	24.873
240.498	18.8711
245.361	75.4805
250.222	23.4307
255.08	460.633
259.936	1430.64
264.789	1895.41
269.64	1919.47
274.488	1904.34
279.334	1073.88
284.178	114.877
289.019	171.277
293.857	336.602
298.693	906.716
303.527	688.86
308.358	654.731
313.187	1210.52
318.013	2015.92
322.837	3294.59
327.659	3816.08
332.478	2950.13
337.294	2068.23
342.108	1766.73
346.92	1604.34
351.729	1357
356.535	1062.88
361.34	945.069
366.141	884.528
370.94	454.874
375.737	346.633
380.531	255.84
385.323	260.879
390.113	606.567
394.9	864.214
399.684	1165.46
404.466	662.549
409.245	133.812
414.022	92.2519
418.797	87.1074
423.569	273.719
428.338	10.834
433.105	153.723
437.87	101.17
442.632	132.793
447.391	186.309
452.149	90.1016
456.903	188.387
461.655	232.603
466.405	322.846
471.152	381.809
475.897	297.83
480.639	1528.38
485.378	1580.58
490.116	1648.33
494.85	1826.08
499.582	1353.95
504.312	1848.94
509.039	1916.06
513.764	1651.29
518.486	1473.72
523.206	1682.67
527.923	1635.39
532.638	1752.86
537.35	1357.95
542.059	1420.35
546.766	905.863
551.471	1032.47
556.173	788.106
560.873	723.064
565.57	727.93
570.264	606.945
574.957	384.918
579.646	340.227
584.333	74.4434
589.018	111.318
593.7	8.33398
598.379	41.6211
603.056	49.8555
607.73	26.9414
612.402	104.367
617.072	164.801
621.739	89.7402
626.403	27.8867
631.065	167.582
635.724	194.4
640.381	302.344
645.035	295.414
649.687	585.613
654.336	473.947
658.983	1027.41
663.627	1250.26
668.268	1694.24
672.907	2111.11
677.544	3019.29
682.178	4027.35
686.809	4321.55
691.438	4016.88
696.065	2929.36
700.688	2238.97
705.31	1570.73
709.929	1113.61
714.545	621.641
719.158	430.029
723.77	299.846
728.378	279.346
732.984	279.977
737.588	296.715
742.189	157.115
746.787	281.529
751.383	140.59
755.976	404.658
760.567	546.404
765.155	347.611
769.741	561.805
774.324	377.234
778.904	309.9
783.482	122.807
788.058	157.963
792.631	39.3652
797.201	113.977
801.769	1.48242
806.334	49.5352
810.897	22.8379
815.457	141.865
820.014	136.135
824.569	564.846
829.122	424.68
833.671	783.242
838.219	1215.36
842.763	1874.94
847.306	2805.79
851.845	3939.8
856.382	6362.11
860.917	10258.3
865.448	17369.1
869.978	28773.9
874.505	37371.2
879.029	30243.9
883.55	18074.2
888.069	10056.1
892.586	5928.31
897.1	3695.89
901.611	2407.83
906.12	1651.18
910.626	984.957
915.129	791.08
919.63	481.549
924.129	458.381
928.625	137.602
933.118	214.004
937.609	57.6914
942.097	15.0234
946.582	19.4961
951.065	87.6894
955.546	76.1269
960.023	99.8652
964.499	131.967
968.971	14.3691
973.441	59.125
977.909	98.2402
982.374	97.6523
986.836	341.387
991.295	61.4219
995.753	322.09
1000.21	381.967
1004.66	235.19
1009.11	352.812
1013.55	251.293
1018	364.607
1022.44	417.272
1026.88	351.242
1031.32	410.518
1035.75	214.223
1040.18	536.15
1044.61	440.381
1049.04	445.891
1053.46	588.891
1057.88	461.191
1062.3	431.699
1066.71	710.592
1071.13	491.264
1075.54	598.324
1079.94	615.037
1084.35	586.885
1088.75	369.455
1093.15	322.682
1097.55	579.172
1101.94	267.506
1106.34	462.766
1110.73	442.308
1115.11	315.077
1119.5	324.409
1123.88	289.829
1128.26	360.08
1132.63	270.378
1137.01	288.641
1141.38	11.8379
1145.75	212.236
1150.12	212.891
1154.48	93.7969
1158.84	13.7031
1163.2	145.721
1167.55	25.7344
1171.91	92.4141
1176.26	215.477
1180.61	72.8555
1184.95	99.3242
1189.29	80.5703
1193.63	104.426
1197.97	81.4414
1202.31	68.082
1206.64	43.7012
1210.97	141.512
1215.29	138.019
1219.62	191.768
1223.94	96.8516
1228.26	116.307
1232.57	111.674
1236.89	148.748
1241.2	79.793
1245.51	109.957
1249.81	122.844
1254.12	79.6484
1258.42	227.713
1262.72	211.121
1267.01	40.5742
1271.3	66.2402
1275.59	169.143
1279.88	119.139
1284.17	125.725
1288.45	131.236
1292.73	209.578
1297.01	376.727
1301.28	96.6758
1305.55	150.977
1309.82	99.7324
1314.09	299.418
1318.35	234.244
1322.61	177.299
1326.87	148.289
1331.13	80.7969
1335.38	485.832
1339.63	125.352
1343.88	280.69
1348.12	422.603
1352.37	122.098
1356.61	419.352
1360.85	417.381
1365.08	116.934
1369.31	301.496
1373.54	256.584
1377.77	188.213
1381.99	44.9375
1386.22	235.299
1390.43	142.572
1394.65	201.566
1398.87	258.369
1403.08	49.0742
1407.29	93.1856
1411.49	166.898
1415.69	144.611
1419.89	292.381
1424.09	146.316
1428.29	225.494
1432.48	17.6504
1436.67	298.644
1440.86	170.609
1445.04	200.367
1449.23	9.58594
1453.4	125.33
1457.58	215.549
1461.76	37.1992
1465.93	277.357
1470.1	11.0977
1474.26	283.441
1478.43	263.75
1482.59	202.1
1486.75	157.418
1490.9	89.4238
1495.06	161.674
1499.21	176.481
1503.35	186.56
1507.5	180.205
1511.64	134.318
1515.78	295.742
1519.92	489.103
1524.05	119.658
1528.18	152.977
1532.31	105.32
1536.44	155.938
1540.56	228.932
1544.69	409.139
1548.8	46.9219
1552.92	196.723
1557.03	319.91
1561.14	12.4609
1565.25	194.471
1569.36	97.9023
