Measurement: Raman, 514 nm, ccw, Raman Data Processed
Mineral: Ferberite
Rruff sample: R040044
Ideal chemistry: Fe^2+^WO_4_
Locality: Chocote, Bolivia
Source: University of Arizona Mineral Museum
Description: Black tabular single crystal
Measured chemistry: (Fe_0.82_Mn_0.08_Mg_0.07_Pb_0.03_)_Î£=1_W_1.00_O_4_
Pin_id: M00158
Orientation: Laser parallel to b* (0 1 0). Fiducial mark perpendicular to laser is parallel to c [0 0 1]
Raman shift (cm-1)	intensity
153.096	0
157.247	118.061
161.396	2.953
165.544	373.996
169.689	343.156
173.833	129.078
177.974	51.807
182.114	62.77
186.251	353.543
190.387	450.008
194.52	926.283
198.652	1612.12
202.782	2308.85
206.909	2983.45
211.035	2696.66
215.159	1745.57
219.281	1171.68
223.4	742.791
227.518	306.807
231.634	419.812
235.748	194.902
239.86	291.238
243.97	280.1
248.079	118.502
252.185	9.52
256.289	20.154
260.391	7.889
264.492	506.141
268.59	938.965
272.687	594.053
276.781	777.164
280.874	405.102
284.964	226.746
289.053	157.697
293.14	81.326
297.225	2.426
301.308	14.438
305.389	39.383
309.468	82.096
313.545	57.273
317.62	54.879
321.693	231.752
325.765	398.871
329.834	635.918
333.902	636.01
337.967	630.746
342.031	469.82
346.093	387.553
350.153	417.484
354.21	255.412
358.267	252.365
362.321	287.051
366.373	485.748
370.423	430.533
374.471	476.832
378.518	273.891
382.563	322.098
386.605	352.766
390.646	323.924
394.685	444.859
398.722	785.414
402.757	750.391
406.79	1040.81
410.821	367.668
414.851	531.771
418.878	334.732
422.904	432.52
426.927	277.184
430.949	349.385
434.969	370.854
438.987	262.445
443.003	235.521
447.018	155.24
451.03	296.459
455.041	745.004
459.049	424.688
463.056	292.078
467.061	354.742
471.064	188.371
475.065	298.852
479.064	165.271
483.062	200.533
487.057	300.4
491.051	280.625
495.043	314.912
499.032	332.904
503.02	291.297
507.007	467.986
510.991	349.953
514.973	224.867
518.954	388.65
522.933	696.797
526.91	436.148
530.885	567.279
534.858	641.453
538.829	429.824
542.799	404.098
546.766	529.518
550.732	508.223
554.696	411.518
558.658	408.338
562.618	346.631
566.576	244.17
570.533	312.301
574.488	90.611
578.44	11.77
582.391	94.627
586.341	474.723
590.288	23.398
594.233	646.895
598.177	79.219
602.119	156.422
606.059	100.486
609.997	210.568
613.933	121.855
617.868	172.242
621.801	114.715
625.731	1.332
629.66	37.064
633.588	141.463
637.513	23.592
641.437	139.264
645.358	163.406
649.278	219.693
653.196	255.062
657.113	448.619
661.027	465.227
664.94	1053.04
668.851	934.672
672.76	1345.29
676.667	2063.48
680.572	2758.1
684.476	3514.39
688.378	4195.09
692.278	4593.81
696.176	4767.73
700.072	4395.79
703.967	3667.69
707.86	3076.38
711.751	2745.92
715.64	2436.6
719.527	1672.42
723.413	1263.38
727.297	1078.51
731.179	611.656
735.059	798.77
738.937	690.441
742.814	597.203
746.689	531.875
750.562	472.637
754.433	344.182
758.303	326.07
762.17	310.303
766.036	305.4
769.901	274.477
773.763	115.268
777.624	207.238
781.482	79.211
785.339	254.326
789.195	79.693
793.048	134.424
796.9	137.158
800.75	82.387
804.598	34.059
808.445	249.812
812.289	153
816.132	309.516
819.973	338.354
823.813	105.861
827.65	250.402
831.486	434.303
835.32	522.43
839.152	764.326
842.983	829.574
846.812	1008.58
850.639	1316.08
854.464	1835.21
858.288	2597.7
862.11	3592.54
865.93	4999.74
869.748	6926.35
873.564	9191.34
877.379	10841.8
881.192	10297.6
885.004	8643.86
888.813	6625.97
892.621	4822.41
896.427	3153.75
900.232	2121.48
904.034	1473.6
907.835	1066.1
911.634	795.043
915.432	616.545
919.227	269.635
923.021	409.355
926.813	380.521
930.604	319.139
934.393	192.121
938.18	30.494
941.965	83.219
945.749	89.266
949.53	125.637
953.311	145.326
957.089	170.504
960.866	86.268
964.641	173.914
968.414	224.877
972.185	160.141
975.955	104.311
979.723	101.42
983.49	211.602
987.254	60.535
991.017	88.574
994.779	255.547
998.538	39.031
1002.3	57.156
1006.05	250.158
1009.81	71.082
1013.56	183.16
1017.31	318.625
1021.06	351.426
1024.81	335.119
1028.55	292.557
1032.3	319.604
1036.04	361.621
1039.78	440.053
1043.52	246.609
1047.26	277.705
1050.99	550.689
1054.73	304.617
1058.46	362.506
1062.19	397.975
1065.92	443.496
1069.65	538.52
1073.37	450.857
1077.1	460.131
1080.82	411.75
1084.54	315.42
1088.26	422.109
1091.97	406.705
1095.69	208.686
1099.4	327.029
1103.12	347.479
1106.83	477.242
1110.54	358.838
1114.24	348.189
1117.95	346.824
1121.65	494.02
1125.35	539.305
1129.06	226.541
1132.75	119.076
1136.45	87.545
1140.15	104.432
1143.84	212.824
1147.53	197.059
1151.22	16.109
1154.91	32.916
1158.6	807.121
1162.28	560.414
1165.97	50.592
1169.65	160.217
1173.33	95.91
1177.01	116.902
1180.69	177.721
1184.36	198.314
1188.04	336.564
1191.71	176.125
1195.38	473.549
1199.05	235.014
1202.71	61.02
1206.38	236.041
1210.04	217.068
1213.71	332.891
1217.37	275.551
1221.03	396
1224.68	364.043
1228.34	419.25
1231.99	344.531
1235.65	299.941
1239.3	295.58
1242.95	282.811
1246.59	340.324
1250.24	271.396
1253.88	401.576
1257.53	420.725
1261.17	176.244
1264.81	308.385
1268.45	553.021
1272.08	418.969
1275.72	343.16
1279.35	240.074
1282.98	337.121
1286.61	207.73
1290.24	290.344
1293.87	257.943
1297.49	154.221
1301.11	247.742
1304.73	111.918
1308.36	103.822
1311.97	33.703
1315.59	57.85
1319.2	77.258
1322.82	146.104
1326.43	24.393
1330.04	328.703
1333.65	216.553
1337.26	202.756
1340.86	39.916
1344.47	632.324
1348.07	542.381
1351.67	284.637
1355.27	260.287
1358.87	299.377
1362.46	267.777
1366.06	422.137
1369.65	492.869
1373.24	473.006
1376.83	280.771
1380.42	393.678
1384	457.523
1387.59	647.307
1391.17	476.99
1394.75	540.693
1398.33	326.963
1401.91	297.504
1405.49	422.619
1409.06	284.471
1412.64	216.021
1416.21	444.035
1419.78	307.283
1423.35	247.455
1426.91	726.904
1430.48	577.072
1434.05	194.615
1437.61	186.291
1441.17	214.051
1444.73	173.732
1448.29	135.967
1451.84	167.096
1455.4	77.879
1458.95	175.656
1462.5	85.441
1466.05	133.424
1469.6	143.371
1473.15	133.73
1476.69	81.41
1480.24	0
