Measurement: Raman, 514 nm, ccw, Raman Data Processed
Mineral: Ferro-actinolite
Rruff sample: R060189
Ideal chemistry: [box]Ca_2_Fe^2+^_5_Si_8_O_22_(OH)_2_
Locality: Merry Widow mine, Vancouver Island, British Columbia, Canada
Source: Lloyd Twaites
Description: Parallel aggregate of green fibers
Measured chemistry: [box](Ca_1.94_Na_0.06_)_Σ=2_(Fe^2+^_2.55_Mg_2.15_Fe^3+^_0.20_Al_0.05_Mn_0.05_)_Σ=5_(Si_0.98_Al_0.02_)_8_O_22_(OH)_2_
Raman shift (cm-1)	intensity
95.948	0
100.883	350.316
105.815	1975.18
110.744	5336.96
115.671	5123.33
120.596	2419.66
125.519	1089.45
130.439	1206.48
135.356	1183.87
140.271	2967.77
145.184	4071.89
150.094	2528.94
155.002	1769.86
159.908	2088.96
164.811	3477.25
169.711	6209.69
174.61	5749.82
179.505	3448.73
184.399	2261.49
189.29	2420.82
194.178	3066.89
199.064	3174.39
203.948	3832.52
208.829	2721.61
213.708	3504.1
218.585	2998.62
223.459	2766.77
228.33	1307.22
233.199	924.822
238.066	567.459
242.93	135.031
247.792	25.0703
252.651	256.481
257.508	25.541
262.363	161.08
267.215	188.34
272.064	68.0352
276.912	179.545
281.756	69.7891
286.598	16.1758
291.438	210.727
296.276	81.4121
301.111	116.049
305.943	163.141
310.773	31.9023
315.601	292.5
320.426	284.6
325.248	806.174
330.068	599.896
334.886	980.111
339.701	1699.61
344.514	2271.39
349.324	3242.52
354.132	3670.71
358.938	3832
363.741	3338.32
368.541	3613.62
373.339	3753.87
378.135	4244.05
382.928	4148.13
387.718	3509.18
392.506	2629
397.292	1676.19
402.075	1476.05
406.856	958.162
411.634	471.08
416.41	201.848
421.183	179.178
425.954	199.272
430.722	24.8008
435.488	119.898
440.251	121.055
445.012	6.48828
449.77	30.3887
454.526	252.606
459.28	235.486
464.03	34.8203
468.779	327.484
473.525	22.2246
478.268	256.967
483.009	444.592
487.747	481.773
492.483	610.5
497.217	629.844
501.948	1156
506.676	1012.87
511.402	1201.45
516.125	1425.79
520.846	1428.99
525.565	1548.28
530.281	2045.38
534.994	2082.22
539.705	1791.23
544.413	1567.07
549.119	1614.64
553.822	1596.94
558.523	1584.88
563.222	1405.36
567.917	1088.76
572.611	1170.53
577.302	859.613
581.99	800.088
586.676	510.662
591.359	301.594
596.04	271.742
600.718	243.144
605.394	497.152
610.067	382.016
614.737	392.383
619.406	619.113
624.071	742.797
628.734	890.574
633.395	1339.98
638.053	2057.02
642.708	2843.84
647.361	3977.39
652.012	6058.21
656.66	10663.3
661.305	17524.4
665.948	20985.8
670.588	14766.3
675.226	7695.38
679.861	4562.05
684.494	2784.29
689.124	2032.45
693.752	1660.53
698.377	1224.6
702.999	889.887
707.619	873.238
712.237	827.492
716.852	728.023
721.464	896.426
726.074	788.684
730.681	1057.16
735.286	1057.88
739.888	1212.56
744.488	1401.93
749.085	649.191
753.68	565.242
758.272	456.219
762.861	498.328
767.448	566.723
772.033	150.812
776.614	160.777
781.194	394.144
785.77	241.977
790.345	3.55859
794.916	47.1602
799.485	65.4922
804.052	253.391
808.616	219.844
813.177	254.344
817.736	272.367
822.292	49.0469
826.846	347.09
831.397	126.156
835.945	339.121
840.491	269.137
845.035	365.379
849.576	170.324
854.114	495.008
858.65	454.219
863.183	322.93
867.713	577.207
872.241	619.102
876.767	699.367
881.29	413.844
885.81	346.586
890.328	354.832
894.843	610.422
899.356	569.644
903.866	41.5312
908.373	772.512
912.878	984.301
917.38	770.582
921.88	1234.13
926.377	1014.86
930.872	1038.14
935.364	590.398
939.853	698.742
944.34	544.562
948.824	271.106
953.306	443.609
957.785	489.727
962.261	153.684
966.735	475.438
971.207	357.332
975.675	374.535
980.141	390.039
984.605	365.664
989.066	284.695
993.524	241.949
997.98	515.512
1002.43	482.289
1006.88	803.246
1011.33	1249.62
1015.78	1080.07
1020.22	1723.31
1024.66	1663.08
1029.1	1660.69
1033.53	1846.89
1037.97	1857.12
1042.4	2516.62
1046.82	2963.78
1051.25	3254.57
1055.67	3295.75
1060.09	3415.73
1064.51	3089.9
1068.92	1713.11
1073.33	1109.03
1077.74	905.766
1082.15	994.141
1086.55	659.16
1090.95	816.82
1095.35	869.281
1099.75	588.789
1104.14	245.445
1108.53	49.9102
1112.92	157.469
1117.31	732.754
1121.69	562.91
1126.07	304.043
1130.45	535.141
1134.82	60.1445
1139.19	243.875
1143.57	266.328
1147.93	285.699
1152.3	0.253906
1156.66	227.219
1161.02	374.797
1165.38	254.981
1169.73	201.106
1174.08	415.973
1178.43	147.199
1182.78	12.8984
1187.12	133.656
1191.46	303.172
1195.8	522.699
1200.14	393.996
1204.47	289.269
1208.8	134.535
1213.13	213.688
1217.46	518.805
1221.78	693.961
1226.1	364.152
1230.42	103.246
1234.73	325.047
1239.04	225.234
1243.35	134.715
1247.66	420.324
1251.97	630.375
1256.27	361.184
1260.57	320.715
1264.86	691.547
1269.16	572.336
1273.45	675.184
1277.74	657.551
1282.03	780.914
1286.31	835.465
1290.59	663.754
1294.87	772.363
1299.14	736.75
1303.42	886.848
1307.69	936.668
1311.95	1024.88
1316.22	914.801
1320.48	666.113
1324.74	953.32
1329	772.531
1333.26	695.84
1337.51	716.375
1341.76	997.059
1346	1110.85
1350.25	1210.26
1354.49	1333.75
1358.73	1123.64
1362.96	1222.81
1367.2	1193.71
1371.43	1127.12
1375.66	1068.72
1379.88	891.367
1384.11	998.473
1388.33	834.344
1392.54	415.644
1396.76	691.934
1400.97	364.309
1405.18	568.973
1409.39	540.356
1413.59	483.043
1417.8	634.738
1421.99	285.777
1426.19	478.57
1430.38	185.719
1434.58	123.984
1438.77	236.227
1442.95	422.867
1447.13	1.27734
1451.32	4.625
1455.49	19.125
1459.67	156.008
1463.84	67.0977
1468.01	36.7852
1472.18	281.684
1476.35	211.914
1480.51	280.269
1484.67	160.926
1488.83	244.828
1492.98	230.934
1497.13	85.6523
1501.28	364.617
1505.43	293.461
1509.57	473.856
1513.71	304.688
1517.85	143.816
1521.99	80.2773
