Measurement: Raman, 514 nm, ccw, Raman Data Processed
Mineral: Ferro-actinolite
Rruff sample: R060189
Ideal chemistry: [box]Ca_2_Fe^2+^_5_Si_8_O_22_(OH)_2_
Locality: Merry Widow mine, Vancouver Island, British Columbia, Canada
Source: Lloyd Twaites
Description: Parallel aggregate of green fibers
Measured chemistry: [box](Ca_1.94_Na_0.06_)_Σ=2_(Fe^2+^_2.55_Mg_2.15_Fe^3+^_0.20_Al_0.05_Mn_0.05_)_Σ=5_(Si_0.98_Al_0.02_)_8_O_22_(OH)_2_
Raman shift (cm-1)	intensity
95.948	0
100.883	331.293
105.815	1492.63
110.744	6731.38
115.671	4358.11
120.596	2067.01
125.519	1743.99
130.439	2131.48
135.356	2247.34
140.271	6354.65
145.184	11410.1
150.094	8050.91
155.002	3364.97
159.908	1755.66
164.811	4004.02
169.711	7170.26
174.61	6539.96
179.505	3172.44
184.399	2341.2
189.29	2969.72
194.178	4229.18
199.064	5287.77
203.948	7252.48
208.829	6099.99
213.708	7986.5
218.585	7591.22
223.459	5692.81
228.33	4112.1
233.199	3025.93
238.066	2212.16
242.93	1319.33
247.792	801.389
252.651	348.279
257.508	314.92
262.363	350.988
267.215	193.545
272.064	256.178
276.912	113.811
281.756	152.035
286.598	350.951
291.438	547.473
296.276	261.291
301.111	423.404
305.943	401.586
310.773	565.506
315.601	889.812
320.426	1187.08
325.248	1785.64
330.068	2088.78
334.886	2158.26
339.701	2452.95
344.514	2651.82
349.324	3106.2
354.132	3559.87
358.938	3879.64
363.741	3257.4
368.541	3313.1
373.339	3800.71
378.135	4653.17
382.928	4924.46
387.718	4263.62
392.506	3568.7
397.292	2721.56
402.075	2089.93
406.856	1228.6
411.634	806.129
416.41	368.629
421.183	468.924
425.954	1202.2
430.722	1516.75
435.488	779.016
440.251	158.951
445.012	262.981
449.77	236.728
454.526	353.754
459.28	189.131
464.03	70.1934
468.779	75.9863
473.525	855.537
478.268	493.74
483.009	416.191
487.747	779.904
492.483	1239.86
497.217	1594.09
501.948	2115.61
506.676	2422.51
511.402	2770.97
516.125	2946.01
520.846	3604.55
525.565	3320.03
530.281	3094.47
534.994	2932.84
539.705	2628.92
544.413	2541.44
549.119	2236.09
553.822	2040.17
558.523	1905.75
563.222	1896.54
567.917	1796.49
572.611	1568.39
577.302	1122.25
581.99	947.471
586.676	336.723
591.359	349.115
596.04	475.219
600.718	286.91
605.394	275.731
610.067	229.574
614.737	366.627
619.406	474.144
624.071	908.459
628.734	1846.15
633.395	2266.96
638.053	3340.9
642.708	4390.02
647.361	5966.25
652.012	9035.86
656.66	15439.4
661.305	26289.4
665.948	31319.4
670.588	21746.5
675.226	11907.8
679.861	7257.01
684.494	4432.86
689.124	3017.95
693.752	2480.81
698.377	1819.18
702.999	1013.79
707.619	962.984
712.237	970.975
716.852	1084.16
721.464	1069.38
726.074	1419.58
730.681	1790.93
735.286	2048.54
739.888	1584.72
744.488	1307.96
749.085	863.611
753.68	796.652
758.272	644.527
762.861	569.184
767.448	532.557
772.033	291.65
776.614	451.363
781.194	200.596
785.77	125.115
790.345	83.3984
794.916	58.0488
799.485	535.019
804.052	126.602
808.616	280.754
813.177	39.1562
817.736	120.777
822.292	106.691
826.846	20.2188
831.397	25.0898
835.945	169.941
840.491	36.6562
845.035	202.004
849.576	139.688
854.114	488.305
858.65	457.383
863.183	513.668
867.713	761.262
872.241	711.102
876.767	1147.19
881.29	1141.79
885.81	1141.88
890.328	1609.2
894.843	2066.83
899.356	2190.55
903.866	2991.26
908.373	2341.52
912.878	2796.82
917.38	3308.76
921.88	4102.8
926.377	4003.57
930.872	3550.23
935.364	2985.11
939.853	2606.05
944.34	2501.47
948.824	2114.08
953.306	2431.37
957.785	2402.11
962.261	2395.69
966.735	2033.41
971.207	2376.67
975.675	2072.86
980.141	2095.93
984.605	1934.66
989.066	2408
993.524	2315.65
997.98	2924.82
1002.43	3146.21
1006.88	3969.85
1011.33	4834.93
1015.78	5441.83
1020.22	6249.22
1024.66	6091.86
1029.1	5452.33
1033.53	6030.06
1037.97	6718.11
1042.4	7940.42
1046.82	8817.81
1051.25	8030.96
1055.67	7426.44
1060.09	7545.03
1064.51	5847.89
1068.92	3839.82
1073.33	2731.72
1077.74	2053.99
1082.15	1587.87
1086.55	1510.33
1090.95	1070.73
1095.35	1106
1099.75	1049.34
1104.14	958.766
1108.53	993.246
1112.92	574.664
1117.31	790.758
1121.69	1031.11
1126.07	723.508
1130.45	706.91
1134.82	176.266
1139.19	352.793
1143.57	461.988
1147.93	114.363
1152.3	38.1484
1156.66	8.97656
1161.02	63.875
1165.38	96.6719
1169.73	372.098
1174.08	110.152
1178.43	66.0352
1182.78	143.438
1187.12	155.758
1191.46	84.5547
1195.8	110.867
1200.14	178.926
1204.47	277.898
1208.8	126.957
1213.13	53.1953
1217.46	49.832
1221.78	87.4062
1226.1	133.574
1230.42	243.406
1234.73	25.9297
1239.04	195.875
1243.35	328.879
1247.66	297.332
1251.97	332.152
1256.27	184.312
1260.57	167.43
1264.86	338.297
1269.16	449.051
1273.45	270.731
1277.74	503.438
1282.03	698.496
1286.31	594.488
1290.59	830.203
1294.87	728.402
1299.14	634.102
1303.42	577.312
1307.69	747.301
1311.95	476.074
1316.22	732.562
1320.48	741.562
1324.74	617.891
1329	572.148
1333.26	999.535
1337.51	657.391
1341.76	720.809
1346	1104.98
1350.25	788.711
1354.49	748.66
1358.73	931.34
1362.96	806.566
1367.2	610.477
1371.43	838.281
1375.66	473.574
1379.88	625.676
1384.11	656.773
1388.33	644.801
1392.54	563.496
1396.76	413.586
1400.97	537.125
1405.18	205.625
1409.39	337.902
1413.59	187.977
1417.8	154.512
1421.99	181.981
1426.19	213.406
1430.38	425.297
1434.58	295.336
1438.77	384.609
1442.95	129.269
1447.13	68.7695
1451.32	135.723
1455.49	169.41
1459.67	126.414
1463.84	232.059
1468.01	43.6016
1472.18	131.449
1476.35	376.93
1480.51	140.133
1484.67	243.113
1488.83	694.273
1492.98	406.324
1497.13	645.109
1501.28	624.559
1505.43	549.445
1509.57	766.234
1513.71	737.273
1517.85	654.066
1521.99	671.106
1526.12	693.617
1530.25	584.305
1534.38	639.656
1538.5	628.957
1542.62	600.754
1546.74	296.621
1550.86	780.637
1554.98	643.293
1559.09	183.938
1563.2	289.68
1567.31	237.926
