Measurement: Raman, 514 nm, ccw, Raman Data Processed
Mineral: Ferro-actinolite
Rruff sample: R060189
Ideal chemistry: [box]Ca_2_Fe^2+^_5_Si_8_O_22_(OH)_2_
Locality: Merry Widow mine, Vancouver Island, British Columbia, Canada
Source: Lloyd Twaites
Description: Parallel aggregate of green fibers
Measured chemistry: [box](Ca_1.94_Na_0.06_)_Σ=2_(Fe^2+^_2.55_Mg_2.15_Fe^3+^_0.20_Al_0.05_Mn_0.05_)_Σ=5_(Si_0.98_Al_0.02_)_8_O_22_(OH)_2_
Raman shift (cm-1)	intensity
95.948	0
100.883	186.171
105.815	473.33
110.744	2450.8
115.671	972.863
120.596	311.094
125.519	591.53
130.439	1323.19
135.356	1578.57
140.271	5732.31
145.184	14906.3
150.094	17044.5
155.002	6239.38
159.908	3749.12
164.811	6061.32
169.711	13684.5
174.61	15152.6
179.505	7013.38
184.399	3879.18
189.29	3843
194.178	4639.77
199.064	6307.81
203.948	9090.54
208.829	11929.9
213.708	17345.2
218.585	20462.3
223.459	15983.9
228.33	9332.35
233.199	5039.42
238.066	3227.93
242.93	2250.48
247.792	1802.19
252.651	1423.43
257.508	1215.54
262.363	1403.17
267.215	1015.01
272.064	997.474
276.912	1153.31
281.756	1420.14
286.598	1681.81
291.438	1384.9
296.276	1202.43
301.111	844.427
305.943	833.612
310.773	755.015
315.601	832.519
320.426	1115.29
325.248	1516.75
330.068	1656.53
334.886	2082.65
339.701	2467.58
344.514	2824.7
349.324	3341.1
354.132	3712.74
358.938	3757.69
363.741	3131.86
368.541	2373.18
373.339	2264.61
378.135	2445.11
382.928	2250.65
387.718	1962.28
392.506	1394.74
397.292	791.069
402.075	578.036
406.856	361.488
411.634	61.3086
416.41	46.3906
421.183	80.5019
425.954	188.49
430.722	482.489
435.488	148.466
440.251	77.666
445.012	214.281
449.77	185.141
454.526	196.648
459.28	137.808
464.03	100.788
468.779	109.477
473.525	34.5615
478.268	17.1016
483.009	180.656
487.747	97.7598
492.483	435.266
497.217	622.004
501.948	873.73
506.676	985.791
511.402	1355.56
516.125	1647.28
520.846	2238.1
525.565	2289.27
530.281	1998.75
534.994	1666.78
539.705	1602.83
544.413	1360.31
549.119	1281.38
553.822	1134.91
558.523	880.496
563.222	896.03
567.917	765.418
572.611	761.425
577.302	632.706
581.99	407.252
586.676	197.58
591.359	283.273
596.04	330.138
600.718	346.887
605.394	467.279
610.067	681.454
614.737	1032.42
619.406	1187.32
624.071	1735.6
628.734	2472.71
633.395	3609.43
638.053	4996.52
642.708	6569.67
647.361	9017.63
652.012	13641.4
656.66	23349.5
661.305	39250.9
665.948	48742.8
670.588	33399.9
675.226	16591.5
679.861	9141.15
684.494	5728.74
689.124	3770.68
693.752	2526.87
698.377	1754.25
702.999	1442.98
707.619	964.135
712.237	887.333
716.852	780.474
721.464	763.523
726.074	719.392
730.681	896.44
735.286	791.607
739.888	800.695
744.488	723.954
749.085	599.435
753.68	383.938
758.272	328.182
762.861	279.174
767.448	371.785
772.033	170.97
776.614	121.698
781.194	99.9336
785.77	60.5254
790.345	126.942
794.916	107.028
799.485	149.546
804.052	86.4756
808.616	101.231
813.177	86.8633
817.736	129.081
822.292	94.6943
826.846	124.169
831.397	152.297
835.945	557.035
840.491	46.4346
845.035	153.259
849.576	55.2139
854.114	196.061
858.65	384.206
863.183	307.248
867.713	542.235
872.241	455.131
876.767	805.926
881.29	981.625
885.81	1206.24
890.328	1594.81
894.843	1933.38
899.356	2355.06
903.866	2430.22
908.373	2729.91
912.878	3629.87
917.38	4321.49
921.88	5553.96
926.377	5571.52
930.872	4544.05
935.364	3776.04
939.853	3384.92
944.34	3160.42
948.824	3103.16
953.306	2834.26
957.785	2807.52
962.261	2703.93
966.735	2645.96
971.207	2522.54
975.675	2506.51
980.141	2436.34
984.605	2397.34
989.066	2483.03
993.524	2870.26
997.98	3111.91
1002.43	3741.99
1006.88	4395.49
1011.33	5032.46
1015.78	5447.14
1020.22	6397.31
1024.66	6779.57
1029.1	7679.49
1033.53	9154.7
1037.97	11962.2
1042.4	15738.5
1046.82	17561.3
1051.25	15664.6
1055.67	12991.3
1060.09	11625
1064.51	8644.56
1068.92	5278.9
1073.33	3487.25
1077.74	2476.55
1082.15	1951.67
1086.55	1642.23
1090.95	1333.92
1095.35	1157.21
1099.75	1044.1
1104.14	894.112
1108.53	753.851
1112.92	703.048
1117.31	649.658
1121.69	687.99
1126.07	549.621
1130.45	545.104
1134.82	116.228
1139.19	1.26465
1143.57	41.0391
1147.93	180.852
1152.3	5.73633
1156.66	57.6592
1161.02	88.3027
1165.38	8.42773
1169.73	12.3906
1174.08	35.7207
1178.43	19.3818
1182.78	35.3408
1187.12	61.6553
1191.46	123.34
1195.8	3.5957
1200.14	28.7979
1204.47	139.241
1208.8	21.7891
1213.13	70.3916
1217.46	54.3828
1221.78	11.7676
1226.1	185.773
1230.42	184.482
1234.73	33.919
1239.04	12.2354
1243.35	61.8955
1247.66	205.86
1251.97	103.273
1256.27	384.997
1260.57	93.6191
1264.86	236.673
1269.16	107.427
1273.45	218.428
1277.74	188.653
1282.03	178.907
1286.31	308.377
1290.59	312.4
1294.87	289.813
1299.14	290.958
1303.42	303.397
1307.69	378.693
1311.95	316.178
1316.22	482.503
1320.48	278.784
1324.74	386.16
1329	113.315
1333.26	248.07
1337.51	318.822
1341.76	209.442
1346	353.856
1350.25	226.054
1354.49	342.797
1358.73	270.769
1362.96	313.085
1367.2	241.924
1371.43	249.26
1375.66	181.785
1379.88	271.024
1384.11	176.028
1388.33	269.087
1392.54	81.6064
1396.76	158.986
1400.97	160.784
1405.18	163.532
1409.39	77.7158
1413.59	249.412
1417.8	88.5996
1421.99	238.115
1426.19	11.8467
1430.38	220.111
1434.58	84.2832
1438.77	53.1602
1442.95	122.1
1447.13	19.7773
1451.32	141.941
1455.49	9.20508
1459.67	114.766
1463.84	164.568
1468.01	15.9033
1472.18	45.4375
1476.35	44.5654
1480.51	124.717
1484.67	129.406
1488.83	59.8887
1492.98	103.652
1497.13	246.655
1501.28	148.724
1505.43	140.096
1509.57	260.364
1513.71	241.32
1517.85	188.892
1521.99	230.932
1526.12	182.751
1530.25	158.681
1534.38	256.867
1538.5	223.481
1542.62	237.38
1546.74	145.492
1550.86	86.9648
1554.98	446.879
1559.09	171.776
1563.2	180.14
1567.31	31.9414
