Measurement: Raman, 514 nm, ccw, Raman Data Processed
Mineral: Ferro-actinolite
Rruff sample: R060189
Ideal chemistry: [box]Ca_2_Fe^2+^_5_Si_8_O_22_(OH)_2_
Locality: Merry Widow mine, Vancouver Island, British Columbia, Canada
Source: Lloyd Twaites
Description: Parallel aggregate of green fibers
Measured chemistry: [box](Ca_1.94_Na_0.06_)_Σ=2_(Fe^2+^_2.55_Mg_2.15_Fe^3+^_0.20_Al_0.05_Mn_0.05_)_Σ=5_(Si_0.98_Al_0.02_)_8_O_22_(OH)_2_
Raman shift (cm-1)	intensity
95.948	0
100.883	391.525
105.815	1355.51
110.744	3224.58
115.671	1486.03
120.596	722.93
125.519	1134.09
130.439	2029.86
135.356	1912.77
140.271	5317.6
145.184	11560.7
150.094	9106.44
155.002	3163.3
159.908	1944.71
164.811	3559
169.711	7240.45
174.61	6787.18
179.505	3288.89
184.399	1922.29
189.29	2650.77
194.178	3542.62
199.064	4973.02
203.948	6924.16
208.829	7388.27
213.708	10027.6
218.585	10068.7
223.459	7364.4
228.33	5164.16
233.199	3627.88
238.066	2830.4
242.93	2153.97
247.792	1319.89
252.651	1080.75
257.508	628.621
262.363	812.984
267.215	0.320313
272.064	82.6035
276.912	470.102
281.756	336.228
286.598	331.549
291.438	554.727
296.276	416.49
301.111	283.369
305.943	441.371
310.773	698.725
315.601	537.469
320.426	956.377
325.248	1436.35
330.068	1882.88
334.886	1920.48
339.701	2283.91
344.514	2747.23
349.324	3247.42
354.132	3521.26
358.938	3720.61
363.741	2945.32
368.541	2885.34
373.339	3248.62
378.135	4072.12
382.928	4229.79
387.718	3745.7
392.506	2744.75
397.292	2246.9
402.075	1663.92
406.856	1226.64
411.634	909.854
416.41	487.598
421.183	542.701
425.954	1079.07
430.722	1624.65
435.488	863.342
440.251	179.098
445.012	56.4062
449.77	205.377
454.526	235.023
459.28	286.785
464.03	215.369
468.779	27.4883
473.525	9.41406
478.268	105.322
483.009	395.404
487.747	217.969
492.483	819.129
497.217	1039.89
501.948	1362.22
506.676	1593.13
511.402	2080.88
516.125	2628.5
520.846	3368.06
525.565	3192.85
530.281	2723.97
534.994	2485.86
539.705	2146.68
544.413	2018.21
549.119	1745.24
553.822	1776.67
558.523	1540.45
563.222	1464.46
567.917	1200.85
572.611	1282.53
577.302	966.297
581.99	577.123
586.676	483.727
591.359	199.356
596.04	177.184
600.718	296.971
605.394	382.607
610.067	243.602
614.737	524.666
619.406	721.246
624.071	1142.64
628.734	1849.66
633.395	2377.03
638.053	3277.01
642.708	4337.14
647.361	5763.31
652.012	9479.42
656.66	15902
661.305	26789
665.948	32004
670.588	22616.6
675.226	12419.6
679.861	7134.08
684.494	4579.93
689.124	2931.66
693.752	2110.47
698.377	1432.56
702.999	1178.65
707.619	1138.29
712.237	1065.46
716.852	823.584
721.464	805.59
726.074	1015.09
730.681	1198.42
735.286	1086.8
739.888	778.424
744.488	922.984
749.085	471.572
753.68	669.85
758.272	207.449
762.861	181.102
767.448	218.685
772.033	232.154
776.614	277.438
781.194	272.582
785.77	247.435
790.345	0.445313
794.916	49.4004
799.485	204.385
804.052	7.76758
808.616	17.4551
813.177	113.324
817.736	114.131
822.292	87.3086
826.846	32.1426
831.397	125.738
835.945	165.256
840.491	46.7949
845.035	172.062
849.576	301.08
854.114	140.916
858.65	346.803
863.183	503.06
867.713	720.752
872.241	767.018
876.767	947.803
881.29	939.08
885.81	1260.83
890.328	1452.11
894.843	1858.88
899.356	2134.42
903.866	2020.66
908.373	2639.15
912.878	3102.98
917.38	3216.27
921.88	4183.36
926.377	3748.63
930.872	3274.58
935.364	2801.53
939.853	2540.02
944.34	2433.13
948.824	2326.69
953.306	2452.44
957.785	2406.73
962.261	2407.9
966.735	2600.39
971.207	2335.21
975.675	2255.57
980.141	2060.65
984.605	1967.27
989.066	2331.86
993.524	2464.03
997.98	2764.39
1002.43	3476.05
1006.88	4029.99
1011.33	4595.44
1015.78	5539.31
1020.22	6358.94
1024.66	6131.21
1029.1	5823.74
1033.53	5765.07
1037.97	7086.88
1042.4	8624.79
1046.82	9041.95
1051.25	8467.85
1055.67	7905.02
1060.09	7213.31
1064.51	5199.31
1068.92	3349.05
1073.33	2286.86
1077.74	1927.67
1082.15	1449.65
1086.55	995.906
1090.95	1125.66
1095.35	1083.39
1099.75	793.371
1104.14	813.219
1108.53	570.629
1112.92	302.504
1117.31	466.598
1121.69	1003.5
1126.07	680.859
1130.45	558.082
1134.82	370.691
1139.19	252.18
1143.57	408.988
1147.93	0.386719
1152.3	2.80469
1156.66	87.3125
1161.02	155.379
1165.38	154.207
1169.73	275.008
1174.08	169.676
1178.43	74.3789
1182.78	71.1836
1187.12	54.9375
1191.46	81.4531
1195.8	394.754
1200.14	212.516
1204.47	32.4336
1208.8	61.1016
1213.13	148.508
1217.46	156.246
1221.78	580.535
1226.1	63.6094
1230.42	202.465
1234.73	70.8047
1239.04	360.391
1243.35	51.457
1247.66	201.953
1251.97	262.754
1256.27	544.902
1260.57	313.648
1264.86	595.914
1269.16	501.992
1273.45	493.227
1277.74	349.207
1282.03	581.043
1286.31	636.195
1290.59	605.082
1294.87	631.41
1299.14	680.602
1303.42	823.379
1307.69	832.656
1311.95	717.242
1316.22	793.934
1320.48	596.867
1324.74	511.316
1329	639.664
1333.26	751.766
1337.51	692.254
1341.76	928.207
1346	590.598
1350.25	815.273
1354.49	787.582
1358.73	830.34
1362.96	769.856
1367.2	829.199
1371.43	842.82
1375.66	460.391
1379.88	782.133
1384.11	572.828
1388.33	568.422
1392.54	326.613
1396.76	308.773
1400.97	424.594
1405.18	346.375
1409.39	217.914
1413.59	329.688
1417.8	144.316
1421.99	162.754
1426.19	30.0156
1430.38	81.5391
1434.58	29.2891
1438.77	75.5078
1442.95	195.844
1447.13	179.852
1451.32	62.5391
1455.49	69.625
1459.67	124.141
1463.84	17.6875
1468.01	151.582
1472.18	118.871
1476.35	292.738
1480.51	58.9609
1484.67	150.562
1488.83	569.332
1492.98	240.086
1497.13	87.7812
1501.28	372.008
1505.43	580.062
1509.57	268.348
1513.71	556.863
1517.85	442.16
1521.99	215.156
1526.12	578.231
1530.25	484.715
1534.38	550.5
1538.5	342.34
1542.62	532.215
1546.74	268.992
1550.86	311.754
1554.98	216.203
1559.09	249.906
1563.2	62.1445
1567.31	4.67188
