Measurement: Raman, 514 nm, ccw, Raman Data Processed
Mineral: Ferro-actinolite
Rruff sample: R060189
Ideal chemistry: [box]Ca_2_Fe^2+^_5_Si_8_O_22_(OH)_2_
Locality: Merry Widow mine, Vancouver Island, British Columbia, Canada
Source: Lloyd Twaites
Description: Parallel aggregate of green fibers
Measured chemistry: [box](Ca_1.94_Na_0.06_)_Σ=2_(Fe^2+^_2.55_Mg_2.15_Fe^3+^_0.20_Al_0.05_Mn_0.05_)_Σ=5_(Si_0.98_Al_0.02_)_8_O_22_(OH)_2_
Raman shift (cm-1)	intensity
95.948	0
100.883	475.123
105.815	1177.71
110.744	5864.25
115.671	2218.97
120.596	570.219
125.519	1101.94
130.439	2295.93
135.356	1982.94
140.271	4900.58
145.184	11294.8
150.094	11257.2
155.002	4264.59
159.908	1917.61
164.811	3625.64
169.711	7761.1
174.61	7858.34
179.505	3871.97
184.399	2490.19
189.29	3709.49
194.178	6261.81
199.064	9045.32
203.948	13241.6
208.829	13595.2
213.708	17459.7
218.585	17157.4
223.459	14267.5
228.33	11620.8
233.199	8312.03
238.066	6137.13
242.93	4166.5
247.792	2769.54
252.651	1804.97
257.508	805.748
262.363	1183.11
267.215	115.379
272.064	149.102
276.912	10.3652
281.756	31.3828
286.598	466.728
291.438	377.326
296.276	498.107
301.111	573.881
305.943	436.057
310.773	523.963
315.601	451.566
320.426	993.67
325.248	1177.94
330.068	1902.42
334.886	2566.31
339.701	3470.46
344.514	4160.12
349.324	4924.17
354.132	5629.45
358.938	6035.75
363.741	6089.9
368.541	5554.82
373.339	6607.43
378.135	8598.68
382.928	8947.82
387.718	7914.94
392.506	6093.02
397.292	4691.7
402.075	3723.71
406.856	2906.88
411.634	1929.95
416.41	1427.81
421.183	1695.56
425.954	3096.28
430.722	4363.27
435.488	2971.72
440.251	1026.56
445.012	230.893
449.77	18.4922
454.526	465.379
459.28	189.961
464.03	308.201
468.779	249.08
473.525	5.67969
478.268	225.809
483.009	492.986
487.747	800.742
492.483	1874.03
497.217	2664.8
501.948	3674.03
506.676	4463.71
511.402	5265.92
516.125	6068.83
520.846	6684.58
525.565	6332.21
530.281	5272.31
534.994	4577.28
539.705	4205.39
544.413	3597.25
549.119	3292.53
553.822	2910.15
558.523	2678.98
563.222	2742.87
567.917	2600.63
572.611	2244.2
577.302	1424.54
581.99	836.611
586.676	486.606
591.359	105.197
596.04	52.8047
600.718	48.4102
605.394	58.5371
610.067	99.1738
614.737	467.275
619.406	467.488
624.071	1011.91
628.734	1743.19
633.395	2658.3
638.053	3998.28
642.708	5172.94
647.361	7525.51
652.012	11414.4
656.66	20344.4
661.305	35047.6
665.948	44905.2
670.588	32915.4
675.226	18465.6
679.861	10710.1
684.494	7076.09
689.124	5035.71
693.752	3216.02
698.377	2630.77
702.999	2206.1
707.619	1773.02
712.237	1674.09
716.852	1519.7
721.464	1581.87
726.074	1716.79
730.681	2278.87
735.286	2475.18
739.888	2466.31
744.488	2076.83
749.085	1859.72
753.68	1242.18
758.272	1081.89
762.861	828.053
767.448	742.176
772.033	613.283
776.614	282.387
781.194	322.467
785.77	52.5469
790.345	39.7383
794.916	132.678
799.485	71.5586
804.052	185.861
808.616	23.1387
813.177	268.219
817.736	13.2891
822.292	101.301
826.846	74.1016
831.397	115.529
835.945	112.106
840.491	166.113
845.035	204.717
849.576	446.584
854.114	471.9
858.65	539.242
863.183	823.031
867.713	668.553
872.241	929.707
876.767	1201.61
881.29	1540.06
885.81	1606.85
890.328	2112.95
894.843	2656.02
899.356	3044.26
903.866	3201.53
908.373	3382.88
912.878	4259.88
917.38	4963.57
921.88	5884.14
926.377	5931.44
930.872	5148.09
935.364	4414.52
939.853	4017.98
944.34	3924.49
948.824	3876.74
953.306	4069.23
957.785	3968
962.261	4055.8
966.735	3738.64
971.207	4178.35
975.675	3948.1
980.141	4021.3
984.605	4283.7
989.066	4631.92
993.524	5309.97
997.98	6019.98
1002.43	7234.62
1006.88	8729.21
1011.33	10478.6
1015.78	12276.9
1020.22	14678.4
1024.66	14627.6
1029.1	12418.4
1033.53	10986.8
1037.97	11793.9
1042.4	13723.9
1046.82	14915.2
1051.25	14243.3
1055.67	13301
1060.09	13275
1064.51	10393
1068.92	6535.94
1073.33	4638.98
1077.74	3587.43
1082.15	3003.91
1086.55	2538.36
1090.95	2227.27
1095.35	1725.45
1099.75	1730.65
1104.14	1842.04
1108.53	1467.3
1112.92	1445.46
1117.31	1569.07
1121.69	1843.08
1126.07	1611.37
1130.45	1096.4
1134.82	663.242
1139.19	633.684
1143.57	127.631
1147.93	137.871
1152.3	84.5644
1156.66	83.6191
1161.02	58.2363
1165.38	6.74609
1169.73	13.4668
1174.08	91.6797
1178.43	137.924
1182.78	137.17
1187.12	35.8086
1191.46	106.959
1195.8	152.736
1200.14	154.012
1204.47	62.291
1208.8	42.2031
1213.13	65.0449
1217.46	0.779297
1221.78	126.453
1226.1	64.3828
1230.42	28.918
1234.73	61.8672
1239.04	198.975
1243.35	253.459
1247.66	276.19
1251.97	270.621
1256.27	199.918
1260.57	128.455
1264.86	712.24
1269.16	256.279
1273.45	582.387
1277.74	443.334
1282.03	433.916
1286.31	384.328
1290.59	635.172
1294.87	285.699
1299.14	491.785
1303.42	584.871
1307.69	579.293
1311.95	311.211
1316.22	610.828
1320.48	728.781
1324.74	420.625
1329	443.99
1333.26	425.58
1337.51	367.195
1341.76	623.084
1346	614.451
1350.25	333.764
1354.49	425.633
1358.73	451.664
1362.96	418.764
1367.2	535.057
1371.43	549.711
1375.66	350.5
1379.88	240.443
1384.11	588.322
1388.33	394.182
1392.54	356.553
1396.76	370.879
1400.97	344.435
1405.18	64.7363
1409.39	230.572
1413.59	240.992
1417.8	111.514
1421.99	175.082
1426.19	9.81641
1430.38	59.7891
1434.58	377.117
1438.77	283.057
1442.95	120.936
1447.13	211.891
1451.32	147.926
1455.49	1.19141
1459.67	77.2266
1463.84	121.59
1468.01	13.4941
1472.18	59.168
1476.35	260.469
1480.51	92.5742
1484.67	199.197
1488.83	430.715
1492.98	292.709
1497.13	220.641
1501.28	444.523
1505.43	593.908
1509.57	477.039
1513.71	569.07
1517.85	397.486
1521.99	394.84
1526.12	573.314
1530.25	411.92
1534.38	476.258
1538.5	143.453
1542.62	298.129
1546.74	579.516
1550.86	576.205
1554.98	1066.92
1559.09	321.709
1563.2	28.8301
1567.31	303.297
