Measurement: Raman, 514 nm, ccw, Raman Data Processed
Mineral: Ferro-actinolite
Rruff sample: R060189
Ideal chemistry: [box]Ca_2_Fe^2+^_5_Si_8_O_22_(OH)_2_
Locality: Merry Widow mine, Vancouver Island, British Columbia, Canada
Source: Lloyd Twaites
Description: Parallel aggregate of green fibers
Measured chemistry: [box](Ca_1.94_Na_0.06_)_Σ=2_(Fe^2+^_2.55_Mg_2.15_Fe^3+^_0.20_Al_0.05_Mn_0.05_)_Σ=5_(Si_0.98_Al_0.02_)_8_O_22_(OH)_2_
Raman shift (cm-1)	intensity
95.948	0
100.883	11.1787
105.815	285.761
110.744	2045.45
115.671	797.781
120.596	206.143
125.519	262.228
130.439	759.534
135.356	1320.15
140.271	5188.16
145.184	13986.4
150.094	17345.3
155.002	6825.44
159.908	3919.06
164.811	6108.23
169.711	13679.8
174.61	15982.1
179.505	7716.56
184.399	4143.48
189.29	3787.77
194.178	4682.41
199.064	6202.24
203.948	8738.32
208.829	11559.7
213.708	17579.5
218.585	20469.4
223.459	16165.2
228.33	9600.59
233.199	5069.3
238.066	2996.22
242.93	2146.64
247.792	1636.48
252.651	1408.25
257.508	1152.62
262.363	1360.13
267.215	1060.79
272.064	1006.9
276.912	1251.9
281.756	1362.08
286.598	1615.87
291.438	1360.62
296.276	1194.16
301.111	915.616
305.943	815.305
310.773	692.784
315.601	681.676
320.426	972.311
325.248	1239.36
330.068	1354.23
334.886	1607.27
339.701	1689.1
344.514	2012.18
349.324	2472.45
354.132	2692.18
358.938	2744.22
363.741	2315.48
368.541	1862.91
373.339	1827.46
378.135	2004.1
382.928	1916.81
387.718	1709.62
392.506	1179.1
397.292	832.338
402.075	590.133
406.856	470.365
411.634	126.943
416.41	51.2134
421.183	68.3315
425.954	135.341
430.722	252.014
435.488	53.7144
440.251	19.7607
445.012	265.287
449.77	172.613
454.526	99.3765
459.28	34.939
464.03	49.3457
468.779	1.07666
473.525	1.46973
478.268	39.9102
483.009	69.1787
487.747	74.5195
492.483	238.651
497.217	378.424
501.948	619.835
506.676	722.881
511.402	981.606
516.125	1117.31
520.846	1558
525.565	1709.73
530.281	1603.72
534.994	1418.71
539.705	1277.48
544.413	1123.88
549.119	1054.02
553.822	916.794
558.523	717.788
563.222	702.613
567.917	715.315
572.611	641.907
577.302	543.927
581.99	349.365
586.676	259.646
591.359	177.939
596.04	236.736
600.718	430.214
605.394	523.863
610.067	615.418
614.737	927.69
619.406	1134.76
624.071	1612.88
628.734	2296.41
633.395	3382.67
638.053	4538.58
642.708	6120.08
647.361	8566.36
652.012	12961.3
656.66	22413
661.305	39077.4
665.948	50255.1
670.588	35608
675.226	17489.8
679.861	8946.99
684.494	5328.65
689.124	3445.44
693.752	2290.11
698.377	1647.85
702.999	1198.23
707.619	944.378
712.237	769.501
716.852	616.295
721.464	581.512
726.074	529.566
730.681	643.797
735.286	593.795
739.888	664.652
744.488	613.606
749.085	434.622
753.68	330.623
758.272	273.466
762.861	203.29
767.448	250.077
772.033	201.582
776.614	129.759
781.194	207.594
785.77	31.0747
790.345	76.9849
794.916	52.2085
799.485	20.439
804.052	134.019
808.616	81.1562
813.177	8.67822
817.736	9.93408
822.292	56.335
826.846	10.7148
831.397	13.3935
835.945	20.9058
840.491	49.2744
845.035	124.505
849.576	25.6372
854.114	232.685
858.65	153.671
863.183	216.61
867.713	328.509
872.241	398.397
876.767	457.254
881.29	689.081
885.81	812.882
890.328	1106.67
894.843	1383.55
899.356	1744.53
903.866	1825.67
908.373	2373.96
912.878	2899.49
917.38	3877.42
921.88	5174.32
926.377	5269.27
930.872	4348.1
935.364	3432.58
939.853	2967.51
944.34	2771.6
948.824	2617.16
953.306	2301.51
957.785	2344.49
962.261	2134.62
966.735	2147.11
971.207	2111.3
975.675	1854.1
980.141	1854.05
984.605	1818.94
989.066	1961.06
993.524	2252.68
997.98	2474.66
1002.43	2923.02
1006.88	3489.75
1011.33	4118.86
1015.78	4701.34
1020.22	5398.34
1024.66	6026.59
1029.1	6606.67
1033.53	8186.15
1037.97	11124.2
1042.4	15014.9
1046.82	17527.2
1051.25	16157.2
1055.67	12897.2
1060.09	11850.2
1064.51	8993.89
1068.92	5487.78
1073.33	3492.95
1077.74	2489.86
1082.15	1833.18
1086.55	1524.62
1090.95	1287.46
1095.35	1064.82
1099.75	1032.77
1104.14	834.859
1108.53	780.199
1112.92	559.489
1117.31	574.471
1121.69	625.564
1126.07	527.799
1130.45	354.181
1134.82	243.573
1139.19	133.605
1143.57	46.0625
1147.93	10.5566
1152.3	23.1123
1156.66	61.3677
1161.02	14.1387
1165.38	21.9189
1169.73	9.66553
1174.08	58.0117
1178.43	89.1548
1182.78	41.7227
1187.12	93.5498
1191.46	15.7773
1195.8	20.3037
1200.14	57.7778
1204.47	31.4688
1208.8	132.311
1213.13	104.201
1217.46	9.51709
1221.78	101.574
1226.1	43.3721
1230.42	111.038
1234.73	51.0762
1239.04	37.2544
1243.35	168.982
1247.66	185.083
1251.97	146.969
1256.27	238.403
1260.57	161.73
1264.86	234.009
1269.16	178.008
1273.45	192.657
1277.74	199.112
1282.03	273.138
1286.31	187.497
1290.59	220.548
1294.87	248.352
1299.14	248.775
1303.42	206.761
1307.69	209.34
1311.95	231.415
1316.22	262.781
1320.48	313.12
1324.74	324.277
1329	152.846
1333.26	193.237
1337.51	177.349
1341.76	133.143
1346	184.48
1350.25	291.824
1354.49	121.508
1358.73	253.82
1362.96	138.145
1367.2	172.977
1371.43	288.023
1375.66	70.5054
1379.88	155.834
1384.11	164.904
1388.33	55.8852
1392.54	30.6084
1396.76	94.1445
1400.97	69.9292
1405.18	94.9536
1409.39	136.726
1413.59	86.1694
1417.8	28.4585
1421.99	11.5654
1426.19	102.041
1430.38	87.5288
1434.58	140.986
1438.77	95.3852
1442.95	110.681
1447.13	61.1807
1451.32	10.1455
1455.49	41.7925
1459.67	74.9707
1463.84	102.803
1468.01	46.3174
1472.18	138.227
1476.35	171.612
1480.51	71.625
1484.67	110.995
1488.83	115.856
1492.98	31.248
1497.13	83.4741
1501.28	126.942
1505.43	189.899
1509.57	39.7754
1513.71	107.182
1517.85	163.157
1521.99	195.908
1526.12	127.211
1530.25	165.598
1534.38	211.159
1538.5	101.061
1542.62	170.405
1546.74	97.6231
1550.86	208.213
1554.98	290.518
1559.09	41.4502
1563.2	115.779
1567.31	3.95703
