Measurement: Raman, 514 nm, ccw, Raman Data Processed
Mineral: Fluorite
Rruff sample: R040099
Ideal chemistry: CaF_2_
Locality: Rock Candy mine, Grand Forks, British Columbia, Canada
Source: Bob Downs
Description: Pale purple fragment
Measured chemistry: Ca_0.99_F_2.00_
Pin_id: L01716
Orientation: Laser parallel to a* (1 0 0). Fiducial mark perpendicular to laser is parallel to -c [0 0 -1]
Raman shift (cm-1)	intensity
94.523	0
99.467	54.8328
104.409	68.5901
109.349	253.915
114.286	275.955
119.22	318.642
124.152	173.064
129.081	86.7917
134.008	87.2847
138.932	612.554
143.854	1339.4
148.773	2006.1
153.69	537.38
158.604	151.009
163.515	153.525
168.424	196.357
173.33	153.178
178.234	76.4373
183.135	29.6904
188.034	293.676
192.93	717.246
197.823	460.251
202.714	446.28
207.602	208.452
212.488	177.58
217.371	150.587
222.252	390.502
227.13	698.336
232.005	463.172
236.878	521.09
241.749	884.682
246.616	728.062
251.482	380.816
256.344	154.145
261.204	674.713
266.062	666.326
270.917	52.8513
275.769	107.79
280.619	72.0076
285.466	117.088
290.311	65.0076
295.153	58.456
299.992	71.5986
304.829	188.279
309.663	230.255
314.495	670.843
319.324	1830.32
324.151	2864.32
328.975	1402.56
333.796	884.179
338.615	758.293
343.432	873.837
348.245	1017.51
353.056	1220.47
357.865	1468.91
362.671	1447
367.474	1504.69
372.275	1379.8
377.073	1109.17
381.869	909.621
386.662	800.631
391.452	710.48
396.24	515.704
401.025	433.408
405.808	289.769
410.588	224.924
415.366	169.961
420.141	153.384
424.913	99.5229
429.683	72.9194
434.45	4.18213
439.214	46.7561
443.976	197.522
448.736	128.738
453.493	154.369
458.247	173.206
462.998	173.577
467.747	334.67
472.494	399.435
477.238	345.102
481.979	406.607
486.718	475.803
491.454	642.399
496.187	672.249
500.918	447.582
505.646	349.425
510.372	249.996
515.095	137.314
519.816	202.007
524.534	124.832
529.249	104.859
533.962	56.7471
538.672	82.4878
543.379	85.0679
548.084	212.493
552.786	275.261
557.486	274.863
562.183	433.877
566.878	440.218
571.57	508.831
576.259	541.689
580.946	499.575
585.63	306.267
590.311	183.733
594.99	208.101
599.667	106.288
604.34	151.939
609.012	105.753
613.68	56.4937
618.346	27.3457
623.009	110.119
627.67	15.4312
632.328	33.0669
636.984	97.2754
641.636	81.1016
646.287	106.597
650.934	20.6294
655.579	76.1323
660.222	226.046
664.862	650.35
669.499	1095.55
674.134	1095.12
678.766	1171.91
683.395	1516.42
688.022	2193.66
692.646	2723.24
697.268	2792.13
701.887	3267.33
706.503	3788.4
711.117	3823.6
715.728	3151.78
720.337	2386.73
724.943	1680.42
729.546	1421.04
734.147	1198.39
738.745	1182.51
743.341	1082.43
747.933	1032.9
752.524	1089.99
757.111	1155.61
761.697	1104.21
766.279	1167.54
770.859	1100.26
775.436	1156.28
780.011	1508.47
784.583	1492.34
789.152	1744.26
793.719	1929.21
798.283	2088.47
802.845	2223.65
807.404	2422.91
811.96	2722.01
816.514	2926.95
821.065	3223.74
825.613	3474.37
830.159	3936.86
834.703	6949.37
839.243	9925.22
843.781	12808.5
848.317	8540.99
852.849	8018.91
857.38	3538.88
861.907	1227.26
866.432	400.492
870.954	98.9502
875.474	247.116
879.991	132.876
884.506	92.3862
889.018	170.587
893.527	605.643
898.034	1685.73
902.538	857.015
907.039	1278.68
911.538	9899.93
916.034	8306.05
920.528	9366.13
925.018	10662.1
929.507	16303.8
933.992	7760.16
938.476	11281.1
942.956	4234.71
947.434	15370
951.909	11718
956.382	2240.86
960.852	1810.57
965.319	2058.81
969.784	1710.58
974.246	925.102
978.705	224.367
983.162	69.2041
987.616	79.7148
992.068	9.24219
996.517	49.6885
1000.96	433.06
1005.41	779.335
1009.85	1073.41
1014.29	1485.66
1018.72	2047.51
1023.16	2532.65
1027.59	3204.11
1032.02	3737.15
1036.44	3704.62
1040.86	3873.64
1045.28	4081.3
1049.7	4244.64
1054.12	3699.74
1058.53	3460.69
1062.94	3041.53
1067.35	2489.31
1071.75	1921.1
1076.15	1810.93
1080.55	1251.85
1084.95	669.927
1089.34	464.19
1093.73	205.686
1098.12	171.556
1102.51	303.937
1106.89	375.07
1111.27	170.927
1115.65	1.07031
1120.03	308.172
1124.4	1099.24
1128.77	1424.23
1133.14	2113.3
1137.5	3344.47
1141.86	4867.77
1146.22	5614.39
1150.58	6272
1154.93	5898.72
1159.29	5460.92
1163.64	5125.61
1167.98	4731.28
1172.33	4234.07
1176.67	3295.26
1181.01	2199.85
1185.34	1388.79
1189.68	983.062
1194.01	744.81
1198.34	473.898
1202.66	505.338
1206.99	372.16
1211.31	613.248
1215.62	1061.55
1219.94	1260.03
1224.25	1546.64
1228.56	2005.42
1232.87	2253.21
1237.17	2513.47
1241.48	3356.97
1245.78	4166.17
1250.07	5083.48
1254.37	6003.05
1258.66	6146.94
1262.95	6130.71
1267.23	5846.19
1271.52	5662.19
1275.8	6150.8
1280.08	6579.77
1284.35	7419.87
1288.63	8931.65
1292.9	10139.9
1297.16	10342.4
1301.43	9505.62
1305.69	7907.85
1309.95	7191.28
1314.21	7035.17
1318.46	7017.01
1322.72	6718.89
1326.97	5967.18
1331.21	5156.79
1335.46	4575.47
1339.7	3988.65
1343.94	3613.74
1348.18	3210.74
1352.41	3412.63
1356.64	5474.52
1360.87	10459.8
1365.1	7437
1369.32	3253.65
1373.54	2304.28
1377.76	2810.12
1381.97	3985.5
1386.19	6197.83
1390.4	5543.1
1394.6	5813.54
1398.81	4841.31
1403.01	1285.03
1407.21	81.3467
1411.41	365.791
1415.6	557.456
1419.79	561.052
1423.98	54.0098
1428.17	956.143
1432.35	189.783
1436.54	59.8477
1440.71	862.473
1444.89	2558.3
1449.06	3550.23
1453.23	2194.91
1457.4	2087.49
1461.57	2870.47
1465.73	3601.96
1469.89	3560.84
1474.05	3849.42
1478.2	4260.22
1482.36	4217.76
1486.51	3713.84
1490.65	3810.03
1494.8	3739.42
1498.94	3633.12
1503.08	4069.26
1507.22	4652.49
1511.35	4637.32
1515.48	4506.26
1519.61	3306.89
1523.74	2299.59
1527.86	1287.03
1531.98	798.024
1536.1	482.99
1540.22	173.267
1544.33	196.801
1548.44	69.7305
