Measurement: Raman, 514 nm, ccw, Raman Data Processed
Mineral: Fluorapatite
Rruff sample: R060421
Ideal chemistry: Ca_5_(PO_4_)_3_F
Locality: Levant mine, St. Just, Cornwall, England
Source: Michael Scott
Description: Brown hexagonal prisms
Measured chemistry: (Ca_4.93_[box]_0.07_)_Σ=5_((PO_4_)_2.86_(CO_3_)_0.14_)_Σ=3_F_1.00_ : C not measured but estimated by difference and charge balance
Pin_id: M00175
Orientation: Laser parallel to c* (0 0 1). Fiducial mark perpendicular to laser is parallel to a [1 0 0]
Raman shift (cm-1)	intensity
124.288	0
129.209	138.499
134.127	377.897
139.043	517.794
143.956	202.849
148.867	128.383
153.775	136.22
158.681	199.756
163.585	165.086
168.486	206.304
173.385	41.2214
178.282	107.625
183.176	46.7085
188.067	35.9678
192.956	24.5361
197.843	26.7256
202.727	17.4502
207.609	37.4214
212.489	42.0425
217.366	38.8145
222.24	11.9224
227.112	127.075
231.982	137.595
236.849	199.249
241.714	25.5303
246.577	67.9629
251.437	147.667
256.294	204.05
261.149	318.305
266.002	477.161
270.852	407.166
275.7	216.01
280.545	196.499
285.388	170.16
290.229	64.1279
295.067	126.242
299.902	189.397
304.735	328.569
309.566	231.601
314.394	316.062
319.22	201.46
324.043	116.056
328.864	14.0854
333.682	57.3164
338.498	92.2852
343.311	2.41748
348.122	26.4795
352.931	0.126465
357.737	62.4546
362.54	7.52637
367.341	98.7188
372.14	14.4453
376.936	70.7622
381.73	124.938
386.521	43.6553
391.31	161.792
396.096	230.657
400.88	159.996
405.661	262.535
410.44	214.665
415.216	237.61
419.99	376.834
424.761	567.202
429.53	677.243
434.297	791.887
439.061	838.792
443.822	1105.52
448.581	836.427
453.337	637.222
458.091	521.234
462.843	208.7
467.592	293.043
472.338	164.054
477.082	120.663
481.824	191.295
486.563	75.3838
491.3	101.288
496.034	105.029
500.765	36.4453
505.494	80.4844
510.221	35.1065
514.945	11.9883
519.666	119.393
524.385	24.584
529.102	23.1016
533.816	119.103
538.527	37.9775
543.236	29.4473
547.943	11.958
552.647	36.4678
557.348	185.758
562.047	65.5469
566.744	227.269
571.438	470.084
576.129	1081.19
580.818	1315.66
585.504	616.715
590.188	465.739
594.87	314.272
599.549	378.46
604.225	751.261
608.899	647.925
613.57	595.562
618.239	350.092
622.905	364.743
627.569	160.755
632.23	20.9697
636.889	340.653
641.545	190.432
646.198	307.533
650.849	183.337
655.498	323.275
660.144	264.535
664.787	248.742
669.428	164.179
674.067	198.986
678.703	266.435
683.336	222.763
687.967	381.062
692.595	266.525
697.221	175.871
701.844	237.705
706.465	388.5
711.083	349.547
715.698	379.775
720.311	324.004
724.922	293.883
729.53	346.019
734.135	300.402
738.738	500.648
743.338	204.543
747.936	488.125
752.531	392.375
757.124	489.463
761.714	242.453
766.302	282.647
770.887	402.551
775.469	396.951
780.049	368.318
784.626	406.166
789.201	473.334
793.773	390.566
798.343	381.092
802.91	447.469
807.475	239.998
812.037	379.967
816.596	196.5
821.153	207.656
825.707	385.654
830.259	408.131
834.808	344.643
839.355	311.951
843.899	254.756
848.441	351.656
852.98	274.211
857.516	237.109
862.05	398.463
866.581	250.99
871.11	145.031
875.636	371.299
880.159	127.555
884.68	260.777
889.199	258.815
893.714	242.803
898.228	211.865
902.738	219.147
907.246	182.277
911.752	15.3164
916.255	308.736
920.755	23.2129
925.253	60.8164
929.748	403.824
934.241	21.5332
938.731	255.451
943.218	325.986
947.703	829.709
952.186	1597.81
956.665	4297.5
961.142	14112.4
965.617	16661.2
970.089	5034.1
974.558	1329.3
979.025	393.217
983.489	115.918
987.951	23.2637
992.41	38.793
996.866	81.9258
1001.32	228.127
1005.77	168.773
1010.22	268.824
1014.67	61.5352
1019.11	180.59
1023.55	168.363
1027.99	149.285
1032.42	865.133
1036.86	546.356
1041.29	312.742
1045.72	58.8711
1050.14	276.055
1054.56	415.336
1058.98	653.656
1063.4	306.273
1067.82	205.309
1072.23	478.801
1076.64	542.246
1081.05	477.012
1085.45	197.137
1089.85	315.723
1094.25	184.785
1098.65	513.379
1103.04	692.59
1107.43	499.453
1111.82	502.027
1116.21	566.133
1120.59	191.211
1124.97	675.664
1129.35	530.051
1133.73	367.852
1138.1	613.699
1142.47	622.57
1146.84	603.324
1151.21	636.07
1155.57	711.43
1159.93	915.32
1164.29	901.012
1168.64	964.488
1172.99	936.781
1177.34	1228.98
1181.69	1016.24
1186.04	958.574
1190.38	1037.29
1194.72	1183.12
1199.05	791.231
1203.39	1092.63
1207.72	1025.05
1212.05	1071.44
1216.37	1065.84
1220.7	844.246
1225.02	1021.72
1229.34	912.273
1233.65	767.023
1237.97	1029.82
1242.28	1124.79
1246.59	796.109
1250.89	651.191
1255.19	452.797
1259.49	514.176
1263.79	651.477
1268.09	710.453
1272.38	525.945
1276.67	398.879
1280.95	249.176
1285.24	332.906
1289.52	92.9609
1293.8	523.195
1298.08	461.117
1302.35	384.363
1306.62	100.938
1310.89	444.832
1315.15	250.023
1319.42	268.512
1323.68	213.269
1327.94	573.055
1332.19	44.9844
1336.44	174.836
1340.69	234.727
1344.94	293.672
1349.19	59.6875
1353.43	317.758
1357.67	155.883
1361.9	380.039
1366.14	211.254
1370.37	143.758
1374.6	322.953
1378.83	367.465
1383.05	27.7422
1387.27	93.0156
1391.49	14.5312
1395.7	6.30469
1399.92	264.93
1404.13	73.1328
1408.34	298.184
1412.54	131.172
1416.74	296.172
1420.94	291.742
1425.14	400.469
1429.34	110.285
1433.53	308.785
1437.72	237.305
1441.9	443.117
1446.09	108.398
1450.27	385.773
1454.45	10.7031
1458.63	311.496
1462.8	263.336
1466.97	361.68
1471.14	248.676
1475.31	359.867
1479.47	333.387
1483.63	387.969
1487.79	271.777
1491.94	245.445
1496.09	133.215
1500.24	346.18
1504.39	85.793
1508.54	103.055
1512.68	24.1758
1516.82	37.4219
1520.95	269.352
1525.09	66.6914
1529.22	412.652
1533.35	328.492
1537.47	175.309
1541.6	14.3203
1545.72	7.22266
1549.83	137.324
1553.95	191.332
1558.06	268.676
1562.17	311.688
1566.28	61.7852
1570.38	0.230469
