Measurement: Raman, 514 nm, ccw, Raman Data Processed
Mineral: Fluor-buergerite
Rruff sample: R060132
Ideal chemistry: NaFe^3+^_3_Al_6_(Si_6_O_18_)(BO_3_)_3_O_3_F
Locality: 20 km. south of San Luis Potasi, Mexico
Source: University of Arizona Mineral Museum
Description: Brown short prismatic
Measured chemistry: (Na_0.87_Ca_0.03_[box]_0.10_)(Fe^3+^_0.82_Al_0.12_Mg_0.04_Ti_0.02_)_3_Al_6_(BO_3_)_3_(Si_0.98_Al_0.02_)_6_O_18_(O_0.66_F_0.19_(OH)_0.15_)_4_
Pin_id: L01714
Orientation: Laser parallel to a* (1 0 0). Fiducial mark perpendicular to laser is parallel to -c [0 0 -1]
Raman shift (cm-1)	intensity
120.596	0
125.519	83.9634
130.439	251.898
135.356	184.405
140.271	564.104
145.184	672.556
150.094	908.654
155.002	931.119
159.908	485.717
164.811	996.639
169.711	1442.54
174.61	1962.33
179.505	2054.15
184.399	1855.04
189.29	1788.56
194.178	1672.33
199.064	1564.56
203.948	1475.24
208.829	173.163
213.708	52.9517
218.585	0.347168
223.459	87.1074
228.33	239.708
233.199	26.7944
238.066	381.174
242.93	815.447
247.792	1489.38
252.651	2781.54
257.508	3581.67
262.363	3496.89
267.215	3442.07
272.064	3465.87
276.912	3367.62
281.756	2613.41
286.598	2372.32
291.438	1943.26
296.276	1864.66
301.111	1759.39
305.943	1906.97
310.773	1986.69
315.601	2451.57
320.426	3172.9
325.248	3530.54
330.068	3585.43
334.886	3127.53
339.701	2965.8
344.514	3401.98
349.324	3985.69
354.132	4038.5
358.938	3508.82
363.741	3163.53
368.541	2330.61
373.339	1850.32
378.135	1596.5
382.928	1792.7
387.718	2407.71
392.506	3401.52
397.292	4203.2
402.075	4097.79
406.856	3606.3
411.634	2514.75
416.41	1760.22
421.183	1085.81
425.954	1155.5
430.722	1471.35
435.488	2309.78
440.251	3092.68
445.012	3750.25
449.77	3611.14
454.526	3079.4
459.28	2470.28
464.03	2057.16
468.779	1815.82
473.525	1558.03
478.268	1017.8
483.009	278.117
487.747	354.152
492.483	524.735
497.217	684.566
501.948	428.409
506.676	315.635
511.402	1314.7
516.125	2757.23
520.846	3249.94
525.565	3367.26
530.281	3126.13
534.994	2994.52
539.705	2909.52
544.413	3238.55
549.119	3344.94
553.822	3669.03
558.523	3848.02
563.222	4324.8
567.917	5084.19
572.611	6084.05
577.302	7186.12
581.99	8535.36
586.676	10709.8
591.359	12294.4
596.04	15228.6
600.718	18339.2
605.394	20924.1
610.067	22855.3
614.737	24009.7
619.406	25973.1
624.071	29357.4
628.734	35082.9
633.395	41653
638.053	42075.8
642.708	35628.9
647.361	29055
652.012	24112.6
656.66	20792
661.305	16556.2
665.948	12856.4
670.588	9668.75
675.226	6729.04
679.861	3656.28
684.494	2118.04
689.124	1909.1
693.752	2055.81
698.377	2218.61
702.999	2632
707.619	2507.54
712.237	2238.95
716.852	1837.01
721.464	1408.37
726.074	1461.81
730.681	1882.17
735.286	2066.33
739.888	1912.78
744.488	1915.68
749.085	2083.76
753.68	2212.16
758.272	2117.01
762.861	1520.57
767.448	1246.58
772.033	1357.2
776.614	1182.22
781.194	952.137
785.77	611.082
790.345	272.213
794.916	94.4199
799.485	140.64
804.052	69.7393
808.616	94.6992
813.177	11.4683
817.736	55.3398
822.292	166.657
826.846	282.241
831.397	191.876
835.945	170.737
840.491	128.776
845.035	84.6143
849.576	46.9443
854.114	51.2974
858.65	89.0078
863.183	14.9297
867.713	169.318
872.241	218.216
876.767	272.901
881.29	295.467
885.81	285.999
890.328	472.605
894.843	595.399
899.356	720.531
903.866	811.102
908.373	892.119
912.878	1127.43
917.38	1286.98
921.88	1408.78
926.377	1594.21
930.872	1872.08
935.364	2054.57
939.853	2293.77
944.34	2535.6
948.824	2728.77
953.306	3071.13
957.785	3129.58
962.261	3214.09
966.735	3407.46
971.207	3451.95
975.675	3332.67
980.141	3336.8
984.605	3454.04
989.066	3368.18
993.524	3548.93
997.98	3434.71
1002.43	3738.49
1006.88	3661.67
1011.33	3631.79
1015.78	3584.15
1020.22	3285.46
1024.66	3051.94
1029.1	2823.24
1033.53	2671.38
1037.97	2683.42
1042.4	2644.59
1046.82	2844.56
1051.25	3325.43
1055.67	3532.47
1060.09	3444.07
1064.51	2984.12
1068.92	2465.89
1073.33	2111.88
1077.74	1800.38
1082.15	1618.15
1086.55	1438.91
1090.95	1196.14
1095.35	1235.24
1099.75	1174.55
1104.14	1291.1
1108.53	1393.89
1112.92	1211.67
1117.31	1179.44
1121.69	869.851
1126.07	640.794
1130.45	548.277
1134.82	277.352
1139.19	225.799
1143.57	114.57
1147.93	25.6318
1152.3	23.8994
1156.66	62.7129
1161.02	57.5264
1165.38	45.0395
1169.73	64.0083
1174.08	14.2021
1178.43	38.3452
1182.78	33.331
1187.12	53.542
1191.46	42.3525
1195.8	47.8193
1200.14	88.3428
1204.47	89.6636
1208.8	165.37
1213.13	209.104
1217.46	449.384
1221.78	555.079
1226.1	822.118
1230.42	1170.49
1234.73	1514.12
1239.04	1954.01
1243.35	2147.14
1247.66	2475.5
1251.97	2550.07
1256.27	2840.84
1260.57	3041.8
1264.86	3134.94
1269.16	3052.24
1273.45	2933.68
1277.74	3127.17
1282.03	3644.55
1286.31	3808.2
1290.59	3698.66
1294.87	3260.59
1299.14	2865.33
1303.42	3053.67
1307.69	2975.13
1311.95	2971.78
1316.22	2724.12
1320.48	2437.37
1324.74	2438.23
1329	2253.96
1333.26	2211.46
1337.51	2133.86
1341.76	2201.17
1346	2152.86
1350.25	2190.57
1354.49	2195.22
1358.73	2140.97
1362.96	1978.89
1367.2	1887.11
1371.43	1530.27
1375.66	1283.67
1379.88	1022.17
1384.11	875.525
1388.33	987.147
1392.54	799.084
1396.76	846.467
1400.97	805.476
1405.18	638.818
1409.39	554.101
1413.59	593.562
1417.8	215.205
1421.99	244.164
1426.19	278.83
1430.38	25.3755
1434.58	115.174
1438.77	200.685
1442.95	26.2383
1447.13	59.7129
1451.32	17.938
1455.49	62.1919
1459.67	22.1885
1463.84	62.8633
1468.01	24.4766
1472.18	17.0991
1476.35	106.375
1480.51	53.9199
1484.67	144.582
1488.83	95.4722
1492.98	64.6816
1497.13	145.113
1501.28	124.962
1505.43	152.463
1509.57	156.323
1513.71	254.821
1517.85	118.82
1521.99	204.174
1526.12	27.7398
1530.25	187.005
1534.38	132.85
1538.5	39.5518
1542.62	157.038
1546.74	89.5727
1550.86	235.04
1554.98	411.696
1559.09	105.357
1563.2	71.4727
1567.31	134.192
