Measurement: Raman, 514 nm, ccw, Raman Data Processed
Mineral: Fluorapophyllite-(K)
Rruff sample: R050084
Ideal chemistry: KCa_4_Si_8_O_20_F8H_2_O
Locality: near Ahmednagar, Maharashtra, India
Source: Rock Currier
Description: Greenish-white prismatic single crystal associated with scolecite
Measured chemistry: (K_0.98_Na_0.02_)Ca_4.00_Si_8.00_O_20_F_1.00_Â·8H_2_O
Pin_id: L00128
Orientation: Laser parallel to c* (0 0 1). Fiducial mark perpendicular to laser is parallel to a [1 0 0]
Raman shift (cm-1)	intensity
97.121	0
101.314	199.933
105.505	1377.85
109.694	7605.48
113.881	1786.13
118.066	835.87
122.249	5393.18
126.43	3216.59
130.608	1738.78
134.785	2283.62
138.959	622.021
143.131	104.109
147.301	301.288
151.469	188.156
155.635	755.91
159.799	1890.65
163.961	5650.48
168.121	3006.69
172.278	662.276
176.434	270.298
180.587	645.915
184.739	3813.84
188.888	5599.94
193.035	2023.03
197.18	1665.38
201.324	1873.53
205.465	2951.34
209.603	8285.15
213.74	11768.8
217.875	6292.42
222.008	3796.89
226.139	4135.37
230.267	5323.17
234.394	3472.49
238.518	1688.14
242.641	1123.38
246.761	556.291
250.879	5.938
254.996	98.987
259.11	590.078
263.222	529.41
267.332	788.735
271.44	1328.65
275.546	796.384
279.65	371.128
283.752	146.835
287.852	905.951
291.95	1620.51
296.046	2303.46
300.14	3430.44
304.231	3060.01
308.321	1791.42
312.409	607.289
316.495	388.375
320.578	810.233
324.66	799.736
328.739	443.215
332.817	883.635
336.892	1986.94
340.966	2097.3
345.037	1012.3
349.107	601.007
353.174	715.296
357.24	354.055
361.303	127.975
365.365	139.368
369.424	561.875
373.481	496.816
377.537	104.449
381.59	53.002
385.642	384.137
389.691	198.894
393.738	213.7
397.784	149.937
401.827	489.189
405.868	521.858
409.908	18.835
413.945	1.531
417.98	613.815
422.014	901.2
426.045	728.355
430.075	2123.44
434.102	8245.51
438.127	4870.49
442.151	1316.14
446.172	335.604
450.192	616.225
454.209	905.723
458.225	549.096
462.238	393.341
466.25	963.462
470.259	1310.53
474.267	769.582
478.273	91.742
482.276	225.808
486.278	1129.75
490.278	1098.58
494.276	215.275
498.271	110.144
502.265	550.155
506.257	828.458
510.247	423.622
514.235	18.499
518.221	388.129
522.205	1005.59
526.187	877.631
530.167	396.387
534.145	680.494
538.122	1472.29
542.096	1971.23
546.068	1213.92
550.039	492.61
554.007	848.15
557.973	1482.17
561.938	1512.11
565.901	878.399
569.861	1031.36
573.82	2179.74
577.777	3510.53
581.732	4441.64
585.685	5073.41
589.636	5208.4
593.585	4413.64
597.532	3187.32
601.477	1628
605.42	784.402
609.361	1069.13
613.301	1473.52
617.238	1386.8
621.174	724.236
625.108	676.682
629.039	1335.12
632.969	1954.62
636.897	1498.63
640.823	910.116
644.747	1105.6
648.669	2048.08
652.589	2950.56
656.508	2904.72
660.424	2796.72
664.339	3401.2
668.251	4352.44
672.162	4025
676.071	2343.54
679.978	1228.18
683.883	883.036
687.786	1314.24
691.687	1387.72
695.586	695.509
699.484	73.454
703.379	123.646
707.273	641.007
711.165	722.494
715.055	360.913
718.943	209.538
722.829	16.131
726.713	705.214
730.595	993.866
734.476	598.033
738.354	144.958
742.231	108.26
746.106	601.215
749.978	999.579
753.849	685.875
757.719	81.096
761.586	5.293
765.451	779.516
769.315	1587.14
773.177	1401.38
777.036	455.168
780.894	100.557
784.75	323.618
788.605	1278.76
792.457	1728.9
796.307	1292.05
800.156	354.358
804.003	94.536
807.848	704.727
811.691	1160.97
815.532	1107.31
819.371	393.649
823.209	7.03
827.045	429.403
830.878	1125.27
834.71	1739.55
838.54	1086.04
842.369	378.83
846.195	305.485
850.02	846.248
853.842	1466.88
857.663	1461.55
861.482	840.127
865.299	84.182
869.115	168.09
872.928	804.188
876.74	1254.91
880.55	934.437
884.358	206.09
888.164	36.719
891.969	257.194
895.771	830.651
899.572	1169.7
903.371	1028.45
907.168	360.74
910.963	30.986
914.757	216.207
918.548	877.82
922.338	1277.47
926.126	933.146
929.912	408.875
933.697	92.327
937.479	252.306
941.26	723.59
945.039	1089.76
948.816	960.987
952.591	590.435
956.365	101.757
960.136	149.136
963.906	806.577
967.674	1255.08
971.441	1408.25
975.205	800.213
978.968	33.062
982.729	20.281
986.488	299.581
990.245	1040.45
994	871.464
997.754	745.085
1001.51	570.187
1005.26	495.302
1009	1051.33
1012.75	1621.31
1016.5	1805.68
1020.24	1690.26
1023.98	1107.44
1027.72	532.381
1031.46	403.13
1035.19	788.761
1038.93	1602.41
1042.66	2268.57
1046.39	2375.06
1050.12	2241.73
1053.85	3103.4
1057.57	5652.28
1061.29	10839.3
1065.02	11296.5
1068.74	6813.73
1072.45	3751.41
1076.17	1799.35
1079.88	618.437
1083.6	490.597
1087.31	1030.39
1091.02	1615.39
1094.72	1721.79
1098.43	1418.27
1102.13	684.838
1105.84	193.479
1109.54	144.89
1113.24	315.369
1116.93	1224.02
1120.63	1822.26
1124.32	1760.68
1128.01	1039.08
1131.7	130.522
1135.39	169.088
1139.08	212.827
1142.76	897.289
1146.45	1443.93
1150.13	1532.52
1153.81	1233.66
1157.48	526.851
1161.16	138.248
1164.84	82.376
1168.51	457.442
1172.18	979.241
1175.85	1359.96
