Measurement: Raman, 514 nm, ccw, Raman Data Processed
Mineral: Fluorite
Rruff sample: R040099
Ideal chemistry: CaF_2_
Locality: Rock Candy mine, Grand Forks, British Columbia, Canada
Source: Bob Downs
Description: Pale purple fragment
Measured chemistry: Ca_0.99_F_2.00_
Pin_id: L01716
Orientation: Laser parallel to a* (1 0 0). Fiducial mark perpendicular to laser is parallel to -c [0 0 -1]
Raman shift (cm-1)	intensity
83.388	0
88.338	2.46472
93.286	158.936
98.231	357.597
103.174	476.709
108.114	562.05
113.052	510.999
117.987	610.282
122.919	394.371
127.849	296.041
132.777	287.484
137.702	630.148
142.624	1502.42
147.544	2588.22
152.461	1012.88
157.375	335.668
162.287	185.603
167.197	252.231
172.104	184.846
177.008	4.54492
181.91	76.9226
186.809	189.073
191.706	428.479
196.6	467.696
201.491	392.726
206.38	306.043
211.267	183.402
216.151	231.881
221.032	345.495
225.911	819.307
230.787	698.06
235.66	600.474
240.531	837.597
245.4	1045.2
250.266	389.725
255.129	316.9
259.99	517.467
264.848	1593.28
269.703	136.278
274.556	69.5957
279.407	99.6357
284.255	108.347
289.1	19.7915
293.942	18.2436
298.783	100.122
303.62	19.4436
308.455	192.761
313.288	461.094
318.117	1342.45
322.945	2665.83
327.769	1627.3
332.591	995.674
337.411	753.163
342.228	874.699
347.042	995.409
351.854	1314.38
356.663	1534.98
361.47	1724.22
366.274	1669.12
371.075	1490.36
375.874	1261.86
380.67	1132.55
385.464	952.418
390.255	747.358
395.043	582.092
399.829	450.003
404.613	284.884
409.393	239.756
414.172	161.611
418.947	186.559
423.72	40.1262
428.49	7.11865
433.258	1.3042
438.024	58.5073
442.786	138.463
447.546	123.872
452.304	164.691
457.059	210.651
461.811	197.918
466.56	408.152
471.308	454.586
476.052	538.915
480.794	495.229
485.533	510.3
490.27	677.068
495.004	687.687
499.736	495.476
504.465	384.181
509.191	229.763
513.915	188.396
518.636	120.684
523.354	11.7544
528.07	53.3914
532.784	7.25586
537.494	23.271
542.203	108.008
546.908	150.17
551.611	175.207
556.311	226.104
561.009	329.885
565.704	403.825
570.397	326.904
575.087	414.674
579.774	529.094
584.459	371.388
589.141	236.468
593.821	258.464
598.498	231.305
603.172	80.6724
607.844	132.043
612.513	75.325
617.18	188.723
621.844	153.155
626.505	78.731
631.164	5.97974
635.82	102.663
640.473	92.9397
645.124	50.8916
649.773	39.1443
654.418	84.1819
659.062	370.82
663.702	699.618
668.34	1278.32
672.975	1292.83
677.608	1311.71
682.238	1757.56
686.866	2409.95
691.49	3033.57
696.113	3384.39
700.732	3750.39
705.349	4300.56
709.964	4596.88
714.576	3908.36
719.185	2982.73
723.792	2222.12
728.396	1756.27
732.997	1414.56
737.596	1398.42
742.192	1296.41
746.785	1234.73
751.376	1393.63
755.965	1534.84
760.551	1563.32
765.134	1416.14
769.714	1314.73
774.292	1558.69
778.867	1783.3
783.44	1906.59
788.01	2047.77
792.578	2404.47
797.142	2570.34
801.705	2666.98
806.264	2900.24
810.821	3111.1
815.376	3263.53
819.927	3573.54
824.476	3638.09
829.023	4050.2
833.567	5759.96
838.108	8507.63
842.647	10216.5
847.183	7667.61
851.716	7006.71
856.247	3810.6
860.776	1288.68
865.301	345.515
869.824	98.5903
874.345	150.734
878.862	85.8662
883.377	98.4233
887.89	238.266
892.4	52.9507
896.907	845.161
901.412	492.344
905.914	783.666
910.413	6645.44
914.91	11402.9
919.404	7438.2
923.896	12897.2
928.385	17948.7
932.871	9550.8
937.355	10237.4
941.836	5917.57
946.315	10996.4
950.79	21791.9
955.264	3562.17
959.734	2039.31
964.202	2405.37
968.668	2460.15
973.131	1447.42
977.591	538.398
982.048	231.99
986.503	31.477
990.955	47.106
995.405	125.29
999.852	437.553
1004.3	720.608
1008.74	1124.9
1013.18	1683.52
1017.61	2130.47
1022.05	2780.16
1026.48	3416.34
1030.91	4099.03
1035.33	4162.54
1039.76	4357.94
1044.18	4518.32
1048.6	4661.77
1053.01	4482.35
1057.42	4063.16
1061.84	3445.25
1066.24	2927.69
1070.65	2501.54
1075.05	1918.86
1079.45	1545.7
1083.85	894.116
1088.24	612.163
1092.63	234.888
1097.02	92.665
1101.41	238.731
1105.8	486.752
1110.18	259.336
1114.56	50.9609
1118.93	189.052
1123.31	917.736
1127.68	1664.21
1132.04	2260.97
1136.41	3650.2
1140.77	5145.92
1145.13	6464.43
1149.49	7350.45
1153.85	7010.36
1158.2	6288.01
1162.55	6210.19
1166.9	5472.04
1171.24	4984.95
1175.58	4206.51
1179.92	2803.66
1184.26	1839.23
1188.6	1142.76
1192.93	804.24
1197.26	670.402
1201.58	275.224
1205.9	424.769
1210.23	413.945
1214.55	756.65
1218.86	875.84
1223.17	1365.34
1227.48	1576.4
1231.79	1972.4
1236.1	2096.96
1240.4	2826.4
1244.7	3425.13
1249	4505.1
1253.29	5447.05
1257.59	6031.71
1261.88	6100.75
1266.16	5881.01
1270.45	6006.27
1274.73	6219.39
1279.01	6334.89
1283.28	7140.44
1287.56	8100.23
1291.83	9017.36
1296.1	9490.62
1300.36	8970.42
1304.63	7824.62
1308.89	7293.41
1313.15	7209.47
1317.4	7382.24
1321.65	7045.41
1325.9	6262.52
1330.15	5312.39
1334.4	4684.08
1338.64	4181.27
1342.88	3658.74
1347.12	3295.68
1351.35	3673.33
1355.58	4985.74
1359.81	10594.3
1364.04	10205.4
1368.26	4141.7
1372.48	2558.43
1376.7	2886.69
1380.92	3819.02
1385.13	6252.89
1389.34	6602.38
1393.55	5739.61
1397.76	6471.43
1401.96	1767.46
1406.16	14.4932
1410.36	526.779
1414.55	667.247
1418.75	624.197
1422.94	45.9751
1427.12	1375.48
1431.31	578.503
1435.49	284.244
1439.67	953.334
1443.85	2599.93
1448.02	4506.34
1452.19	3049.56
1456.36	2526.21
1460.53	3271.68
1464.69	4321.78
1468.85	4497.6
1473.01	4085.89
1477.17	3232.62
1481.32	3338.74
1485.47	3125.49
1489.62	3406.59
1493.76	3355.92
1497.91	3298.7
1502.05	3401.36
1506.18	3568.45
1510.32	3907.82
1514.45	3899.95
1518.58	2579.43
1522.71	1287.81
1526.83	401.387
1530.95	66.4512
