Measurement: Raman, 514 nm, ccw, Raman Data Processed
Mineral: Fluorapatite
Rruff sample: R050369
Ideal chemistry: Ca_5_(PO_4_)_3_F
Locality: Russia
Source: Eugene Schlepp
Description: Blueish-green hexagonal prismatic crystal
Measured chemistry: (Ca_0.99_Na_0.01_)_5_((P_0.98_S_0.02_)O_4_)_3_F_1.00_
Pin_id: L01431
Orientation: Laser parallel to -c* (0 0 -1). Fiducial mark perpendicular to laser is parallel to b [0 1 0]
Raman shift (cm-1)	intensity
107.047	0
111.976	4.00903
116.903	58.3472
121.827	66.385
126.749	96.0476
131.668	309.5
136.585	736.483
141.5	1360.32
146.412	599.805
151.321	348.558
156.229	544.049
161.134	783.049
166.036	541.441
170.936	539.773
175.834	327.883
180.729	98.1592
185.622	140.515
190.512	64.7202
195.4	44.7019
200.286	102.461
205.169	83.0234
210.049	84.3975
214.928	204.585
219.803	155.737
224.677	131.476
229.548	277.192
234.416	362.77
239.282	395.981
244.146	181.525
249.007	230.064
253.866	202.242
258.722	420.212
263.576	771.356
268.427	1031.17
273.276	641.829
278.123	504.764
282.967	261.663
287.809	233.543
292.648	175.368
297.485	192.106
302.319	407.735
307.151	485.238
311.98	567.601
316.807	481.806
321.631	286.832
326.454	187.653
331.273	65.2568
336.09	10.2717
340.905	0.847168
345.717	12.7104
350.527	2.48218
355.334	38.6499
360.139	12.3511
364.941	58.5562
369.741	9.70703
374.538	89.5918
379.333	48.2812
384.126	77.0537
388.916	53.96
393.703	23.9439
398.488	42.3565
403.271	78.7065
408.051	55.5855
412.828	64.6587
417.603	139.217
422.376	265.663
427.146	461.607
431.914	636.247
436.679	998.626
441.442	1530.75
446.202	2135.57
450.96	1911.06
455.715	1129.26
460.467	696.131
465.218	426.718
469.965	217.993
474.711	139.818
479.454	124.369
484.194	43.1338
488.932	175.7
493.667	4.32959
498.4	3.14551
503.13	81.5933
507.858	16.8208
512.583	73.7036
517.306	48.9443
522.026	57.5
526.744	91.208
531.459	56.2822
536.172	39.4175
540.882	103.715
545.59	24.0537
550.295	76.5903
554.998	109.706
559.698	119.686
564.396	217.334
569.091	314.406
573.784	885.034
578.474	2167.81
583.162	2773.88
587.847	839.22
592.529	842.022
597.209	611.267
601.887	841.913
606.562	2044.8
611.235	1406.16
615.905	927.447
620.572	537.867
625.237	303.852
629.9	118.113
634.56	86.1914
639.217	230.323
643.872	147.102
648.524	93.8506
653.174	164.412
657.821	253.4
662.466	67.5884
667.108	167.923
671.748	131.186
676.385	116.272
681.02	88.0625
685.652	88.7481
690.281	161.635
694.908	198.323
699.533	140.426
704.155	33.4956
708.774	156.568
713.391	47.8892
718.005	4.09717
722.617	130.896
727.226	151.006
731.833	105.573
736.437	234.773
741.039	110.195
745.638	101.65
750.234	0.899414
754.828	74.6387
759.419	188.848
764.008	196.682
768.595	55.7783
773.178	297.759
777.759	1.24121
782.338	135.124
786.914	133.903
791.488	113
796.059	189.885
800.627	5.34473
805.193	61.044
809.756	44.0557
814.317	110.63
818.875	75.5
823.431	115.48
827.984	8.13086
832.534	172.088
837.082	103.724
841.627	111.329
846.17	128.686
850.71	150.157
855.248	151.742
859.783	31.9922
864.316	124.412
868.846	17.3232
873.373	70.5859
877.898	163.966
882.42	21.666
886.94	88.1465
891.457	26.7598
895.971	78.8301
900.483	56.5742
904.993	22.4053
909.5	71.8447
914.004	108.324
918.505	30.1973
923.004	90.5801
927.501	80.9697
931.995	120.984
936.486	192.511
940.975	375.375
945.461	822.774
949.945	1662.63
954.426	4012.29
958.904	13764
963.38	42898.6
967.853	33349.9
972.324	7092.89
976.792	1797.63
981.258	675.852
985.72	339.775
990.181	106.53
994.639	151.697
999.094	35.3008
1003.55	368.838
1008	1002.89
1012.44	1104.16
1016.89	426.218
1021.33	346.451
1025.77	607.586
1030.21	1228.05
1034.64	1642.11
1039.07	786.444
1043.5	463.617
1047.93	383.522
1052.35	428.524
1056.78	981.188
1061.19	1529.03
1065.61	594.949
1070.02	443.772
1074.43	424.093
1078.84	783.33
1083.25	654.663
1087.65	282.1
1092.05	119.628
1096.45	23.2617
1100.85	67.0439
1105.24	148.906
1109.63	147.448
1114.02	114.945
1118.4	101.51
1122.78	117.326
1127.16	121.255
1131.54	202.311
1135.92	84.4717
1140.29	97.7363
1144.66	337.101
1149.02	188.722
1153.39	115.317
1157.75	315.124
1162.11	278.069
1166.46	171.14
1170.82	200.162
1175.17	176.29
1179.52	193.748
1183.86	51.998
1188.21	193.525
1192.55	28.3281
1196.89	182.166
1201.22	118.039
1205.55	197.941
1209.88	189.883
1214.21	416.859
1218.54	261.865
1222.86	173.893
1227.18	152.943
1231.5	311.01
1235.81	223.379
1240.12	101.254
1244.43	229.356
1248.74	238.5
1253.04	248.66
1257.34	261.834
1261.64	190.023
1265.94	311.228
1270.23	106.451
1274.52	309.685
1278.81	167.932
1283.1	39.8184
1287.38	97.3184
1291.66	166.787
1295.94	67.6504
1300.21	129.451
1304.48	38.4297
1308.75	125.978
1313.02	92.2539
1317.29	44.1738
1321.55	406.584
1325.81	337.977
1330.06	392.342
1334.32	259.139
1338.57	97.4551
1342.82	335.447
1347.06	248.701
1351.31	343.922
1355.55	193.109
1359.79	293.287
1364.02	100.4
1368.26	115.74
1372.49	224.096
1376.71	98.3281
1380.94	183.529
1385.16	249.719
1389.38	274.353
1393.6	82.5234
1397.81	153.693
1402.02	241.818
1406.23	241.576
1410.44	301.615
1414.64	129.783
1418.85	28.0117
1423.04	227.309
1427.24	283.672
1431.43	209.432
1435.62	235.893
1439.81	308.869
1444	192.176
1448.18	135.424
1452.36	122.709
1456.54	215.832
1460.71	164.875
1464.89	151.861
1469.06	265.799
1473.22	104.523
1477.39	202.01
1481.55	393.699
1485.71	63.252
1489.86	262.658
1494.02	197.998
1498.17	329.506
1502.32	266.065
1506.46	286.615
1510.61	318.06
1514.75	165.582
1518.88	22.8027
1523.02	330.225
1527.15	271.1
1531.28	146.297
1535.41	43.1035
1539.53	112.32
1543.66	325.383
1547.78	167.088
1551.89	173.029
1556.01	105.394
1560.12	63.2676
1564.23	325.838
1568.33	51.0586
1572.43	0
