Measurement: Raman, 514 nm, ccw, Raman Data Processed
Mineral: Fluorophlogopite
Rruff sample: R040039
Ideal chemistry: KMg_3_(Si_3_Al)O_10_F_2_
Locality: Franklin, Sussex County, New Jersey, USA
Source: University of Arizona Mineral Museum
Description: Brown hexagonal sheets
Measured chemistry: (K_0.92_Na_0.06_[box]_0.02_)_Σ=1_(Mg_2.94_Fe_0.04_Ti_0.02_)_Σ=3_(Si_2.98_Al_1.02_)O_10_(F_1.24_(OH)_0.76_)_Σ=2_; OH estimated by charge balance
Pin_id: M00025
Orientation: Laser parallel to b* (0 1 0). Fiducial mark perpendicular to laser is parallel to c [0 0 1]
Raman shift (cm-1)	intensity
80.232	0
84.421	108.904
88.608	688.331
92.793	1269.21
96.976	1877.4
101.157	3169.65
105.336	3820.29
109.513	2315.57
113.688	1238.59
117.861	950.534
122.032	652.974
126.201	412.087
130.367	365.826
134.532	250.218
138.695	96.545
142.856	46.274
147.014	83.04
151.171	45.509
155.325	64.318
159.478	183.158
163.629	503.656
167.777	735.513
171.924	1301.21
176.068	2305.55
180.211	3683.49
184.351	6579.99
188.49	13558
192.626	30237.6
196.761	50478.5
200.893	39251.1
205.024	17385.4
209.152	7731.38
213.279	3848.86
217.403	2309.75
221.526	1469.5
225.646	854.185
229.765	579.826
233.881	436.41
237.996	289.905
242.108	72.171
246.219	86.345
250.328	248.323
254.434	245.63
258.539	223.036
262.641	536.782
266.742	946.07
270.84	2171.25
274.937	5227.75
279.032	9462.44
283.125	7596.48
287.215	3439.2
291.304	1857.57
295.391	1325.32
299.476	1312.54
303.558	1642.89
307.639	2511.01
311.718	4255.58
315.795	5695.7
319.87	5852.85
323.943	5605.34
328.014	4546.32
332.083	3140.02
336.15	1874.4
340.215	1009.59
344.279	861.733
348.34	603.25
352.399	306.83
356.457	256.032
360.512	351.335
364.565	519.207
368.617	441.475
372.666	526.66
376.714	479.427
380.76	394.89
384.803	174.872
388.845	12.747
392.885	151.979
396.923	177.633
400.959	85.392
404.993	31.261
409.025	31.032
413.055	140.937
417.084	101.815
421.11	226.856
425.134	66.657
429.157	127.521
433.177	1.211
437.196	106.757
441.213	12.912
445.227	107.933
449.24	110.688
453.251	27.303
457.26	5.162
461.267	184.24
465.272	184.476
469.276	47.586
473.277	119.407
477.276	54.223
481.274	187.506
485.27	23.431
489.263	178.901
493.255	12.754
497.245	167.02
501.233	173.417
505.219	98.558
509.203	51.972
513.186	183.373
517.166	298.686
521.145	74.848
525.121	15.238
529.096	126.358
533.069	257.782
537.04	177.902
541.009	42.219
544.976	62.369
548.941	218.689
552.905	317.686
556.866	199.387
560.826	74.827
564.784	178.025
568.74	448.062
572.694	342.26
576.646	245.944
580.596	200.652
584.544	374.061
588.491	506.878
592.435	359.562
596.378	120.317
600.319	407.038
604.258	770.943
608.195	1007.06
612.131	827.338
616.064	1015.56
619.995	1771.43
623.925	2650.56
627.853	3589.37
631.779	4200.37
635.703	5024.7
639.625	5573.78
643.546	5676.2
647.464	5179.93
651.381	4642.58
655.296	4732.1
659.209	5327.17
663.12	6266.01
667.029	7289.31
670.937	8871.42
674.842	12289.2
678.746	18123.7
682.648	22275.8
686.548	20651.7
690.447	15149.3
694.343	10031.8
698.238	6563.26
702.13	4338.61
706.021	2654.52
709.91	1565.56
713.798	1077.03
717.683	1170.98
721.567	1143.1
725.448	940.029
729.328	615.773
733.206	360.37
737.083	657.662
740.957	793.104
744.83	610.569
748.701	307.49
752.57	274.137
756.437	391.772
760.302	579.449
764.166	657.164
768.027	264.954
771.887	2.76
775.745	180.613
779.602	468.522
783.456	586.477
787.309	304.499
791.16	162.677
795.009	301.033
798.856	569.532
802.702	678.182
806.545	477.031
810.387	246.062
814.227	14.763
818.065	224.628
821.902	244.111
825.737	393.529
829.569	302.766
833.401	32.022
837.23	68.477
841.057	261.062
844.883	420.631
848.707	450.418
852.529	200.177
856.35	149.933
860.168	50.028
863.985	259.937
867.8	400.096
871.613	320.405
875.425	19.136
879.234	158.573
883.042	51.883
886.848	382.51
890.653	553.259
894.455	344.177
898.256	265.242
902.055	186.463
905.852	217.855
909.648	489.384
913.442	691.031
917.233	522.802
921.024	74.695
924.812	145.938
928.599	158.084
932.384	680.353
936.167	802.743
939.948	495.261
943.728	357.907
947.506	200.673
951.282	313.562
955.056	636.57
958.829	789.701
962.6	722.952
966.369	625.338
970.136	188.832
973.902	276.229
977.666	545.521
981.428	1008.56
985.188	1151.96
988.947	926.302
992.704	463.252
996.459	667.253
1000.21	1071.71
1003.96	1807.9
1007.71	1892.06
1011.46	2074.62
1015.21	1911.36
1018.95	2235.82
1022.7	2931.06
1026.44	4696.64
1030.18	8594.07
1033.91	12940.2
1037.65	12498.1
1041.39	8546.56
1045.12	5224.17
1048.85	3660.86
1052.58	3272.39
1056.31	2739.66
1060.03	2356.4
1063.76	1993.27
1067.48	1230.36
1071.2	987.54
1074.92	984.874
1078.63	891.97
1082.35	1109.1
1086.06	1066.57
1089.78	804.035
1093.49	321.531
1097.19	239.053
1100.9	456.603
1104.61	814.716
1108.31	912.429
1112.01	880.036
1115.71	528.603
1119.41	207.183
1123.11	104.881
1126.8	7.354
1130.5	300.82
1134.19	709.492
1137.88	697.847
1141.57	636.204
1145.25	135.611
1148.94	116.151
1152.62	128.561
1156.3	48.425
1159.98	415.831
1163.66	654.992
1167.34	722.487
1171.01	443.856
1174.68	220.6
1178.36	67.037
1182.02	2.695
1185.69	148.888
1189.36	435.031
1193.02	741.552
1196.69	658.969
1200.35	515.174
1204.01	283.68
1207.66	193.984
1211.32	149.404
1214.98	304.698
1218.63	491.518
1222.28	906.888
1225.93	891.172
1229.58	725.928
1233.22	631.204
1236.87	466.094
1240.51	290.237
1244.15	414.961
1247.79	589.076
1251.43	1022.71
1255.07	937.239
1258.7	891.025
1262.33	654.126
1265.96	447.13
1269.59	440.835
1273.22	223.21
1276.85	595.275
1280.47	818.02
1284.1	995.548
1287.72	1146.43
1291.34	972.877
1294.95	486.92
1298.57	309.775
1302.19	120.654
1305.8	301.878
1309.41	12.26
1313.02	600.718
1316.63	858.643
1320.23	961.028
1323.84	967.739
1327.44	782.624
1331.05	458.94
1334.64	72.739
1338.24	2.785
1341.84	82.501
1345.43	252.86
1349.03	567.366
1352.62	903.524
1356.21	899.075
1359.8	974.835
1363.39	720.938
1366.97	398.705
1370.56	147.872
1374.14	319.523
1377.72	130.222
1381.3	589.697
1384.87	778.148
1388.45	1145.94
1392.02	1263.38
1395.6	1111.27
1399.17	807.436
1402.74	362.124
1406.3	278.687
1409.87	13.073
1413.43	74.677
1417	483.871
1420.56	704.063
1424.12	941.377
1427.67	1093.2
1431.23	1194.98
1434.79	1119.66
1438.34	848.994
1441.89	681.388
1445.44	299.846
1448.99	157.814
1452.54	63.921
1456.08	438.963
1459.62	804.29
1463.17	1046.81
1466.71	1231.34
1470.24	1415.11
1473.78	1463.19
1477.32	956.087
1480.85	846.857
1484.38	445.822
1487.91	248.324
1491.44	6.441
1494.97	129.021
1498.5	278.616
1502.02	558.168
1505.54	961.687
1509.07	1362.66
1512.59	0
