Measurement: Raman, 514 nm, ccw, Raman Data Processed
Mineral: Fluorapatite
Rruff sample: R050340
Ideal chemistry: Ca_5_(PO_4_)_3_F
Locality: Buckingham, Quebec, Canada
Source: California Institute of Technology
Description: Blue fragment
Measured chemistry: Ca_5.00_((P_0.98_Si_0.02_)O_4_)_3_F_1.00_
Pin_id: L00565
Orientation: Laser parallel to -a* (-1 0 0). Fiducial mark perpendicular to laser is parallel to -c [0 0 -1]
Raman shift (cm-1)	intensity
108.28	0
113.208	9.42725
118.134	11.9006
123.058	158.36
127.979	397.31
132.898	912.864
137.814	1676.74
142.728	1536.34
147.639	1054.9
152.549	853.318
157.455	974.821
162.359	809.993
167.261	624.555
172.161	559.648
177.058	354.077
181.952	287.143
186.845	234.096
191.734	165.989
196.622	237.088
201.507	365.498
206.389	208.258
211.269	358.377
216.147	307.848
221.022	297.652
225.895	342.768
230.765	552.708
235.633	556.822
240.498	361.673
245.361	350.818
250.222	258.358
255.08	481.603
259.936	869.205
264.789	1151.39
269.64	1020.89
274.488	614.312
279.334	426.433
284.178	432.116
289.019	386.257
293.857	489.538
298.693	510.611
303.527	568.714
308.358	696.051
313.187	563.593
318.013	389.313
322.837	274.171
327.659	233.129
332.478	183.177
337.294	59.3179
342.108	88.999
346.92	53.8589
351.729	34.7202
356.535	37.3105
361.34	9.11084
366.141	7.82861
370.94	17.3921
375.737	12.8691
380.531	5.1333
385.323	33.9961
390.113	52.7808
394.9	51.4678
399.684	69.3691
404.466	89.3809
409.245	145.281
414.022	220.944
418.797	369.7
423.569	579.472
428.338	1045.25
433.105	1196
437.87	1633.74
442.632	2169.45
447.391	2014.12
452.149	1416.75
456.903	881.352
461.655	594.966
466.405	263.562
471.152	246.151
475.897	136.681
480.639	118.152
485.378	93.54
490.116	138.839
494.85	116.764
499.582	132.167
504.312	108.739
509.039	123.807
513.764	69.6597
518.486	139.847
523.206	14.1191
527.923	43.8916
532.638	92.2632
537.35	4.60742
542.059	28.9145
546.766	25.3599
551.471	156.11
556.173	104.99
560.873	227.405
565.57	271.975
570.264	511.869
574.957	1467.49
579.646	2796.1
584.333	1633.63
589.018	1128.15
593.7	785.74
598.379	902.826
603.056	1646.36
607.73	1739.89
612.402	1108.45
617.072	745.957
621.739	317.249
626.403	142.468
631.065	333.785
635.724	252.983
640.381	253.349
645.035	315.24
649.687	350.472
654.336	299.927
658.983	132.442
663.627	71.3916
668.268	86.3574
672.907	109.545
677.544	80.0312
682.178	94.7227
686.809	49.2432
691.438	136.014
696.065	38.7637
700.688	30.0293
705.31	131.983
709.929	180.747
714.545	112.013
719.158	161.591
723.77	76.8984
728.378	42.9404
732.984	96.6963
737.588	71.0957
742.189	185.446
746.787	69.1348
751.383	96.4707
755.976	0.180664
760.567	104.384
765.155	114.035
769.741	48.2969
774.324	173.102
778.904	90.6289
783.482	16.8672
788.058	154.816
792.631	136.804
797.201	110.297
801.769	166.283
806.334	41.7041
810.897	128.219
815.457	82.9717
820.014	41.4297
824.569	14.8652
829.122	101.325
833.671	13.6211
838.219	7.12012
842.763	1.25391
847.306	13.5098
851.845	167.644
856.382	165.796
860.917	164.853
865.448	336.913
869.978	225.926
874.505	119.781
879.029	64.1777
883.55	102.864
888.069	22.4912
892.586	28.873
897.1	57.7588
901.611	26.2578
906.12	142.109
910.626	199.176
915.129	111.393
919.63	82.4522
924.129	184.817
928.625	102.234
933.118	369.41
937.609	464.012
942.097	817.537
946.582	1586.53
951.065	2836.24
955.546	9106.89
960.023	29920.5
964.499	45382.8
968.971	17044.1
973.441	4284.44
977.909	1334.29
982.374	550.737
986.836	188.657
991.295	224.508
995.753	185.577
1000.21	212.268
1004.66	765.723
1009.11	1253.85
1013.55	512.648
1018	341.141
1022.44	273.295
1026.88	852.185
1031.32	1530.41
1035.75	1349.74
1040.18	962.502
1044.61	851.334
1049.04	668.216
1053.46	826.173
1057.88	1038.65
1062.3	957.412
1066.71	671.144
1071.13	763.434
1075.54	772.793
1079.94	678.231
1084.35	397.92
1088.75	257.656
1093.15	111.542
1097.55	38.5645
1101.94	90.2529
1106.34	2.32617
1110.73	56.3428
1115.11	34.3066
1119.5	157.435
1123.88	354.772
1128.26	18.1045
1132.63	187.68
1137.01	67.9932
1141.38	41.9785
1145.75	64.0889
1150.12	101.204
1154.48	97.9522
1158.84	265.106
1163.2	120.644
1167.55	173.81
1171.91	82.4394
1176.26	42.0654
1180.61	97.6934
1184.95	70.3242
1189.29	116.602
1193.63	202.427
1197.97	76.6504
1202.31	119.992
1206.64	168.127
1210.97	14.2383
1215.29	300.317
1219.62	26.3691
1223.94	40.3906
1228.26	285.859
1232.57	260.652
1236.89	117.738
1241.2	144.6
1245.51	203.397
1249.81	35.1953
1254.12	89.7969
1258.42	6.01562
1262.72	194.356
1267.01	85.5254
1271.3	70.9375
1275.59	71.2637
1279.88	151.947
1284.17	62.2051
1288.45	138.756
1292.73	85.2188
1297.01	170.228
1301.28	158.602
1305.55	211.865
1309.82	196.225
1314.09	133.363
1318.35	12.2812
1322.61	197.037
1326.87	140.391
1331.13	312.234
1335.38	177.025
1339.63	160.699
1343.88	284.398
1348.12	175.523
1352.37	202.113
1356.61	280.621
1360.85	146.096
1365.08	95.3281
1369.31	137.602
1373.54	31.9277
1377.77	188.887
1381.99	66.6934
1386.22	296.066
1390.43	212.934
1394.65	291.916
1398.87	64.5742
1403.08	163.412
1407.29	30.7891
1411.49	238.356
1415.69	164.197
1419.89	289.992
1424.09	190.908
1428.29	66.6035
1432.48	146.625
1436.67	215.397
1440.86	301.065
1445.04	174.787
1449.23	98.7344
1453.4	200.885
1457.58	149.164
1461.76	29.3906
1465.93	399.549
1470.1	164.6
1474.26	81.5859
1478.43	169.818
1482.59	90.9004
1486.75	163.775
1490.9	45.2285
1495.06	27.2578
1499.21	301.68
1503.35	143.707
1507.5	184.66
1511.64	156.697
1515.78	172.699
1519.92	144.535
1524.05	186.941
1528.18	183.85
1532.31	55.0703
1536.44	5.9043
1540.56	295.994
1544.69	195.6
1548.8	181.961
1552.92	3.23828
1557.03	78.5254
1561.14	218.65
1565.25	17.3027
1569.36	43.5898
