Measurement: Raman, 514 nm, ccw, Raman Data Processed
Mineral: Fluorapatite
Rruff sample: R050194
Ideal chemistry: Ca_5_(PO_4_)_3_F
Locality: Siglo XX mine, Llallagua, Bolivia
Source: Dave Bunk Minerals
Description: Purple crystal fragments
Measured chemistry: Ca_5.00_(P_1.00_O_4_)_3_F_1.00_
Pin_id: L01968
Orientation: Laser parallel to -a* (-1 0 0). Fiducial mark perpendicular to laser is parallel to -c [0 0 -1]
Raman shift (cm-1)	intensity
136.585	0
141.5	60.7266
146.412	83.1465
151.321	142.327
156.229	174.614
161.134	115.292
166.036	63.0508
170.936	43.8535
175.834	63.0498
180.729	124.559
185.622	94.9043
190.512	101.948
195.4	158.523
200.286	103.891
205.169	152.661
210.049	214.901
214.928	171.532
219.803	162.804
224.677	67.4321
229.548	148.279
234.416	82.6943
239.282	147.121
244.146	2.19482
249.007	121.462
253.866	25.9404
258.722	78.3477
263.576	54.9937
268.427	90.9482
273.276	60.3442
278.123	64.0957
282.967	82.647
287.809	113.855
292.648	109.602
297.485	74.0449
302.319	46.3784
307.151	46.1065
311.98	22.5752
316.807	105.672
321.631	75.4907
326.454	6.38818
331.273	101.398
336.09	100.876
340.905	44.7812
345.717	82.0483
350.527	77.605
355.334	46.3872
360.139	66.5952
364.941	174.097
369.741	53.7866
374.538	55.4951
379.333	91.4502
384.126	62.1626
388.916	15.1616
393.703	71.4985
398.488	23.3643
403.271	87.8032
408.051	216.234
412.828	191.351
417.603	116.977
422.376	115.847
427.146	330.21
431.914	375.94
436.679	265.892
441.442	272.932
446.202	277.157
450.96	254.662
455.715	99.2217
460.467	74.9482
465.218	97.1416
469.965	93.4189
474.711	128.637
479.454	172.941
484.194	169.71
488.932	63.2188
493.667	18.3467
498.4	69.9043
503.13	90.8467
507.858	149.873
512.583	129.244
517.306	17.8496
522.026	216.054
526.744	121.751
531.459	98.417
536.172	204.153
540.882	102.379
545.59	1.35352
550.295	71.6055
554.998	103.427
559.698	18.0967
564.396	184.254
569.091	16.5225
573.784	236.015
578.474	202.681
583.162	314.067
587.847	441.132
592.529	487.857
597.209	182.747
601.887	132.37
606.562	424.012
611.235	173.571
615.905	237.266
620.572	163.852
625.237	58.1191
629.9	122.724
634.56	40.2715
639.217	93.2812
643.872	98.4834
648.524	100.756
653.174	155.644
657.821	117.178
662.466	290.247
667.108	61.7998
671.748	113.791
676.385	229.011
681.02	210.185
685.652	38.9688
690.281	57.1748
694.908	8.60449
699.533	83.6006
704.155	66.7481
708.774	109.002
713.391	245.447
718.005	103.705
722.617	18.377
727.226	108.986
731.833	240.094
736.437	24.7188
741.039	307.801
745.638	52.0723
750.234	105.482
754.828	104.562
759.419	152.08
764.008	145.982
768.595	108.621
773.178	110.061
777.759	249.66
782.338	118.606
786.914	22.5684
791.488	169.914
796.059	75.8418
800.627	200.328
805.193	2.66992
809.756	289.967
814.317	112.281
818.875	175.152
823.431	198.758
827.984	109.889
832.534	289.734
837.082	58.332
841.627	125.252
846.17	331.324
850.71	18.3164
855.248	227.822
859.783	263.432
864.316	176.736
868.846	153.098
873.373	68.9609
877.898	90.207
882.42	124.121
886.94	40.5176
891.457	282.772
895.971	127.154
900.483	164.334
904.993	206.103
909.5	30.4688
914.004	390.191
918.505	54.0391
923.004	181.277
927.501	59.5742
931.995	152.016
936.486	65.6953
940.975	292.398
945.461	123.842
949.945	343.828
954.426	218.375
958.904	1265.89
963.38	4239.23
967.853	2439.13
972.324	623.111
976.792	338.572
981.258	207.203
985.72	85.3359
990.181	105.082
994.639	301.619
999.094	176.402
1003.55	382.445
1008	0.851563
1012.44	244.326
1016.89	151.144
1021.33	272.035
1025.77	126.037
1030.21	118.572
1034.64	3.79688
1039.07	225.053
1043.5	239.275
1047.93	350.723
1052.35	712.371
1056.78	542.566
1061.19	407.848
1065.61	310.652
1070.02	42.0703
1074.43	269.707
1078.84	360.16
1083.25	514.039
1087.65	0.085938
1092.05	5.53516
1096.45	299.832
1100.85	100.852
1105.24	131.625
1109.63	106.688
1114.02	65.2188
1118.4	32.9805
1122.78	170.262
1127.16	245.715
1131.54	296.828
1135.92	325.742
1140.29	40.9297
1144.66	351.731
1149.02	120.723
1153.39	91.5977
1157.75	80.5547
1162.11	32.6484
1166.46	226.352
1170.82	372.731
1175.17	1.77344
1179.52	164.965
1183.86	56.2266
1188.21	252.578
1192.55	262.039
1196.89	135.629
1201.22	31.6797
1205.55	189.262
1209.88	489.371
1214.21	265.648
1218.54	290.133
1222.86	310.055
1227.18	341.66
1231.5	390
1235.81	102.066
1240.12	179.707
1244.43	288.859
1248.74	236.981
1253.04	257.867
1257.34	6.15625
1261.64	38.7773
1265.94	283.688
1270.23	169.969
1274.52	138.43
1278.81	72.7891
1283.1	50.4648
1287.38	78.9844
1291.66	144.574
1295.94	285.746
1300.21	125.328
1304.48	227.797
1308.75	225.156
1313.02	209.973
1317.29	56.2422
1321.55	309.977
1325.81	91.1055
1330.06	433.172
1334.32	423.156
1338.57	357.504
1342.82	620.219
1347.06	288.324
1351.31	303.856
1355.55	314.07
1359.79	280.184
1364.02	557.988
1368.26	223.231
1372.49	452.945
1376.71	179.238
1380.94	324.242
1385.16	38.7461
1389.38	422.727
1393.6	64.1953
1397.81	366.625
1402.02	420.172
1406.23	434.289
1410.44	227.086
1414.64	257.477
1418.85	333.926
1423.04	260.023
1427.24	33.1836
1431.43	419.547
1435.62	280.961
1439.81	313.391
1444	412.254
1448.18	121.816
1452.36	183.027
1456.54	193.973
1460.71	220.609
1464.89	257.949
1469.06	284.016
1473.22	599.328
1477.39	340.82
1481.55	243.027
1485.71	505.977
1489.86	260.938
1494.02	319.613
1498.17	23.1523
1502.32	415.434
1506.46	312.168
1510.61	290.121
1514.75	339.988
1518.88	281.188
1523.02	317.805
1527.15	414.883
1531.28	285.758
1535.41	20.3281
1539.53	220.918
1543.66	369.074
1547.78	119.477
1551.89	214.793
1556.01	253.164
1560.12	291.965
1564.23	26.5195
1568.33	25.4297
