Measurement: Raman, 514 nm, ccw, Raman Data Processed
Mineral: Fluorite
Rruff sample: R050045
Ideal chemistry: CaF_2_
Locality: Hunan Province, China
Source: Eugene Schlepp
Description: Pale green colored cubes
Measured chemistry: Ca_1.000_ F_2.000_
Pin_id: L00437
Orientation: Laser parallel to a* (1 0 0). Fiducial mark perpendicular to laser is parallel to -b [0 -1 0]
Raman shift (cm-1)	intensity
132.432	0
136.599	220.748
140.764	140.685
144.927	98.346
149.088	106.336
153.247	321.051
157.404	230.838
161.559	244.209
165.711	280.264
169.862	138.559
174.011	118.781
178.158	62.922
182.303	115.789
186.446	159.768
190.587	14.707
194.726	250.504
198.862	167.074
202.997	85.01
207.13	83.221
211.261	222.316
215.39	242.096
219.517	101.955
223.642	91.887
227.765	182.016
231.886	272.621
236.005	23.506
240.122	254.672
244.237	216.129
248.35	7.877
252.461	189.895
256.57	212.213
260.677	234.795
264.782	57.756
268.885	361.133
272.986	345.676
277.085	103.484
281.182	121.295
285.278	316.109
289.371	384.314
293.462	518.789
297.552	582.703
301.639	931.621
305.724	1702.52
309.808	3244.2
313.889	7246.51
317.969	17119.3
322.046	21652.9
326.122	12011.5
330.196	5345.45
334.267	3270.3
338.337	2084.84
342.405	1459.57
346.471	1004.51
350.535	1079.67
354.597	865.912
358.657	571.465
362.715	477.223
366.771	613.168
370.825	439.273
374.877	336.176
378.928	172.699
382.976	479.375
387.023	525.99
391.067	213.061
395.11	227.285
399.15	305.104
403.189	315.947
407.226	246.639
411.261	29.984
415.294	198.332
419.325	327.043
423.354	11.902
427.381	76.912
431.406	81.633
435.43	55.65
439.451	288.547
443.471	52.869
447.488	295.686
451.504	354.248
455.518	142.803
459.53	71.402
463.54	300.135
467.548	418.949
471.554	137.834
475.558	286.807
479.561	15.805
483.561	95.162
487.559	253.764
491.556	62.717
495.551	1.688
499.544	220.652
503.535	300.74
507.524	309.727
511.511	11.283
515.496	207.678
519.48	420.549
523.461	269.498
527.441	131.766
531.418	2.875
535.394	259.822
539.368	292.766
543.34	241.596
547.311	192.504
551.279	75.896
555.245	480.428
559.21	215.742
563.173	8.312
567.133	47.562
571.092	304.979
575.049	592.938
579.005	7.75
582.958	54.066
586.909	183.357
590.859	440.646
594.807	407.764
598.753	264.889
602.697	250.051
606.639	176.246
610.579	413.119
614.518	469.906
618.454	601.307
622.389	307.926
626.322	624.453
630.253	690.893
634.182	547.85
638.109	314.109
642.035	474.922
645.958	611.004
649.88	677
653.8	702.244
657.718	188.07
661.634	283.805
665.549	229.436
669.461	354.102
673.372	629.604
677.281	174.963
681.188	9.773
685.093	155.426
688.997	390.07
692.898	45.098
696.798	109.91
700.696	155.375
704.592	118.594
708.486	365.957
712.378	230.547
716.269	37.602
720.158	139.812
724.045	161.543
727.93	370.047
731.813	202.672
735.694	12.328
739.574	31.566
743.452	260.93
747.328	393.441
751.202	565.945
755.075	118.449
758.945	60.965
762.814	273.512
766.681	316.074
770.546	418.648
774.409	71.16
778.271	73.648
782.131	356.168
785.989	178.719
789.845	391.266
793.699	543.871
797.552	276.559
801.402	69.336
805.251	232.168
809.098	525.078
812.944	460.547
816.787	415.188
820.629	293.387
824.469	308.855
828.307	602.27
832.144	873.219
835.978	721.414
839.811	1033.37
843.642	1029.69
847.472	1015.38
851.299	1296.01
855.125	978.027
858.949	1352.28
862.771	733.895
866.591	364.395
870.41	444.535
874.227	559.594
878.042	473.773
881.855	529.258
885.667	254.633
889.476	419.801
893.284	623.105
897.09	829.598
900.895	786.449
904.698	573.652
908.499	271.059
912.298	638.676
916.095	626.516
919.891	894.586
923.685	1112.88
927.477	486.703
931.267	595.535
935.056	234.652
938.843	444
942.628	363
946.411	1102.86
950.193	662.98
953.973	543.359
957.751	184
961.527	584.898
965.302	273.57
969.075	195.699
972.846	367.398
976.615	59.289
980.383	38.582
984.149	154.16
987.913	226.797
991.675	409.508
995.436	172.273
999.195	355.367
1002.95	898.758
1006.71	72.457
1010.46	176.523
1014.21	665.191
1017.96	890.234
1021.71	755.746
1025.46	501.508
1029.2	217.602
1032.95	413.984
1036.69	342.598
1040.43	1039.96
1044.17	987.668
1047.9	883.609
1051.64	1021.23
1055.37	349.523
1059.1	498.023
1062.83	737.613
1066.56	807.191
1070.29	1066.7
1074.01	856.387
1077.73	616.656
1081.46	686.039
1085.17	416.926
1088.89	988.402
1092.61	1270.27
1096.32	1042.26
1100.04	574.742
1103.75	376.984
1107.46	89.527
1111.16	117.531
1114.87	25.148
1118.57	497.23
1122.28	609.688
1125.98	500.07
1129.67	281.984
1133.37	7.27
1137.07	362
1140.76	337.562
1144.45	136.84
1148.14	449.684
1151.83	742.664
1155.52	817.004
1159.21	100.156
1162.89	73.672
1166.57	38.227
1170.25	331.223
1173.93	646.746
1177.61	877.539
1181.28	583.676
1184.96	505.309
1188.63	122.105
1192.3	121.941
1195.97	224.215
1199.64	467.883
1203.3	818.75
1206.97	762.234
1210.63	749.125
1214.29	631.312
1217.95	483.277
1221.6	290.047
1225.26	88.098
1228.91	632.258
1232.57	1590.45
1236.21	1439.27
1239.86	1527.53
1243.51	1154.82
1247.16	771.613
1250.8	455.418
1254.44	393.445
1258.08	605.684
1261.72	1167.94
1265.36	1175.24
1268.99	1712.02
1272.63	1587
1276.26	1643.15
1279.89	1086.58
1283.52	323.184
1287.15	299.059
1290.77	871.719
1294.4	1283.31
1298.02	1453.5
1301.64	1542.86
1305.26	1176.83
1308.88	222.812
1312.49	457.855
1316.11	142.199
1319.72	5.75
1323.33	398.422
1326.94	790.211
1330.55	1039.01
1334.15	928.086
1337.76	1128.55
1341.36	861.211
1344.96	502.812
1348.56	98.633
1352.16	156.305
1355.75	42.906
1359.35	510.051
1362.94	822.84
1366.53	1395.05
1370.12	759.332
1373.71	516.535
1377.3	645.629
1380.88	355.094
1384.46	361.789
1388.05	437.977
1391.63	3.258
1395.2	478.586
1398.78	913.242
1402.36	1053.18
1405.93	1513.36
1409.5	1274.61
1413.07	1193.96
1416.64	1190.49
1420.21	745.492
1423.78	176.629
1427.34	142.254
1430.9	421.164
1434.46	783.539
1438.02	1263.63
1441.58	2071.57
1445.13	2424.31
1448.69	2538.53
1452.24	1983.02
1455.79	2018.01
1459.34	1549.49
1462.89	904.586
1466.44	828.465
1469.98	841.148
1473.53	935.578
1477.07	1114.14
1480.61	1971.98
1484.14	1951.71
1487.68	2163.01
1491.22	1764.3
1494.75	1295.85
1498.28	721.695
1501.81	425.375
1505.34	257.445
1508.87	40.598
1512.4	37.965
1515.92	543.387
1519.44	0
