Measurement: Raman, 514 nm, ccw, Raman Data Processed
Mineral: Fluorapophyllite-(K)
Rruff sample: R060554
Ideal chemistry: KCa_4_Si_8_O_20_F8H_2_O
Locality: unknown
Source: Gemological Institute of America
Description: Colorless polished fragment
Measured chemistry: (K_0.88_Na_0.12_)Ca_4.00_Si_8.00_O_20_F_1.00_Â·8H2O
Pin_id: L01258
Orientation: Laser parallel to c* (0 0 1). Fiducial mark perpendicular to laser is parallel to a [1 0 0]
Raman shift (cm-1)	intensity
53.91	0
58.864	276.45
63.817	126.661
68.767	92.3846
73.714	544.794
78.659	3814.67
83.602	12231
88.542	22005.7
93.48	19902.7
98.416	17189.8
103.349	25891.2
108.28	34210.8
113.208	16353.9
118.134	13585.6
123.058	17898
127.979	16627.8
132.898	12941.8
137.814	5695.45
142.728	3871.1
147.639	5813.58
152.549	12781.2
157.455	24029.6
162.359	28809
167.261	14601.2
172.161	8558.39
177.058	13468.4
181.952	27056.2
186.845	29032.6
191.734	18531.4
196.622	19746.5
201.507	32625.1
206.389	53045.8
211.269	57691.1
216.147	41910.9
221.022	33410.9
225.895	30911.5
230.765	23340.6
235.633	12830.3
240.498	6392.31
245.361	3439.79
250.222	2550.04
255.08	3155.14
259.936	5390.31
264.789	7429.36
269.64	6563.44
274.488	4087.27
279.334	3902.67
284.178	6151.62
289.019	11238
293.857	17934.7
298.693	19081.3
303.527	11829.4
308.358	6604.91
313.187	4292.72
318.013	3976.8
322.837	4891.09
327.659	6598.55
332.478	8971.1
337.294	9631.67
342.108	6736.2
346.92	3281.73
351.729	1164.29
356.535	1424.64
361.34	47.0581
366.141	266.793
370.94	382.238
375.737	149.85
380.531	726.277
385.323	904.747
390.113	746.712
394.9	397.719
399.684	64.4253
404.466	167.302
409.245	416.623
414.022	1268.64
418.797	3989.3
423.569	12300.6
428.338	27600.4
433.105	30796.8
437.87	12500.9
442.632	4486.9
447.391	2242.2
452.149	1950.01
456.903	3015.32
461.655	3912.33
466.405	3189.78
471.152	1675.86
475.897	1225.27
480.639	1917.94
485.378	1961.86
490.116	1017.99
494.85	315.319
499.582	251.75
504.312	301.728
509.039	552.241
513.764	795.679
518.486	1275.73
523.206	1978.75
527.923	2992.9
532.638	4431.37
537.35	5268.81
542.059	5007.35
546.766	4849.21
551.471	5428.24
556.173	5848.85
560.873	7283.02
565.57	9824.74
570.264	14128
574.957	20476.1
579.646	26512.5
584.333	27045.7
589.018	21390.5
593.7	13844.8
598.379	9235.21
603.056	6807.2
607.73	5574.58
612.402	4977.77
617.072	5049.94
621.739	5222.14
626.403	5537.38
631.065	5891.63
635.724	6637.9
640.381	7690.58
645.035	9716.11
649.687	12672.8
654.336	16414.5
658.983	19961.4
663.627	20703.8
668.268	17421.7
672.907	12314.2
677.544	8241.39
682.178	5434.02
686.809	3367.03
691.438	2136.98
696.065	1294.8
700.688	663.486
705.31	329.013
709.929	102.364
714.545	42.5776
719.158	144.331
723.77	183.504
728.378	147.815
732.984	217.552
737.588	176.942
742.189	79.3144
746.787	23.227
751.383	479.039
755.976	1216.55
760.567	2187.78
765.155	2956.21
769.741	2634.83
774.324	1695.85
778.904	1718.88
783.482	2538.78
788.058	4041.39
792.631	3903.91
797.201	2144.02
801.769	1182.38
806.334	788.342
810.897	776.448
815.457	818.073
820.014	1140.19
824.569	1358.78
829.122	1702.84
833.671	1917.39
838.219	2055.41
842.763	2275.92
847.306	1970.57
851.845	1683.16
856.382	1604.35
860.917	1141.46
865.448	953.832
869.978	689.118
874.505	459.235
879.029	398.874
883.55	360.891
888.069	352.636
892.586	318.295
897.1	280.957
901.611	251.655
906.12	109.454
910.626	86.6318
915.129	32.8682
919.63	0.927734
924.129	105.874
928.625	56.0347
933.118	2.34815
937.609	18.7573
942.097	5.78174
946.582	123.352
951.065	317.951
955.546	432.586
960.023	547.259
964.499	930.972
968.971	1526.74
973.441	1235.57
977.909	771.474
982.374	740.458
986.836	1002.63
991.295	1338.27
995.753	2002.67
1000.21	3135.21
1004.66	4410.96
1009.11	4134.79
1013.55	2638.26
1018	2027.72
1022.44	2014.43
1026.88	2390.34
1031.32	3219.18
1035.75	4629.94
1040.18	6506.77
1044.61	10274
1049.04	18288.3
1053.46	35916.6
1057.88	55519.1
1062.3	46535.1
1066.71	22933.9
1071.13	11110.2
1075.54	5497.78
1079.94	3025.44
1084.35	1839.84
1088.75	1238.72
1093.15	863.196
1097.55	824.626
1101.94	956.133
1106.34	1391.7
1110.73	2297.07
1115.11	2629.19
1119.5	1402.31
1123.88	572.597
1128.26	319.32
1132.63	208.087
1137.01	104.627
1141.38	27.6821
1145.75	44.2046
1150.12	24.4956
1154.48	38.6773
1158.84	19.3794
1163.2	10.0381
1167.55	3.98096
1171.91	34.8897
1176.26	3.58691
1180.61	32.6343
1184.95	103.564
1189.29	0.904785
1193.63	52.0098
1197.97	54.8306
1202.31	27.0967
1206.64	69.4751
1210.97	75.0464
1215.29	149.414
1219.62	141.367
1223.94	218.144
1228.26	132.232
1232.57	193.208
1236.89	137.283
1241.2	245.451
1245.51	190.459
1249.81	119.376
1254.12	188.48
1258.42	213.259
1262.72	233.426
1267.01	229.343
1271.3	206.635
1275.59	238.922
1279.88	215.091
1284.17	258.281
1288.45	205.021
1292.73	187.806
1297.01	155.571
1301.28	157.948
1305.55	129.322
1309.82	161.99
1314.09	144.54
1318.35	185.779
1322.61	175.499
1326.87	93.4092
1331.13	150.572
1335.38	113.592
1339.63	93.689
1343.88	99.8408
1348.12	143.696
1352.37	51.252
1356.61	6.75977
1360.85	67.6406
1365.08	161.276
1369.31	51.9458
1373.54	110.764
1377.77	32.605
1381.99	55.2251
1386.22	69.6372
1390.43	56.3169
1394.65	114.56
1398.87	2.05908
1403.08	91.605
1407.29	131.873
1411.49	107.641
1415.69	39.9092
1419.89	118.682
1424.09	144.815
1428.29	93.2905
1432.48	114.331
1436.67	206.062
1440.86	63.2441
1445.04	86.7075
1449.23	202.658
1453.4	148.773
1457.58	188.443
1461.76	199.706
1465.93	226.359
1470.1	192.832
1474.26	333.129
1478.43	245.011
1482.59	301.944
1486.75	254.672
1490.9	383.407
1495.06	403.582
1499.21	451.461
1503.35	418.846
1507.5	410.956
1511.64	517.05
1515.78	486.786
1519.92	518.735
1524.05	393.663
1528.18	374.764
1532.31	250.054
1536.44	373.914
1540.56	286.591
1544.69	168.681
1548.8	142.303
1552.92	169.456
1557.03	132.815
1561.14	132.757
1565.25	128.05
1569.36	8.96875
