Measurement: Raman, 514 nm, ccw, Raman Data Processed
Mineral: Fluor-uvite
Rruff sample: R050172
Ideal chemistry: CaMg_3_(Al_5_Mg)(Si_6_O_18_)(BO_3_)_3_(OH)_3_F
Locality: Pierrepont, New York, USA
Source: Marcus Origlieri
Description: Black prismatic crystal
Measured chemistry: (Ca_0.64_Na_0.36_)(Mg_0.56_Fe^2+^_0.34_Al_0.08_Ti_0.02_)_3_(Mg_1.00_Al_5.00_)(BO_3_)_3_Si_6.00_O_18_((OH)_3.45_F_0.55_)
Pin_id: M00231
Orientation: Laser parallel to c* (0 0 1). Fiducial mark perpendicular to laser is parallel to -a [-1 0 0]
Raman shift (cm-1)	intensity
166.18	0
171.102	234.809
176.021	90.4922
180.937	542.816
185.85	468.068
190.76	788.912
195.668	1264.71
200.572	2004.48
205.474	2086.98
210.374	2110.55
215.27	1864.57
220.163	1805.19
225.054	1441.44
229.942	1335.79
234.827	1667.48
239.709	1435.13
244.589	1078.77
249.465	764.815
254.339	585.683
259.21	827.764
264.079	703.665
268.944	598.143
273.807	192.924
278.667	162.039
283.524	16.3418
288.378	181.398
293.23	268.248
298.079	190.492
302.925	115.41
307.768	26.4619
312.609	254.453
317.446	721.129
322.281	1001.68
327.113	1485.58
331.943	1563.3
336.769	1955.02
341.593	2030.79
346.414	2297.94
351.233	2626.82
356.048	2926.64
360.861	3763.3
365.671	4326.2
370.478	4572.08
375.283	4243.4
380.084	3816.75
384.883	3175.9
389.68	2874.55
394.473	2260.18
399.264	2029.61
404.052	1574.37
408.837	1665.15
413.62	1516.42
418.4	1138.81
423.177	1027.64
427.951	669.209
432.722	431.022
437.491	265.199
442.257	241.685
447.021	103.447
451.781	53.5234
456.539	141.966
461.294	189.314
466.047	209.6
470.797	461.386
475.544	494.955
480.288	587.704
485.03	704.775
489.768	868.31
494.504	846.234
499.238	820.181
503.969	852.459
508.697	656.567
513.422	899.598
518.144	1006.96
522.864	1213.87
527.582	1254.48
532.296	1479.93
537.008	1383.35
541.717	1679.92
546.423	1588.53
551.127	1557.57
555.828	1539.89
560.526	1283.27
565.222	1212.28
569.915	1364.11
574.605	1390.8
579.292	1329.63
583.977	1071.82
588.659	1009.53
593.339	905.914
598.016	782.99
602.69	575.771
607.361	568.698
612.03	648.632
616.696	500.491
621.359	444.251
626.02	168.685
630.678	10.916
635.333	22.9229
639.986	93.1455
644.636	176.525
649.284	182.735
653.928	422.182
658.57	593.717
663.21	631.432
667.846	383.933
672.481	413.194
677.112	527.184
681.741	706.869
686.367	811.216
690.99	961.257
695.611	1284.69
700.229	1806.71
704.845	2336.04
709.458	3225.47
714.068	4312.77
718.676	6318.68
723.281	7935.22
727.883	8364.82
732.483	8507.51
737.08	8535.32
741.674	8331.11
746.266	8396.99
750.855	8465.82
755.442	8570.72
760.025	8906.52
764.607	9054.33
769.185	9171.66
773.761	8987.72
778.335	7680.62
782.906	6486.93
787.474	5683.25
792.039	4913.85
796.602	3947.82
801.162	3247.15
805.72	2267.79
810.275	1575.72
814.828	1204.92
819.378	598.36
823.925	283.009
828.47	212.805
833.012	30.583
837.551	85.2256
842.088	187.842
846.622	172.688
851.154	24.5791
855.683	31.5508
860.209	55.0664
864.733	136.139
869.254	44.8301
873.773	186.988
878.289	199.931
882.803	180.722
887.314	308.454
891.822	402.176
896.328	504.942
900.831	555.809
905.332	686.757
909.83	704.951
914.325	882.611
918.818	966.696
923.308	1014.19
927.796	1114.93
932.281	1175.83
936.764	1430.95
941.244	1421.22
945.721	1709.66
950.196	1995.26
954.668	1946.04
959.138	2294.76
963.605	2381.51
968.07	2447.26
972.532	2556.2
976.991	2505.66
981.448	2437.23
985.903	2232.05
990.355	2257.29
994.804	2096.85
999.251	1991.73
1003.7	1673.48
1008.14	1720.46
1012.58	1864.34
1017.01	1827.48
1021.45	1910.77
1025.88	2102.31
1030.31	2008.9
1034.73	2174.75
1039.16	2323.52
1043.58	2265.78
1048	2415.37
1052.41	2206.41
1056.83	2264.23
1061.24	2298.55
1065.65	2289.68
1070.05	2278.05
1074.46	2025.68
1078.86	1931.31
1083.26	1829.96
1087.65	1612.67
1092.05	1444.43
1096.44	1226.31
1100.83	1343.57
1105.21	1090.79
1109.6	891.898
1113.98	673.939
1118.36	797.706
1122.73	692.419
1127.1	424.841
1131.47	276.704
1135.84	277.01
1140.21	149.78
1144.57	268.972
1148.93	119.639
1153.29	271.344
1157.65	28.2031
1162	66.7275
1166.35	127.922
1170.7	2.82617
1175.05	30.3164
1179.39	42.6699
1183.73	32.2559
1188.07	26.0273
1192.41	40.3506
1196.74	29.1787
1201.07	64.6797
1205.4	159.477
1209.72	241.527
1214.05	197.832
1218.37	297.393
1222.69	202.207
1227.01	586.273
1231.32	502.245
1235.63	631.796
1239.94	784.556
1244.24	574.5
1248.55	637.616
1252.85	577.894
1257.15	588.313
1261.44	493.861
1265.74	238.528
1270.03	409.308
1274.32	561.121
1278.61	461.346
1282.89	287.413
1287.17	463.268
1291.45	390.435
1295.73	331.573
1300	176.15
1304.27	229.269
1308.54	405.467
1312.81	217.416
1317.08	339.391
1321.34	216.097
1325.6	103.575
1329.85	99.6992
1334.11	226.985
1338.36	100.406
1342.61	145.959
1346.86	251.644
1351.1	253.235
1355.35	34.6973
1359.59	189.087
1363.82	163.009
1368.06	122.262
1372.29	177.584
1376.52	271.656
1380.75	151.378
1384.97	20.2051
1389.2	143.719
1393.42	123.28
1397.64	26.9033
1401.85	147.433
1406.07	51.9092
1410.28	0.529297
1414.49	64.3096
1418.69	19.418
1422.9	37.8877
1427.1	145.859
1431.3	49.5107
1435.49	14.0918
1439.69	155.533
1443.88	263.767
1448.07	240.144
1452.26	200.668
1456.44	269.488
1460.62	307.358
1464.8	193.53
1468.98	356.802
1473.15	139.455
1477.33	269.655
1481.5	51.3584
1485.66	16.8027
1489.83	148.023
1493.99	118.293
1498.15	97.5293
1502.31	97.2852
1506.47	14.3877
1510.62	62.1055
1514.77	156.452
1518.92	346.447
1523.07	187.066
1527.21	163.435
1531.35	191.263
1535.49	107.94
1539.63	156.38
1543.76	192.983
1547.9	0.981445
