Measurement: Raman, 514 nm, ccw, Raman Data Processed
Mineral: Fluorapatite
Rruff sample: R060184
Ideal chemistry: Ca_5_(PO_4_)_3_F
Locality: Yates mine, Otter Lake, Quebec, Canada
Source: Lloyd Twaites
Description: Green colored fragment of a hexagonal prism
Measured chemistry: (Ca_0.99_Ce_0.01_)_5.00_((P_0.98_Si_0.01_S_0.01_)O_4_)_3_F_1.00_
Pin_id: M00887
Orientation: Laser parallel to c* (0 0 1). Fiducial mark perpendicular to laser is parallel to a [1 0 0]
Raman shift (cm-1)	intensity
170.559	0
175.467	66.8982
180.372	71.5437
185.274	98.2639
190.174	39.249
195.072	46.3374
199.967	58.2878
204.859	116.155
209.749	178.62
214.637	132.606
219.521	232.117
224.404	307.676
229.284	373.773
234.161	369.607
239.036	289.25
243.908	181.952
248.777	223.233
253.645	353.931
258.509	561.896
263.371	801.072
268.231	740.29
273.088	684.276
277.942	605.865
282.794	573.912
287.643	536.118
292.49	433.002
297.335	559.233
302.176	594.668
307.015	572.3
311.852	561.148
316.686	410.948
321.518	294.477
326.347	168.496
331.173	148.78
335.997	75.7605
340.819	57.6194
345.638	70.9512
350.454	94.0779
355.268	66.2766
360.079	14.135
364.888	57.9028
369.694	2.8479
374.498	8.27051
379.299	156.797
384.097	105.8
388.893	67.9512
393.686	150.187
398.477	261.819
403.266	237.522
408.051	375.399
412.835	488.978
417.615	1003.3
422.394	1634.45
427.169	2568.77
431.942	2552.55
436.713	2304.85
441.481	2346.65
446.246	2187
451.009	1781.9
455.769	1104.34
460.527	670.326
465.282	495.739
470.035	392.285
474.785	254.315
479.532	207.452
484.277	19.9644
489.02	51.4141
493.76	82.5635
498.497	33.8193
503.232	2.08838
507.964	39.7905
512.693	76.1392
517.421	21.916
522.145	20.6025
526.867	36.7876
531.587	18.4941
536.303	38.79
541.018	71.1011
545.729	59.5645
550.439	83.1572
555.145	84.6553
559.849	200.201
564.551	443.954
569.25	670.565
573.946	1584.26
578.64	2803.85
583.331	2345.78
588.02	1723.62
592.706	1320.5
597.39	936.279
602.071	1167.76
606.749	1257.45
611.425	1008.21
616.099	994.34
620.769	419.687
625.438	264.713
630.103	424.188
634.766	452.781
639.427	609.742
644.085	613.615
648.74	737.904
653.393	784.857
658.044	606.716
662.691	416.88
667.336	277.659
671.979	333.475
676.619	119.001
681.257	196.583
685.892	271.395
690.524	55.2617
695.154	154.898
699.781	162.55
704.406	122.567
709.028	81.876
713.647	218.664
718.264	73.5762
722.878	82.9482
727.49	117.841
732.1	116.885
736.706	94.3906
741.31	101.883
745.912	78.3506
750.511	37.8369
755.107	111.022
759.701	88.3887
764.292	123.963
768.881	16.0527
773.467	47.1934
778.051	77.4941
782.632	72.6035
787.21	199.828
791.786	71.334
796.359	34.9424
800.93	75.5644
805.498	160.266
810.064	123.299
814.627	130.995
819.187	51.1416
823.745	66.665
828.301	64.9404
832.853	296.155
837.403	54.8652
841.951	191.764
846.496	75.7959
851.038	180.296
855.578	273.738
860.116	88.335
864.65	223.029
869.183	306.464
873.712	33.8398
878.239	73.4551
882.764	69.5713
887.285	2.27832
891.805	16.0078
896.322	58.0772
900.836	20.8486
905.347	69.9736
909.856	7.80469
914.363	94.6113
918.867	13.3721
923.368	20.1768
927.867	70.915
932.363	254.418
936.856	582.399
941.347	1037.94
945.836	2148.89
950.322	4478.17
954.805	11811.8
959.286	30415.3
963.764	43811
968.239	19721.3
972.712	6329.77
977.183	2121.21
981.65	726.636
986.116	406.301
990.578	150.636
995.038	41.5127
999.496	70.8213
1003.95	615.081
1008.4	897.465
1012.85	665.665
1017.3	531.756
1021.75	590.81
1026.19	1175.67
1030.63	1668.12
1035.06	1730.09
1039.5	1638.7
1043.93	1290.16
1048.36	1201.52
1052.79	1203.52
1057.21	1342.18
1061.63	1195.48
1066.05	856.188
1070.47	1227.41
1074.88	994.021
1079.29	526.988
1083.7	216.352
1088.11	140.231
1092.51	195.359
1096.91	10.0566
1101.31	100.924
1105.7	36.2969
1110.1	76.0781
1114.49	176.15
1118.88	214.744
1123.26	109.752
1127.64	61.2578
1132.02	216.328
1136.4	267.898
1140.78	160.469
1145.15	331.815
1149.52	221.082
1153.89	163.309
1158.25	171.615
1162.61	334.31
1166.97	179.777
1171.33	79.0762
1175.68	253.305
1180.04	177.316
1184.39	198.897
1188.73	196.154
1193.08	94.9902
1197.42	158.309
1201.76	264.106
1206.1	199.379
1210.43	179.127
1214.76	80.3516
1219.09	91.041
1223.41	245.158
1227.74	122.643
1232.06	108.598
1236.38	187.062
1240.69	32.0996
1245.01	42.2246
1249.32	67.834
1253.63	126.996
1257.93	116.965
1262.23	4.91406
1266.54	113.254
1270.83	56.9863
1275.13	162.004
1279.42	26.4844
1283.71	167.334
1288	20.5391
1292.28	142.144
1296.57	175.172
1300.85	215.611
1305.12	70.4531
1309.4	117.693
1313.67	227.861
1317.94	236.861
1322.21	306.207
1326.47	252.652
1330.73	402.938
1334.99	370.307
1339.25	267.986
1343.5	374.004
1347.75	268.715
1352	113.338
1356.25	365.184
1360.49	92.3555
1364.73	297.863
1368.97	221.348
1373.21	175.738
1377.44	399.238
1381.67	84.5234
1385.9	46.5254
1390.13	184.414
1394.35	138.953
1398.57	52.2344
1402.79	179.641
1407	174.719
1411.22	235.262
1415.43	107.391
1419.63	275.75
1423.84	81.0039
1428.04	359.922
1432.24	151.797
1436.44	165.049
1440.63	199.945
1444.83	169.236
1449.02	238.658
1453.2	257.467
1457.39	147.662
1461.57	371.883
1465.75	197.844
1469.93	282.19
1474.1	238.315
1478.27	209.205
1482.44	227.463
1486.61	84.2832
1490.77	114.518
1494.93	133.129
1499.09	241.023
1503.25	278.234
1507.4	260.879
1511.55	209.086
1515.7	100.988
1519.85	237.393
1523.99	170.207
1528.13	2.03906
1532.27	250.332
1536.4	135.144
1540.54	224.67
1544.67	0.757813
1548.8	306.877
1552.92	107.424
1557.05	182.272
1561.16	45.9629
1565.28	0
