Measurement: Raman, 514 nm, ccw, Raman Data Processed
Mineral: Fluorapatite
Rruff sample: R050122
Ideal chemistry: Ca_5_(PO_4_)_3_F
Locality: Cruziero mine, San Jose, Minas Gerais, Brazil
Source: Carlos and Paulo Vasconcelos
Description: Green fragment
Measured chemistry: (Ca_4.99_Mn_0.01_)_Î£=5_(P_1.00_O_4_)_3_F_1.00_; trace amounts of Fe
Pin_id: L00505
Orientation: Laser parallel to -a* (-1 0 0). Fiducial mark perpendicular to laser is parallel to -c [0 0 -1]
Raman shift (cm-1)	intensity
127.427	0
131.612	84.991
135.794	465.833
139.975	536.746
144.153	232.152
148.329	105.815
152.503	286.203
156.674	286.894
160.843	233.828
165.011	238.642
169.175	267.315
173.338	142.742
177.499	31.424
181.657	90.322
185.813	17.489
189.967	111.031
194.119	7.002
198.268	241.461
202.415	15.965
206.561	24.977
210.703	120.448
214.844	204.88
218.983	10.369
223.119	30.27
227.253	118.5
231.385	131.341
235.515	94.607
239.643	175.573
243.768	250.172
247.891	137.363
252.012	40.039
256.131	209.798
260.248	256.629
264.363	252.625
268.475	301.016
272.585	242.974
276.693	161.172
280.799	13.497
284.903	21.241
289.005	224.348
293.104	119.55
297.201	55.654
301.296	120.559
305.389	206.005
309.48	139.212
313.569	8.023
317.655	58.396
321.74	202.646
325.822	81.267
329.902	15.638
333.98	195.914
338.056	210.868
342.129	32.264
346.201	71.054
350.27	160.396
354.337	243.274
358.402	144.755
362.465	12.414
366.526	235.212
370.585	202.887
374.642	104.42
378.696	49.282
382.748	216.978
386.799	284.564
390.847	9.667
394.893	17.938
398.936	146.688
402.978	251.979
407.018	185.526
411.055	9.534
415.091	49.661
419.124	349.995
423.155	240.062
427.184	129.766
431.211	379.716
435.236	738.352
439.259	827.704
443.28	824.091
447.298	891.077
451.315	858.446
455.329	534.753
459.341	261.343
463.352	267.452
467.36	344.814
471.366	373.582
475.37	119.38
479.372	34.482
483.371	11.509
487.369	306.416
491.365	249.891
495.358	36.438
499.35	34.712
503.339	444.37
507.326	404.843
511.311	103.128
515.295	96.889
519.276	136.505
523.255	313.343
527.232	151.644
531.207	69.072
535.179	266.158
539.15	328.559
543.119	285.816
547.086	189.13
551.05	76.217
555.013	306.197
558.973	344.024
562.932	206.841
566.888	9.146
570.842	355.339
574.795	765.351
578.745	1125.89
582.693	977.176
586.639	236.529
590.583	489.369
594.525	805.291
598.465	575.777
602.403	515.844
606.339	926.617
610.273	759.994
614.205	758.588
618.135	636.473
622.063	64.271
625.989	81.393
629.912	397.08
633.834	569.617
637.754	262.688
641.671	168.752
645.587	185.262
649.501	412.633
653.412	561.67
657.322	341.539
661.23	249.779
665.135	290.523
669.039	579.174
672.94	809.342
676.84	318.479
680.738	302.852
684.633	390.713
688.527	747.441
692.418	476.492
696.308	269.879
700.195	154.33
704.081	288.953
707.964	436.893
711.846	321.277
715.726	113.928
719.603	147.582
723.479	58.27
727.352	451.785
731.224	445.012
735.094	128.598
738.961	88.184
742.827	124.01
746.691	516.25
750.552	908.488
754.412	286.264
758.27	37.264
762.125	20.539
765.979	429.604
769.831	781.154
773.681	419.805
777.529	56.611
781.375	243.533
785.219	211.131
789.06	696.701
792.901	592.514
796.739	198.756
800.575	46.1
804.409	29.504
808.241	584.508
812.071	968.625
815.899	673.244
819.726	168.514
823.55	133.74
827.372	364.572
831.193	708.465
835.011	483.08
838.828	457.059
842.642	78.918
846.455	56.143
850.266	428.924
854.075	608.273
857.881	951.555
861.686	203.215
865.489	3.988
869.29	254.426
873.089	657.41
876.886	599.871
880.682	562.547
884.475	125.369
888.266	147.572
892.056	181.004
895.843	853.17
899.629	964.994
903.413	522.172
907.194	154.158
910.974	45.338
914.752	402.5
918.528	535.172
922.302	1077.31
926.074	829.412
929.844	170.191
933.613	47.236
937.379	655.244
941.144	829.201
944.906	1512.17
948.667	1059.4
952.426	1374.03
956.183	2376.22
959.938	12268.8
963.691	22308.5
967.442	6320.4
971.191	2323.85
974.939	917.279
978.684	70.586
982.428	574.934
986.169	528.941
989.909	972.719
993.647	621.41
997.383	315.84
1001.12	245.078
1004.85	30.396
1008.58	396.252
1012.31	732.422
1016.03	1358.33
1019.76	1068.63
1023.48	945.699
1027.2	574.596
1030.92	1132.15
1034.64	600.336
1038.36	1444.15
1042.07	1602.3
1045.78	1520.85
1049.49	799.477
1053.2	467.602
1056.9	779.203
1060.61	936.781
1064.31	1186.57
1068.01	1736.39
1071.71	964.617
1075.41	765.695
1079.1	357.562
1082.79	466.945
1086.48	707.898
1090.17	1559.24
1093.86	1260.72
1097.55	812.926
1101.23	494.75
1104.91	127.234
1108.59	177.789
1112.27	384.668
1115.95	1296.69
1119.62	1439.13
1123.3	1060.98
1126.97	843.75
1130.63	129.312
1134.3	71.262
1137.97	130.73
1141.63	694.93
1145.29	938.391
1148.95	1642.76
1152.61	1392.81
1156.27	326.344
1159.92	114.949
1163.57	242.035
1167.22	781.039
1170.87	857.121
1174.52	1582.79
1178.16	1653.36
1181.81	1215.88
1185.45	501.273
1189.09	162.824
1192.73	247.398
1196.36	471.168
1200	1321.7
1203.63	1934.96
1207.26	1486.81
1210.89	1360.45
1214.52	681.301
1218.14	175.949
1221.77	79.289
1225.39	699.465
1229.01	1932.71
1232.62	1697.04
1236.24	1935.26
1239.86	1344.02
1243.47	983.41
1247.08	353.059
1250.69	41.371
1254.3	373.266
1257.9	1592.86
1261.5	1663.42
1265.11	1909.35
1268.71	1785.09
1272.3	1722.04
1275.9	1042.81
1279.49	190.355
1283.09	95.746
1286.68	207.363
1290.27	580.883
1293.86	1313.11
1297.44	1833.09
1301.03	1572.43
1304.61	460.82
1308.19	305.223
1311.77	46.977
1315.34	116.277
1318.92	258.133
1322.49	1104.96
1326.06	1510.86
1329.63	1769.03
1333.2	1892.13
1336.77	1635.32
1340.33	1137.09
1343.89	127.766
1347.46	72.508
1351.02	263.742
1354.57	893.844
1358.13	880.895
1361.68	1956.53
1365.23	2132.68
1368.79	1641.75
1372.33	1622.83
1375.88	1024.23
1379.43	454.484
1382.97	291.113
1386.51	250.453
1390.05	469.555
1393.59	1038.01
1397.13	1641.5
1400.66	2642.38
1404.19	1981.66
1407.72	2281.77
1411.25	1769.72
1414.78	1066.21
1418.31	124.637
1421.83	288.039
1425.36	522.164
1428.88	992.613
1432.39	1070.75
1435.91	2405.67
1439.43	2806.32
1442.94	2768.25
1446.45	2223.98
1449.96	1813.46
1453.47	1475.6
1456.98	1027.43
1460.48	108.117
1463.99	122.312
1467.49	509.043
1470.99	1174.32
1474.49	1783.69
1477.99	2334.4
1481.48	2893.48
1484.97	2618.7
1488.46	1981.14
1491.95	1584.65
1495.44	740.875
1498.93	657.391
1502.41	4.297
1505.9	20.277
1509.38	56.59
