Measurement: Raman, 514 nm, ccw, Raman Data Processed
Mineral: Fluorophlogopite
Rruff sample: R040075
Ideal chemistry: KMg_3_(Si_3_Al)O_10_F_2_
Locality: unknown
Source: University of Arizona Mineral Museum
Description: Green hexagonal tablet
Measured chemistry: (K_0.93_[box]_0.04_Na_0.03_)(Mg_0.66_Fe_0.30_Ti_0.02_)_3_(Si_0.75_Al_0.25_)_4_O_10_(F_0.90_(OH)_0.06_Cl_0.04_)
Pin_id: L00455
Orientation: Laser parallel to [1 0 1]. Fiducial mark perpendicular to laser is parallel to b* (0 1 0)
Raman shift (cm-1)	intensity
158.679	0
161.452	2.067
164.225	42.988
166.996	57.274
169.767	153.29
172.536	267.796
175.305	447.383
178.073	666.98
180.839	974.605
183.605	1309.99
186.37	1619.86
189.134	1680.16
191.898	1586.85
194.66	1379.87
197.421	1106.82
200.182	946.049
202.941	794.494
205.7	608.897
208.457	416.75
211.214	429.083
213.97	291.134
216.725	178.243
219.479	126.216
222.232	163.506
224.984	39.838
227.736	62.317
230.486	41.301
233.236	61.167
235.984	23.881
238.732	1.921
241.479	14.47
244.224	10.78
246.969	5.557
249.713	42.076
252.457	44.985
255.199	48.338
257.94	18.023
260.681	97.202
263.42	112.9
266.159	139.74
268.896	144.924
271.633	187.007
274.369	192.104
277.104	346.53
279.838	299.412
282.572	284.659
285.304	222.305
288.035	130.474
290.766	74.262
293.495	139.455
296.224	107.418
298.952	58.803
301.679	148.545
304.405	98.706
307.13	161.462
309.854	125.384
312.578	240.354
315.3	221.083
318.021	281.385
320.742	303.376
323.462	297.879
326.181	231.381
328.899	197.418
331.616	192.587
334.332	245.45
337.047	253.455
339.762	244.581
342.475	295.804
345.188	346.115
347.9	348.513
350.61	346.019
353.32	365.582
356.029	360.211
358.738	378.875
361.445	409.602
364.151	364.352
366.857	399.223
369.561	400.209
372.265	347.221
374.968	355.838
377.67	369.996
380.371	363.869
383.071	355.988
385.77	432.464
388.469	399.118
391.166	372.844
393.863	373.16
396.559	365.928
399.254	386.147
401.948	385.368
404.641	449.011
407.333	400.549
410.025	445.499
412.715	316.898
415.405	283.182
418.093	288.329
420.781	251.293
423.468	272.719
426.154	205.731
428.839	245.879
431.524	201.7
434.207	146.812
436.89	116.723
439.572	86.262
442.252	64.446
444.932	64.146
447.611	38.347
450.29	5.63
452.967	24.869
455.644	35.975
458.319	51.019
460.994	1.186
463.668	59.594
466.341	102.882
469.013	26.352
471.684	9.148
474.354	43.705
477.024	38.813
479.692	46.578
482.36	92.328
485.027	169.903
487.693	215.985
490.358	267.487
493.023	240.716
495.686	367.106
498.349	310.593
501.01	397.601
503.671	349.743
506.331	443.218
508.99	515.48
511.648	502.692
514.306	480.198
516.962	516.698
519.618	783.258
522.273	651.674
524.927	551.977
527.58	555.685
530.232	640.886
532.883	599.202
535.534	653.565
538.183	721.996
540.832	605.31
543.48	595.548
546.127	662.084
548.773	569.549
551.418	632.143
554.063	625.743
556.706	592.391
559.349	538.061
561.991	609.775
564.632	553.494
567.272	460.243
569.911	384.031
572.55	363.858
575.187	369.595
577.824	257.451
580.46	222.13
583.095	127.799
585.729	151.997
588.363	185.486
590.995	162.702
593.627	96.363
596.258	42.836
598.888	26.295
601.517	93.248
604.145	104.163
606.772	75.868
609.399	127.662
612.024	135.156
614.649	154.939
617.273	169.457
619.896	249.943
622.519	235.975
625.14	261.566
627.761	317.587
630.38	328.637
632.999	445.384
635.617	556.187
638.235	386.181
640.851	422.722
643.466	375.378
646.081	475.473
648.695	605.796
651.308	676.16
653.92	728.517
656.531	1010.87
659.142	1121.24
661.752	1054.01
664.36	1299.76
666.968	1500.87
669.575	1754.17
672.182	2135.88
674.787	2433.75
677.392	2882.52
679.995	3309.56
682.598	3315.02
685.2	3019.35
687.802	2465.32
690.402	2073.04
693.002	1724.64
695.6	1586.44
698.198	1407.28
700.795	1456.84
703.391	1483.52
705.987	1546.29
708.581	1648.15
711.175	1760.05
713.768	1863.65
716.36	1903.61
718.951	1892.08
721.542	1897.17
724.131	1934.56
726.72	1854.34
729.308	1755.36
731.895	1689.21
734.481	1516.95
737.067	1467.52
739.651	1383.97
742.235	1300.38
744.818	1259.69
747.4	1231.89
749.981	1202.07
752.562	1131.91
755.141	1189.62
757.72	1197.68
760.298	1234.77
762.875	1280.55
765.451	1331.48
768.027	1351.6
770.601	1353.71
773.175	1318.81
775.748	1275.9
778.32	1149.98
780.892	1169.1
783.462	931.253
786.032	901.391
788.601	772.494
791.169	674.562
793.736	603.594
796.303	497.586
798.868	452.538
801.433	305.447
803.997	265.312
806.56	254.136
809.122	213.29
811.684	179.687
814.245	101.406
816.804	90.044
819.363	32.56
821.922	17.054
824.479	6.149
827.036	14.847
829.592	22.751
832.147	18.424
834.701	1.992
837.254	10.758
839.807	0.367
842.358	51.632
844.909	48.767
847.459	28.028
850.008	1.595
852.557	2.151
855.105	45.406
857.651	27.484
860.197	15.692
862.743	1.125
865.287	24.646
867.831	13.573
870.373	31.426
872.915	80.206
875.457	37.916
877.997	158.552
880.536	31.115
883.075	65.604
885.613	83.015
888.15	104.348
890.687	138.604
893.222	192.79
895.757	147.913
898.291	212.982
900.824	198.001
903.356	263.971
905.888	265.895
908.418	213.765
910.948	247.578
913.477	250.323
916.005	269.024
918.533	308.681
921.06	320.296
923.585	304.872
926.111	368.413
928.635	296.925
931.158	255.415
933.681	237.875
936.203	260.325
938.724	256.77
941.244	236.222
943.764	305.694
946.282	317.309
948.8	299.775
951.317	215.443
953.833	242.265
956.349	210.346
958.864	234.361
961.377	230.87
963.891	226.389
966.403	266.696
968.914	203.28
971.425	166.89
973.935	129.924
976.444	144.026
978.952	76.009
981.46	74.652
983.967	83.916
986.473	68.117
988.978	108.454
991.482	76.695
993.986	102.065
996.488	116.775
998.99	99.264
1001.49	36.293
1003.99	88.211
1006.49	23.984
1008.99	7.703
1011.49	68.27
1013.99	22.288
1016.48	12.024
1018.98	22.978
1021.47	25.226
1023.97	62.095
1026.46	68.789
1028.95	85.287
1031.44	147.554
1033.93	141.516
1036.42	86.098
1038.91	49.642
1041.4	101.621
1043.89	64.418
1046.38	97.053
1048.86	112.286
1051.35	71.614
1053.84	61.996
1056.32	39.406
1058.8	98.056
1061.28	141.854
1063.77	151.267
1066.25	91.84
1068.73	74.654
1071.2	97.826
1073.68	106.523
1076.16	54.764
1078.64	23.413
1081.11	70.459
1083.59	110.203
1086.06	59.061
1088.54	62.986
1091.01	117.252
1093.48	88.211
1095.95	79.551
1098.42	66.212
1100.89	26.004
1103.36	29.009
1105.83	0
