Measurement: Raman, 514 nm, ccw, Raman Data Processed
Mineral: Fluorite
Rruff sample: R050045
Ideal chemistry: CaF_2_
Locality: Hunan Province, China
Source: Eugene Schlepp
Description: Pale green colored cubes
Measured chemistry: Ca_1.000_ F_2.000_
Pin_id: L00437
Orientation: Laser parallel to a* (1 0 0). Fiducial mark perpendicular to laser is parallel to -b [0 -1 0]
Raman shift (cm-1)	intensity
133.821	0
137.987	82.883
142.152	47.097
146.314	263.817
150.474	288.764
154.633	45.999
158.789	95.463
162.943	332.021
167.095	160.87
171.246	140.181
175.394	420.127
179.54	212.658
183.684	106.359
187.826	111.012
191.967	311.601
196.105	152.669
200.241	54.16
204.375	216.079
208.507	258.597
212.638	12.331
216.766	206.345
220.892	200.383
225.016	174.491
229.139	138.704
233.259	16.97
237.377	377.462
241.493	332.014
245.608	76.646
249.72	231.322
253.83	266.105
257.939	171.006
262.045	35.98
266.15	191.076
270.252	156.312
274.353	104.961
278.451	170.742
282.548	224.846
286.642	372.785
290.735	368.58
294.826	364.447
298.914	860.512
303.001	1064.25
307.086	1549.38
311.168	3484.85
315.249	8560.54
319.328	16866.4
323.405	15132.4
327.48	7538.34
331.553	3874.31
335.624	2330.38
339.693	1506.65
343.76	1162.95
347.826	1109.11
351.889	776.109
355.95	629.564
360.01	685.973
364.067	592.48
368.123	389.086
372.176	225.879
376.228	392.684
380.277	439.545
384.325	366.441
388.371	280.072
392.415	421.643
396.457	388.488
400.497	45.738
404.535	252.207
408.571	29.975
412.605	320.686
416.638	278.215
420.668	37.406
424.697	114.965
428.723	375.959
432.748	260.65
436.77	1.945
440.791	165.4
444.81	173.357
448.827	279.414
452.842	197.52
456.855	195.904
460.867	326.053
464.876	253.105
468.883	420.146
472.889	117.168
476.892	274.166
480.894	431.139
484.894	458.094
488.892	175.027
492.888	242.039
496.882	329.033
500.874	286.02
504.865	233.014
508.853	69.99
512.84	406.914
516.824	493.807
520.807	426.061
524.788	234.922
528.767	251.756
532.744	572.193
536.719	282.623
540.693	149.479
544.664	130
548.634	456.502
552.601	402.377
556.567	188.623
560.531	132.639
564.493	152.504
568.453	267.496
572.412	352.262
576.368	17.764
580.323	183.99
584.275	313.881
588.226	481.6
592.175	256.494
596.122	120.107
600.068	397.932
604.011	362.504
607.952	616.982
611.892	171.381
615.83	14.324
619.766	243.486
623.7	827.527
627.632	871.492
631.563	375.375
635.491	79.184
639.418	452.916
643.343	737.885
647.266	800.117
651.187	663.615
655.106	240.641
659.024	473.904
662.939	452.686
666.853	395.898
670.765	88.264
674.675	48.637
678.583	214.338
682.49	487.248
686.394	440.102
690.297	27.258
694.198	45.301
698.097	217.795
701.995	610.201
705.89	202.512
709.784	59.318
713.675	68.707
717.565	322.971
721.453	383.938
725.34	434.947
729.224	133.098
733.107	352.709
736.988	383.955
740.867	625.133
744.744	662.9
748.62	286.951
752.493	51.674
756.365	209.633
760.235	350.311
764.103	381.67
767.969	113.059
771.834	69.992
775.697	151.375
779.558	472.785
783.417	634.246
787.274	655.762
791.13	227.336
794.983	31.027
798.835	90.637
802.686	832.295
806.534	703.879
810.38	255.475
814.225	122.836
818.068	498.902
821.909	630.785
825.749	784.537
829.586	537.596
833.422	359.859
837.256	464.455
841.088	919.1
844.919	1554.2
848.748	1026.83
852.575	849.697
856.4	610.398
860.223	773.516
864.045	1027.36
867.864	1085.09
871.682	756.641
875.499	786.695
879.313	450.676
883.126	154.301
886.937	609.023
890.746	576.016
894.553	773.715
898.359	490.594
902.163	266.605
905.965	429.762
909.765	926.281
913.564	1303.02
917.361	759.977
921.156	767.148
924.949	50.871
928.74	718.539
932.53	646.434
936.318	994.551
940.104	962.898
943.889	611.477
947.672	168.984
951.453	408.031
955.232	728.668
959.01	1038.19
962.785	614.371
966.559	317.969
970.332	184.047
974.102	75.477
977.871	400.211
981.638	851.074
985.404	573.191
989.167	294.395
992.929	65.797
996.689	12.516
1000.45	509.469
1004.2	661.711
1007.96	944.227
1011.71	777.055
1015.46	660.148
1019.21	273.52
1022.96	457.402
1026.71	541.488
1030.45	825.805
1034.19	996.742
1037.94	975.773
1041.68	511.629
1045.41	55.797
1049.15	411.82
1052.88	601.102
1056.62	1267.4
1060.35	1164.02
1064.08	741.785
1067.8	269.477
1071.53	256.867
1075.25	504.52
1078.97	982.758
1082.7	1081.05
1086.41	1329.86
1090.13	838.793
1093.85	617.832
1097.56	266.969
1101.27	166.188
1104.98	685.57
1108.69	1165.34
1112.4	904.961
1116.1	464.5
1119.81	53.953
1123.51	108.309
1127.21	241.168
1130.91	324.238
1134.61	833.883
1138.3	991.82
1141.99	769.91
1145.68	950.383
1149.38	424.699
1153.06	114.793
1156.75	164.152
1160.43	763.91
1164.12	868.32
1167.8	918.555
1171.48	399.965
1175.16	170.098
1178.83	100.133
1182.51	212.316
1186.18	303.594
1189.85	822.496
1193.52	961.496
1197.19	1305.26
1200.86	739.215
1204.52	417.598
1208.19	87.293
1211.85	179.574
1215.51	554.562
1219.17	1060.56
1222.82	1501.94
1226.48	1574.08
1230.13	1194.87
1233.78	913.141
1237.43	922.391
1241.08	776.969
1244.73	590.371
1248.37	1025.77
1252.01	1418.57
1255.66	1973.4
1259.3	1527.53
1262.93	920.41
1266.57	788.34
1270.21	477.391
1273.84	588.973
1277.47	460.562
1281.1	872.176
1284.73	1473.12
1288.36	1301.89
1291.98	1601.03
1295.6	1068.69
1299.23	315.438
1302.85	430.949
1306.46	115.316
1310.08	708.637
1313.7	991.402
1317.31	1653.39
1320.92	1664.81
1324.53	1209.18
1328.14	754.992
1331.75	533.75
1335.35	131.203
1338.96	1.762
1342.56	36.445
1346.16	689.059
1349.76	1074.23
1353.36	1247.88
1356.95	1311.51
1360.55	884.883
1364.14	802.828
1367.73	67.102
1371.32	320.191
1374.91	298.512
1378.49	17.305
1382.08	892.074
1385.66	1486.3
1389.24	1579.62
1392.82	1712.92
1396.4	1835.69
1399.97	1177.82
1403.55	585.039
1407.12	178.223
1410.69	135.172
1414.26	446.945
1417.83	630.773
1421.4	835.695
1424.96	1477.09
1428.53	1426.76
1432.09	2099.59
1435.65	1500.29
1439.21	1074.38
1442.76	1213.22
1446.32	415.461
1449.87	798.852
1453.43	1066.46
1456.98	1058.7
1460.53	1493.19
1464.07	2178.61
1467.62	2186.89
1471.16	2260.45
1474.71	2328.46
1478.25	2125.55
1481.79	1077.65
1485.32	416.371
1488.86	446.262
1492.39	447.285
1495.93	401.75
1499.46	650.234
1502.99	797.676
1506.52	1543.98
1510.05	1740.37
1513.57	1824.58
1517.09	0
