Measurement: Raman, 514 nm, ccw, Raman Data Processed
Mineral: Fluor-uvite
Rruff sample: R050172
Ideal chemistry: CaMg_3_(Al_5_Mg)(Si_6_O_18_)(BO_3_)_3_(OH)_3_F
Locality: Pierrepont, New York, USA
Source: Marcus Origlieri
Description: Black prismatic crystal
Measured chemistry: (Ca_0.64_Na_0.36_)(Mg_0.56_Fe^2+^_0.34_Al_0.08_Ti_0.02_)_3_(Mg_1.00_Al_5.00_)(BO_3_)_3_Si_6.00_O_18_((OH)_3.45_F_0.55_)
Pin_id: L00240
Orientation: Laser parallel to -a* (-1 0 0). Fiducial mark perpendicular to laser is parallel to c [0 0 1]
Raman shift (cm-1)	intensity
168.01	0
172.151	21.264
176.29	148.706
180.427	109.736
184.562	73.14
188.696	60.49
192.827	13.753
196.956	151.159
201.084	210.833
205.209	333.166
209.333	421.672
213.454	396.059
217.574	456.37
221.692	330.987
225.808	262.026
229.922	363.775
234.034	419.423
238.144	425.865
242.252	329.696
246.359	354.476
250.463	255.093
254.566	150.043
258.666	148.818
262.765	99.826
266.862	178.246
270.957	63.837
275.05	24.351
279.141	43.556
283.23	64.212
287.317	50.108
291.403	49.073
295.486	4.511
299.568	35.36
303.647	91.065
307.725	43.371
311.801	6.108
315.875	70.77
319.947	59.894
324.018	125.187
328.086	240.067
332.153	290.114
336.217	303.992
340.28	375.708
344.341	368.649
348.4	464.12
352.457	546.164
356.512	692.956
360.566	853.685
364.617	867.647
368.667	949.405
372.715	906.659
376.761	822.273
380.805	732.347
384.847	544.705
388.887	606.046
392.926	500.72
396.962	453.052
400.997	374.416
405.03	372.488
409.061	295.918
413.09	332.82
417.117	249.408
421.143	238.074
425.166	172.908
429.188	122.962
433.208	118.807
437.226	122.787
441.242	108.239
445.256	120.657
449.269	146.33
453.28	96.512
457.288	134.242
461.295	81.776
465.3	55.711
469.304	46.29
473.305	58.367
477.305	68.148
481.303	144.31
485.298	111.305
489.293	112.833
493.285	152.627
497.275	168.942
501.264	157.627
505.251	160.945
509.236	203.309
513.219	189.86
517.2	281.135
521.18	326.168
525.157	331.048
529.133	419.405
533.107	375.432
537.079	349.994
541.05	314.463
545.018	364.876
548.985	348.2
552.95	305.928
556.913	275.703
560.875	175.866
564.834	217.68
568.792	257.688
572.748	343.555
576.702	239.923
580.654	303.741
584.605	273.006
588.553	207.272
592.5	233.461
596.445	183.635
600.389	166.926
604.33	129.534
608.27	132.621
612.208	134.627
616.144	172.17
620.078	110.739
624.011	108.503
627.941	71.674
631.87	33.223
635.798	44.889
639.723	79.448
643.647	62.052
647.568	38.096
651.488	51.427
655.407	111.778
659.323	75.136
663.238	131.502
667.151	33.015
671.062	62.484
674.971	35.715
678.879	114.437
682.785	110.725
686.689	188.901
690.591	290.211
694.491	371.278
698.39	465.104
702.287	545.851
706.182	446.053
710.076	496.79
713.968	539.647
717.857	701.409
721.746	763.252
725.632	812.039
729.517	983.93
733.4	921.108
737.281	1076.02
741.16	1063.59
745.038	1140.3
748.913	1214.67
752.788	1326.63
756.66	1257.08
760.531	1324.2
764.399	1345.33
768.267	1313.4
772.132	1311.43
775.996	1162.42
779.857	1128.37
783.718	900.267
787.576	833.109
791.433	744.32
795.288	704.92
799.141	600.358
802.992	410.914
806.842	277.313
810.69	173.695
814.536	113.985
818.381	124.183
822.223	27.285
826.065	39.272
829.904	26.138
833.741	29.188
837.577	10.153
841.412	20.792
845.244	9.075
849.075	35.672
852.904	23.523
856.731	13.233
860.556	7.878
864.38	27.417
868.202	21.467
872.023	2.564
875.842	44.214
879.658	69.875
883.474	42.414
887.287	52.848
891.099	118.176
894.909	91.386
898.718	101.49
902.524	157.494
906.329	166.385
910.133	141.163
913.934	116.832
917.734	187.391
921.532	219.838
925.329	227.171
929.124	240.391
932.917	307.498
936.708	314.491
940.498	291.372
944.286	338.146
948.072	369.812
951.857	436.369
955.64	469.816
959.421	439.153
963.201	540.381
966.979	543.501
970.755	547.514
974.529	492.917
978.302	514.669
982.073	531.454
985.843	591.503
989.611	435.208
993.377	483.225
997.141	501.302
1000.9	446.138
1004.66	469.643
1008.42	432.386
1012.18	495.077
1015.94	417.55
1019.69	429.909
1023.45	487.626
1027.2	521.69
1030.95	522.456
1034.69	464.523
1038.44	528.234
1042.18	503.603
1045.93	489.328
1049.67	529.659
1053.41	599.167
1057.14	554.621
1060.88	565.137
1064.62	588.999
1068.35	558.382
1072.08	532.753
1075.81	511.034
1079.54	513.278
1083.26	417.487
1086.99	373.663
1090.71	361.806
1094.43	317.92
1098.15	311.003
1101.87	282.058
1105.59	214.087
1109.3	232.09
1113.01	186.075
1116.72	149.038
1120.43	165.994
1124.14	94.968
1127.85	142.94
1131.55	111.908
1135.26	130.071
1138.96	128.216
1142.66	70.468
1146.36	67.27
1150.05	47.386
1153.75	30.983
1157.44	10.351
1161.13	42.427
1164.82	9.337
1168.51	41.098
1172.2	8.982
1175.88	0.694
1179.57	29.435
1183.25	19.467
1186.93	38.061
1190.61	14.705
1194.28	5.244
1197.96	20.023
1201.63	39.528
1205.31	17.971
1208.98	5.601
1212.64	17.81
1216.31	109.321
1219.98	83.691
1223.64	156.046
1227.31	99.457
1230.97	136.787
1234.62	158.152
1238.28	132.586
1241.94	150.884
1245.59	174.185
1249.25	168.519
1252.9	204.04
1256.55	117.406
1260.2	124.944
1263.84	118.52
1267.49	135.729
1271.13	128.22
1274.77	78.619
1278.41	181.995
1282.05	187.352
1285.69	119.557
1289.32	100.165
1292.96	112.778
1296.59	63.772
1300.22	60.735
1303.85	42.732
1307.48	39.908
1311.1	59.928
1314.72	86.766
1318.35	87.755
1321.97	102.172
1325.59	83.134
1329.21	47.773
1332.82	25.827
1336.44	21.362
1340.05	37.056
1343.66	62.639
1347.27	68.065
1350.88	71.247
1354.49	70.114
1358.09	15.137
1361.7	87.252
1365.3	85.737
1368.9	51.221
1372.5	49.562
1376.1	33.412
1379.69	52.979
1383.29	126.636
1386.88	100.228
1390.47	82.153
1394.06	101.379
1397.65	62.514
1401.23	39.573
1404.82	29.429
1408.4	28.299
1411.98	9.038
1415.56	49.456
1419.14	50.105
1422.72	69.54
1426.3	54.592
1429.87	58.253
1433.44	29.657
1437.01	80.511
1440.58	18.476
1444.15	8.302
1447.71	35.288
1451.28	60.38
1454.84	50.378
1458.4	48.563
1461.96	96.169
1465.52	121.151
1469.08	115.57
1472.64	94.707
1476.19	113.601
1479.74	51.539
1483.29	61.729
1486.84	29.158
1490.39	65.315
1493.94	33.105
1497.48	52.631
1501.02	43.872
1504.57	19.502
1508.11	130.318
1511.64	98.402
1515.18	79.372
1518.72	56.488
1522.25	0
