Measurement: Raman, 514 nm, ccw, Raman Data Processed
Mineral: Fluoro-richterite
Rruff sample: R040019
Ideal chemistry: Na(NaCa)Mg_5_Si_8_O_22_F_2_
Locality: Wilberforce, Ontario, Canada
Source: University of Arizona Mineral Museum
Description: Brown prismatic crystals
Measured chemistry: (Na_0.59_K_0.27_[box]_0.14_)_Σ=1_(Ca_1.30_Na_0.70_)_Σ=2_(Mg_4.67_Fe_0.17_Fe^3+^_0.10_Ti_0.03_Mn_0.02_Al_0.01_)_Σ=5_(Si_7.67_Al_0.33_)_Σ=8_(F_1.12_(OH)_0.88_)_Σ=2_; OH estimated by charge balance
Pin_id: L00117
Orientation: Laser parallel to [-1 0 -1]. Fiducial mark perpendicular to laser is parallel to -b* (0 -1 0)
Raman shift (cm-1)	intensity
144.787	0
148.942	12.254
153.096	948.997
157.247	2768.34
161.396	3926.88
165.544	2542.88
169.689	1714.08
173.833	1471.2
177.974	1369.87
182.114	1215.76
186.251	1065.96
190.387	1013.72
194.52	1389.98
198.652	1797.48
202.782	2451.69
206.909	3560.9
211.035	5081.77
215.159	7543.06
219.281	12400.7
223.4	20887.9
227.518	32552.9
231.634	40298.1
235.748	35076.9
239.86	24382.5
243.97	16749
248.079	12061.4
252.185	7515.41
256.289	4348.03
260.391	2361.13
264.492	1321.5
268.59	472.935
272.687	37.395
276.781	254.161
280.874	337.772
284.964	277.159
289.053	116.342
293.14	147.423
297.225	803.984
301.308	1522.22
305.389	2458.32
309.468	3600.97
313.545	4108.14
317.62	3633.64
321.693	2613.83
325.765	1591.93
329.834	1004.03
333.902	768.61
337.967	844.38
342.031	1091.14
346.093	1375.54
350.153	1472.35
354.21	1665.58
358.267	2463.22
362.321	4037.28
366.373	4996.75
370.423	5054.59
374.471	5018.53
378.518	5771.75
382.563	6529.09
386.605	6853.88
390.646	7034.12
394.685	6997.79
398.722	6746.87
402.757	5927.32
406.79	4744.13
410.821	3777.25
414.851	3339.66
418.878	3702.33
422.904	4683.65
426.927	5739.33
430.949	6183.62
434.969	5738.08
438.987	3950.61
443.003	2196.13
447.018	1148.28
451.03	575.049
455.041	140.924
459.049	136.605
463.056	241.5
467.061	255.696
471.064	173.889
475.065	145.618
479.064	53.146
483.062	138.904
487.057	260.342
491.051	207.045
495.043	274.376
499.032	356.52
503.02	612.463
507.007	1051.19
510.991	1679.71
514.973	2676.99
518.954	4102.08
522.933	5174.94
526.91	4447.63
530.885	2960.17
534.858	1877.57
538.829	1407.89
542.799	1211.13
546.766	1124.14
550.732	1143.83
554.696	1062.21
558.658	1064.24
562.618	1000.91
566.576	882.202
570.533	946.095
574.488	1018.57
578.44	1300.14
582.391	1854.25
586.341	2156.42
590.288	1994.14
594.233	973.395
598.177	269.338
602.119	101.893
606.059	217.241
609.997	206.39
613.933	185.781
617.868	110.378
621.801	53.817
625.731	149.305
629.66	232.5
633.588	501.986
637.513	775.906
641.437	1018.5
645.358	1508.34
649.278	2119.64
653.196	2979.78
657.113	4273.67
661.027	5988.81
664.94	9081.1
668.851	14799.1
672.76	25758.3
676.667	43740.1
680.572	56865
684.476	50031.6
688.378	28796.4
692.278	16260.3
696.176	9677.03
700.072	6543.42
703.967	4822.69
707.86	4079.7
711.751	3860.49
715.64	4128.67
719.527	4525.96
723.413	4713.77
727.297	4838.84
731.179	4806.35
735.059	4604.31
738.937	4171.71
742.814	3699.58
746.689	3339.92
750.562	2798.73
754.433	2384.6
758.303	2104.78
762.17	1772.95
766.036	1463.71
769.901	1147.88
773.763	865.832
777.624	669.048
781.482	567.43
785.339	498.772
789.195	465.415
793.048	448.968
796.9	366.291
800.75	383.362
804.598	268.19
808.445	212.776
812.289	86.11
816.132	69.179
819.973	39.979
823.813	2.179
827.65	80.231
831.486	37.618
835.32	46.836
839.152	58.772
842.983	120.213
846.812	147.246
850.639	109.925
854.464	2.793
858.288	18.436
862.11	28.826
865.93	15.068
869.748	66.201
873.564	111.257
877.379	150.991
881.192	200.325
885.004	345.412
888.813	567.586
892.621	779.935
896.427	935.41
900.232	1231.04
904.034	1476.87
907.835	1721.84
911.634	1761.25
915.432	2240.53
919.227	2720.8
923.021	3385.13
926.813	4425.36
930.604	5042.33
934.393	5195.77
938.18	5018.45
941.965	4993.23
945.749	5097.07
949.53	5099.95
953.311	4832.88
957.089	4114.85
960.866	3050.29
964.641	2283.71
968.414	1897.65
972.185	1754.47
975.955	1620.85
979.723	1551.7
983.49	1692.92
987.254	1782.08
991.017	1944.44
994.779	2322.12
998.538	2672.14
1002.3	3115.82
1006.05	3894.63
1009.81	4701.44
1013.56	5370.96
1017.31	5806.13
1021.06	5976.2
1024.81	6338.48
1028.55	6792.7
1032.3	7641.45
1036.04	8920.08
1039.78	9841.28
1043.52	10183.3
1047.26	10120.7
1050.99	10235.4
1054.73	10672.8
1058.46	11128.4
1062.19	11783.8
1065.92	12438.6
1069.65	12542.6
1073.37	12100.4
1077.1	10926.7
1080.82	9807.59
1084.54	8826.59
1088.26	7859.15
1091.97	6189.22
1095.69	4904.29
1099.4	3936.23
1103.12	3228.5
1106.83	2690.21
1110.54	2301.91
1114.24	2002.93
1117.95	1798.57
1121.65	1703
1125.35	1664.63
1129.06	1233.12
1132.75	1119.76
1136.45	921.782
1140.15	848.318
1143.84	712.959
1147.53	669.218
1151.22	541.208
1154.91	448.558
1158.6	334.21
1162.28	285.843
1165.97	159.603
1169.65	23.942
1173.33	27.163
1177.01	21.197
1180.69	12.458
1184.36	44.159
1188.04	43.251
1191.71	25.331
1195.38	49.187
1199.05	79.787
1202.71	19.271
1206.38	52.353
1210.04	45.601
1213.71	56.896
1217.37	24.167
1221.03	1.41
1224.68	88.267
1228.34	63.859
1231.99	81.991
1235.65	92.065
1239.3	107.7
1242.95	113.759
1246.59	214.797
1250.24	205.32
1253.88	247.52
1257.53	149.062
1261.17	138.377
1264.81	206.261
1268.45	205.477
1272.08	190.337
1275.72	97.441
1279.35	229.753
1282.98	257.663
1286.61	191.92
1290.24	191.132
1293.87	262.906
1297.49	189.391
1301.11	157.989
1304.73	233.994
1308.36	269.7
1311.97	223.205
1315.59	169.625
1319.2	151.065
1322.82	62.197
1326.43	117.511
1330.04	119.217
1333.65	213.705
1337.26	99.273
1340.86	144.096
1344.47	206.497
1348.07	222.01
1351.67	74.371
1355.27	143.969
1358.87	72.467
1362.46	37.771
1366.06	72.74
1369.65	15.193
1373.24	65.085
1376.83	35.754
1380.42	87.477
1384	52.503
1387.59	6.172
1391.17	64.548
1394.75	33.809
1398.33	65.941
1401.91	184.915
1405.49	150.417
1409.06	163.433
1412.64	124.162
1416.21	185.596
1419.78	168.489
1423.35	153.056
1426.91	211.322
1430.48	118.24
1434.05	242.871
1437.61	356.697
1441.17	415.864
1444.73	311.274
1448.29	292.401
1451.84	355.898
1455.4	392.513
1458.95	372.809
1462.5	286.188
1466.05	226.182
1469.6	264.053
1473.15	341.408
1476.69	217.932
1480.24	165.937
1483.78	129.173
1487.32	166.782
1490.86	142.811
1494.39	258.077
1497.93	60.205
1501.46	173.229
1505	16.543
1508.53	1.996
1512.06	99.426
1515.59	98.059
1519.11	0.467
