Measurement: Raman, 514 nm, ccw, Raman Data Processed
Mineral: Fluorapatite
Rruff sample: R050617
Ideal chemistry: Ca_5_(PO_4_)_3_F
Locality: Santa Cruz, Sonora, Mexico
Source: University of Arizona Mineral Museum
Description: Tan colored hexagonal prism
Measured chemistry: Ca_5.00_(P_1.00_O_4_)_3_(F_0.99_Cl_0.01_)
Pin_id: L01712
Orientation: Laser parallel to c* (0 0 1). Fiducial mark perpendicular to laser is parallel to -b [0 -1 0]
Raman shift (cm-1)	intensity
105.815	0
110.744	37.3901
115.671	76.2798
120.596	35.3932
125.519	90.2861
130.439	161.309
135.356	294.338
140.271	301.071
145.184	286.496
150.094	225.455
155.002	218.216
159.908	233.186
164.811	184.644
169.711	143.665
174.61	88.1434
179.505	46.416
184.399	75.8042
189.29	28.8707
194.178	9.84326
199.064	36.9589
203.948	80.9403
208.829	47.3063
213.708	16.4376
218.585	37.2346
223.459	59.3181
228.33	105.002
233.199	56.3611
238.066	136.677
242.93	73.8201
247.792	51.9045
252.651	133.22
257.508	187.599
262.363	236.76
267.215	272.419
272.064	214.67
276.912	101.39
281.756	68.1209
286.598	63.8215
291.438	85.0632
296.276	151.701
301.111	100.531
305.943	84.7632
310.773	144.649
315.601	159.18
320.426	100.541
325.248	2.56616
330.068	71.5105
334.886	58.2168
339.701	41.4231
344.514	14.0088
349.324	39.5593
354.132	40.396
358.938	36.779
363.741	60.8774
368.541	3.76245
373.339	115.519
378.135	29.3652
382.928	68.1352
387.718	40.1406
392.506	70.4358
397.292	46.9038
402.075	149.875
406.856	83.4394
411.634	50.2522
416.41	62.7315
421.183	171.259
425.954	155.15
430.722	358.057
435.488	421.841
440.251	599.715
445.012	672.027
449.77	502.581
454.526	291.197
459.28	282.013
464.03	80.6038
468.779	147.818
473.525	159.309
478.268	131.77
483.009	100.661
487.747	23.7644
492.483	0.047363
497.217	25.709
501.948	82.9839
506.676	9.38037
511.402	29.272
516.125	69.5811
520.846	58.4824
525.565	73.2393
530.281	67.4399
534.994	70.5542
539.705	63.0073
544.413	71.4614
549.119	97.9956
553.822	51.415
558.523	5.84033
563.222	149.397
567.917	222.938
572.611	417.976
577.302	610.976
581.99	714.162
586.676	319.162
591.359	247.083
596.04	208.032
600.718	407.164
605.394	500.856
610.067	534.28
614.737	419.41
619.406	244.689
624.071	112.237
628.734	83.7476
633.395	6.45361
638.053	126.77
642.708	66.7578
647.361	184.28
652.012	74.5806
656.66	51.959
661.305	81.4062
665.948	37.3545
670.588	130.181
675.226	90.1348
679.861	109.774
684.494	18.7026
689.124	47.5381
693.752	43.2231
698.377	17.5308
702.999	170.264
707.619	33.3818
712.237	92.7866
716.852	70.646
721.464	108.98
726.074	102.147
730.681	87.9844
735.286	159.792
739.888	10.3066
744.488	146.576
749.085	35.8223
753.68	197.26
758.272	79.4941
762.861	138.087
767.448	4.56543
772.033	180.29
776.614	147.44
781.194	202.612
785.77	44.3389
790.345	170.691
794.916	243.765
799.485	220.444
804.052	28.7988
808.616	148.424
813.177	168.348
817.736	14.6387
822.292	176.135
826.846	109.619
831.397	66.8906
835.945	100.401
840.491	13.3867
845.035	148.916
849.576	134.445
854.114	201.928
858.65	195.239
863.183	194.307
867.713	177.69
872.241	82.084
876.767	143.429
881.29	157.098
885.81	53.6543
890.328	259.93
894.843	91.3897
899.356	47.5185
903.866	58.6768
908.373	61.1758
912.878	32.5664
917.38	189.274
921.88	43.9902
926.377	227.606
930.872	167.874
935.364	96.6318
939.853	179.916
944.34	352.919
948.824	696.836
953.306	1246.94
957.785	6258.14
962.261	12350.4
966.735	10479.7
971.207	2695.75
975.675	935.915
980.141	356.671
984.605	159.234
989.066	193.655
993.524	25.2334
997.98	30.0137
1002.43	63.959
1006.88	20.5879
1011.33	183.035
1015.78	181.529
1020.22	154.768
1024.66	353.266
1029.1	470.178
1033.53	636.439
1037.97	320.014
1042.4	257.453
1046.82	183.828
1051.25	315.019
1055.67	425.822
1060.09	414.197
1064.51	310.322
1068.92	160.623
1073.33	279.506
1077.74	312.736
1082.15	289.18
1086.55	326.164
1090.95	51.7129
1095.35	31.0742
1099.75	258.707
1104.14	106.293
1108.53	322.041
1112.92	186.199
1117.31	341.543
1121.69	281.012
1126.07	165.457
1130.45	71.1426
1134.82	11.4785
1139.19	188.139
1143.57	99.2734
1147.93	196.191
1152.3	91.3144
1156.66	167.957
1161.02	202.438
1165.38	180.328
1169.73	417.928
1174.08	134.984
1178.43	221.975
1182.78	243.06
1187.12	85.2559
1191.46	40.7383
1195.8	312.353
1200.14	198.051
1204.47	259.231
1208.8	181.977
1213.13	392.068
1217.46	358.379
1221.78	100.125
1226.1	222.648
1230.42	242.147
1234.73	278.516
1239.04	242.029
1243.35	430.602
1247.66	48.6621
1251.97	292.744
1256.27	265.379
1260.57	241.367
1264.86	78.2539
1269.16	406.584
1273.45	330.871
1277.74	252.127
1282.03	8.76758
1286.31	203.801
1290.59	256.986
1294.87	295.156
1299.14	35.0117
1303.42	13.9531
1307.69	181.215
1311.95	129.359
1316.22	160.832
1320.48	386.863
1324.74	411.176
1329	391.188
1333.26	423.812
1337.51	260.769
1341.76	204.719
1346	136.363
1350.25	446.555
1354.49	310.316
1358.73	189.188
1362.96	164.738
1367.2	310.734
1371.43	246.711
1375.66	259.215
1379.88	363.633
1384.11	126.555
1388.33	122.203
1392.54	165.152
1396.76	30.7422
1400.97	234.121
1405.18	182.695
1409.39	132.254
1413.59	75.4453
1417.8	42.1172
1421.99	103.32
1426.19	414.227
1430.38	169.043
1434.58	4.41016
1438.77	302.633
1442.95	66.7617
1447.13	85.2969
1451.32	117.606
1455.49	140.113
1459.67	115.262
1463.84	430.891
1468.01	212.371
1472.18	260.055
1476.35	305.402
1480.51	523.102
1484.67	367.543
1488.83	294.391
1492.98	232.719
1497.13	315.254
1501.28	125.891
1505.43	791.273
1509.57	596.285
1513.71	243.769
1517.85	198.719
1521.99	496.57
1526.12	190.988
1530.25	312.648
1534.38	8.71094
1538.5	335.094
1542.62	286.266
1546.74	271.781
1550.86	293.574
1554.98	355.652
1559.09	219.328
1563.2	113.281
1567.31	144.934
1571.41	0
