Measurement: Raman, 514 nm, ccw, Raman Data Processed
Mineral: Fluorapophyllite-(K)
Rruff sample: R060554
Ideal chemistry: KCa_4_Si_8_O_20_F8H_2_O
Locality: unknown
Source: Gemological Institute of America
Description: Colorless polished fragment
Measured chemistry: (K_0.88_Na_0.12_)Ca_4.00_Si_8.00_O_20_F_1.00_Â·8H2O
Pin_id: L00812
Orientation: Laser parallel to -a* (-1 0 0). Fiducial mark perpendicular to laser is parallel to -c [0 0 -1]
Raman shift (cm-1)	intensity
53.91	0
58.864	301.743
63.817	9.36877
68.767	28.1871
73.714	729.981
78.659	4315.99
83.602	13597.8
88.542	21763.8
93.48	17099.1
98.416	12001.9
103.349	26834.6
108.28	32282.4
113.208	13158.5
118.134	10703
123.058	16203.6
127.979	14908.9
132.898	12937.7
137.814	6244.41
142.728	3306.09
147.639	3257.76
152.549	6378.1
157.455	16549.9
162.359	23299.5
167.261	11621.4
172.161	4598.68
177.058	6631.28
181.952	18342.2
186.845	21959.2
191.734	13623.2
196.622	13967.1
201.507	25202.1
206.389	50542.5
211.269	57586.7
216.147	36976
221.022	26280.9
225.895	25937.4
230.765	21693.5
235.633	11862
240.498	5744.6
245.361	2742.84
250.222	1742.33
255.08	1823.78
259.936	3107.22
264.789	5391.54
269.64	4717.58
274.488	2825.07
279.334	2569.89
284.178	4285.99
289.019	8742.3
293.857	17032.7
298.693	19619.9
303.527	12180.4
308.358	6938.23
313.187	4496.22
318.013	3919.35
322.837	4362.59
327.659	6129.91
332.478	8425.25
337.294	9571.56
342.108	6801.79
346.92	3262.97
351.729	1028.08
356.535	167.412
361.34	132.218
366.141	567.451
370.94	1562.65
375.737	781.228
380.531	489.157
385.323	915.178
390.113	888.472
394.9	427.755
399.684	107.414
404.466	131.88
409.245	399.693
414.022	976.207
418.797	2710.38
423.569	8461.16
428.338	27700.5
433.105	34036.5
437.87	13417.1
442.632	4632.78
447.391	1953.57
452.149	1258.58
456.903	1881.15
461.655	2721.45
466.405	1986.44
471.152	796.785
475.897	429.815
480.639	1359.16
485.378	2125.77
490.116	992.644
494.85	335.732
499.582	301.993
504.312	478.685
509.039	800.262
513.764	1045.83
518.486	1341.43
523.206	1992.38
527.923	2742.07
532.638	4076.06
537.35	4778.22
542.059	4645.72
546.766	4258.1
551.471	3986.85
556.173	4585.13
560.873	5644.91
565.57	7599.16
570.264	11262.9
574.957	17891.6
579.646	25872.7
584.333	29233
589.018	22715.1
593.7	14406.6
598.379	9297.91
603.056	6529.09
607.73	5119.11
612.402	4606.8
617.072	4507.56
621.739	4937.16
626.403	5288.63
631.065	5418.94
635.724	6138.1
640.381	7276.09
645.035	9074.07
649.687	11954.1
654.336	15583.9
658.983	19483.6
663.627	20387.4
668.268	17304.5
672.907	12147.1
677.544	7755.67
682.178	5162.77
686.809	3292.25
691.438	2143.47
696.065	1280.38
700.688	771.963
705.31	318.19
709.929	201.049
714.545	23.5518
719.158	56.1929
723.77	4.62061
728.378	89.3511
732.984	186.549
737.588	251.589
742.189	182.828
746.787	83.0581
751.383	92.5322
755.976	612.246
760.567	1374.53
765.155	2170.41
769.741	1914.87
774.324	1225.94
778.904	1239.61
783.482	1884.59
788.058	3688.78
792.631	3943.82
797.201	2241.29
801.769	1114.97
806.334	758.346
810.897	658.279
815.457	757.716
820.014	911.624
824.569	1127.99
829.122	1399.82
833.671	1678.13
838.219	1804.92
842.763	1918.21
847.306	1857.01
851.845	1859.91
856.382	1763.84
860.917	1424.31
865.448	1048.4
869.978	765.771
874.505	579.533
879.029	385.193
883.55	257.312
888.069	74.7773
892.586	121.384
897.1	217.417
901.611	177.75
906.12	183.07
910.626	80.6182
915.129	25.6016
919.63	19.6899
924.129	26.5786
928.625	39.2568
933.118	109.283
937.609	203.045
942.097	449.033
946.582	676.238
951.065	995.034
955.546	1153.27
960.023	1258.12
964.499	1376.19
968.971	2173.51
973.441	2755.06
977.909	2184.86
982.374	1594.92
986.836	1607.33
991.295	1770.42
995.753	1918.39
1000.21	2934.36
1004.66	3895.63
1009.11	3822.61
1013.55	2594.84
1018	1962.43
1022.44	2004.17
1026.88	2131.72
1031.32	2791.12
1035.75	3713.7
1040.18	5254.88
1044.61	8320.72
1049.04	14580.4
1053.46	29788.2
1057.88	53679.1
1062.3	48167.3
1066.71	24159.7
1071.13	11378.3
1075.54	5890.4
1079.94	3423.24
1084.35	2489.82
1088.75	1997.65
1093.15	2150.22
1097.55	896.076
1101.94	795.137
1106.34	1046.2
1110.73	1733.25
1115.11	2214.28
1119.5	1170.4
1123.88	507.34
1128.26	222.2
1132.63	142.951
1137.01	7.56665
1141.38	86.231
1145.75	15.9111
1150.12	94.3962
1154.48	116.852
1158.84	819.63
1163.2	644.915
1167.55	149.793
1171.91	76.436
1176.26	1.48096
1180.61	25.9473
1184.95	50.9082
1189.29	20.7214
1193.63	51.959
1197.97	42.5395
1202.31	52.665
1206.64	98.9993
1210.97	186.836
1215.29	135.359
1219.62	148.283
1223.94	107.729
1228.26	211.94
1232.57	243.297
1236.89	295.859
1241.2	249.71
1245.51	197.541
1249.81	278.442
1254.12	316.067
1258.42	317.927
1262.72	300.725
1267.01	371.565
1271.3	420.583
1275.59	412.924
1279.88	333.528
1284.17	295.217
1288.45	267.432
1292.73	304.908
1297.01	335.294
1301.28	368.356
1305.55	295.967
1309.82	332.104
1314.09	398.824
1318.35	370.407
1322.61	307.8
1326.87	223.256
1331.13	180.383
1335.38	87.0173
1339.63	154.549
1343.88	109.49
1348.12	68.1499
1352.37	95.5405
1356.61	74.0161
1360.85	172.529
1365.08	101.54
1369.31	91.9138
1373.54	73.5986
1377.77	180.848
1381.99	46.7629
1386.22	81.3728
1390.43	72.6819
1394.65	73.689
1398.87	40.5752
1403.08	13.427
1407.29	36.7805
1411.49	64.0264
1415.69	13.8503
1419.89	11.6086
1424.09	55.6208
1428.29	55.6819
1432.48	62.7612
1436.67	285.584
1440.86	410.283
1445.04	487.43
1449.23	526.347
1453.4	589.586
1457.58	563.055
1461.76	464.68
1465.93	366.313
1470.1	346.571
1474.26	359.667
1478.43	353.76
1482.59	260.825
1486.75	199.642
1490.9	182.297
1495.06	202.819
1499.21	164
1503.35	183.514
1507.5	276.349
1511.64	238.84
1515.78	249.711
1519.92	203.833
1524.05	305.136
1528.18	191.441
1532.31	229.477
1536.44	232.948
1540.56	286.413
1544.69	180.011
1548.8	155.181
1552.92	110.96
1557.03	54.0352
1561.14	35.667
1565.25	49.6392
1569.36	33.3565
