Measurement: Raman, 514 nm, ccw, Raman Data Processed
Mineral: Fluorapatite
Rruff sample: R050122
Ideal chemistry: Ca_5_(PO_4_)_3_F
Locality: Cruziero mine, San Jose, Minas Gerais, Brazil
Source: Carlos and Paulo Vasconcelos
Description: Green fragment
Measured chemistry: (Ca_4.99_Mn_0.01_)_Î£=5_(P_1.00_O_4_)_3_F_1.00_; trace amounts of Fe
Pin_id: L00505
Orientation: Laser parallel to -a* (-1 0 0). Fiducial mark perpendicular to laser is parallel to -c [0 0 -1]
Raman shift (cm-1)	intensity
116.256	0
120.447	130.1
124.636	164.308
128.822	171.388
133.006	428.735
137.188	454.888
141.368	317.314
145.545	283.417
149.72	299.584
153.893	284.352
158.064	284.981
162.233	283.614
166.399	272.861
170.563	187.277
174.725	272.256
178.885	374.519
183.043	308.1
187.198	169.678
191.351	334.29
195.502	86.535
199.651	133.206
203.797	227.006
207.942	355.267
212.084	248.693
216.224	168.049
220.362	195.245
224.497	350.387
228.631	244.651
232.762	317
236.891	438.404
241.018	228.883
245.143	65.326
249.265	156.232
253.386	233.667
257.504	125.361
261.62	177.952
265.734	275.122
269.845	208.555
273.955	99.897
278.062	153.607
282.167	372.665
286.27	442.568
290.371	289.809
294.47	196.446
298.567	389.261
302.661	313.003
306.753	114.927
310.843	66.83
314.931	265.792
319.017	79.616
323.101	79.002
327.182	19.976
331.261	94.377
335.339	90.917
339.414	54.764
343.487	18.555
347.557	127.438
351.626	49.944
355.693	35.01
359.757	19.726
363.819	133.214
367.879	96.846
371.937	29.191
375.993	67.921
380.047	99.761
384.099	102.208
388.148	84.041
392.196	69.793
396.241	169.446
400.284	98.3
404.325	110.491
408.364	53.315
412.401	389.842
416.435	374.409
420.468	567.206
424.498	1239.09
428.527	2430.45
432.553	2251.31
436.577	1241.46
440.599	871.376
444.619	1041.03
448.637	909.992
452.653	648.448
456.667	286.776
460.678	424.593
464.688	276.221
468.695	283.52
472.701	10.586
476.704	120.146
480.705	380.75
484.704	410.926
488.701	114.726
492.696	123.355
496.689	205.113
500.68	332.734
504.668	81.285
508.655	69.978
512.639	206.01
516.622	358.881
520.602	355.761
524.581	97.684
528.557	67.962
532.531	360.766
536.503	161.113
540.473	24.206
544.441	6.12
548.407	266.882
552.371	307.061
556.333	214.254
560.293	43.425
564.251	17.805
568.206	429.795
572.16	507.967
576.112	345.548
580.061	873.875
584.009	811.965
587.954	1968.97
591.897	2465.23
595.839	650.539
599.778	366.135
603.716	682.4
607.651	1346.82
611.584	450.211
615.515	302.178
619.444	113.906
623.372	415.006
627.297	403.416
631.22	260.682
635.141	61.256
639.06	325.061
642.977	546.814
646.892	613.453
650.805	287.152
654.716	143.119
658.625	455.861
662.532	505.221
666.437	550.15
670.34	211.98
674.241	72.572
678.139	305.572
682.036	555.084
685.931	525.102
689.824	86.521
693.715	39.463
697.604	173.254
701.491	618.109
705.376	327.076
709.259	141.234
713.139	79.307
717.018	272.986
720.895	401.113
724.77	402.639
728.643	206.043
732.514	156.877
736.383	332.824
740.25	537.357
744.115	672.66
747.978	346.578
751.839	53.078
755.698	156.816
759.555	409.461
763.41	581.094
767.263	423.035
771.114	93.24
774.964	92.793
778.811	389.059
782.656	717.678
786.499	704.311
790.341	312.453
794.18	90.441
798.017	35.377
801.853	640.711
805.686	705.434
809.518	499.895
813.347	124.475
817.175	329.975
821.001	334.83
824.824	738.555
828.646	681.961
832.466	85.84
836.284	179.688
840.1	9.342
843.914	573.693
847.726	482.361
851.536	304.072
855.344	21.225
859.15	39.146
862.954	256.738
866.756	768.273
870.557	768.043
874.355	738.535
878.152	428.9
881.946	91.777
885.739	457.662
889.53	937.264
893.318	636.039
897.105	255.074
900.89	46.02
904.673	51.844
908.454	470.277
912.234	897.68
916.011	525.244
919.786	513.049
923.56	159.924
927.331	397.252
931.101	734.709
934.868	1002.26
938.634	1078.38
942.398	794.855
946.16	744.734
949.92	951.762
953.678	2069.56
957.435	5449.12
961.189	22714.7
964.941	17419.3
968.692	3809.19
972.441	806.357
976.187	732.314
979.932	810.17
983.675	784.197
987.416	478.838
991.155	26.561
994.893	130.965
998.628	105.537
1002.36	483.539
1006.09	1037.16
1009.82	823.422
1013.55	599.336
1017.28	283.129
1021	229.945
1024.72	397.723
1028.44	1115.75
1032.16	1446.07
1035.88	1713.03
1039.59	2072.6
1043.31	855.227
1047.02	1652.8
1050.73	2505.68
1054.43	1900.37
1058.14	1825.16
1061.84	1520.37
1065.54	907.512
1069.24	662.555
1072.94	617.516
1076.64	1934.37
1080.33	1558.94
1084.03	1623.09
1087.71	1218.28
1091.4	902.203
1095.09	126.547
1098.78	28.602
1102.46	527.035
1106.14	1002.25
1109.82	1096.34
1113.5	599.098
1117.17	433.203
1120.85	307.113
1124.52	90.074
1128.19	288.668
1131.86	667.191
1135.52	1124.31
1139.19	1019.73
1142.85	1274.12
1146.51	585.582
1150.17	137.852
1153.83	242.914
1157.48	833.727
1161.14	1106.77
1164.79	1214.91
1168.44	945.098
1172.09	685.273
1175.73	273.812
1179.38	55.742
1183.02	34.961
1186.66	609.074
1190.3	1156.23
1193.94	1672.78
1197.58	1216.53
1201.21	1001.61
1204.84	487.402
1208.47	227.105
1212.1	525.211
1215.72	987.859
1219.35	1604.42
1222.97	1994.07
1226.59	1953.71
1230.21	1309.17
1233.83	1156.06
1237.45	643.766
1241.06	489.688
1244.67	728.168
1248.28	1384.12
1251.89	1835.81
1255.5	2006.49
1259.1	1143.09
1262.7	1172.38
1266.31	412.461
1269.9	7.449
1273.5	317.145
1277.1	642.844
1280.69	1322.89
1284.29	1290.46
1287.88	1975.88
1291.46	1460.69
1295.05	724.293
1298.64	478.008
1302.22	261.262
1305.8	618.484
1309.38	857.422
1312.96	1475.07
1316.54	1619.36
1320.11	1653.59
1323.68	1366.41
1327.25	937.762
1330.82	538.133
1334.39	135.316
1337.96	56.961
1341.52	491.477
1345.08	969.816
1348.64	1256.91
1352.2	1902.27
1355.76	1807.62
1359.31	1553.01
1362.87	1268.4
1366.42	335.195
1369.97	28.383
1373.52	56.559
1377.06	573.578
1380.61	1322.07
1384.15	1648.51
1387.69	2283.25
1391.23	2560.78
1394.77	2113.76
1398.3	1383.71
1401.84	698.781
1405.37	567.359
1408.9	402.539
1412.43	336.578
1415.96	693.57
1419.48	1515.37
1423.01	1631.61
1426.53	2677.27
1430.05	1916.08
1433.57	1565.47
1437.08	1287.51
1440.6	604.414
1444.11	205.457
1447.62	120.453
1451.13	165.586
1454.64	593.355
1458.15	1222.66
1461.65	1655.31
1465.16	2473.11
1468.66	2765.53
1472.16	2510.44
1475.65	1799.12
1479.15	1107.66
1482.64	803.414
1486.14	258.383
1489.63	182.305
1493.12	203.848
1496.61	376.91
1500.09	1295.32
1503.58	2089.78
1507.06	2464.7
