Measurement: Raman, 514 nm, ccw, Raman Data Processed
Mineral: Fluorophlogopite
Rruff sample: R040039
Ideal chemistry: KMg_3_(Si_3_Al)O_10_F_2_
Locality: Franklin, Sussex County, New Jersey, USA
Source: University of Arizona Mineral Museum
Description: Brown hexagonal sheets
Measured chemistry: (K_0.92_Na_0.06_[box]_0.02_)_Σ=1_(Mg_2.94_Fe_0.04_Ti_0.02_)_Σ=3_(Si_2.98_Al_1.02_)O_10_(F_1.24_(OH)_0.76_)_Σ=2_; OH estimated by charge balance
Pin_id: M00025
Orientation: Laser parallel to b* (0 1 0). Fiducial mark perpendicular to laser is parallel to c [0 0 1]
Raman shift (cm-1)	intensity
78.835	0
83.025	424.783
87.213	1750.77
91.398	4347.56
95.582	9246.53
99.764	18545.8
103.943	34993.5
108.121	32887.3
112.297	13648.3
116.47	5710.52
120.642	3205.04
124.811	1902.33
128.979	1133.19
133.144	775.013
137.307	469.951
141.469	303.707
145.628	30.184
149.786	65.368
153.941	104.654
158.094	126.752
162.245	34.922
166.395	495.77
170.542	851.425
174.687	1203.62
178.83	2054.52
182.972	3828.7
187.111	7563.74
191.248	16589.4
195.383	32355.7
199.516	35622
203.647	18348.8
207.777	7746.61
211.904	3904.54
216.029	2175.33
220.152	1072.93
224.273	485.367
228.392	369.014
232.509	240.126
236.625	129.415
240.738	58.505
244.849	139.117
248.958	158.989
253.065	223.987
257.171	66.565
261.274	128.179
265.375	447.469
269.475	1322.05
273.572	3421.42
277.667	7199.22
281.76	7555.41
285.852	4169.65
289.941	2354.69
294.029	1637.05
298.114	1409.98
302.198	1779.51
306.279	2899.66
310.359	4539.47
314.436	6207.22
318.512	6988.67
322.586	7132.42
326.657	5952.52
330.727	4270.95
334.795	2719.31
338.861	1867.99
342.924	1180.28
346.986	867.953
351.046	747.153
355.104	703.247
359.16	756.304
363.214	959.615
367.267	1807.86
371.317	2903.48
375.365	2556.67
379.411	1513.95
383.456	979.9
387.498	810.355
391.539	746.639
395.577	543.156
399.614	558.514
403.649	614.953
407.681	445.721
411.712	288.925
415.741	173.24
419.768	174.307
423.793	93.595
427.816	96.882
431.837	81.124
435.857	232.252
439.874	266.772
443.889	171.827
447.903	477.439
451.914	442.643
455.924	488.443
459.932	682.844
463.938	1089.85
467.941	1151.46
471.943	628.681
475.944	86.546
479.942	126.928
483.938	130.041
487.932	24.042
491.925	188.253
495.915	26.962
499.904	93.249
503.891	391.175
507.876	507.775
511.859	667.058
515.84	462.027
519.819	347.755
523.796	296.164
527.771	80.269
531.745	116.07
535.716	76.967
539.686	132.592
543.654	122.658
547.62	27.523
551.584	10.964
555.546	123.115
559.506	215.866
563.465	213.382
567.421	27.006
571.376	170.577
575.329	225.727
579.279	280.296
583.228	182.636
587.175	175.721
591.121	252.905
595.064	463.411
599.006	398.845
602.945	484.263
606.883	721.336
610.819	740.272
614.753	986.056
618.685	1443.86
622.615	1815.31
626.544	2536.54
630.471	3507.55
634.395	4326.38
638.318	4891.59
642.239	4580.91
646.158	4639.81
650.076	4719.42
653.991	4933.7
657.905	5241.59
661.817	5690.55
665.726	7029.88
669.635	9359.05
673.541	12674
677.445	17953.1
681.348	23052.9
685.248	24203.9
689.147	20855.7
693.044	15296.2
696.94	9796.05
700.833	5979.17
704.724	3999.42
708.614	2881.86
712.502	2124.98
716.388	1491.57
720.272	1149.97
724.155	1151.16
728.035	1112.83
731.914	1056.75
735.791	901.691
739.666	840.317
743.539	954.083
747.41	960.703
751.28	877.286
755.148	764.07
759.014	650.295
762.878	676.863
766.74	723.347
770.601	799.306
774.46	764.986
778.316	650.85
782.172	566.354
786.025	781.643
789.876	746.816
793.726	891.975
797.574	857.287
801.42	782.791
805.264	648.387
809.107	493.933
812.947	589.398
816.786	324.768
820.623	260.026
824.459	35.177
828.292	210.157
832.124	154.932
835.954	29.586
839.782	4.068
843.608	161.469
847.433	47.253
851.255	26.844
855.076	190.696
858.895	54.168
862.713	57.396
866.528	9.482
870.342	33.555
874.154	56.526
877.965	119.266
881.773	111.844
885.58	85.843
889.385	23.869
893.188	102.022
896.989	209.587
900.789	381.126
904.587	252.585
908.383	163.965
912.177	15.301
915.97	56.655
919.76	247.936
923.55	419.143
927.337	370.287
931.122	101.428
934.906	162.543
938.688	313.604
942.468	414.605
946.247	465.546
950.023	506.432
953.798	387.264
957.572	288.058
961.343	598.818
965.113	679.526
968.881	1000.17
972.647	940.771
976.411	970.814
980.174	1005.89
983.935	1145.87
987.694	1454.47
991.452	1681.94
995.207	1881.57
998.961	1927.91
1002.71	2077.06
1006.46	2406.06
1010.21	2528.62
1013.96	2771.32
1017.71	2710.3
1021.45	2781.65
1025.19	3348.77
1028.93	4845.87
1032.67	7771.74
1036.41	9269.14
1040.14	7505.08
1043.87	4861.99
1047.61	3563.63
1051.34	2714.08
1055.06	2164.73
1058.79	1825.16
1062.52	1604.38
1066.24	1855.21
1069.96	1635.61
1073.68	1415.93
1077.4	1456.77
1081.11	1404.67
1084.83	1695.56
1088.54	1816.28
1092.25	1866.44
1095.96	1916.85
1099.67	1767.81
1103.37	1678.75
1107.08	1441.9
1110.78	1393.96
1114.48	1005.1
1118.18	975.914
1121.88	956.209
1125.57	726.19
1129.27	216.724
1132.96	13.149
1136.65	62.927
1140.34	77.737
1144.02	273.427
1147.71	193.095
1151.39	172.549
1155.07	185.209
1158.76	252.658
1162.43	11.853
1166.11	91.192
1169.79	171.182
1173.46	290.97
1177.13	243.553
1180.8	276.436
1184.47	306.257
1188.14	54.79
1191.8	16.354
1195.46	82.098
1199.13	170.186
1202.79	438.319
1206.45	215.472
1210.1	73.083
1213.76	179.874
1217.41	217.918
1221.06	53.666
1224.71	100.34
1228.36	93.308
1232.01	59.972
1235.65	335.424
1239.3	350.415
1242.94	204.682
1246.58	89.116
1250.22	16.918
1253.85	2.229
1257.49	101.82
1261.12	347.238
1264.75	261.255
1268.38	340.775
1272.01	312.082
1275.64	154.606
1279.27	96.469
1282.89	65.479
1286.51	37.23
1290.13	164.612
1293.75	527.254
1297.37	375.561
1300.98	412.08
1304.6	170.467
1308.21	257.823
1311.82	65.91
1315.43	131.178
1319.03	2.32
1322.64	119.283
1326.24	134.069
1329.85	498.228
1333.44	328.242
1337.04	420.129
1340.64	382.48
1344.24	294.82
1347.83	266.357
1351.42	87.373
1355.01	168.779
1358.6	210.111
1362.19	570.232
1365.78	359.461
1369.36	72.457
1372.94	403.238
1376.53	311.307
1380.1	227.895
1383.68	341.449
1387.26	214.805
1390.83	279.551
1394.41	352.807
1397.98	346.311
1401.55	492.867
1405.12	415.305
1408.68	523.518
1412.25	307.641
1415.81	136.135
1419.37	160.428
1422.93	103.16
1426.49	49.697
1430.05	28.094
1433.6	246.23
1437.15	394.957
1440.71	652.047
1444.26	540.725
1447.81	554.514
1451.35	780.242
1454.9	565.566
1458.44	594.871
1461.98	410.105
1465.53	452.885
1469.07	376.51
1472.6	367.084
1476.14	576.336
1479.67	372.859
1483.21	671.178
1486.74	619.029
1490.27	678.334
1493.8	390.951
1497.32	376.814
1500.85	386.408
1504.37	209.785
1507.89	28.115
1511.41	1.195
