Measurement: Raman, 514 nm, ccw, Raman Data Processed
Mineral: Fluorapatite
Rruff sample: R060184
Ideal chemistry: Ca_5_(PO_4_)_3_F
Locality: Yates mine, Otter Lake, Quebec, Canada
Source: Lloyd Twaites
Description: Green colored fragment of a hexagonal prism
Measured chemistry: (Ca_0.99_Ce_0.01_)_5.00_((P_0.98_Si_0.01_S_0.01_)O_4_)_3_F_1.00_
Pin_id: M00532
Orientation: Laser parallel to -a* (-1 0 0). Fiducial mark perpendicular to laser is parallel to -c [0 0 -1]
Raman shift (cm-1)	intensity
170.559	0
175.467	0.47229
180.372	9.04883
185.274	30.3375
190.174	99.1313
195.072	368.012
199.967	760.646
204.859	1178.69
209.749	1553.36
214.637	1097.01
219.521	708.08
224.404	475.887
229.284	473.349
234.161	349.024
239.036	205.682
243.908	266.563
248.777	100.282
253.645	138.346
258.509	216.621
263.371	198.117
268.231	181.648
273.088	354.59
277.942	385.227
282.794	439.578
287.643	530.237
292.49	618.867
297.335	814.668
302.176	897.846
307.015	809.481
311.852	628.365
316.686	493.497
321.518	383.593
326.347	268.44
331.173	234.415
335.997	165.401
340.819	141.014
345.638	78.9813
350.454	21.9377
355.268	16.4403
360.079	44.4121
364.888	35.6924
369.694	10.0114
374.498	28.631
379.299	1.48621
384.097	5.77881
388.893	69.5613
393.686	34.6392
398.477	84.3442
403.266	94.5483
408.051	96.4978
412.835	177.489
417.615	235.982
422.394	369.786
427.169	564.093
431.942	730.007
436.713	812.563
441.481	1062.82
446.246	1518.79
451.009	1661.47
455.769	1415.89
460.527	923.034
465.282	578.849
470.035	323.307
474.785	176.407
479.532	181.106
484.277	121.198
489.02	126.681
493.76	37.2441
498.497	13.4627
503.232	0.083984
507.964	8.08057
512.693	19.6592
517.421	48.123
522.145	63.8044
526.867	12.1218
531.587	79.7676
536.303	82.1057
541.018	29.2488
545.729	25.675
550.439	118.77
555.145	144.407
559.849	238.697
564.551	354.533
569.25	555.764
573.946	766.526
578.64	1319.98
583.331	2641.76
588.02	4975.43
592.706	4980.8
597.39	2330.39
602.071	2384.2
606.749	3116.08
611.425	1520.36
616.099	692.576
620.769	458.37
625.438	454.401
630.103	359.905
634.766	386.82
639.427	474.491
644.085	469.333
648.74	596.421
653.393	489.384
658.044	460.429
662.691	385.543
667.336	294.865
671.979	234.984
676.619	270.155
681.257	243.305
685.892	232.491
690.524	177.58
695.154	125.04
699.781	221.946
704.406	167.559
709.028	153.755
713.647	133.468
718.264	94.7158
722.878	152.486
727.49	119.779
732.1	96.5913
736.706	87.9062
741.31	133.725
745.912	101.159
750.511	103.85
755.107	92.5977
759.701	189.01
764.292	117.754
768.881	139.614
773.467	183.683
778.051	55.48
782.632	86.7627
787.21	80.1094
791.786	1.69824
796.359	26.8613
800.93	16.8047
805.498	59.041
810.064	83.4409
814.627	69.1802
819.187	32.9141
823.745	20.7935
828.301	42.665
832.853	52.9785
837.403	13.2334
841.951	76.9209
846.496	149.927
851.038	184.657
855.578	179.891
860.116	400.491
864.65	322.099
869.183	254.345
873.712	170.732
878.239	68.4429
882.764	60.9697
887.285	4.56104
891.805	1.38184
896.322	26.2007
900.836	69.2246
905.347	9.7959
909.856	20.5137
914.363	39.8779
918.867	162.812
923.368	65.4102
927.867	143.702
932.363	308.143
936.856	440.158
941.347	1172.02
945.836	2085.84
950.322	4364.41
954.805	11381.3
959.286	30078
963.764	54818.9
968.239	30308.3
972.712	9190.12
977.183	2978.18
981.65	1086.14
986.116	472.538
990.578	174.587
995.038	155.941
999.496	300.318
1003.95	620.871
1008.4	909.806
1012.85	843.775
1017.3	555.25
1021.75	760.14
1026.19	873.746
1030.63	1240.12
1035.06	1340.55
1039.5	1977.98
1043.93	3109.63
1048.36	5485.66
1052.79	8105.09
1057.21	5423.51
1061.63	2988.84
1066.05	2394.66
1070.47	2705.96
1074.88	3142.82
1079.29	3231.28
1083.7	2348.33
1088.11	1545.97
1092.51	858.202
1096.91	548.992
1101.31	255.443
1105.7	18.5439
1110.1	34.1992
1114.49	75.6084
1118.88	15.875
1123.26	144.086
1127.64	159.465
1132.02	91.6426
1136.4	42.3398
1140.78	97.0752
1145.15	54.2978
1149.52	199.886
1153.89	138.579
1158.25	168.796
1162.61	201.801
1166.97	224.659
1171.33	149.982
1175.68	149.906
1180.04	180.332
1184.39	137.257
1188.73	31.7451
1193.08	193.735
1197.42	52.2041
1201.76	220.147
1206.1	108.561
1210.43	138.436
1214.76	183.772
1219.09	114.575
1223.41	127.831
1227.74	216.565
1232.06	105.8
1236.38	151.555
1240.69	153.857
1245.01	21.8838
1249.32	96.2227
1253.63	16.2842
1257.93	77.4102
1262.23	156.625
1266.54	128.221
1270.83	112.005
1275.13	81.3223
1279.42	25.0371
1283.71	96.3252
1288	90.8828
1292.28	118.592
1296.57	56.6348
1300.85	93.2676
1305.12	50.4414
1309.4	191.584
1313.67	297.617
1317.94	105.428
1322.21	297.644
1326.47	197.123
1330.73	88.8623
1334.99	345.853
1339.25	253.103
1343.5	152.788
1347.75	230.836
1352	243.735
1356.25	148.304
1360.49	135.477
1364.73	325.603
1368.97	197.634
1373.21	364.791
1377.44	223.944
1381.67	279.507
1385.9	270.065
1390.13	401.826
1394.35	302.09
1398.57	398.733
1402.79	271.106
1407	251.711
1411.22	216.397
1415.43	239.572
1419.63	229.914
1423.84	139.91
1428.04	340.497
1432.24	150.764
1436.44	129.46
1440.63	160.414
1444.83	186.121
1449.02	165.129
1453.2	312.353
1457.39	109.76
1461.57	40.2656
1465.75	182.59
1469.93	4.53711
1474.1	134.554
1478.27	98.6875
1482.44	216.809
1486.61	105.954
1490.77	228.082
1494.93	53.3799
1499.09	213.289
1503.25	239.582
1507.4	249.218
1511.55	238.209
1515.7	188.385
1519.85	232.948
1523.99	263.919
1528.13	171.369
1532.27	167.641
1536.4	186.716
1540.54	88.8779
1544.67	173.48
1548.8	56.2891
1552.92	135.733
1557.05	265.238
1561.16	106.728
1565.28	0
