Measurement: Raman, 514 nm, ccw, Raman Data Processed
Mineral: Fluoro-richterite
Rruff sample: R040019
Ideal chemistry: Na(NaCa)Mg_5_Si_8_O_22_F_2_
Locality: Wilberforce, Ontario, Canada
Source: University of Arizona Mineral Museum
Description: Brown prismatic crystals
Measured chemistry: (Na_0.59_K_0.27_[box]_0.14_)_Σ=1_(Ca_1.30_Na_0.70_)_Σ=2_(Mg_4.67_Fe_0.17_Fe^3+^_0.10_Ti_0.03_Mn_0.02_Al_0.01_)_Σ=5_(Si_7.67_Al_0.33_)_Σ=8_(F_1.12_(OH)_0.88_)_Σ=2_; OH estimated by charge balance
Pin_id: L00352
Orientation: Laser parallel to a [1 0 0]. Fiducial mark perpendicular to laser is parallel to -b* (0 -1 0)
Raman shift (cm-1)	intensity
78.031	0
82.218	262.021
86.404	403.7
90.587	696.866
94.768	919.769
98.947	1103.1
103.124	1890.28
107.3	3758.25
111.473	4312.8
115.644	4651.48
119.813	3064.13
123.981	1577.6
128.146	672.51
132.309	554.589
136.47	197.294
140.63	215.48
144.787	148.695
148.942	6.863
153.096	1023.18
157.247	3135.27
161.396	4727.07
165.544	3408.81
169.689	2221.7
173.833	2329.01
177.974	2938.82
182.114	3518.96
186.251	3003.29
190.387	2179.47
194.52	2064.67
198.652	2464.5
202.782	3381.36
206.909	4421.12
211.035	5089.73
215.159	5317.03
219.281	7014.92
223.4	10821.4
227.518	16220.4
231.634	19946.8
235.748	17733.8
239.86	12688.1
243.97	8821.37
248.079	6491.76
252.185	4941.26
256.289	3008.84
260.391	2035.88
264.492	1317.97
268.59	566.929
272.687	127.637
276.781	95.295
280.874	196.196
284.964	136.402
289.053	24.435
293.14	112.826
297.225	525.302
301.308	978.833
305.389	1595.98
309.468	2320.63
313.545	2652.58
317.62	2416.04
321.693	1843.82
325.765	1279.59
329.834	1101.86
333.902	972.807
337.967	937.524
342.031	1125.71
346.093	1189.3
350.153	1314.41
354.21	1652.67
358.267	2268.06
362.321	3359.6
366.373	4207.25
370.423	4629
374.471	4894.84
378.518	5491.75
382.563	5820.73
386.605	5975.76
390.646	5772.83
394.685	5650.94
398.722	5442.06
402.757	4775.19
406.79	3842.34
410.821	3074.62
414.851	2358.99
418.878	2168.4
422.904	2463.21
426.927	2851.27
430.949	2835.68
434.969	2605.04
438.987	1714.53
443.003	839.252
447.018	269.506
451.03	47.947
455.041	47.237
459.049	32.263
463.056	114.074
467.061	315.422
471.064	336.156
475.065	239.95
479.064	80.946
483.062	149.431
487.057	250.734
491.051	169.697
495.043	226.295
499.032	336.431
503.02	526.394
507.007	977.925
510.991	1543.12
514.973	2492.99
518.954	3414.52
522.933	3691.74
526.91	3233.62
530.885	2344.32
534.858	1838.8
538.829	1553.13
542.799	1399.33
546.766	1327.3
550.732	1268.64
554.696	1293.14
558.658	1398.94
562.618	1242.3
566.576	1262.21
570.533	1292.66
574.488	1268.64
578.44	1271.15
582.391	1353.18
586.341	1423.71
590.288	1033.76
594.233	494.3
598.177	81.427
602.119	115.234
606.059	134.369
609.997	128.369
613.933	162.434
617.868	11.252
621.801	9.5
625.731	163.971
629.66	345.34
633.588	468.029
637.513	793.276
641.437	985.933
645.358	1334.26
649.278	1786.24
653.196	2585.03
657.113	3459.24
661.027	5041.79
664.94	7717.7
668.851	12414
672.76	21786.7
676.667	36946.4
680.572	47645.3
684.476	41215.1
688.378	25317.3
692.278	14506.1
696.176	8642.16
700.072	6065.6
703.967	4588.91
707.86	3894.8
711.751	3481.28
715.64	3555.27
719.527	3670.24
723.413	3912.5
727.297	4135.27
731.179	4477.57
735.059	4326.4
738.937	4250.77
742.814	3627.69
746.689	3052.16
750.562	2546.85
754.433	2208.37
758.303	1923.52
762.17	1579
766.036	1255.19
769.901	1155.46
773.763	862.964
777.624	718.119
781.482	609.229
785.339	585.192
789.195	576.42
793.048	496.205
796.9	519.997
800.75	514.677
804.598	459.153
808.445	365.475
812.289	253.641
816.132	210.641
819.973	220.466
823.813	67.116
827.65	57.581
831.486	30.171
835.32	69.176
839.152	55.505
842.983	137.202
846.812	134.512
850.639	136.447
854.464	75.311
858.288	17.904
862.11	28.3
865.93	85.861
869.748	144.653
873.564	191.436
877.379	252.261
881.192	385.243
885.004	500.404
888.813	722.77
892.621	973.35
896.427	1214.06
900.232	1462.94
904.034	1715.99
907.835	1889.25
911.634	1975.02
915.432	2309.64
919.227	2716.15
923.021	3151.5
926.813	3796.52
930.604	4151
934.393	4033.74
938.18	3914.62
941.965	3641.59
945.749	3533.63
949.53	3332.72
953.311	3125.87
957.089	2880.28
960.866	2394.29
964.641	2173.55
968.414	2012.35
972.185	1974.54
975.955	2107.12
979.723	2146.52
983.49	2056.98
987.254	1976.3
991.017	1945.98
994.779	2075.26
998.538	2167.42
1002.3	2298.54
1006.05	2546.59
1009.81	3039.15
1013.56	3323.3
1017.31	3556.49
1021.06	3612.04
1024.81	3788.45
1028.55	4072.66
1032.3	4685.86
1036.04	5412.38
1039.78	5937.7
1043.52	6338.86
1047.26	6287.24
1050.99	6353.7
1054.73	6734.79
1058.46	7148.26
1062.19	7591.64
1065.92	8078.67
1069.65	8230.06
1073.37	7783.66
1077.1	7136.58
1080.82	6196.57
1084.54	5669.7
1088.26	4980.7
1091.97	3984.69
1095.69	3229.24
1099.4	2635.23
1103.12	2159.04
1106.83	1799.96
1110.54	1587.62
1114.24	1383.55
1117.95	1247.12
1121.65	1249.19
1125.35	1263.58
1129.06	816.103
1132.75	705.326
1136.45	721.361
1140.15	616.073
1143.84	522.464
1147.53	435.004
1151.22	375.978
1154.91	267.649
1158.6	203.935
1162.28	138.795
1165.97	57.113
1169.65	36.482
1173.33	43.923
1177.01	86.486
1180.69	72.654
1184.36	43.924
1188.04	103.308
1191.71	10.941
1195.38	40.278
1199.05	119.57
1202.71	60.872
1206.38	15.518
1210.04	92.832
1213.71	79.604
1217.37	7.977
1221.03	42.485
1224.68	5.911
1228.34	123.891
1231.99	137.917
1235.65	57.746
1239.3	126.491
1242.95	113.64
1246.59	151.782
1250.24	254.772
1253.88	162.304
1257.53	100.536
1261.17	166.54
1264.81	271.166
1268.45	275.697
1272.08	261.109
1275.72	172.321
1279.35	199.144
1282.98	247.217
1286.61	225.875
1290.24	193.826
1293.87	218.352
1297.49	172.404
1301.11	168.303
1304.73	125.948
1308.36	179.804
1311.97	132.54
1315.59	142.03
1319.2	160.938
1322.82	47.384
1326.43	191.017
1330.04	201.039
1333.65	119.636
1337.26	34.396
1340.86	102.071
1344.47	83.841
1348.07	177.126
1351.67	68.975
1355.27	198.58
1358.87	100.369
1362.46	43.305
1366.06	6.946
1369.65	67.857
1373.24	12.469
1376.83	19.347
1380.42	1.207
1384	25.804
1387.59	176.108
1391.17	140.404
1394.75	233.458
1398.33	43.382
1401.91	1.716
1405.49	54.795
1409.06	73.841
1412.64	179.853
1416.21	214.729
1419.78	277.548
1423.35	244.468
1426.91	256.775
1430.48	289.964
1434.05	251.915
1437.61	279.426
1441.17	267.581
1444.73	292.626
1448.29	312.778
1451.84	445.31
1455.4	406.11
1458.95	390.593
1462.5	215.571
1466.05	120.903
1469.6	139.771
1473.15	193.396
1476.69	206.648
1480.24	223.057
1483.78	247.059
1487.32	105.527
1490.86	84.039
1494.39	205.562
1497.93	138.047
1501.46	42.484
1505	138.76
1508.53	149.068
1512.06	202.078
1515.59	112.031
