Measurement: Raman, 514 nm, ccw, Raman Data Processed
Mineral: Fluorite
Rruff sample: R060548
Ideal chemistry: CaF_2_
Locality: unknown
Source: Gemological Institute of America
Description: Pale blue fragment
Measured chemistry: Ca_1.00_F_2.00_
Pin_id: L01039
Orientation: Laser parallel to -a* (-1 0 0). Fiducial mark perpendicular to laser is parallel to b [0 1 0]
Raman shift (cm-1)	intensity
185.146	0
190.053	139.539
194.958	292.533
199.859	393.236
204.758	305.231
209.654	16.3164
214.547	232.564
219.438	499.397
224.326	1211.97
229.211	1052.38
234.093	944.367
238.972	1302.23
243.849	1585.95
248.723	918.213
253.594	932.893
258.462	1213.23
263.328	2087.79
268.191	779.886
273.051	247.344
277.908	235.207
282.763	44.3477
287.615	6.27637
292.464	57.9277
297.31	127.126
302.154	275.346
306.995	474.591
311.833	959.318
316.668	2652.26
321.501	5281.4
326.331	3509.04
331.158	1761.94
335.983	1130.19
340.804	1137.69
345.623	1140.76
350.44	1288.22
355.253	1300.77
360.064	1263.69
364.872	1167.3
369.677	1049.68
374.48	788.523
379.28	680.941
384.077	781.557
388.872	832.297
393.663	794.859
398.452	660.893
403.239	306.598
408.022	177.548
412.803	138.555
417.581	154.941
422.357	82.2549
427.129	55.5859
431.899	33.707
436.667	91.4961
441.431	200.01
446.193	242.036
450.952	283.304
455.709	306.176
460.463	389.079
465.214	467.93
469.962	529.622
474.708	528.391
479.451	457.452
484.191	591.019
488.929	709.023
493.663	565.678
498.396	572.004
503.125	380.771
507.852	264.409
512.576	280.279
517.298	243.974
522.016	203.973
526.732	170.236
531.446	11.7051
536.156	153.69
540.865	98.3779
545.57	41.2842
550.273	68.7334
554.973	10.9307
559.67	25.0078
564.364	172.158
569.056	227.331
573.746	184.971
578.432	313.684
583.116	269.489
587.798	290.522
592.476	230.54
597.152	293.209
601.825	311.575
606.496	262.091
611.164	290.778
615.829	379.836
620.492	909.75
625.152	1932.9
629.809	1322.5
634.464	638.664
639.116	395.369
643.765	838.054
648.412	1287.88
653.056	1131.43
657.697	535.663
662.336	451.204
666.972	843.958
671.605	663.207
676.236	375.366
680.864	561.959
685.49	1161.72
690.113	1832.06
694.733	1793.87
699.351	1591.23
703.965	1747.55
708.578	1859.29
713.187	1706.98
717.794	1229.39
722.399	710.166
727.001	614.773
731.6	369.451
736.196	253.212
740.79	12.4365
745.381	36.666
749.97	22.7139
754.556	9.80176
759.139	358.65
763.72	14.9688
768.298	64.5303
772.874	59.0576
777.447	275.247
782.017	422.025
786.585	853.671
791.15	774.1
795.712	1204.41
800.272	1419.25
804.829	1874.64
809.384	2123.64
813.936	2262.29
818.485	2274.87
823.032	2388.45
827.576	2655.78
832.118	4663.85
836.657	7066.7
841.193	6629.28
845.727	6351.24
850.258	6200.97
854.787	4877.87
859.313	3223.31
863.836	2290.29
868.357	1272.62
872.875	794.95
877.391	787.662
881.904	612.173
886.414	217.172
890.922	151.01
895.427	762.412
899.93	929.643
904.43	1698.59
908.927	8804.53
913.422	17708.1
917.914	8545.89
922.404	15304.5
926.891	20006.8
931.376	13647
935.858	11839
940.337	10340
944.814	14874.9
949.289	32347.8
953.76	6871.72
958.229	1890.65
962.696	1413.64
967.16	1212.73
971.621	439.932
976.08	55.7031
980.537	371.441
984.99	424.127
989.442	209.797
993.89	224.076
998.336	668.207
1002.78	2379.8
1007.22	1111.89
1011.66	1092.56
1016.1	1597.07
1020.53	2436.76
1024.96	3003.88
1029.39	3456.98
1033.81	3190.16
1038.24	2937.67
1042.66	3004.69
1047.07	3193.15
1051.49	3177.92
1055.9	2738.03
1060.31	2564.53
1064.72	2106.63
1069.13	1859.1
1073.53	1912.11
1077.93	1953.45
1082.33	1690.69
1086.72	1566.2
1091.12	816.467
1095.51	472.41
1099.89	404.06
1104.28	52.4512
1108.66	355.529
1113.04	322.432
1117.42	303.877
1121.79	1041.97
1126.16	1423.08
1130.53	1602.17
1134.9	2137.2
1139.27	2821.14
1143.63	3580.95
1147.99	3967.29
1152.35	4148.86
1156.7	3726.06
1161.05	3760.96
1165.4	3553.84
1169.75	3271.96
1174.09	2856.63
1178.44	1923.56
1182.78	1251.02
1187.11	736.629
1191.45	372.203
1195.78	186.713
1200.11	183.127
1204.44	9.58984
1208.76	49.5391
1213.08	194.268
1217.4	380.877
1221.72	351.277
1226.03	835.436
1230.35	1128.32
1234.66	1562.89
1238.96	2134.97
1243.27	2665.54
1247.57	3307.71
1251.87	3868.46
1256.17	4462.6
1260.46	4548.18
1264.75	4892.52
1269.04	4881.51
1273.33	5175.03
1277.62	5009.26
1281.9	4965.8
1286.18	5674.89
1290.45	6582.05
1294.73	7630.52
1299	7109.38
1303.27	6505.22
1307.54	5980.99
1311.8	5901.61
1316.07	5977.75
1320.33	5784.49
1324.58	5374.28
1328.84	4366.3
1333.09	3814.23
1337.34	3362.2
1341.59	2890.57
1345.83	2994.45
1350.08	3398.1
1354.32	5404.47
1358.55	11230.5
1362.79	12770.5
1367.02	5855.91
1371.25	2963.8
1375.48	3188.02
1379.71	4142.91
1383.93	4366.23
1388.15	4886.6
1392.37	6203.55
1396.58	8315.5
1400.8	2930.74
1405.01	528.615
1409.21	279.309
1413.42	755.394
1417.62	432.709
1421.83	65.1484
1426.02	1630.35
1430.22	1194.05
1434.41	975.459
1438.61	1909.1
1442.79	4129.13
1446.98	5503.68
1451.16	4913
1455.35	4598.92
1459.52	4988
1463.7	5648.86
1467.87	4849.6
1472.05	4001.67
1476.21	4074.65
1480.38	4212.93
1484.55	4328.44
1488.71	3622.51
1492.87	2598.83
1497.03	2209.36
1501.18	2229.15
1505.33	2661.31
1509.48	2773.2
1513.63	2733.61
1517.77	2343.07
1521.92	1325.73
1526.06	855.771
1530.19	518.18
1534.33	279.559
1538.46	118.398
1542.59	205.721
1546.72	101.022
1550.85	128.57
1554.97	161.922
1559.09	214.369
1563.21	0.830078
