Measurement: Raman, 514 nm, ccw, Raman Data Processed
Mineral: Fluor-buergerite
Rruff sample: R060132
Ideal chemistry: NaFe^3+^_3_Al_6_(Si_6_O_18_)(BO_3_)_3_O_3_F
Locality: 20 km. south of San Luis Potasi, Mexico
Source: University of Arizona Mineral Museum
Description: Brown short prismatic
Measured chemistry: (Na_0.87_Ca_0.03_[box]_0.10_)(Fe^3+^_0.82_Al_0.12_Mg_0.04_Ti_0.02_)_3_Al_6_(BO_3_)_3_(Si_0.98_Al_0.02_)_6_O_18_(O_0.66_F_0.19_(OH)_0.15_)_4_
Pin_id: L01714
Orientation: Laser parallel to a* (1 0 0). Fiducial mark perpendicular to laser is parallel to -c [0 0 -1]
Raman shift (cm-1)	intensity
120.596	0
125.519	160.938
130.439	569.711
135.356	559.68
140.271	1740.56
145.184	3514.7
150.094	5666.36
155.002	5050.05
159.908	1354.59
164.811	424.049
169.711	147.648
174.61	146.865
179.505	112.514
184.399	793.115
189.29	852.65
194.178	1468.01
199.064	2317.14
203.948	3797.78
208.829	3344.96
213.708	5151.09
218.585	8416.71
223.459	14695.8
228.33	22502.2
233.199	23424.8
238.066	18093
242.93	12853.6
247.792	9842.64
252.651	8552.93
257.508	7884.57
262.363	6494.57
267.215	4885.16
272.064	4230.89
276.912	3340.64
281.756	2224.28
286.598	1819.22
291.438	3556.48
296.276	4152.05
301.111	3300.93
305.943	728.096
310.773	290.723
315.601	112.032
320.426	1190.66
325.248	3146.35
330.068	3648.5
334.886	3408.19
339.701	4341.06
344.514	6001.05
349.324	7750.09
354.132	10341.7
358.938	13268.8
363.741	17485.1
368.541	21792.1
373.339	22398
378.135	17604.6
382.928	13151.8
387.718	11153.5
392.506	10736.5
397.292	10906.8
402.075	9950.45
406.856	8030.46
411.634	5239.86
416.41	2930.31
421.183	1523.03
425.954	928.882
430.722	706.827
435.488	757.827
440.251	1246.86
445.012	1753.89
449.77	2440.91
454.526	2374.76
459.28	2089.36
464.03	1678.17
468.779	1496.01
473.525	1168.7
478.268	615.201
483.009	69.4609
487.747	463.315
492.483	607.192
497.217	651.909
501.948	80.0977
506.676	481.778
511.402	1669.13
516.125	2843.1
520.846	3528.97
525.565	3578.75
530.281	3013.29
534.994	2903.5
539.705	2851.73
544.413	3065.35
549.119	3261.4
553.822	3318.02
558.523	3318.3
563.222	3749.06
567.917	4545.3
572.611	5590.86
577.302	6636.48
581.99	8270.8
586.676	9339.46
591.359	10833.4
596.04	12817.5
600.718	14820
605.394	16997.3
610.067	18490.9
614.737	19630.1
619.406	22074.4
624.071	26502.8
628.734	34375.8
633.395	43872.9
638.053	43061.8
642.708	36731.7
647.361	31001.2
652.012	26989
656.66	23327.5
661.305	18369.2
665.948	13204.3
670.588	9335.25
675.226	6075.05
679.861	3625.98
684.494	2229.47
689.124	2578.67
693.752	3639.21
698.377	5470.47
702.999	6964.93
707.619	7197.24
712.237	5603.24
716.852	3610.77
721.464	2410.03
726.074	2287.33
730.681	2286.36
735.286	2597.74
739.888	2089.85
744.488	1805.84
749.085	1999.33
753.68	2397.54
758.272	2133.64
762.861	1441.31
767.448	982.042
772.033	666.486
776.614	785.644
781.194	588.102
785.77	261.389
790.345	34.0176
794.916	80.2656
799.485	3.71387
804.052	7.24023
808.616	162.287
813.177	87.1113
817.736	132.016
822.292	139.016
826.846	149.367
831.397	154.411
835.945	120.194
840.491	134.025
845.035	134.555
849.576	12.7021
854.114	90.9424
858.65	161.068
863.183	233.033
867.713	168.902
872.241	359.782
876.767	405.773
881.29	526.939
885.81	577.428
890.328	636.452
894.843	955.091
899.356	979.4
903.866	1159.49
908.373	1230.48
912.878	1356.18
917.38	1492.76
921.88	1751.94
926.377	1977.98
930.872	2261.52
935.364	2612.5
939.853	2842.1
944.34	3358.15
948.824	3535.96
953.306	3964.28
957.785	4267.09
962.261	4117.55
966.735	4257.53
971.207	4307.14
975.675	4420.15
980.141	4704.94
984.605	4790.06
989.066	5105.57
993.524	5363.68
997.98	6026.83
1002.43	6471.02
1006.88	6681.24
1011.33	6322.51
1015.78	5687.09
1020.22	5266.73
1024.66	4511.05
1029.1	3998.73
1033.53	3580.48
1037.97	3376.34
1042.4	3261.22
1046.82	3944.49
1051.25	4550.14
1055.67	5163.42
1060.09	5115.94
1064.51	4441.18
1068.92	3709.38
1073.33	3072.81
1077.74	2681.63
1082.15	2246.42
1086.55	2069.55
1090.95	2156.43
1095.35	1775.19
1099.75	2074.98
1104.14	2138.83
1108.53	2067.81
1112.92	1936.88
1117.31	1787.92
1121.69	1442.76
1126.07	1201.03
1130.45	725.634
1134.82	465.575
1139.19	261.789
1143.57	274.281
1147.93	74.0127
1152.3	22.8018
1156.66	115.442
1161.02	8.15137
1165.38	97.2441
1169.73	9.00586
1174.08	86.0186
1178.43	6.14648
1182.78	28.4404
1187.12	90.2402
1191.46	123.481
1195.8	94.0938
1200.14	38.1143
1204.47	39.626
1208.8	215.918
1213.13	197.481
1217.46	386.287
1221.78	581.383
1226.1	915.686
1230.42	1219.25
1234.73	1736
1239.04	2128.59
1243.35	2535.49
1247.66	2908.5
1251.97	3147.61
1256.27	3583.8
1260.57	3775.06
1264.86	3915.41
1269.16	3906.08
1273.45	3938.32
1277.74	4322.66
1282.03	5359.51
1286.31	6216.85
1290.59	6100.34
1294.87	5241
1299.14	4884.27
1303.42	4469.62
1307.69	4698.82
1311.95	4552.17
1316.22	4149.1
1320.48	3649.87
1324.74	3261.38
1329	3170.15
1333.26	2855.41
1337.51	2849.43
1341.76	2691.38
1346	2623.43
1350.25	2539.44
1354.49	2491.74
1358.73	2334.61
1362.96	1900.6
1367.2	1917.46
1371.43	1678.46
1375.66	1240.48
1379.88	1166.59
1384.11	985.817
1388.33	1009.86
1392.54	809.988
1396.76	955.241
1400.97	674.273
1405.18	752.319
1409.39	458.635
1413.59	484.918
1417.8	287.465
1421.99	218.102
1426.19	103.653
1430.38	51.1426
1434.58	66.0107
1438.77	124.124
1442.95	58.7324
1447.13	49.21
1451.32	31.1787
1455.49	6.55078
1459.67	34.0176
1463.84	18.5957
1468.01	97.0078
1472.18	23.8027
1476.35	79.8106
1480.51	101.04
1484.67	113.465
1488.83	222.25
1492.98	90.4805
1497.13	189.189
1501.28	283.348
1505.43	259.903
1509.57	345.146
1513.71	1579.35
1517.85	905.807
1521.99	256.194
1526.12	130.883
1530.25	304.076
1534.38	100.984
1538.5	174.83
1542.62	9.77734
1546.74	38.8379
1550.86	369.198
1554.98	763.895
1559.09	125.774
1563.2	109.697
1567.31	66.1543
