Measurement: Raman, 514 nm, ccw, Raman Data Processed
Mineral: Fluorapatite
Rruff sample: R050617
Ideal chemistry: Ca_5_(PO_4_)_3_F
Locality: Santa Cruz, Sonora, Mexico
Source: University of Arizona Mineral Museum
Description: Tan colored hexagonal prism
Measured chemistry: Ca_5.00_(P_1.00_O_4_)_3_(F_0.99_Cl_0.01_)
Pin_id: L00921
Orientation: Laser parallel to -a* (-1 0 0). Fiducial mark perpendicular to laser is parallel to c [0 0 1]
Raman shift (cm-1)	intensity
97.182	0
102.116	10.9487
107.047	661.297
111.976	656.687
116.903	652.108
121.827	612.259
126.749	945.839
131.668	2418.93
136.585	6459.76
141.5	7316.17
146.412	3077.6
151.321	1418.35
156.229	683.193
161.134	430.799
166.036	271.879
170.936	255.155
175.834	106.538
180.729	131.862
185.622	153.787
190.512	184.917
195.4	248.291
200.286	332.898
205.169	457.706
210.049	545.658
214.928	421.579
219.803	312.089
224.677	193.332
229.548	289.972
234.416	107.509
239.282	118.423
244.146	97.1733
249.007	0.683105
253.866	24.0508
258.722	0.526855
263.576	105.495
268.427	101.792
273.276	312.368
278.123	243.438
282.967	368.834
287.809	249.436
292.648	215.139
297.485	161.873
302.319	329.591
307.151	298.219
311.98	110.664
316.807	132.895
321.631	26.9136
326.454	93.2598
331.273	32.4038
336.09	87.3462
340.905	13.5073
345.717	32.4751
350.527	46.4805
355.334	100.859
360.139	1.66553
364.941	71.4009
369.741	129.435
374.538	57.6025
379.333	190.793
384.126	199.003
388.916	338.608
393.703	516.234
398.488	282.966
403.271	317.464
408.051	194.227
412.828	281.216
417.603	321.469
422.376	685.413
427.146	1064.61
431.914	970.58
436.679	752.264
441.442	666.476
446.202	618.222
450.96	640.49
455.715	489.285
460.467	446.604
465.218	327.415
469.965	243.963
474.711	23.7373
479.454	154.724
484.194	2.69141
488.932	72.9522
493.667	12.0254
498.4	66.7861
503.13	250.09
507.858	404.67
512.583	409.813
517.306	335.775
522.026	172.054
526.744	42.5029
531.459	17.0791
536.172	84.7754
540.882	78.8916
545.59	76.8662
550.295	186.605
554.998	6.80273
559.698	114.48
564.396	44.7539
569.091	63.5264
573.784	304.016
578.474	550.547
583.162	1276.53
587.847	2153.29
592.529	1774.59
597.209	800.673
601.887	788.95
606.562	980.503
611.235	518.446
615.905	357.279
620.572	474.375
625.237	546.438
629.9	777.62
634.56	903.484
639.217	797.994
643.872	623.182
648.524	489.126
653.174	413.817
657.821	254.294
662.466	266.852
667.108	178.314
671.748	226.943
676.385	159.682
681.02	100.817
685.652	39.5195
690.281	86.8389
694.908	195.464
699.533	147.247
704.155	158.946
708.774	235.932
713.391	182.904
718.005	169.663
722.617	179.157
727.226	93.0635
731.833	100.143
736.437	47.1602
741.039	191.756
745.638	117.505
750.234	86.8848
754.828	46.21
759.419	65.7002
764.008	189.015
768.595	206.972
773.178	65.0186
777.759	207.298
782.338	246.835
786.914	97.5156
791.488	70.9873
796.059	123.941
800.627	171.736
805.193	246.995
809.756	293.496
814.317	221.201
818.875	261.258
823.431	166.433
827.984	169.33
832.534	24.3457
837.082	23.2393
841.627	186.773
846.17	76.0508
850.71	300.586
855.248	73.1475
859.783	176.504
864.316	292.465
868.846	135.185
873.373	1.89844
877.898	242.037
882.42	96.916
886.94	84.7519
891.457	78.1562
895.971	69.8242
900.483	192.508
904.993	44.8848
909.5	218.484
914.004	28.6641
918.505	130.885
923.004	83.5742
927.501	84.6289
931.995	48.6719
936.486	215.066
940.975	285.42
945.461	427.572
949.945	1149.63
954.426	2749.65
958.904	12205
963.38	21298
967.853	10665.3
972.324	2659.77
976.792	617.758
981.258	378.668
985.72	499.84
990.181	63.7461
994.639	137.873
999.094	148.385
1003.55	141.072
1008	253.553
1012.44	181.057
1016.89	46.2266
1021.33	122.228
1025.77	341.193
1030.21	358.203
1034.64	402.971
1039.07	1228.69
1043.5	1867.3
1047.93	3389.22
1052.35	3556.18
1056.78	1151.66
1061.19	660.324
1065.61	465.654
1070.02	398.873
1074.43	1291.14
1078.84	1792.3
1083.25	1783.21
1087.65	1061.86
1092.05	345.33
1096.45	76.8223
1100.85	287.678
1105.24	154.15
1109.63	85.5215
1114.02	163.012
1118.4	166.685
1122.78	276.836
1127.16	127.443
1131.54	383.375
1135.92	257.014
1140.29	101.738
1144.66	333.668
1149.02	69.8906
1153.39	269.147
1157.75	443.928
1162.11	175.225
1166.46	179.772
1170.82	188.06
1175.17	383.397
1179.52	140.859
1183.86	26.5879
1188.21	75.0859
1192.55	327.846
1196.89	206.44
1201.22	350.717
1205.55	376.664
1209.88	274.891
1214.21	198.266
1218.54	175.519
1222.86	294.9
1227.18	94.2109
1231.5	261.531
1235.81	441.195
1240.12	283.422
1244.43	176.996
1248.74	224.137
1253.04	303.707
1257.34	122.559
1261.64	42.2812
1265.94	571.227
1270.23	67.2344
1274.52	63.3984
1278.81	35.0781
1283.1	211.773
1287.38	294.734
1291.66	271.805
1295.94	342.305
1300.21	282.609
1304.48	466.699
1308.75	305.125
1313.02	408.359
1317.29	435.137
1321.55	343.062
1325.81	293.547
1330.06	362.297
1334.32	341.621
1338.57	226.422
1342.82	396.785
1347.06	213.113
1351.31	531.547
1355.55	16.7227
1359.79	245.856
1364.02	214.133
1368.26	182.195
1372.49	250.125
1376.71	292.234
1380.94	235.144
1385.16	53.1523
1389.38	403.578
1393.6	81.8828
1397.81	182.516
1402.02	336.418
1406.23	136.543
1410.44	31.5117
1414.64	47.0625
1418.85	208.625
1423.04	21.9336
1427.24	262.473
1431.43	158.746
1435.62	199.801
1439.81	344.82
1444	138.039
1448.18	298.875
1452.36	344.203
1456.54	95.7891
1460.71	92.6094
1464.89	92.5859
1469.06	63.8594
1473.22	443.535
1477.39	262.207
1481.55	364.789
1485.71	437.836
1489.86	320.762
1494.02	277.09
1498.17	349.711
1502.32	158.988
1506.46	14.8359
1510.61	298.519
1514.75	69.7891
1518.88	229.164
1523.02	288.102
1527.15	164.316
1531.28	217.676
1535.41	508.078
1539.53	433.164
1543.66	278.988
1547.78	366.027
1551.89	322.641
1556.01	233.422
1560.12	242.359
1564.23	350.766
1568.33	211.324
