Measurement: Raman, 514 nm, ccw, Raman Data Processed
Mineral: Fluoro-richterite
Rruff sample: R040019
Ideal chemistry: Na(NaCa)Mg_5_Si_8_O_22_F_2_
Locality: Wilberforce, Ontario, Canada
Source: University of Arizona Mineral Museum
Description: Brown prismatic crystals
Measured chemistry: (Na_0.59_K_0.27_[box]_0.14_)_Σ=1_(Ca_1.30_Na_0.70_)_Σ=2_(Mg_4.67_Fe_0.17_Fe^3+^_0.10_Ti_0.03_Mn_0.02_Al_0.01_)_Σ=5_(Si_7.67_Al_0.33_)_Σ=8_(F_1.12_(OH)_0.88_)_Σ=2_; OH estimated by charge balance
Pin_id: L00217
Orientation: Laser parallel to -b* (0 -1 0). Fiducial mark perpendicular to laser is parallel to c [0 0 1]
Raman shift (cm-1)	intensity
73.842	0
78.031	47.047
82.218	94.944
86.404	266.041
90.587	554.905
94.768	844.065
98.947	1342.09
103.124	2157.92
107.3	3266.41
111.473	3832.92
115.644	3415.25
119.813	2055.46
123.981	998.81
128.146	390.737
132.309	177.916
136.47	28.992
140.63	11.792
144.787	99.163
148.942	617.973
153.096	2419.11
157.247	5490.43
161.396	7346.88
165.544	6046.47
169.689	5432.52
173.833	5681.21
177.974	6015.62
182.114	5755.02
186.251	5015.38
190.387	4541.24
194.52	4590.76
198.652	4927.89
202.782	5672.61
206.909	6537.91
211.035	7257.76
215.159	8201.12
219.281	9639.97
223.4	10487.3
227.518	10189.1
231.634	9002.34
235.748	7155.01
239.86	4959.41
243.97	3234.86
248.079	2102.08
252.185	1359.18
256.289	752.855
260.391	382.797
264.492	214.803
268.59	2.725
272.687	59.511
276.781	142.192
280.874	65.133
284.964	24.94
289.053	307.885
293.14	758.249
297.225	1190.65
301.308	1894.88
305.389	2591.76
309.468	3385.59
313.545	3789.74
317.62	3432.19
321.693	2859.92
325.765	2345.91
329.834	2231.18
333.902	2063.96
337.967	1784.48
342.031	1455.22
346.093	1261.1
350.153	1150.22
354.21	1265.55
358.267	1379.08
362.321	1572.8
366.373	1941.7
370.423	2297.77
374.471	2852
378.518	3434.39
382.563	3719.93
386.605	3600.61
390.646	3413.42
394.685	3044.35
398.722	2683.4
402.757	2162.58
406.79	1556.04
410.821	1023.76
414.851	572.706
418.878	411.85
422.904	380.169
426.927	406.646
430.949	389.097
434.969	330.558
438.987	170.307
443.003	27.446
447.018	64.673
451.03	120.113
455.041	93.612
459.049	68.77
463.056	26.771
467.061	144.307
471.064	168.876
475.065	101.488
479.064	93.142
483.062	57.861
487.057	75.637
491.051	73.491
495.043	143.378
499.032	239.333
503.02	313.409
507.007	369.622
510.991	500.917
514.973	653.168
518.954	842.618
522.933	1020.97
526.91	1103.27
530.885	1098.54
534.858	1061.76
538.829	1006.92
542.799	889.016
546.766	874.014
550.732	884.911
554.696	879.699
558.658	816.378
562.618	648.936
566.576	504.363
570.533	418.65
574.488	377.791
578.44	340.778
582.391	388.605
586.341	423.267
590.288	338.76
594.233	76.101
598.177	25.768
602.119	45.184
606.059	27.948
609.997	11.487
613.933	107.532
617.868	198.878
621.801	335.488
625.731	507.215
629.66	639.551
633.588	824.261
637.513	1081.89
641.437	1266.06
645.358	1623.3
649.278	2211.28
653.196	2995.21
657.113	4077.83
661.027	5889.04
664.94	8795.92
668.851	14197.1
672.76	24686.1
676.667	42616.5
680.572	55199.7
684.476	46587.4
688.378	26856.3
692.278	14879.6
696.176	8584.71
700.072	5622.65
703.967	3878.9
707.86	3038.7
711.751	2421.53
715.64	2187.97
719.527	1959.7
723.413	1823.01
727.297	1741.04
731.179	1624.81
735.059	1514.32
738.937	1334.56
742.814	1099.56
746.689	923.292
750.562	779.606
754.433	660.96
758.303	502.999
762.17	425.737
766.036	285.793
769.901	219.453
773.763	168.347
777.624	75.139
781.482	34.71
785.339	4.033
789.195	2.916
793.048	22.158
796.9	29.747
800.75	24.301
804.598	14.013
808.445	1.599
812.289	33.636
816.132	94.177
819.973	36.254
823.813	6.72
827.65	4.462
831.486	43.316
835.32	35.937
839.152	2.342
842.983	13.504
846.812	34.565
850.639	75.149
854.464	98.693
858.288	120.081
862.11	91.323
865.93	53.423
869.748	121.398
873.564	119.27
877.379	176.055
881.192	308.779
885.004	383.472
888.813	563.189
892.621	724.885
896.427	772.607
900.232	909.3
904.034	1092.03
907.835	1269.86
911.634	1552.94
915.432	2128.35
919.227	2768.03
923.021	3599.82
926.813	4682.46
930.604	5244.32
934.393	5063.37
938.18	4440.27
941.965	3763.77
945.749	3313.36
949.53	3073.9
953.311	2740.95
957.089	2222.51
960.866	1812.62
964.641	1529.2
968.414	1288.15
972.185	1179.61
975.955	1088.72
979.723	1039.03
983.49	993.637
987.254	889.928
991.017	856.392
994.779	883.909
998.538	916.166
1002.3	923.061
1006.05	964.214
1009.81	1092.71
1013.56	1193.29
1017.31	1296.02
1021.06	1445.17
1024.81	1615.44
1028.55	1869.34
1032.3	2149.09
1036.04	2617.21
1039.78	3100.74
1043.52	3678.64
1047.26	4389.94
1050.99	5155.17
1054.73	6377.49
1058.46	8066.23
1062.19	10464.7
1065.92	13177.4
1069.65	15061.5
1073.37	15580.4
1077.1	14035
1080.82	11249.3
1084.54	8526.83
1088.26	6294.92
1091.97	4257.6
1095.69	3268.4
1099.4	2507.79
1103.12	2076.8
1106.83	1735.48
1110.54	1483.55
1114.24	1357.33
1117.95	1255.38
1121.65	1216.54
1125.35	1643.3
1129.06	1051.35
1132.75	975.381
1136.45	911.542
1140.15	732.729
1143.84	654.704
1147.53	572.626
1151.22	577.407
1154.91	474.55
1158.6	345.627
1162.28	198.875
1165.97	153.268
1169.65	61.577
1173.33	98.647
1177.01	9.395
1180.69	40.334
1184.36	95.154
1188.04	19.302
1191.71	51.388
1195.38	29.435
1199.05	51.793
1202.71	76.121
1206.38	45.5
1210.04	39.408
1213.71	24.011
1217.37	21.455
1221.03	6.945
1224.68	35.064
1228.34	50.396
1231.99	3.264
1235.65	27.894
1239.3	21.731
1242.95	53.398
1246.59	48.42
1250.24	95.762
1253.88	31.38
1257.53	12.823
1261.17	100.25
1264.81	57.316
1268.45	62.163
1272.08	141.983
1275.72	136.961
1279.35	153.024
1282.98	35.256
1286.61	113.657
1290.24	117.185
1293.87	87.456
1297.49	135.817
1301.11	148.082
1304.73	168.646
1308.36	155.011
1311.97	150.89
1315.59	81.934
1319.2	120.012
1322.82	41.232
1326.43	159.429
1330.04	129.713
1333.65	45.873
1337.26	119.106
1340.86	159.758
1344.47	133.4
1348.07	126.484
1351.67	186.188
1355.27	179.112
1358.87	48.914
1362.46	126.887
1366.06	80.728
1369.65	79.203
1373.24	5.469
1376.83	69.891
1380.42	17.893
1384	51.353
1387.59	91.931
1391.17	50.566
1394.75	92.521
1398.33	15.071
1401.91	48.938
1405.49	27.681
1409.06	14.9
1412.64	130.572
1416.21	118.791
1419.78	71.439
1423.35	68.168
1426.91	49.787
1430.48	64.691
1434.05	54.324
1437.61	74.325
1441.17	46.556
1444.73	115.027
1448.29	89.616
1451.84	118.708
1455.4	151.535
1458.95	136.932
1462.5	113.37
1466.05	68.712
1469.6	102.523
1473.15	44.01
1476.69	89.093
1480.24	141.243
1483.78	109.54
1487.32	79.476
1490.86	71.347
1494.39	103.241
1497.93	70.646
1501.46	6.993
1505	76.256
1508.53	60.599
1512.06	203.427
1515.59	37.204
1519.11	43.97
1522.64	0
