Measurement: Raman, 514 nm, ccw, Raman Data Processed
Mineral: Fluorapatite
Rruff sample: R050274
Ideal chemistry: Ca_5_(PO_4_)_3_F
Locality: Minas Gerais, Brazil
Source: Marcus Origlieri
Description: Aggregate of blue crystal fragments separated by veins of quartz
Measured chemistry: Ca_5.00_((P_0.97_Si_0.02_S_0.01_)O_4_)_3_(F_0.90_Cl_0.10_)
Pin_id: L00850
Orientation: Laser parallel to c* (0 0 1). Fiducial mark perpendicular to laser is parallel to b [0 1 0]
Raman shift (cm-1)	intensity
111.976	0
115.671	2.15637
119.365	50.5286
123.058	25.4072
126.749	91.3368
130.439	301.464
134.127	479.94
137.814	527.932
141.5	515.113
145.184	364.054
148.867	344.964
152.549	378.895
156.229	370.334
159.908	327.529
163.585	241.54
167.261	190.642
170.936	168.964
174.61	173.932
178.282	76.0198
181.952	40.9309
185.622	23.7356
189.29	11.1519
192.956	94.6868
196.622	8.85669
200.286	81.0505
203.948	55.0986
207.609	68.0471
211.269	0.688232
214.928	8.73608
218.585	105.905
222.24	17.1143
225.895	79.5752
229.548	123.001
233.199	136.236
236.849	157.341
240.498	149.429
244.146	123.591
247.792	158.458
251.437	158.879
255.08	181.434
258.722	319.562
262.363	346.741
266.002	395.727
269.64	259.392
273.276	238.401
276.912	177.797
280.545	173.336
284.178	193.333
287.809	146.893
291.438	141.616
295.067	207.862
298.693	237.615
302.319	171.884
305.943	176.645
309.566	219.87
313.187	160.554
316.807	201.891
320.426	127.823
324.043	91.5913
327.659	25.8665
331.273	60.3892
334.886	47.8862
338.498	14.2507
342.108	30.9324
345.717	20.6238
349.324	76.8882
352.931	51.3828
356.535	79.3125
360.139	59.0928
363.741	10.0386
367.341	2.73486
370.94	33.3105
374.538	70.1831
378.135	41.2563
381.73	53.3081
385.323	6.38086
388.916	88.0478
392.506	114.374
396.096	74.1851
399.684	143.689
403.271	170.258
406.856	176.543
410.44	135.51
414.022	198.652
417.603	271.481
421.183	249.176
424.761	364.309
428.338	430.865
431.914	646.984
435.488	872.023
439.061	913.98
442.632	1224.57
446.202	1117.16
449.77	992.294
453.337	851.546
456.903	547.557
460.467	491.93
464.03	386.541
467.592	199.675
471.152	237.959
474.711	95.6977
478.268	193.445
481.824	162.902
485.378	119.073
488.932	83.7129
492.483	9.01855
496.034	54.2778
499.582	40.5742
503.13	82.3589
506.676	34.4985
510.221	118.453
513.764	72.1597
517.306	10.1538
520.846	30.3721
524.385	29.1528
527.923	112.998
531.459	55.5801
534.994	57.5688
538.527	37.0122
542.059	18.2061
545.59	31.7295
549.119	88.5606
552.647	136.21
556.173	107.323
559.698	126.631
563.222	79.8535
566.744	129.203
570.264	296.428
573.784	701.086
577.302	1306.53
580.818	1494.19
584.333	1008.86
587.847	625.778
591.359	456.033
594.87	438.024
598.379	455.984
601.887	619.139
605.394	903.506
608.899	868.383
612.402	640.881
615.905	549.326
619.406	452.468
622.905	271.298
626.403	184.985
629.9	178.45
633.395	174.753
636.889	63.5195
640.381	162.543
643.872	298.741
647.361	256.29
650.849	242.865
654.336	254.99
657.821	276.629
661.305	282.315
664.787	234.895
668.268	112.417
671.748	275.413
675.226	277.904
678.703	107.428
682.178	312.856
685.652	55.3486
689.124	215.872
692.595	241.792
696.065	101.107
699.533	37.6084
702.999	185.932
706.465	180.149
709.929	267.5
713.391	235.881
716.852	256.144
720.311	167.413
723.77	384.463
727.226	312.882
730.681	240.648
734.135	54.9043
737.588	281.799
741.039	126.867
744.488	240.516
747.936	248.216
751.383	129.297
754.828	317.303
758.272	282.17
761.714	298.882
765.155	195.159
768.595	119.093
772.033	405.13
775.469	318.557
778.904	301.671
782.338	338.749
785.77	150.512
789.201	251.332
792.631	355.445
796.059	354.742
799.485	307.236
802.91	385.742
806.334	371.113
809.756	119.346
813.177	199.553
816.596	54.5469
820.014	95.3769
823.431	181.019
826.846	319.1
830.259	193.934
833.671	165.658
837.082	197.182
840.491	209.529
843.899	211.793
847.306	156.912
850.71	43.5996
854.114	0.085938
857.516	34.8613
860.917	123.713
864.316	194.92
867.713	294.756
871.11	73.8164
874.505	157.908
877.898	124.394
881.29	300.816
884.68	2.70703
888.069	103.207
891.457	79.6602
894.843	222.756
898.228	183.148
901.611	108.779
904.993	14.2422
908.373	138.674
911.752	45.6074
915.129	60.457
918.505	3.83594
921.88	4.52539
925.253	26.9766
928.625	9.67969
931.995	243.785
935.364	67.5039
938.731	438.221
942.097	526.701
945.461	1000.6
948.824	1790.03
952.186	3346.85
955.546	7697.13
958.904	15852.8
962.261	20701.8
965.617	14779
968.971	7340.75
972.324	3421.95
975.675	1416.87
979.025	875.525
982.374	304.492
985.72	105.453
989.066	144.269
992.41	387.273
995.753	32.543
999.094	272.416
1002.43	195.082
1005.77	238.695
1009.11	206.791
1012.44	172.232
1015.78	218.769
1019.11	277.818
1022.44	469.035
1025.77	746.396
1029.1	776.658
1032.42	742.82
1035.75	560.689
1039.07	399.777
1042.4	434.781
1045.72	299.213
1049.04	322.557
1052.35	664.869
1055.67	891.648
1058.98	618.803
1062.3	444.551
1065.61	368.008
1068.92	485.504
1072.23	302.307
1075.54	566.594
1078.84	419.334
1082.15	316.504
1085.45	441.252
1088.75	179.275
1092.05	36.9219
1095.35	466.242
1098.65	243.168
1101.94	499.684
1105.24	170.504
1108.53	200.75
1111.82	140.363
1115.11	107.519
1118.4	356.043
1121.69	266.5
1124.97	155.898
1128.26	190.738
1131.54	318.121
1134.82	412.379
1138.1	313.57
1141.38	398.152
1144.66	313.25
1147.93	307.598
1151.21	317.742
1154.48	377.492
1157.75	374.027
1161.02	298.812
1164.29	506.898
1167.55	277.152
1170.82	406.731
1174.08	403.113
1177.34	271.523
1180.61	287.035
1183.86	512.293
1187.12	432.215
1190.38	209.027
