Measurement: Raman, 514 nm, ccw, Raman Data Processed
Mineral: Fluorapatite
Rruff sample: R050192
Ideal chemistry: Ca_5_(PO_4_)_3_F
Locality: Fulford, Eagle County, Colorado, USA
Source: Dave Bunk Minerals
Description: Pale green hexagonal prism
Measured chemistry: Ca_5.00_(P_1.00_O_4_)_3_(F_0.86_Cl_0.13_)
Pin_id: L00428
Orientation: Laser parallel to a* (1 0 0). Fiducial mark perpendicular to laser is parallel to -c [0 0 -1]
Raman shift (cm-1)	intensity
103.349	0
107.047	44.221
110.744	106.776
114.44	68.8733
118.134	49.0742
121.827	69.9236
125.519	92.3731
129.209	27.7273
132.898	80.4568
136.585	90.2651
140.271	49.1016
143.956	75.8603
147.639	61.2549
151.321	111.081
155.002	162.197
158.681	225.499
162.359	229.051
166.036	112.026
169.711	108.499
173.385	107.99
177.058	177.1
180.729	168.113
184.399	132.881
188.067	160.46
191.734	237.834
195.4	301.013
199.064	341.008
202.727	515.82
206.389	670.45
210.049	844.894
213.708	810.145
217.366	534.735
221.022	373.747
224.677	259.241
228.33	196.231
231.982	334.432
235.633	266.211
239.282	298.691
242.93	197.594
246.577	120.728
250.222	99.4185
253.866	84.7331
257.508	106.401
261.149	107.541
264.789	135.973
268.427	156.103
272.064	172.114
275.7	199.064
279.334	197.98
282.967	240.836
286.598	268.611
290.229	297.278
293.857	347.818
297.485	347.222
301.111	388.479
304.735	417.19
308.358	386.527
311.98	331.301
315.601	307.894
319.22	138.291
322.837	126.476
326.454	102.533
330.068	97.0093
333.682	10.1892
337.294	51.2595
340.905	42.8425
344.514	59.0398
348.122	42.321
351.729	23.5794
355.334	1.71777
358.938	12.9834
362.54	13.3325
366.141	6.13232
369.741	20.9233
373.339	76.0166
376.936	33.627
380.531	15.6313
384.126	17.3115
387.718	0.145508
391.31	1.01856
394.9	56.4077
398.488	82.6797
402.075	127.156
405.661	193.545
409.245	148.773
412.828	189.887
416.41	338.687
419.99	436.288
423.569	822.62
427.146	1117.08
430.722	1358.8
434.297	1064.63
437.87	824.171
441.442	740.388
445.012	768.277
448.581	812.838
452.149	820.078
455.715	805.982
459.28	563.547
462.843	501.77
466.405	234.647
469.965	172.656
473.525	177.136
477.082	165.831
480.639	203.107
484.194	155.482
487.747	26.5557
491.3	72.5102
494.85	12.5068
498.4	30.5034
501.948	36.6265
505.494	110.026
509.039	79.063
512.583	36.3857
516.125	41.0938
519.666	33.1514
523.206	55.8774
526.744	63.9385
530.281	9.97021
533.816	96.1269
537.35	50.8477
540.882	133.393
544.413	82.5772
547.943	56.6787
551.471	11.2368
554.998	0.971191
558.523	90.0727
562.047	71.3428
565.57	138.57
569.091	130.224
572.611	270.623
576.129	349.712
579.646	699.556
583.162	1261.14
586.676	2135.51
590.188	3074.27
593.7	2771.71
597.209	1086.58
600.718	814.307
604.225	671.427
607.73	1007.12
611.235	764.705
614.737	391.353
618.239	276.6
621.739	199.774
625.237	243.505
628.734	130.15
632.23	48.98
635.724	30.2749
639.217	103.121
642.708	80.0161
646.198	35.3574
649.687	251.106
653.174	113.814
656.66	64.1226
660.144	109.442
663.627	169.712
667.108	155.864
670.588	111.973
674.067	10.0273
677.544	111.153
681.02	92.3281
684.494	153.267
687.967	38.7812
691.438	20.3262
694.908	107.912
698.377	14.4111
701.844	63.3613
705.31	216.775
708.774	33.8633
712.237	38.0527
715.698	143.097
719.158	118.923
722.617	120.709
726.074	120.967
729.53	68.2002
732.984	120.715
736.437	119.199
739.888	70.5557
743.338	102.853
746.787	102.777
750.234	120.996
753.68	90.2178
757.124	48.6582
760.567	87.7529
764.008	173.585
767.448	226.531
770.887	219.703
774.324	151.673
777.759	146.759
781.194	153.837
784.626	155.045
788.058	167.498
791.488	116.228
794.916	169.513
798.343	119.864
801.769	133.195
805.193	158.018
808.616	148.966
812.037	109.568
815.457	74.9062
818.875	159.939
822.292	148.761
825.707	156.348
829.122	57.6289
832.534	193.406
835.945	113.083
839.355	141.693
842.763	177.067
846.17	84.6728
849.576	63.3857
852.98	95.6797
856.382	154.895
859.783	221.257
863.183	179.825
866.581	204.149
869.978	183.486
873.373	100.362
876.767	35.8174
880.159	6.63574
883.55	69.6631
886.94	96.9297
890.328	102.786
893.714	59.9228
897.1	15.458
900.483	72.4356
903.866	88.5332
907.246	31.6465
910.626	6.65039
914.004	140.567
917.38	95.7002
920.755	89.7637
924.129	100.976
927.501	150.519
930.872	134.622
934.241	235.142
937.609	223.372
940.975	437.062
944.34	721.035
947.703	1346.51
951.065	2390.98
954.426	5330.57
957.785	12749.5
961.142	23220.5
964.499	33124
967.853	17803
971.207	7696.83
974.558	3413.14
977.909	1325.48
981.258	574.102
984.605	340.879
987.951	379.123
991.295	119.189
994.639	45.875
997.98	136.67
1001.32	271.09
1004.66	122.352
1008	372.682
1011.33	107.871
1014.67	292.83
1018	222.586
1021.33	169.473
1024.66	267.565
1027.99	450.342
1031.32	656.422
1034.64	774.992
1037.97	1237.58
1041.29	2041.24
1044.61	2920.04
1047.93	4446.27
1051.25	5054.68
1054.56	2803.91
1057.88	1370.6
1061.19	1124.58
1064.51	949.086
1067.82	566.611
1071.13	944.283
1074.43	1520.64
1077.74	2202.1
1081.05	2012.43
1084.35	1177.35
1087.65	652.109
1090.95	397.633
1094.25	285.141
1097.55	166.525
1100.85	92.9941
1104.14	244.225
1107.43	97.4336
1110.73	97.5156
1114.02	11.9492
1117.31	41.4473
1120.59	75.9004
1123.88	126.57
1127.16	244.752
1130.45	143.367
1133.73	5.13086
1137.01	222.324
1140.29	124.836
1143.57	113.103
1146.84	231.475
1150.12	106.389
1153.39	172.656
1156.66	176.166
1159.93	295.943
1163.2	238.824
1166.46	150.19
1169.73	100.715
1172.99	174.523
1176.26	163.732
1179.52	100.703
1182.78	142.213
1186.04	312.481
1189.29	224.221
1192.55	225.315
1195.8	229.285
1199.05	192.045
1202.31	384.812
1205.55	471.578
1208.8	251.535
1212.05	343.977
1215.29	540.041
1218.54	461.359
1221.78	441.699
1225.02	345.596
1228.26	383.406
1231.5	393.691
1234.73	224.789
1237.97	351.752
1241.2	529.111
1244.43	438.947
1247.66	341.658
1250.89	145.342
1254.12	231.236
1257.34	222.953
1260.57	387.941
1263.79	384.91
1267.01	410.584
1270.23	291.572
1273.45	281.406
1276.67	2.62109
1279.88	250.699
1283.1	0
