Measurement: Raman, 514 nm, ccw, Raman Data Processed
Mineral: Fluorophlogopite
Rruff sample: R040039
Ideal chemistry: KMg_3_(Si_3_Al)O_10_F_2_
Locality: Franklin, Sussex County, New Jersey, USA
Source: University of Arizona Mineral Museum
Description: Brown hexagonal sheets
Measured chemistry: (K_0.92_Na_0.06_[box]_0.02_)_Σ=1_(Mg_2.94_Fe_0.04_Ti_0.02_)_Σ=3_(Si_2.98_Al_1.02_)O_10_(F_1.24_(OH)_0.76_)_Σ=2_; OH estimated by charge balance
Pin_id: M00363
Orientation: Laser parallel to c* (0 0 1). Fiducial mark perpendicular to laser is parallel to b [0 1 0]
Raman shift (cm-1)	intensity
68.253	0
72.445	22.819
76.635	1068.78
80.823	3206.68
85.009	5734.69
89.193	7893.58
93.375	9755.67
97.554	10244.5
101.732	10552.1
105.908	9928.07
110.082	8524.02
114.254	7347.49
118.424	6404.08
122.592	5039.78
126.758	3769.17
130.922	3031.11
135.083	2079.02
139.243	1912.11
143.401	1314.06
147.557	1054.57
151.711	700.922
155.863	501.022
160.013	728.197
164.161	1112.65
168.308	1204.05
172.452	1764.32
176.594	2440.28
180.734	4044.55
184.872	8118.97
189.008	16900.4
193.143	30420.4
197.275	34610.8
201.405	20204.3
205.534	9208.85
209.66	4616.1
213.784	2395.03
217.907	1323.6
222.027	760.775
226.146	320.856
230.263	177.748
234.377	47.912
238.49	146.024
242.601	308.27
246.709	458.688
250.816	477.044
254.921	295.855
259.024	8.693
263.125	645.69
267.224	1905.35
271.321	4367.12
275.416	8082.22
279.51	9514.44
283.601	6037.06
287.69	3649.24
291.778	2907.93
295.863	2995.09
299.947	4061.67
304.029	6104.62
308.108	9595.89
312.186	12763.6
316.262	13656.7
320.336	13067.4
324.408	11509.7
328.478	8296.33
332.546	5761.95
336.612	3575.27
340.677	2435.77
344.739	1793.44
348.799	1511.22
352.858	1355.09
356.915	1388.01
360.969	1679.9
365.022	2286.72
369.073	3165.44
373.122	2931.09
377.169	1898.68
381.215	1288.06
385.258	1097.53
389.299	907.979
393.339	919.556
397.376	963.752
401.412	749.165
405.446	634.199
409.478	528.602
413.508	304.835
417.536	124.446
421.562	55.777
425.586	26.577
429.609	79.721
433.629	96.62
437.648	151.215
441.665	215.578
445.68	387.53
449.693	452.166
453.704	733.471
457.713	662.436
461.721	884.047
465.726	936.299
469.73	357.181
473.731	97.377
477.731	243.354
481.729	175.451
485.725	117.326
489.72	136.537
493.712	352.827
497.703	698.379
501.691	1033.34
505.678	1782.57
509.663	2025.44
513.646	1904.95
517.627	1242.1
521.607	690.874
525.584	314.3
529.56	146.372
533.534	88
537.506	70.062
541.476	130.605
545.444	177.627
549.41	109.19
553.375	173.298
557.337	193.005
561.298	231.415
565.257	183.712
569.214	306.167
573.17	253.982
577.123	159.596
581.075	161.341
585.024	120.215
588.972	25.946
592.918	124.589
596.863	246.548
600.805	335.368
604.746	504.875
608.685	649.075
612.621	1004.97
616.557	1616.57
620.49	2236.89
624.421	3183.94
628.351	4356.73
632.279	5550.35
636.205	6202.03
640.129	6808.15
644.051	7100.26
647.972	7271.04
651.89	7774.08
655.807	8878.89
659.722	10115.6
663.636	12143.1
667.547	15690.6
671.457	21322
675.365	30962.2
679.271	42208.8
683.175	46633
687.077	41104.8
690.978	31359.4
694.877	21804.9
698.774	13820.2
702.669	9053.48
706.562	6430.4
710.454	4596.47
714.344	3457.44
718.232	2677.03
722.118	2403.22
726.002	2120.84
729.885	2053.59
733.766	1851.05
737.645	1859.65
741.522	1672.82
745.397	1722.97
749.271	1509.12
753.143	1350.2
757.013	1124.44
760.881	1100.81
764.748	987.22
768.613	990.67
772.476	899.17
776.337	1032.59
780.196	984.202
784.054	1062.84
787.91	1047.28
791.764	1201.81
795.616	1280.59
799.467	1128.29
803.316	899.137
807.163	679.224
811.008	493.125
814.851	427.103
818.693	395.159
822.533	277.296
826.371	164.515
830.208	218.815
834.042	47.195
837.875	16.371
841.706	91.14
845.536	51.799
849.363	44.565
853.189	30.546
857.013	81.472
860.836	177.608
864.656	53.882
868.475	3.285
872.292	48.789
876.108	44.687
879.922	30.859
883.733	85.511
887.544	99.265
891.352	655.506
895.159	274.203
898.964	255.463
902.767	81.989
906.568	243.648
910.368	113.408
914.166	223.312
917.962	45.372
921.757	63.593
925.55	3.12
929.341	7.448
933.13	18.908
936.918	30.18
940.703	18.361
944.488	12.873
948.27	11.662
952.051	56.043
955.83	32.507
959.607	40.459
963.383	128.15
967.156	218.464
970.928	289.768
974.699	320.058
978.468	499.332
982.234	545.585
986	806.337
989.763	880.488
993.525	842.633
997.285	1086.22
1001.04	1550.58
1004.8	1596.12
1008.55	1482.74
1012.31	1557.77
1016.06	1235.24
1019.81	1262.41
1023.56	1426.23
1027.31	1954.43
1031.05	2823.44
1034.79	3820.31
1038.53	3531.66
1042.27	2623.96
1046.01	2012.41
1049.75	1962.57
1053.48	1822.64
1057.22	1974.36
1060.95	2030.84
1064.68	2078.75
1068.4	2299.8
1072.13	2624.19
1075.86	3242.68
1079.58	3813.54
1083.3	4312.74
1087.02	5064.42
1090.74	5474.42
1094.45	5707.57
1098.17	5895.41
1101.88	5646.53
1105.59	5345.87
1109.3	4234.8
1113.01	3135.29
1116.71	2216
1120.42	1442.52
1124.12	946.848
1127.82	556.993
1131.52	415.949
1135.22	338.719
1138.91	273.307
1142.61	125.698
1146.3	138.881
1149.99	57.933
1153.68	75.746
1157.37	128.347
1161.06	127.715
1164.74	221.847
1168.42	118.525
1172.1	8.343
1175.78	163.735
1179.46	95.925
1183.14	106.824
1186.81	127.474
1190.48	130.938
1194.15	18.007
1197.83	16.689
1201.49	101.029
1205.16	37.229
1208.82	56.748
1212.49	51.578
1216.15	14.734
1219.81	111.713
1223.46	141.049
1227.12	18.864
1230.78	36.124
1234.43	124.812
1238.08	182.182
1241.73	161.557
1245.38	115.04
1249.03	139.103
1252.67	232.059
1256.31	111.926
1259.95	283.712
1263.6	326.031
1267.23	258.125
1270.87	250.997
1274.51	370.647
1278.14	305.077
1281.77	288.284
1285.4	357.064
1289.03	235.671
1292.66	328.733
1296.28	476.016
1299.91	493.109
1303.53	352.742
1307.15	467.989
1310.77	603.998
1314.38	327.059
1318	459.323
1321.61	420.645
1325.23	382.059
1328.84	165.616
1332.45	319.771
1336.06	187.661
1339.66	144.989
1343.27	155.521
1346.87	157.137
1350.47	48.222
1354.07	102.135
1357.67	83.559
1361.26	66.839
1364.86	145.649
1368.45	11.588
1372.04	33.883
1375.63	30.198
1379.22	42.842
1382.81	64.065
1386.39	22.338
1389.98	94.983
1393.56	30.297
1397.14	23.279
1400.72	118.937
1404.3	137.323
1407.87	17.513
1411.45	20.475
1415.02	73.32
1418.59	28.051
1422.16	185.504
1425.73	153.12
1429.29	246.566
1432.86	323.128
1436.42	415.893
1439.98	482.1
1443.54	694.672
1447.1	727.615
1450.66	715.182
1454.21	846.346
1457.77	957.883
1461.32	907.902
1464.87	751.774
1468.42	555.498
1471.96	446.943
1475.51	385.857
1479.06	287.795
1482.6	252.844
1486.14	375.19
1489.68	183.551
1493.22	197.135
1496.75	221.967
1500.29	4.275
1503.82	9.362
1507.35	0
