Measurement: Raman, 514 nm, ccw, Raman Data Processed
Mineral: Fluorapatite
Rruff sample: R050369
Ideal chemistry: Ca_5_(PO_4_)_3_F
Locality: Russia
Source: Eugene Schlepp
Description: Blueish-green hexagonal prismatic crystal
Measured chemistry: (Ca_0.99_Na_0.01_)_5_((P_0.98_S_0.02_)O_4_)_3_F_1.00_
Pin_id: L01431
Orientation: Laser parallel to -c* (0 0 -1). Fiducial mark perpendicular to laser is parallel to b [0 1 0]
Raman shift (cm-1)	intensity
107.047	0
111.976	5.05469
116.903	32.1633
121.827	112.947
126.749	130.852
131.668	335.427
136.585	759.152
141.5	1309.16
146.412	642.245
151.321	361.797
156.229	463.336
161.134	691.569
166.036	511.304
170.936	487.82
175.834	348.051
180.729	105.247
185.622	66.2739
190.512	33.2258
195.4	90.009
200.286	98.6687
205.169	90.23
210.049	150.699
214.928	233.072
219.803	156.381
224.677	148.625
229.548	243.543
234.416	335.498
239.282	457.81
244.146	247.77
249.007	139.838
253.866	188.156
258.722	400.688
263.576	648.716
268.427	992.771
273.276	765.209
278.123	406.661
282.967	308.228
287.809	200.846
292.648	157.471
297.485	228.063
302.319	392.597
307.151	568.051
311.98	606.41
316.807	352.656
321.631	270.758
326.454	198.684
331.273	156.427
336.09	49.2886
340.905	73.2
345.717	51.3621
350.527	0.5271
355.334	5.12842
360.139	76.3442
364.941	14.854
369.741	97.2358
374.538	23.7891
379.333	30.8633
384.126	114.191
388.916	99.8311
393.703	14.2456
398.488	36.1323
403.271	59.8677
408.051	27.1304
412.828	154.532
417.603	207.836
422.376	201.665
427.146	381.335
431.914	722.716
436.679	1053.83
441.442	1554.65
446.202	2092.17
450.96	1779.39
455.715	1193.31
460.467	727.917
465.218	371.198
469.965	279.154
474.711	187.76
479.454	154
484.194	171.989
488.932	105.821
493.667	88.1977
498.4	57.2554
503.13	46.9707
507.858	58.8589
512.583	35.7319
517.306	3.3833
522.026	44.8145
526.744	64.5898
531.459	68.9512
536.172	15.2041
540.882	88.478
545.59	46.666
550.295	28.8564
554.998	122.193
559.698	113.505
564.396	162.008
569.091	329.304
573.784	759.882
578.474	2013.93
583.162	2809.97
587.847	963.132
592.529	832.615
597.209	463.024
601.887	896.572
606.562	1909.1
611.235	1430.9
615.905	986.912
620.572	518.135
625.237	165.795
629.9	126.799
634.56	207.328
639.217	194.127
643.872	148.377
648.524	101.574
653.174	133.8
657.821	140.845
662.466	88.1138
667.108	230.91
671.748	167.863
676.385	47.6103
681.02	85.3603
685.652	9.6499
690.281	123.568
694.908	155.752
699.533	66.8545
704.155	152.433
708.774	131.043
713.391	71.4268
718.005	82.9741
722.617	152.476
727.226	66.3184
731.833	186.469
736.437	51.6357
741.039	151.385
745.638	171.876
750.234	24.9033
754.828	100.573
759.419	121.993
764.008	13.3281
768.595	100.242
773.178	69.042
777.759	98.8769
782.338	103.017
786.914	105.787
791.488	19.585
796.059	64.0059
800.627	144.898
805.193	88.167
809.756	96.7451
814.317	104.251
818.875	3.07812
823.431	5.32031
827.984	27.0195
832.534	101.459
837.082	17.9307
841.627	122.467
846.17	144.919
850.71	92.1572
855.248	80.4512
859.783	92.5029
864.316	248.073
868.846	39.0596
873.373	215.4
877.898	20.7803
882.42	11.0928
886.94	151.647
891.457	12.2197
895.971	87.1885
900.483	4.05859
904.993	40.7891
909.5	81.332
914.004	12.331
918.505	112.814
923.004	141.239
927.501	76.4746
931.995	135.47
936.486	208.875
940.975	506.295
945.461	854.249
949.945	1720.17
954.426	3726.65
958.904	13456.6
963.38	40015.7
967.853	32931
972.324	7026.04
976.792	1835.3
981.258	690.43
985.72	467.128
990.181	316.246
994.639	21.4121
999.094	141.864
1003.55	410.312
1008	883.026
1012.44	1091.76
1016.89	624.648
1021.33	393.103
1025.77	577.398
1030.21	1340.31
1034.64	1700.05
1039.07	724.015
1043.5	362.17
1047.93	553.327
1052.35	431.153
1056.78	912.633
1061.19	1494.48
1065.61	555.295
1070.02	372.836
1074.43	413.906
1078.84	764.045
1083.25	597.244
1087.65	235.519
1092.05	51.8857
1096.45	2.38281
1100.85	24.9697
1105.24	9.41602
1109.63	87.2832
1114.02	28.9443
1118.4	114.683
1122.78	267.889
1127.16	184.715
1131.54	38.1738
1135.92	210.204
1140.29	6.32519
1144.66	184.315
1149.02	57.6035
1153.39	103.163
1157.75	401.691
1162.11	175.166
1166.46	327.938
1170.82	231.904
1175.17	105.514
1179.52	235.352
1183.86	187.776
1188.21	206.073
1192.55	92.3633
1196.89	320.666
1201.22	152.943
1205.55	71.084
1209.88	160.283
1214.21	441.51
1218.54	52.7598
1222.86	307.035
1227.18	209.33
1231.5	154.644
1235.81	307.379
1240.12	158.072
1244.43	103.664
1248.74	110.059
1253.04	0.474609
1257.34	158.904
1261.64	106.385
1265.94	243.584
1270.23	126.096
1274.52	166.611
1278.81	87.1231
1283.1	134.644
1287.38	158.949
1291.66	310.418
1295.94	126.877
1300.21	149.348
1304.48	20.0469
1308.75	135.414
1313.02	109.832
1317.29	145.115
1321.55	286.426
1325.81	148.742
1330.06	66.5273
1334.32	183.516
1338.57	74.2695
1342.82	184.603
1347.06	191.426
1351.31	192.295
1355.55	156.654
1359.79	223.012
1364.02	101.418
1368.26	90.9043
1372.49	190.434
1376.71	124.984
1380.94	7.11133
1385.16	247.723
1389.38	216.387
1393.6	66.0684
1397.81	89
1402.02	122.715
1406.23	84.543
1410.44	114.279
1414.64	176.295
1418.85	170.621
1423.04	203.717
1427.24	189.484
1431.43	60.8652
1435.62	137.135
1439.81	59.3262
1444	225.529
1448.18	216.039
1452.36	189.193
1456.54	305.361
1460.71	20.457
1464.89	122.772
1469.06	90.0527
1473.22	211.385
1477.39	379.768
1481.55	407.227
1485.71	246.744
1489.86	164.293
1494.02	98.7012
1498.17	168.416
1502.32	245.621
1506.46	310.147
1510.61	332.102
1514.75	43.3281
1518.88	218.211
1523.02	100.955
1527.15	155.231
1531.28	211.258
1535.41	163.277
1539.53	190.559
1543.66	224.039
1547.78	189.58
1551.89	235.662
1556.01	231.99
1560.12	239.019
1564.23	244.365
1568.33	75.4473
1572.43	0
