Measurement: Raman, 514 nm, ccw, Raman Data Processed
Mineral: Fluorapatite
Rruff sample: R050340
Ideal chemistry: Ca_5_(PO_4_)_3_F
Locality: Buckingham, Quebec, Canada
Source: California Institute of Technology
Description: Blue fragment
Measured chemistry: Ca_5.00_((P_0.98_Si_0.02_)O_4_)_3_F_1.00_
Pin_id: L00787
Orientation: Laser parallel to c* (0 0 1). Fiducial mark perpendicular to laser is parallel to a [1 0 0]
Raman shift (cm-1)	intensity
108.28	0
113.208	1.62671
118.134	96.8954
123.058	1.09753
127.979	33.9738
132.898	266.776
137.814	699.4
142.728	1441.38
147.639	804.672
152.549	431.834
157.455	436.529
162.359	659.566
167.261	500.832
172.161	529.838
177.058	316.101
181.952	149.91
186.845	69.5406
191.734	38.8645
196.622	6.97693
201.507	91.9263
206.389	66.7358
211.269	142.416
216.147	134.972
221.022	117.399
225.895	113.333
230.765	273.466
235.633	443.733
240.498	336.778
245.361	251.854
250.222	132.176
255.08	202.165
259.936	335.888
264.789	748.282
269.64	1120.63
274.488	830.104
279.334	486.702
284.178	342.339
289.019	225.982
293.857	264.603
298.693	315.181
303.527	374.699
308.358	592.146
313.187	639.516
318.013	525.796
322.837	291.962
327.659	191.998
332.478	126.897
337.294	79.6646
342.108	46.2971
346.92	5.79004
351.729	4.83252
356.535	3.37695
361.34	5.68604
366.141	7.56543
370.94	43.854
375.737	13.874
380.531	15.9919
385.323	2.95019
390.113	57.1973
394.9	78.5
399.684	55.4097
404.466	89.4211
409.245	138.737
414.022	142.896
418.797	256.31
423.569	553.375
428.338	797.294
433.105	1089.06
437.87	1329.68
442.632	1787.15
447.391	2221.46
452.149	1921.59
456.903	1263.6
461.655	708.469
466.405	361.192
471.152	231.256
475.897	265.159
480.639	125.409
485.378	141.964
490.116	155.266
494.85	65.1462
499.582	61.9731
504.312	81.6023
509.039	38.4448
513.764	19.7131
518.486	23.6992
523.206	59.3284
527.923	43.2661
532.638	13.582
537.35	5.76978
542.059	55.5112
546.766	95.0295
551.471	71.7398
556.173	46.6003
560.873	130.743
565.57	165.644
570.264	307.29
574.957	839.689
579.646	2284.38
584.333	3025.05
589.018	1185.95
593.7	974.243
598.379	580.589
603.056	913.246
607.73	2060.52
612.402	1221.53
617.072	1071.25
621.739	608.341
626.403	209.287
631.065	175.346
635.724	156.786
640.381	153.163
645.035	266.353
649.687	318.553
654.336	203.726
658.983	215.646
663.627	85.4705
668.268	101.623
672.907	104.443
677.544	7.25366
682.178	99.0796
686.809	29.2141
691.438	90.0481
696.065	74.9966
700.688	43.8345
705.31	4.9043
709.929	165.241
714.545	4.31592
719.158	6.7832
723.77	120.032
728.378	84.9409
732.984	123.036
737.588	28.6977
742.189	13.813
746.787	82.0269
751.383	49.2769
755.976	61.771
760.567	94.3877
765.155	27.4893
769.741	88.5996
774.324	95.6856
778.904	89.1484
783.482	26.187
788.058	10.8423
792.631	57.4995
797.201	13.4565
801.769	70.7593
806.334	56.3721
810.897	150.876
815.457	79.4443
820.014	18.8018
824.569	74.9771
829.122	34.3047
833.671	68.6953
838.219	51.2647
842.763	52.4873
847.306	60.3784
851.845	95.8306
856.382	73.4941
860.917	174.561
865.448	131.56
869.978	227.006
874.505	253.427
879.029	166.146
883.55	0.680176
888.069	40.3613
892.586	21.9204
897.1	35.8848
901.611	29.8608
906.12	34.8403
910.626	50.5381
915.129	48.8301
919.63	85.3306
924.129	3.58008
928.625	90.9932
933.118	163.731
937.609	271.757
942.097	547.512
946.582	909.42
951.065	1682.78
955.546	4269.66
960.023	14397.4
964.499	43577.5
968.971	33570.3
973.441	7203.49
977.909	1937.88
982.374	651.579
986.836	373.324
991.295	214.687
995.753	171.899
1000.21	113.788
1004.66	299.088
1009.11	749.46
1013.55	784.662
1018	304.043
1022.44	347.114
1026.88	519.777
1031.32	1204.1
1035.75	1894.08
1040.18	1198.81
1044.61	617.447
1049.04	631.767
1053.46	698.37
1057.88	1111.02
1062.3	1567.4
1066.71	632.282
1071.13	474.297
1075.54	780.387
1079.94	955.629
1084.35	663.964
1088.75	295.503
1093.15	99.9624
1097.55	52.4731
1101.94	53.0894
1106.34	5.69922
1110.73	18.2583
1115.11	66.0435
1119.5	298.703
1123.88	382.426
1128.26	127.233
1132.63	79.5527
1137.01	187.514
1141.38	28.501
1145.75	46.499
1150.12	94.5117
1154.48	103.662
1158.84	27.9248
1163.2	164.351
1167.55	120.968
1171.91	61.7461
1176.26	77.0693
1180.61	140.94
1184.95	163.44
1189.29	158.014
1193.63	129.333
1197.97	169.56
1202.31	76.8574
1206.64	51.0059
1210.97	89.1074
1215.29	82.1592
1219.62	157.156
1223.94	218.197
1228.26	151.34
1232.57	175.946
1236.89	114.347
1241.2	96.6143
1245.51	150.273
1249.81	212.974
1254.12	73.5449
1258.42	8.02637
1262.72	107.225
1267.01	155.972
1271.3	148.059
1275.59	97.167
1279.88	187.672
1284.17	36.1855
1288.45	116.983
1292.73	123.565
1297.01	131.055
1301.28	63.6318
1305.55	89.8281
1309.82	39.3525
1314.09	152.114
1318.35	175.522
1322.61	162.434
1326.87	147.893
1331.13	189.259
1335.38	206.534
1339.63	210.659
1343.88	176.711
1348.12	185.513
1352.37	176.394
1356.61	143.087
1360.85	238.772
1365.08	52.3555
1369.31	186.044
1373.54	124.232
1377.77	242.508
1381.99	138.714
1386.22	97.3662
1390.43	28.4219
1394.65	55.3447
1398.87	94.2559
1403.08	125.166
1407.29	36.0527
1411.49	97.4209
1415.69	234.155
1419.89	214.739
1424.09	145.305
1428.29	167.009
1432.48	10.5
1436.67	215.971
1440.86	150.651
1445.04	149.767
1449.23	216.843
1453.4	140.59
1457.58	134.327
1461.76	77.9492
1465.93	156.19
1470.1	257.086
1474.26	59.7139
1478.43	287.662
1482.59	320.28
1486.75	129.102
1490.9	7.45215
1495.06	231.808
1499.21	217.091
1503.35	86.8457
1507.5	47.2041
1511.64	134.583
1515.78	135.013
1519.92	112.532
1524.05	191.262
1528.18	186.769
1532.31	131.628
1536.44	131.079
1540.56	179.329
1544.69	255.31
1548.8	40.9727
1552.92	59.1543
1557.03	145.192
1561.14	57.3506
1565.25	191.928
1569.36	65.25
