Measurement: Raman, 514 nm, ccw, Raman Data Processed
Mineral: Fluorite
Rruff sample: R050115
Ideal chemistry: CaF_2_
Locality: Isthak Valley Iskardu, N.A. Gilgit, Pakistan
Source: Syed Shah
Description: Colorless fragment
Measured chemistry: CaF_2_
Pin_id: L00441
Orientation: Laser parallel to -a* (-1 0 0). Fiducial mark perpendicular to laser is parallel to b [0 1 0]
Raman shift (cm-1)	intensity
96.233	0
100.418	1.94
104.6	79.344
108.781	145.27
112.959	166.347
117.136	165.306
121.31	131.747
125.482	186.936
129.653	285.101
133.821	548.231
137.987	1529.34
142.152	2684.34
146.314	3341.7
150.474	1520.39
154.633	504.301
158.789	292.116
162.943	370.238
167.095	253.578
171.246	48.133
175.394	16.922
179.54	12.101
183.684	12.896
187.826	40.801
191.967	58.158
196.105	5.735
200.241	1.168
204.375	15.058
208.507	45.324
212.638	144.314
216.766	363.16
220.892	861.62
225.016	1279.91
229.139	1085.86
233.259	1086.83
237.377	1315.98
241.493	1938.36
245.608	1277.96
249.72	1024.76
253.83	876.045
257.939	1334.99
262.045	2197.7
266.15	1238.24
270.252	879.396
274.353	875.644
278.451	904.116
282.548	956.831
286.642	971.019
290.735	907.864
294.826	829.141
298.914	740.399
303.001	747.662
307.086	695.083
311.168	665.68
315.249	633.288
319.328	660.259
323.405	619.75
327.48	624.66
331.553	614.878
335.624	639.108
339.693	644.858
343.76	684.28
347.826	669.738
351.889	775.805
355.95	753.983
360.01	697.908
364.067	699.327
368.123	628.896
372.176	595.773
376.228	487.15
380.277	452.007
384.325	399.029
388.371	306.092
392.415	305.254
396.457	153.964
400.497	143.383
404.535	86.667
408.571	7
412.605	16.265
416.638	25.335
420.668	50.907
424.697	16.453
428.723	18.057
432.748	23.06
436.77	55.215
440.791	96.731
444.81	86.942
448.827	62.171
452.842	99.442
456.855	89.261
460.867	20.615
464.876	63.866
468.883	219.526
472.889	192.913
476.892	245.05
480.894	292.244
484.894	394.906
488.892	599.583
492.888	706.484
496.882	624.559
500.874	543.377
504.865	468.022
508.853	448.545
512.84	344.719
516.824	324.575
520.807	293.74
524.788	235.107
528.767	222.731
532.744	128.903
536.719	234.588
540.693	204.785
544.664	153.48
548.634	161.66
552.601	141.685
556.567	217.445
560.531	194.048
564.493	137.113
568.453	148.535
572.412	170.304
576.368	232.865
580.323	226.086
584.275	208.088
588.226	219.204
592.175	235.015
596.122	284.2
600.068	226.35
604.011	138.808
607.952	50.992
611.892	112.705
615.83	97.292
619.766	121.739
623.7	68.508
627.632	96.955
631.563	54.462
635.491	83.016
639.418	104.079
643.343	125.671
647.266	9.315
651.187	32.207
655.106	71.148
659.024	132.242
662.939	529.628
666.853	1077.74
670.765	720.111
674.675	480.799
678.583	466.673
682.49	831.1
686.394	1362.11
690.297	1807.03
694.198	1443.49
698.097	944.183
701.995	678.879
705.89	736.046
709.784	998.254
713.675	815.57
717.565	438.011
721.453	338.686
725.34	331.829
729.224	258.822
733.107	234.972
736.988	102.499
740.867	13.923
744.744	86.776
748.62	58.229
752.493	44.862
756.365	227.309
760.235	266.779
764.103	258.111
767.969	295.338
771.834	454.218
775.697	691.229
779.558	927.536
783.417	900.63
787.274	1029.45
791.13	1302.23
794.983	1749.64
798.835	1989.77
802.686	2211.89
806.534	2278.12
810.38	2300.54
814.225	2282.58
818.068	2243.23
821.909	2388.92
825.749	2761.76
829.586	3622.89
833.422	6489.34
837.256	5429.92
841.088	3997.82
844.919	4294.89
848.748	6192.78
852.575	7270.22
856.4	7727.24
860.223	9203.85
864.045	11550.1
867.864	14325.9
871.682	17081.4
875.499	17466.5
879.313	16311
883.126	14233.5
886.937	11865.3
890.746	9664.76
894.553	8075.43
898.359	6826.06
902.163	6036.72
905.965	7159.27
909.765	19788.5
913.564	16060.1
917.361	7412.62
921.156	15625.2
924.949	17327.7
928.74	20290.3
932.53	13022.9
936.318	17975.5
940.104	10008.3
943.889	12981.3
947.672	41504.9
951.453	12848.9
955.232	3443.26
959.01	2197.92
962.785	792.786
966.559	57.857
970.332	76.172
974.102	251.172
977.871	316.907
981.638	498.38
985.404	261.521
989.167	133.817
992.929	23.164
996.689	209.979
1000.45	536.974
1004.2	624.3
1007.96	731.982
1011.71	970.047
1015.46	1258.53
1019.21	1487.46
1022.96	1976.85
1026.71	2076.71
1030.45	2047.08
1034.19	2008
1037.94	2139.51
1041.68	2471.63
1045.41	2944.49
1049.15	3058.34
1052.88	2923.27
1056.62	2839.22
1060.35	2725.99
1064.08	2763.51
1067.8	2751.77
1071.53	2580.79
1075.25	2470.59
1078.97	2111.2
1082.7	2232.62
1086.41	2154.9
1090.13	1898.03
1093.85	2092.05
1097.56	2066.95
1101.27	2262.77
1104.98	2519.5
1108.69	2357.17
1112.4	2185.79
1116.1	2162.45
1119.81	2250.17
1123.51	2333.91
1127.21	2194.38
1130.91	2047.91
1134.61	1931.21
1138.3	1944.52
1141.99	2002.46
1145.68	2205.6
1149.38	2086.69
1153.06	2109.14
1156.75	2162.95
1160.43	1838.26
1164.12	1676.74
1167.8	1704.74
1171.48	1414.17
1175.16	1315.04
1178.83	1387.37
1182.51	1311.16
1186.18	966.401
1189.85	543.109
1193.52	451.293
1197.19	290.969
1200.86	442.224
1204.52	625.01
1208.19	669.293
1211.85	625.084
1215.51	852.412
1219.17	631.297
1222.82	521.707
1226.48	373.645
1230.13	417.11
1233.78	412.109
1237.43	558.531
1241.08	756.353
1244.73	865.59
1248.37	856.266
1252.01	788.396
1255.66	851.994
1259.3	787.059
1262.93	963.615
1266.57	813.872
1270.21	1113.06
1273.84	957.452
1277.47	840.108
1281.1	587.903
1284.73	477.879
1288.36	239.776
1291.98	183.367
1295.6	318.522
1299.23	155.213
1302.85	313.442
1306.46	293.215
1310.08	234.518
1313.7	247.385
1317.31	301.841
1320.92	247.905
1324.53	265.327
1328.14	542.627
1331.75	850.871
1335.35	1080.59
1338.96	1182.38
1342.56	1762.16
1346.16	2129.03
1349.76	2764.44
1353.36	4341.21
1356.95	7279.56
1360.55	15253.3
1364.14	13893.7
1367.73	6355.48
1371.32	3317.59
1374.91	2591.14
1378.49	3231.25
1382.08	3326.4
1385.66	2343.86
1389.24	2633.67
1392.82	5115.82
1396.4	10440
1399.97	6734.93
1403.55	2391.53
1407.12	730.072
1410.69	80.494
1414.26	149.954
1417.83	135.976
1421.4	189.749
1424.96	1287.21
1428.53	2416.48
1432.09	1087.42
1435.65	159.771
1439.21	283.779
1442.76	1149.23
1446.32	1786.31
1449.87	2115.19
1453.43	1216.81
1456.98	611.293
1460.53	858.616
1464.07	1838.93
1467.62	1656.99
1471.16	714.656
1474.71	208.409
1478.25	62.896
1481.79	57.688
1485.32	202.163
1488.86	255.063
1492.39	344.248
1495.93	450.974
1499.46	316.904
1502.99	329.101
1506.52	158.635
1510.05	170.955
1513.57	53.748
1517.09	0.903
