Measurement: Raman, 514 nm, ccw, Raman Data Processed
Mineral: Fluorapatite
Rruff sample: R060184
Ideal chemistry: Ca_5_(PO_4_)_3_F
Locality: Yates mine, Otter Lake, Quebec, Canada
Source: Lloyd Twaites
Description: Green colored fragment of a hexagonal prism
Measured chemistry: (Ca_0.99_Ce_0.01_)_5.00_((P_0.98_Si_0.01_S_0.01_)O_4_)_3_F_1.00_
Pin_id: M00887
Orientation: Laser parallel to c* (0 0 1). Fiducial mark perpendicular to laser is parallel to a [1 0 0]
Raman shift (cm-1)	intensity
170.559	0
175.467	21.4529
180.372	148.37
185.274	86.9353
190.174	26.4854
195.072	60.3257
199.967	63.0305
204.859	71.8276
209.749	98.342
214.637	196.955
219.521	153.173
224.404	274.989
229.284	399.241
234.161	423.578
239.036	288.633
243.908	265.646
248.777	256.1
253.645	318.933
258.509	615.33
263.371	787.121
268.231	1025.54
273.088	717.64
277.942	579.341
282.794	520.316
287.643	431.911
292.49	450.351
297.335	530.388
302.176	714.536
307.015	703.783
311.852	774.144
316.686	480.041
321.518	402.142
326.347	193.827
331.173	146.486
335.997	139.096
340.819	24.6697
345.638	99.05
350.454	14.7742
355.268	17.5908
360.079	27.501
364.888	24.3477
369.694	31.3276
374.498	36.4844
379.299	57.8379
384.097	8.64844
388.893	89.2065
393.686	121.69
398.477	100.244
403.266	243.469
408.051	317.968
412.835	327.903
417.615	598.675
422.394	959.319
427.169	1543.15
431.942	1843.28
436.713	1948.8
441.481	2482.77
446.246	2751.2
451.009	2190.12
455.769	1429.53
460.527	929.409
465.282	667.629
470.035	439.015
474.785	260.178
479.532	328.711
484.277	153.782
489.02	31.6235
493.76	41.9209
498.497	28.6953
503.232	9.8877
507.964	47.3081
512.693	9.74072
517.421	3.63965
522.145	9.59473
526.867	40.7129
531.587	33.96
536.303	36.5903
541.018	6.09082
545.729	85.981
550.439	112.112
555.145	211.343
559.849	262.206
564.551	346.101
569.25	699.279
573.946	1537.11
578.64	3310.1
583.331	2786.06
588.02	1585.26
592.706	1269.49
597.39	956.798
602.071	1446
606.749	1965.07
611.425	1436.2
616.099	1137.6
620.769	694.57
625.438	285.225
630.103	453.916
634.766	393.723
639.427	548.946
644.085	651.805
648.74	773.778
653.393	896.177
658.044	604.852
662.691	472.867
667.336	407.634
671.979	331.828
676.619	291.463
681.257	195.215
685.892	249.573
690.524	175.315
695.154	132.987
699.781	95.0576
704.406	133.546
709.028	204.038
713.647	204.526
718.264	154.6
722.878	72.2158
727.49	62.7334
732.1	98.043
736.706	107.605
741.31	73.9492
745.912	47.9834
750.511	19.2617
755.107	99.5312
759.701	164.921
764.292	116.952
768.881	140.672
773.467	137.575
778.051	56.8174
782.632	60.1758
787.21	160.583
791.786	197.846
796.359	93.5957
800.93	58.1982
805.498	54.8076
810.064	208.473
814.627	118.25
819.187	230.784
823.745	85.2754
828.301	43.2432
832.853	71.1035
837.403	162.997
841.951	24.6855
846.496	308.705
851.038	26.3477
855.578	174.134
860.116	120.399
864.65	222.525
869.183	271.992
873.712	99.0918
878.239	150.635
882.764	74.9531
887.285	22.7861
891.805	60.085
896.322	38.2607
900.836	28.9658
905.347	124.788
909.856	154.28
914.363	20.3447
918.867	129.552
923.368	54.8428
927.867	82.5889
932.363	142.002
936.856	448.129
941.347	874.685
945.836	1918.31
950.322	3812.45
954.805	9077.71
959.286	24196.7
963.764	43551.8
968.239	24273.9
972.712	7693.86
977.183	2401.93
981.65	859.785
986.116	377.662
990.578	75.6172
995.038	129.221
999.496	270.553
1003.95	367.805
1008.4	891.582
1012.85	642.371
1017.3	594.166
1021.75	616.102
1026.19	1079.66
1030.63	1600.59
1035.06	1840.27
1039.5	1173.18
1043.93	853.998
1048.36	734.99
1052.79	983.631
1057.21	1395.11
1061.63	1349.27
1066.05	1096.38
1070.47	1291.34
1074.88	1382.51
1079.29	930.078
1083.7	526.084
1088.11	181.525
1092.51	126.441
1096.91	218.826
1101.31	206.725
1105.7	66.1055
1110.1	18.0137
1114.49	40.4121
1118.88	285.361
1123.26	389.244
1127.64	60.3047
1132.02	209.981
1136.4	165.225
1140.78	215.932
1145.15	127.123
1149.52	177.111
1153.89	77.0996
1158.25	248.451
1162.61	262.947
1166.97	226.115
1171.33	21.9492
1175.68	318.805
1180.04	148.377
1184.39	255.619
1188.73	182.484
1193.08	202.027
1197.42	312.225
1201.76	70.0215
1206.1	88.4141
1210.43	96.4141
1214.76	165.018
1219.09	224.225
1223.41	266.035
1227.74	55.4492
1232.06	191.455
1236.38	219.06
1240.69	71.1172
1245.01	153.359
1249.32	107.832
1253.63	22.6289
1257.93	292.934
1262.23	81.6387
1266.54	69.3594
1270.83	58.3574
1275.13	29.6797
1279.42	37.5605
1283.71	4.03906
1288	11.2148
1292.28	157.023
1296.57	166.273
1300.85	257.59
1305.12	130.443
1309.4	279.83
1313.67	547.953
1317.94	107.416
1322.21	233.336
1326.47	483.713
1330.73	297.334
1334.99	386.685
1339.25	565.356
1343.5	349.533
1347.75	337.103
1352	424.027
1356.25	198.256
1360.49	390.934
1364.73	179.037
1368.97	36.332
1373.21	196.582
1377.44	297.94
1381.67	146.328
1385.9	124.498
1390.13	457.996
1394.35	173.93
1398.57	113.83
1402.79	299.883
1407	176.139
1411.22	120.25
1415.43	127.545
1419.63	221.123
1423.84	131.197
1428.04	211.742
1432.24	214.93
1436.44	131.879
1440.63	319.143
1444.83	494.082
1449.02	253.527
1453.2	193.529
1457.39	397.065
1461.57	263.137
1465.75	240.75
1469.93	10.7734
1474.1	206.678
1478.27	252.129
1482.44	163.859
1486.61	295.367
1490.77	426.822
1494.93	42.5918
1499.09	225.191
1503.25	16.084
1507.4	166.318
1511.55	222.322
1515.7	120.086
1519.85	278.846
1523.99	215.522
1528.13	23.1641
1532.27	136.023
1536.4	372.185
1540.54	126.814
1544.67	253.076
1548.8	395.832
1552.92	121.039
1557.05	88.1445
1561.16	1.89062
1565.28	0
