Measurement: Raman, 514 nm, ccw, Raman Data Processed
Mineral: Fluorapatite
Rruff sample: R050192
Ideal chemistry: Ca_5_(PO_4_)_3_F
Locality: Fulford, Eagle County, Colorado, USA
Source: Dave Bunk Minerals
Description: Pale green hexagonal prism
Measured chemistry: Ca_5.00_(P_1.00_O_4_)_3_(F_0.86_Cl_0.13_)
Pin_id: L00262
Orientation: Laser parallel to c* (0 0 1). Fiducial mark perpendicular to laser is parallel to b [0 1 0]
Raman shift (cm-1)	intensity
136.585	0
140.271	61.2825
143.956	51.5137
147.639	65.0584
151.321	113.83
155.002	46.9519
158.681	90.1184
162.359	80.1831
166.036	38.0066
169.711	76.1194
173.385	28.0115
177.058	4.19141
180.729	5.36353
184.399	13.7131
188.067	25.8718
191.734	75.8232
195.4	67.2959
199.064	109.725
202.727	36.0364
206.389	68.719
210.049	124.373
213.708	29.478
217.366	0.610352
221.022	5.28101
224.677	51.407
228.33	84.999
231.982	94.6387
235.633	112.575
239.282	91.7737
242.93	62.8281
246.577	50.864
250.222	156.035
253.866	146.53
257.508	179.812
261.149	173.456
264.789	219.774
268.427	204.539
272.064	145.975
275.7	154.508
279.334	145.538
282.967	93.0564
286.598	49.7344
290.229	63.7876
293.857	96.1763
297.485	108.827
301.111	121.77
304.735	131.965
308.358	149.233
311.98	140.655
315.601	100.791
319.22	80.2974
322.837	62.1721
326.454	90.0703
330.068	9.58496
333.682	47.5007
337.294	39.4294
340.905	0.588867
344.514	32.8127
348.122	26.6333
351.729	96.3784
355.334	78.4243
358.938	15.0798
362.54	12.2764
366.141	16.8472
369.741	23.9939
373.339	0.52002
376.936	39.0037
380.531	60.5193
384.126	71.1482
387.718	22.4656
391.31	107.715
394.9	13.6519
398.488	6.87988
402.075	73.5322
405.661	118.095
409.245	105.945
412.828	92.0537
416.41	142.013
419.99	165.025
423.569	180.847
427.146	195.726
430.722	297.164
434.297	442.33
437.87	508.256
441.442	595.637
445.012	630.945
448.581	651.976
452.149	454.857
455.715	367.279
459.28	313.903
462.843	219.654
466.405	112.843
469.965	98.1216
473.525	68.9883
477.082	117.277
480.639	120.148
484.194	90.291
487.747	104.945
491.3	3.53613
494.85	7.11963
498.4	55.8369
501.948	65.6152
505.494	16.4165
509.039	77.5659
512.583	4.88477
516.125	11.8926
519.666	86.4072
523.206	69.2749
526.744	18.373
530.281	8.45654
533.816	10.9648
537.35	2.73535
540.882	4.23682
544.413	123.908
547.943	58.3066
551.471	76.1362
554.998	26.5684
558.523	38.2398
562.047	112.016
565.57	130.652
569.091	250.842
572.611	364.203
576.129	703.263
579.646	801.979
583.162	578.039
586.676	290.171
590.188	215.245
593.7	250.542
597.209	195.455
600.718	355.058
604.225	452.878
607.73	583.6
611.235	561.544
614.737	416.157
618.239	235.458
621.739	218.091
625.237	135.043
628.734	97.1167
632.23	86.0107
635.724	134.54
639.217	63.5503
642.708	146.522
646.198	213.922
649.687	195.372
653.174	112.09
656.66	195.468
660.144	264.204
663.627	142.342
667.108	110.374
670.588	12.9512
674.067	0.467773
677.544	76.0635
681.02	79.8603
684.494	91.5156
687.967	90.7188
691.438	35.7139
694.908	114.544
698.377	50.1494
701.844	97.5977
705.31	12.7656
708.774	112.274
712.237	88.7227
715.698	95.5693
719.158	38.8594
722.617	61.7637
726.074	37.5107
729.53	143.202
732.984	84.6182
736.437	50.457
739.888	136.553
743.338	58.0312
746.787	298.83
750.234	149.731
753.68	21.6816
757.124	142.392
760.567	18.0371
764.008	6.10644
767.448	35.7002
770.887	109.909
774.324	55.4619
777.759	20.0869
781.194	54.1016
784.626	18.7256
788.058	48.9502
791.488	45.375
794.916	68.9424
798.343	357.818
801.769	85.6494
805.193	230.102
808.616	55.5977
812.037	173.417
815.457	165.648
818.875	192.355
822.292	230.721
825.707	87.4814
829.122	14.4463
832.534	101.671
835.945	106.988
839.355	62.0195
842.763	135.31
846.17	146.036
849.576	90.1602
852.98	18.5967
856.382	211.282
859.783	212.53
863.183	246.908
866.581	386.477
869.978	34.1006
873.373	164.899
876.767	92.3525
880.159	64.6289
883.55	155.18
886.94	25.9541
890.328	126.673
893.714	52.4258
897.1	23.2422
900.483	61.5322
903.866	180.925
907.246	19.0938
910.626	55.2227
914.004	312.238
917.38	78.3594
920.755	79.9668
924.129	135.11
927.501	52.6514
930.872	46.6758
934.241	106.088
937.609	192.287
940.975	410.82
944.34	432.676
947.703	857.539
951.065	1520.44
954.426	3623.11
957.785	8120.57
961.142	12441.8
964.499	10646
967.853	5549.46
971.207	2652.74
974.558	1291.55
977.909	785.451
981.258	249.988
984.605	143.277
987.951	169.207
991.295	107.117
994.639	91.2266
997.98	123.41
1001.32	80.7715
1004.66	226.869
1008	131.051
1011.33	134.978
1014.67	273.16
1018	212.26
1021.33	209.223
1024.66	389.58
1027.99	688.744
1031.32	542.352
1034.64	486.484
1037.97	126.324
1041.29	1.4668
1044.61	135.236
1047.93	207.75
1051.25	198.856
1054.56	381.781
1057.88	450.611
1061.19	577.6
1064.51	326.514
1067.82	78.0586
1071.13	432.025
1074.43	417.051
1077.74	316.246
1081.05	279.445
1084.35	117.082
1087.65	8.31445
1090.95	158.625
1094.25	136.773
1097.55	8.19922
1100.85	80.6602
1104.14	251.691
1107.43	60.4688
1110.73	56.0215
1114.02	154.379
1117.31	24.7715
1120.59	74.8262
1123.88	88.8965
1127.16	280.644
1130.45	51.1055
1133.73	87.9375
1137.01	318.076
1140.29	153.133
1143.57	88.1055
1146.84	299.603
1150.12	219.135
1153.39	109.193
1156.66	127.986
1159.93	157.238
1163.2	92.2852
1166.46	243.688
1169.73	295.727
1172.99	156.469
1176.26	162.315
1179.52	227.062
1182.78	24.4004
1186.04	196.217
1189.29	504.877
1192.55	140.209
1195.8	378.539
1199.05	321.338
1202.31	96.5996
1205.55	26.4707
1208.8	252.078
1212.05	166.516
1215.29	318.66
1218.54	190.734
1221.78	251.775
1225.02	355.393
1228.26	47.4648
1231.5	407.414
1234.73	464.81
1237.97	250.912
1241.2	509.496
1244.43	464.5
1247.66	419.875
1250.89	302.527
1254.12	224.871
1257.34	39.1914
1260.57	22.3594
1263.79	286.25
1267.01	203.82
1270.23	318.488
1273.45	144.445
1276.67	205.144
1279.88	201.887
1283.1	118.199
1286.31	41.3594
1289.52	0.3125
