Measurement: Raman, 514 nm, ccw, Raman Data Processed
Mineral: Fluor-uvite
Rruff sample: R050172
Ideal chemistry: CaMg_3_(Al_5_Mg)(Si_6_O_18_)(BO_3_)_3_(OH)_3_F
Locality: Pierrepont, New York, USA
Source: Marcus Origlieri
Description: Black prismatic crystal
Measured chemistry: (Ca_0.64_Na_0.36_)(Mg_0.56_Fe^2+^_0.34_Al_0.08_Ti_0.02_)_3_(Mg_1.00_Al_5.00_)(BO_3_)_3_Si_6.00_O_18_((OH)_3.45_F_0.55_)
Pin_id: L00240
Orientation: Laser parallel to -a* (-1 0 0). Fiducial mark perpendicular to laser is parallel to c [0 0 1]
Raman shift (cm-1)	intensity
168.01	0
172.151	71.585
176.29	42.246
180.427	47.288
184.562	289.709
188.696	673.937
192.827	1202.33
196.956	1904.91
201.084	2807.38
205.209	4422.72
209.333	5163.73
213.454	4834.35
217.574	3566.47
221.692	2659.05
225.808	2521.36
229.922	3800.29
234.034	5896.13
238.144	7932.36
242.252	7595.77
246.359	5058.3
250.463	2798.84
254.566	1570.21
258.666	1040.64
262.765	646.025
266.862	504.163
270.957	368.857
275.05	158.936
279.141	100.282
283.23	32.701
287.317	108.026
291.403	110.84
295.486	151.708
299.568	20.075
303.647	153.85
307.725	471.572
311.801	852.307
315.875	967.411
319.947	848.042
324.018	743.692
328.086	604.46
332.153	715.491
336.217	993.266
340.28	1435.35
344.341	1902.49
348.4	2556.46
352.457	3826.02
356.512	5857.08
360.566	8362.63
364.617	10327.5
368.667	10041.4
372.715	7854.61
376.761	5547.22
380.805	3851.34
384.847	2778.01
388.887	2109.84
392.926	1746.77
396.962	1538.33
400.997	1392.3
405.03	1201.83
409.061	1049.6
413.09	831.467
417.117	624.668
421.143	434.186
425.166	358.652
429.188	256.13
433.208	199.644
437.226	176.126
441.242	158.063
445.256	141.104
449.269	82.203
453.28	125.886
457.288	109.294
461.295	88.514
465.3	166.993
469.304	381.549
473.305	620.27
477.305	823.159
481.303	1018.78
485.298	1301.63
489.293	1251.53
493.285	1365.48
497.275	1310.35
501.264	951.14
505.251	830.835
509.236	691.435
513.219	553.942
517.2	439.417
521.18	403.879
525.157	415.94
529.133	483.779
533.107	495.261
537.079	446.774
541.05	369.338
545.018	247.961
548.985	183.625
552.95	60.368
556.913	43.169
560.875	0.006
564.834	2.168
568.792	3.673
572.748	4.501
576.702	41.556
580.654	21.742
584.605	37.998
588.553	13.742
592.5	45.776
596.445	47.168
600.389	0.08
604.33	1.65
608.27	121.409
612.208	114.418
616.144	258.326
620.078	568.666
624.011	836.629
627.941	1291.82
631.87	1434.97
635.798	1438.33
639.723	1864.76
643.647	2338.48
647.568	2493.2
651.488	2478.81
655.407	2663
659.323	3108.3
663.238	3493.86
667.151	3532.2
671.062	2967.79
674.971	2431.01
678.879	1954.47
682.785	1797.54
686.689	1814.75
690.591	2248.32
694.491	2851.39
698.39	3796.31
702.287	3995.69
706.182	2721.61
710.076	1580.37
713.968	810.837
717.857	463.71
721.746	303.742
725.632	220.83
729.517	174.047
733.4	147.85
737.281	136.273
741.16	153.998
745.038	201.168
748.913	208.449
752.788	322.65
756.66	375.958
760.531	338.823
764.399	232.887
768.267	251.87
772.132	188.703
775.996	217.377
779.857	194.882
783.718	182.21
787.576	160.357
791.433	120.321
795.288	115.092
799.141	97.665
802.992	123.032
806.842	64.195
810.69	38.139
814.536	15.857
818.381	43.337
822.223	26.583
826.065	10.43
829.904	9.237
833.741	3.604
837.577	19.747
841.412	44.283
845.244	19.724
849.075	29.342
852.904	0.522
856.731	13.274
860.556	23.359
864.38	33.575
868.202	55.489
872.023	43.709
875.842	12.956
879.658	62.966
883.474	45.76
887.287	60.23
891.099	85.605
894.909	64.844
898.718	100.942
902.524	125.879
906.329	119.659
910.133	132.305
913.934	155.766
917.734	179.036
921.532	252.114
925.329	239.003
929.124	243.706
932.917	300.221
936.708	343.55
940.498	347.694
944.286	378.262
948.072	509.668
951.857	602.428
955.64	692.338
959.421	766.912
963.201	783.397
966.979	744.71
970.755	733.546
974.529	737.223
978.302	696.852
982.073	698.524
985.843	717.094
989.611	750.485
993.377	730.99
997.141	793.093
1000.9	876.081
1004.66	958.13
1008.42	1164.96
1012.18	1380.35
1015.94	1567.69
1019.69	2013.62
1023.45	2300.63
1027.2	2645.42
1030.95	2808.59
1034.69	2940.99
1038.44	2983.43
1042.18	2985.3
1045.93	2862.89
1049.67	2675.59
1053.41	2420.13
1057.14	2212.32
1060.88	2110.03
1064.62	2027.16
1068.35	1786.23
1072.08	1664.38
1075.81	1547.53
1079.54	1287.63
1083.26	1120.43
1086.99	961.172
1090.71	850.859
1094.43	712.505
1098.15	637.185
1101.87	624.748
1105.59	535.266
1109.3	475.75
1113.01	414.21
1116.72	406.651
1120.43	298.124
1124.14	226.551
1127.85	182.98
1131.55	142.485
1135.26	111.157
1138.96	87.772
1142.66	99.552
1146.36	67.482
1150.05	28.366
1153.75	21.358
1157.44	60.433
1161.13	29.58
1164.82	31.803
1168.51	20.098
1172.2	27.602
1175.88	11.512
1179.57	24.354
1183.25	24.241
1186.93	25.825
1190.61	30.957
1194.28	18.014
1197.96	6.025
1201.63	4.908
1205.31	8.885
1208.98	3.874
1212.64	27.005
1216.31	21.879
1219.98	7.75
1223.64	0.323
1227.31	47.51
1230.97	33.334
1234.62	57.151
1238.28	44.957
1241.94	44.749
1245.59	28.541
1249.25	95.335
1252.9	65.133
1256.55	84.935
1260.2	84.74
1263.84	44.547
1267.49	36.374
1271.13	78.185
1274.77	58.999
1278.41	102.813
1282.05	42.637
1285.69	60.449
1289.32	41.322
1292.96	53.152
1296.59	31.49
1300.22	28.183
1303.85	55.08
1307.48	80.917
1311.1	40.009
1314.72	18.617
1318.35	59.302
1321.97	49.49
1325.59	37.384
1329.21	33.102
1332.82	1.038
1336.44	37.213
1340.05	33.846
1343.66	37.503
1347.27	53.288
1350.88	42.955
1354.49	14.432
1358.09	52.654
1361.7	38.868
1365.3	8.796
1368.9	35.672
1372.5	59.529
1376.1	33.822
1379.69	35.554
1383.29	33.934
1386.88	101.039
1390.47	87.787
1394.06	111.529
1397.65	84.202
1401.23	69.89
1404.82	45.367
1408.4	27.002
1411.98	56.459
1415.56	47.007
1419.14	70.527
1422.72	53.744
1426.3	73.356
1429.87	56.007
1433.44	30.518
1437.01	4.133
1440.58	7.789
1444.15	30.856
1447.71	6.417
1451.28	21.526
1454.84	30.541
1458.4	32.662
1461.96	40.803
1465.52	32.969
1469.08	66.139
1472.64	21.408
1476.19	7.726
1479.74	30.974
1483.29	60.12
1486.84	58.88
1490.39	35.738
1493.94	6.564
1497.48	51.179
1501.02	62.363
1504.57	81.077
1508.11	10.814
1511.64	71.334
1515.18	47.422
1518.72	25.724
1522.25	37.591
1525.78	0
