Measurement: Raman, 514 nm, ccw, Raman Data Processed
Mineral: Fluorite
Rruff sample: R050115
Ideal chemistry: CaF_2_
Locality: Isthak Valley Iskardu, N.A. Gilgit, Pakistan
Source: Syed Shah
Description: Colorless fragment
Measured chemistry: CaF_2_
Pin_id: L00441
Orientation: Laser parallel to -a* (-1 0 0). Fiducial mark perpendicular to laser is parallel to b [0 1 0]
Raman shift (cm-1)	intensity
101.812	0
105.994	22.427
110.174	65.843
114.351	132.102
118.527	163.326
122.701	189.656
126.873	224.672
131.042	426.119
135.21	1033.47
139.376	2587.99
143.539	4109.05
147.701	4008.31
151.861	1382.15
156.018	424.52
160.174	423.29
164.327	575.588
168.479	226.271
172.628	8.259
176.776	10.566
180.922	26.787
185.065	30.406
189.207	104.167
193.346	24.664
197.484	8.917
201.619	32.536
205.753	64.411
209.884	145.396
214.014	320.462
218.141	733.679
222.267	1520.88
226.391	1638.82
230.512	1285.52
234.632	1447.02
238.749	2131.72
242.865	2378.74
246.979	1436.06
251.09	1295.63
255.2	1284.41
259.308	2343.37
263.414	2552.02
267.517	1458.72
271.619	1164.1
275.719	1116.37
279.817	1349.02
283.913	1374.88
288.007	1405.74
292.099	1259.73
296.189	1206.52
300.277	1023.82
304.363	951.799
308.447	916.398
312.529	888.795
316.609	842.662
320.687	791.021
324.764	854.022
328.838	745.473
332.91	874.197
336.981	939.535
341.049	885.405
345.116	948.149
349.18	972.458
353.243	1008.19
357.304	973.822
361.362	1039.44
365.419	972.126
369.474	835.436
373.527	655.479
377.578	716.487
381.627	542.765
385.674	533.208
389.719	377.988
393.762	301.842
397.804	209.885
401.843	128.298
405.881	120.969
409.916	62.484
413.95	38.097
417.981	44.881
422.011	113.026
426.039	42.932
430.065	34.134
434.089	43.431
438.111	78.791
442.131	141.836
446.149	212.566
450.166	187.097
454.18	35
458.193	138.087
462.203	106.265
466.212	184.543
470.219	142.443
474.224	228.688
478.227	371.048
482.228	482.312
486.227	695.926
490.224	771.075
494.22	819.312
498.213	728.431
502.205	628.552
506.194	506.568
510.182	403.646
514.168	526.189
518.152	503.246
522.134	369.067
526.114	259.054
530.093	265.411
534.069	251.119
538.044	229.156
542.017	191.512
545.987	245.164
549.956	154.112
553.923	206.338
557.889	228.848
561.852	217.63
565.813	226.679
569.773	289.255
573.731	355.998
577.686	200.426
581.64	212.473
585.593	282.45
589.543	234.161
593.491	252.125
597.438	286.907
601.382	269.724
605.325	256.655
609.266	203.465
613.205	163.833
617.142	155.311
621.078	69.896
625.011	214.707
628.943	66.626
632.872	92.628
636.8	133.581
640.726	163.504
644.651	33.406
648.573	45.094
652.494	67.286
656.412	144.277
660.329	285.186
664.244	1081.32
668.157	1239.36
672.069	840.758
675.978	485.392
679.886	685.365
683.792	1364.13
687.696	2070.11
691.598	2215.95
695.498	1380.86
699.397	1018.42
703.293	883.186
707.188	1088.97
711.081	1040.25
714.972	768.182
718.862	626.553
722.749	471.693
726.635	305.344
730.519	237.344
734.401	98.303
738.281	118.398
742.16	4.708
746.036	48.086
749.911	4.646
753.784	56.983
757.655	312.048
761.525	535.341
765.392	456.313
769.258	463.859
773.122	519.268
776.984	929.431
780.844	1257.06
784.703	1361.52
788.56	1622.86
792.415	1863.7
796.268	2198.24
800.119	2802.37
803.969	3254.19
807.816	3280.74
811.662	3101.05
815.506	3038.55
819.349	2987.04
823.189	3559.71
827.028	4311.63
830.865	6087.79
834.7	9443.49
838.534	6256.28
842.365	5442.56
846.195	6869.43
850.023	8955.24
853.85	9828.76
857.674	11001.3
861.497	13753.2
865.318	17354.6
869.137	21765.5
872.955	24545.9
876.77	23905.7
880.584	21373.7
884.396	18066.8
888.207	15177.4
892.015	12865.9
895.822	10768.7
899.627	8905.13
903.43	7959.33
907.232	11831.5
911.032	34156.8
914.83	14443.3
918.626	12058.4
922.42	20134.8
926.213	30120.7
930.004	21357.1
933.793	15233.6
937.581	24590.1
941.366	11416.9
945.15	28874.2
948.932	43422.1
952.713	9800.45
956.491	3279.22
960.268	2718.26
964.044	797.547
967.817	17.006
971.589	314.076
975.359	636.924
979.127	572.244
982.893	249.883
986.658	99.432
990.421	90.275
994.183	68.076
997.942	26.473
1001.7	685.176
1005.46	874.33
1009.21	1243.97
1012.96	1694.14
1016.71	1904.89
1020.46	2066.26
1024.21	2208.26
1027.96	2270.93
1031.7	2794.28
1035.44	2958.43
1039.18	3523.42
1042.92	3519.32
1046.66	3646.31
1050.39	3894.65
1054.13	3784.49
1057.86	4145.65
1061.59	4137.86
1065.32	3901.06
1069.05	3605.28
1072.77	3150.55
1076.49	2926.89
1080.22	3024.32
1083.94	2982.89
1087.65	3362.6
1091.37	3453.49
1095.09	3035.58
1098.8	3028.88
1102.51	2963.42
1106.22	3099.22
1109.93	3186.29
1113.63	3364.67
1117.34	3423.61
1121.04	3147.15
1124.74	2677
1128.44	2571.63
1132.14	2667.64
1135.84	2935.19
1139.53	3269.23
1143.22	3057.73
1146.91	2807.72
1150.61	3003.09
1154.29	2740.3
1157.98	2089.82
1161.66	2580.78
1165.35	2126.32
1169.03	2613.13
1172.71	2260.21
1176.38	2018.91
1180.06	1509.6
1183.73	1142.28
1187.41	876.936
1191.08	903.596
1194.75	642.27
1198.41	1023.02
1202.08	1095.91
1205.74	960.895
1209.41	707.936
1213.07	427.066
1216.73	448.316
1220.38	611.666
1224.04	567.104
1227.69	844.627
1231.35	1264.24
1235	895.926
1238.65	879.51
1242.3	595.006
1245.94	702.438
1249.59	881.832
1253.23	963.215
1256.87	1326.59
1260.51	1631.97
1264.15	1489.46
1267.78	1420.56
1271.42	1061.38
1275.05	1135.61
1278.68	1092.39
1282.31	565.383
1285.94	451.156
1289.56	689.508
1293.19	600.029
1296.81	732.68
1300.43	207.432
1304.05	184.275
1307.67	216.775
1311.29	175.744
1314.9	42.592
1318.52	382.732
1322.13	1010.26
1325.74	1349.13
1329.34	1238.2
1332.95	1239.11
1336.56	1302.08
1340.16	1497.09
1343.76	1835.08
1347.36	2469.22
1350.96	3980.18
1354.56	6493.98
1358.15	13841.3
1361.74	20347.2
1365.34	15169.2
1368.93	6508.39
1372.52	3628.44
1376.1	3481.98
1379.69	3902.35
1383.27	3262.59
1386.85	3196.01
1390.43	4362.62
1394.01	9832.43
1397.59	14324.5
1401.17	6737.94
1404.74	2544.02
1408.31	312.744
1411.88	396.545
1415.45	536.373
1419.02	473.537
1422.59	174.922
1426.15	2505.82
1429.71	3149.2
1433.28	1354.65
1436.84	502.057
1440.39	1071.52
1443.95	2403.01
1447.5	2716.72
1451.06	1993.17
1454.61	773.6
1458.16	457.92
1461.71	1286.2
1465.26	2485.94
1468.8	1759.43
1472.34	955.746
1475.89	621.389
1479.43	778.412
1482.97	536.371
1486.5	464.482
1490.04	370.967
1493.57	57.705
1497.11	51.549
1500.64	62.412
1504.17	208.836
1507.69	277.541
1511.22	333.74
1514.74	541.275
1518.27	0
