Measurement: Raman, 514 nm, ccw, Raman Data Processed
Mineral: Fluorapatite
Rruff sample: R050617
Ideal chemistry: Ca_5_(PO_4_)_3_F
Locality: Santa Cruz, Sonora, Mexico
Source: University of Arizona Mineral Museum
Description: Tan colored hexagonal prism
Measured chemistry: Ca_5.00_(P_1.00_O_4_)_3_(F_0.99_Cl_0.01_)
Pin_id: L01712
Orientation: Laser parallel to c* (0 0 1). Fiducial mark perpendicular to laser is parallel to -b [0 -1 0]
Raman shift (cm-1)	intensity
105.815	0
110.744	53.2304
115.671	7.599
120.596	59.2157
125.519	120.752
130.439	302.094
135.356	306.724
140.271	352.376
145.184	305.553
150.094	274.641
155.002	287.069
159.908	272.333
164.811	176.642
169.711	143.187
174.61	61.9559
179.505	54.397
184.399	60.3229
189.29	55.0546
194.178	3.21143
199.064	36.0708
203.948	64.3962
208.829	69.3643
213.708	9.92602
218.585	96.3645
223.459	56.3926
228.33	49.3318
233.199	144.34
238.066	118.903
242.93	103.148
247.792	82.6589
252.651	117.6
257.508	158.833
262.363	236.584
267.215	246.781
272.064	268.122
276.912	95.8757
281.756	78.1018
286.598	75.9143
291.438	63.3748
296.276	64.4587
301.111	160.154
305.943	176.45
310.773	206.293
315.601	127.694
320.426	57.6467
325.248	27.6506
330.068	32.5964
334.886	24.2034
339.701	38.5583
344.514	106.793
349.324	49.5068
354.132	3.43213
358.938	11.4402
363.741	66.7163
368.541	45.583
373.339	28.4658
378.135	34.2136
382.928	12.3547
387.718	97.3257
392.506	72.9072
397.292	85.2561
402.075	68.0129
406.856	28.0283
411.634	88.2341
416.41	124.52
421.183	187.468
425.954	245.615
430.722	352.601
435.488	518.678
440.251	647.33
445.012	760.307
449.77	652.535
454.526	381.059
459.28	283.203
464.03	162.172
468.779	157.358
473.525	117.567
478.268	58.8227
483.009	37.0981
487.747	57.5772
492.483	33.3232
497.217	105.251
501.948	80.5068
506.676	44.4883
511.402	70.4639
516.125	17.4893
520.846	71.7085
525.565	7.58154
530.281	19.1494
534.994	106.16
539.705	84.3267
544.413	19.1333
549.119	114.668
553.822	67.7251
558.523	12.3652
563.222	18.8804
567.917	200.226
572.611	496.69
577.302	749.735
581.99	765.519
586.676	349.732
591.359	303.536
596.04	254.691
600.718	457.91
605.394	528.979
610.067	453.417
614.737	374.147
619.406	118.035
624.071	198
628.734	187.803
633.395	19.3545
638.053	10.04
642.708	116.759
647.361	29.7324
652.012	46.6704
656.66	95.9658
661.305	87.2935
665.948	80.6675
670.588	133.003
675.226	124.602
679.861	35.9648
684.494	7.68604
689.124	110.933
693.752	2.06543
698.377	75.9277
702.999	4.49365
707.619	157.146
712.237	164.957
716.852	77.1045
721.464	119.751
726.074	109.327
730.681	23.9053
735.286	70.4268
739.888	197.712
744.488	86.8008
749.085	155.536
753.68	186.375
758.272	10.2305
762.861	89.9092
767.448	71.8193
772.033	197.073
776.614	194.716
781.194	93.4316
785.77	185.545
790.345	174.961
794.916	214.085
799.485	203.186
804.052	125.299
808.616	157.963
813.177	100.647
817.736	145.827
822.292	44.8848
826.846	163.216
831.397	138.908
835.945	58.8438
840.491	106.322
845.035	133.466
849.576	201.387
854.114	50.5938
858.65	30.1953
863.183	48.956
867.713	152.301
872.241	148.753
876.767	80.999
881.29	89.5147
885.81	192.738
890.328	87.2969
894.843	87.9961
899.356	25.1904
903.866	38.8193
908.373	29.2314
912.878	144.78
917.38	21.4619
921.88	29.8535
926.377	197.367
930.872	131.784
935.364	18.1797
939.853	153.776
944.34	448.83
948.824	829.699
953.306	1770.28
957.785	8023.79
962.261	13502
966.735	10857.5
971.207	2615.09
975.675	956.811
980.141	191.791
984.605	292.715
989.066	194.539
993.524	3.46875
997.98	213.818
1002.43	135.869
1006.88	75.4941
1011.33	13.5742
1015.78	367.76
1020.22	228.057
1024.66	231.197
1029.1	422.357
1033.53	580.771
1037.97	326.685
1042.4	270.076
1046.82	172.252
1051.25	171.887
1055.67	533.102
1060.09	658.002
1064.51	350.106
1068.92	139.371
1073.33	353.967
1077.74	376.83
1082.15	454.365
1086.55	84.4023
1090.95	182.815
1095.35	75.8125
1099.75	189.967
1104.14	130.012
1108.53	292.629
1112.92	15.7539
1117.31	10.998
1121.69	207.926
1126.07	125.561
1130.45	122.211
1134.82	357.35
1139.19	82.7109
1143.57	269.91
1147.93	333.852
1152.3	20.8105
1156.66	46.5254
1161.02	308.986
1165.38	184.147
1169.73	84.7461
1174.08	198.574
1178.43	44.0293
1182.78	112.178
1187.12	203.731
1191.46	393.934
1195.8	268.197
1200.14	255.387
1204.47	270.244
1208.8	69.9375
1213.13	370.33
1217.46	236.094
1221.78	481.26
1226.1	264.191
1230.42	492.084
1234.73	371.502
1239.04	378.522
1243.35	213.674
1247.66	343.49
1251.97	307.785
1256.27	187.902
1260.57	67.0898
1264.86	271.387
1269.16	49.8945
1273.45	288.086
1277.74	238.039
1282.03	29.8203
1286.31	392.938
1290.59	259.879
1294.87	190.176
1299.14	251.348
1303.42	83.418
1307.69	246.402
1311.95	122.414
1316.22	201.445
1320.48	196.266
1324.74	223.32
1329	306.527
1333.26	238.102
1337.51	362.598
1341.76	288.281
1346	248.996
1350.25	503.387
1354.49	205.168
1358.73	329.414
1362.96	242.902
1367.2	266.16
1371.43	304.961
1375.66	232.914
1379.88	133.188
1384.11	274.633
1388.33	203.848
1392.54	174.375
1396.76	186.617
1400.97	114.766
1405.18	323.082
1409.39	248.531
1413.59	178.676
1417.8	504.375
1421.99	378.984
1426.19	262.926
1430.38	64.7656
1434.58	172.043
1438.77	79.7656
1442.95	239.668
1447.13	169.848
1451.32	198.445
1455.49	365.559
1459.67	330.867
1463.84	449.266
1468.01	410.914
1472.18	297.191
1476.35	593.637
1480.51	325.711
1484.67	358.281
1488.83	196.883
1492.98	463.125
1497.13	621.836
1501.28	701.035
1505.43	482.227
1509.57	451.316
1513.71	558.246
1517.85	259.781
1521.99	369.051
1526.12	354.707
1530.25	363.988
1534.38	106.016
1538.5	429.711
1542.62	159.363
1546.74	30.6484
1550.86	209.832
1554.98	318.039
1559.09	446.336
1563.2	209.398
1567.31	338.519
1571.41	0
