Measurement: Raman, 514 nm, ccw, Raman Data Processed
Mineral: Fluor-buergerite
Rruff sample: R060132
Ideal chemistry: NaFe^3+^_3_Al_6_(Si_6_O_18_)(BO_3_)_3_O_3_F
Locality: 20 km. south of San Luis Potasi, Mexico
Source: University of Arizona Mineral Museum
Description: Brown short prismatic
Measured chemistry: (Na_0.87_Ca_0.03_[box]_0.10_)(Fe^3+^_0.82_Al_0.12_Mg_0.04_Ti_0.02_)_3_Al_6_(BO_3_)_3_(Si_0.98_Al_0.02_)_6_O_18_(O_0.66_F_0.19_(OH)_0.15_)_4_
Pin_id: L00828
Orientation: Laser parallel to -c* (0 0 -1). Fiducial mark perpendicular to laser is parallel to -a [-1 0 0]
Raman shift (cm-1)	intensity
131.668	0
136.585	131.746
141.5	252.913
146.412	303.094
151.321	721.579
156.229	1081.44
161.134	776.288
166.036	1410.74
170.936	1487.57
175.834	1537.51
180.729	1951.26
185.622	2001.72
190.512	2021.04
195.4	2185.67
200.286	2213.11
205.169	1491.61
210.049	288.918
214.928	342.665
219.803	55.25
224.677	104.21
229.548	144.398
234.416	60.7617
239.282	12.2441
244.146	430.248
249.007	1028.76
253.866	1997.06
258.722	3371.49
263.576	3492.64
268.427	3367.21
273.276	3966.21
278.123	3941.73
282.967	3090.21
287.809	2167.32
292.648	2077.28
297.485	2119.65
302.319	1820.33
307.151	1377.79
311.98	1292.59
316.807	1315.17
321.631	2030.46
326.454	2233.26
331.273	2364.14
336.09	1862.52
340.905	1670.88
345.717	2269.22
350.527	2578.55
355.334	2343.85
360.139	1882.59
364.941	1658.01
369.741	1565.19
374.538	1248.33
379.333	671.398
384.126	1010.05
388.916	1565.81
393.703	2600.3
398.488	3592.93
403.271	4163.23
408.051	3634.7
412.828	2513.34
417.603	913.18
422.376	69.2383
427.146	358.758
431.914	223.713
436.679	173.809
441.442	846.574
446.202	1461.75
450.96	2316.4
455.715	2985.56
460.467	3225.27
465.218	3318.57
469.965	2580.51
474.711	1785.17
479.454	928.586
484.194	624.773
488.932	46.7344
493.667	131.467
498.4	173.975
503.13	263.266
507.858	1529.56
512.583	1527.86
517.306	1326.7
522.026	676.092
526.744	60.584
531.459	217.451
536.172	88.6289
540.882	93.418
545.59	894.266
550.295	1478.61
554.998	2089.72
559.698	2148.75
564.396	2306.64
569.091	2484.16
573.784	3070.93
578.474	3662.97
583.162	4403.33
587.847	5503.85
592.529	7178.35
597.209	9697.45
601.887	13043.3
606.562	16686.8
611.235	19831.8
615.905	22459.1
620.572	25145.8
625.237	28371.7
629.9	32667.7
634.56	37786.6
639.217	38961.5
643.872	34311.2
648.524	27163.8
653.174	22873
657.821	19143.9
662.466	14422.3
667.108	10738.2
671.748	7876.32
676.385	5304.41
681.02	2571.63
685.652	1150.71
690.281	625.178
694.908	665.766
699.533	1116.31
704.155	1428.25
708.774	1681.33
713.391	1576.46
718.005	1145.24
722.617	967.588
727.226	834.425
731.833	997.598
736.437	804.4
741.039	770.017
745.638	1149.9
750.234	1918.27
754.828	2452.68
759.419	2223.3
764.008	1581.61
768.595	1027.57
773.178	942.255
777.759	1036.54
782.338	1758.89
786.914	2906.25
791.488	3153.56
796.059	1823.75
800.627	915.776
805.193	651.567
809.756	630.344
814.317	249.19
818.875	33.7891
823.431	228.516
827.984	167.289
832.534	140.856
837.082	167.573
841.627	93.4277
846.17	64.293
850.71	9.13965
855.248	123.428
859.783	9.67871
864.316	65.8369
868.846	447.339
873.373	73.6348
877.898	216.27
882.42	385.512
886.94	334.59
891.457	456.449
895.971	498.226
900.483	618.974
904.993	631.824
909.5	1086.07
914.004	887.729
918.505	1019.85
923.004	1167.3
927.501	1262.93
931.995	1418.85
936.486	1653.07
940.975	1739.46
945.461	1918.03
949.945	1975.81
954.426	2253.33
958.904	2348.74
963.38	2546.13
967.853	2587.66
972.324	2635.3
976.792	2755.2
981.258	2695.75
985.72	2878.69
990.181	2732.5
994.639	2716.29
999.094	2678.18
1003.55	2728.36
1008	2999.1
1012.44	3250.38
1016.89	3279.24
1021.33	3199.71
1025.77	3078.41
1030.21	2979.5
1034.64	2390.41
1039.07	2304.49
1043.5	2219.75
1047.93	2041.3
1052.35	2510.56
1056.78	2876.3
1061.19	3174.42
1065.61	3088.45
1070.02	2784.81
1074.43	2309.77
1078.84	1907.26
1083.25	1868.67
1087.65	1720.7
1092.05	1549.89
1096.45	1602.93
1100.85	1382.96
1105.24	1289.12
1109.63	1317.43
1114.02	1116.81
1118.4	1051.21
1122.78	881.488
1127.16	498.49
1131.54	439.123
1135.92	379.111
1140.29	175.424
1144.66	66.1797
1149.02	175.287
1153.39	32.5898
1157.75	88.8125
1162.11	1.10352
1166.46	43.1758
1170.82	74.2871
1175.17	26.7949
1179.52	53.2715
1183.86	76.9375
1188.21	36.4258
1192.55	27.668
1196.89	78.1328
1201.22	59.1523
1205.55	48.7109
1209.88	78.6231
1214.21	183.838
1218.54	344.361
1222.86	436.207
1227.18	650.428
1231.5	1103.99
1235.81	1799.87
1240.12	2397.05
1244.43	2950.48
1248.74	3095.41
1253.04	3033.2
1257.34	3039.48
1261.64	3303
1265.94	3348.72
1270.23	3138.62
1274.52	2914.69
1278.81	2851.92
1283.1	3190.78
1287.38	3511.44
1291.66	3654.04
1295.94	3398.2
1300.21	2934.59
1304.48	2843.14
1308.75	2946.78
1313.02	2923.18
1317.29	2759.9
1321.55	2599.05
1325.81	2338.94
1330.06	2406.72
1334.32	2227.76
1338.57	2328.37
1342.82	2045.05
1347.06	2156.96
1351.31	2173.91
1355.55	1885.54
1359.79	1657.79
1364.02	1700.4
1368.26	1368.61
1372.49	1326.21
1376.71	1071.79
1380.94	859.607
1385.16	678.629
1389.38	724.961
1393.6	735.002
1397.81	695.307
1402.02	682.416
1406.23	583.064
1410.44	520.158
1414.64	276.451
1418.85	363.727
1423.04	219.109
1427.24	103.33
1431.43	113.35
1435.62	257.387
1439.81	30.9297
1444	223.647
1448.18	135.143
1452.36	99.9609
1456.54	92.1934
1460.71	92.9394
1464.89	151.213
1469.06	261.516
1473.22	186.969
1477.39	131.328
1481.55	87.625
1485.71	253.102
1489.86	168.857
1494.02	218.959
1498.17	233.24
1502.32	11.3887
1506.46	221.961
1510.61	218.902
1514.75	199.641
1518.88	263.834
1523.02	367.873
1527.15	221.789
1531.28	105.352
1535.41	231.598
1539.53	176.598
1543.66	13.1562
1547.78	403.184
1551.89	267.273
1556.01	437.522
1560.12	35.0547
1564.23	1.41016
1568.33	2.05469
