Measurement: Raman, 514 nm, ccw, Raman Data Processed
Mineral: Fluorophlogopite
Rruff sample: R040075
Ideal chemistry: KMg_3_(Si_3_Al)O_10_F_2_
Locality: unknown
Source: University of Arizona Mineral Museum
Description: Green hexagonal tablet
Measured chemistry: (K_0.93_[box]_0.04_Na_0.03_)(Mg_0.66_Fe_0.30_Ti_0.02_)_3_(Si_0.75_Al_0.25_)_4_O_10_(F_0.90_(OH)_0.06_Cl_0.04_)
Pin_id: L00455
Orientation: Laser parallel to [1 0 1]. Fiducial mark perpendicular to laser is parallel to b* (0 1 0)
Raman shift (cm-1)	intensity
158.679	0
162.839	190.461
166.996	129.515
171.152	462.196
175.305	779
179.456	1290.8
183.605	2026.92
187.752	2498.82
191.898	2400.88
196.041	1816.14
200.182	1259.83
204.321	887.04
208.457	664.295
212.592	528.425
216.725	399.169
220.856	334.218
224.984	206.264
229.111	140.972
233.236	182.998
237.358	31.829
241.479	23.869
245.597	31.97
249.713	17.839
253.828	47.332
257.94	28.351
262.05	5.121
266.159	56.188
270.265	103.906
274.369	227.42
278.471	272.488
282.572	220.041
286.67	146.843
290.766	154.045
294.86	105.892
298.952	148.163
303.042	185.329
307.13	210.286
311.216	265.388
315.3	331.763
319.382	364.169
323.462	300.02
327.54	325.725
331.616	360.106
335.69	392.952
339.762	396.361
343.832	336.454
347.9	426.167
351.965	472.4
356.029	521.317
360.091	560.551
364.151	556.689
368.209	545.029
372.265	543.049
376.319	625.101
380.371	637.062
384.421	631.154
388.469	638.206
392.515	591.923
396.559	673.94
400.601	740.885
404.641	669.455
408.679	633.123
412.715	573.671
416.749	532.062
420.781	430.424
424.811	280.09
428.839	272.583
432.866	133.253
436.89	109.786
440.912	64.023
444.932	51.991
448.951	23.758
452.967	7.509
456.981	16.879
460.994	10.202
465.004	66.954
469.013	68.085
473.019	62.69
477.024	27.734
481.026	88.139
485.027	147.12
489.026	120.955
493.023	253.727
497.017	372.297
501.01	323.646
505.001	416.343
508.99	521.656
512.977	519.215
516.962	505.732
520.945	524.973
524.927	530.169
528.906	532.413
532.883	661.732
536.858	650.176
540.832	673.776
544.803	619.515
548.773	661.373
552.741	680.323
556.706	639.376
560.67	606.538
564.632	523.879
568.592	401.487
572.55	346.368
576.506	250.731
580.46	165.852
584.412	143.446
588.363	93.247
592.311	64.726
596.258	70.122
600.202	16.225
604.145	16.143
608.086	86.617
612.024	123.078
615.961	158.263
619.896	241.815
623.829	274.289
627.761	386.289
631.69	423.546
635.617	378.637
639.543	458.597
643.466	544.374
647.388	622.974
651.308	679.901
655.226	856.886
659.142	1033.93
663.056	1398.79
666.968	1890.44
670.879	2397.59
674.787	3133.21
678.694	3839.2
682.598	3832.04
686.501	3349.05
690.402	2641.72
694.301	2280.09
698.198	2098.89
702.093	2243.59
705.987	2485.22
709.878	2719.56
713.768	3166.2
717.656	3420.99
721.542	3432.52
725.426	3401.05
729.308	3126.57
733.188	2888.07
737.067	2476.56
740.943	2290.02
744.818	2113.45
748.691	1974.86
752.562	1850.17
756.431	1865.29
760.298	1999.64
764.163	2098.98
768.027	2178.3
771.888	2097.51
775.748	1929.95
779.606	1706.3
783.462	1434.74
787.317	1176.24
791.169	918.748
795.019	691.218
798.868	548.64
802.715	508.01
806.56	337.325
810.403	175.583
814.245	20.782
818.084	24.9
821.922	28.102
825.758	12.673
829.592	25.25
833.424	64.367
837.254	92.324
841.082	69.689
844.909	7.438
848.734	80.563
852.557	13.087
856.378	17.093
860.197	27.82
864.015	20.075
867.831	49.917
871.645	102.076
875.457	128.391
879.267	132.038
883.075	89.62
886.882	240.138
890.687	308.589
894.49	380.001
898.291	380.365
902.09	322.668
905.888	488.912
909.683	493.117
913.477	515.28
917.269	527.379
921.06	568.927
924.848	530.391
928.635	540.305
932.42	567.157
936.203	559.947
939.984	573.676
943.764	518.345
947.541	443.959
951.317	582.511
955.091	562
958.864	534.43
962.634	510.801
966.403	458.88
970.17	513.387
973.935	519.732
977.698	454.146
981.46	438.059
985.22	411.64
988.978	548.379
992.734	516.145
996.488	483.763
1000.24	500.233
1003.99	431.021
1007.74	430.518
1011.49	446.623
1015.23	482.708
1018.98	402.064
1022.72	432.131
1026.46	579.23
1030.2	602.61
1033.93	624.665
1037.67	619.518
1041.4	611.37
1045.13	577.974
1048.86	626.993
1052.59	590.333
1056.32	652.96
1060.04	676.315
1063.77	652.814
1067.49	594.341
1071.2	626.754
1074.92	630.371
1078.64	582.009
1082.35	637.593
1086.06	608.292
1089.78	659.85
1093.48	639.475
1097.19	608.976
1100.89	497.503
1104.6	463.236
1108.3	409.074
1112	289.732
1115.7	197.371
1119.39	173.104
1123.09	172.651
1126.78	176.37
1130.47	152.084
1134.16	67.079
1137.85	103.474
1141.54	118.729
1145.22	41.934
1148.9	12.887
1152.58	6.946
1156.26	1.179
1159.94	4.988
1163.62	13.395
1167.29	20.901
1170.96	25.686
1174.63	13.199
1178.3	0.886
1181.97	73.208
1185.63	68.372
1189.3	0.103
1192.96	13.281
1196.62	55.499
1200.28	22.021
1203.93	19.396
1207.59	30.545
1211.24	63.572
1214.89	88.179
1218.54	96.098
1222.19	38.746
1225.84	87.199
1229.48	108.561
1233.13	65.251
1236.77	47.589
1240.41	59.838
1244.05	75.107
1247.68	19.221
1251.32	18.534
1254.95	52.658
1258.58	124.69
1262.21	93.768
1265.84	101.631
1269.46	78.52
1273.09	109.365
1276.71	72.718
1280.33	37.005
1283.95	88.052
1287.57	290.989
1291.18	7.75
1294.8	44.314
1298.41	83.648
1302.02	45.916
1305.63	49.957
1309.24	32.146
1312.84	9.729
1316.45	41.659
1320.05	31.958
1323.65	43.774
1327.25	80.33
1330.85	121.021
1334.44	66.862
1338.04	2.477
1341.63	35.611
1345.22	17.618
1348.81	45.247
1352.4	46.124
1355.98	81.757
1359.57	109.206
1363.15	69.683
1366.73	97.218
1370.31	95.077
1373.89	31.551
1377.46	29.329
1381.04	103.329
1384.61	85.314
1388.18	106.573
1391.75	123.95
1395.32	71.253
1398.88	119.519
1402.45	67.91
1406.01	135.767
1409.57	112.531
1413.13	68.515
1416.69	95.259
1420.24	111.013
1423.8	155.24
1427.35	108.623
1430.9	96.924
1434.45	99.106
1438	174.881
1441.55	157.451
1445.09	136.004
1448.63	163.051
1452.18	157.147
1455.71	83.01
1459.25	135.474
1462.79	181.44
1466.32	124.901
1469.86	172.29
1473.39	130.497
1476.92	100.903
1480.45	135.131
1483.97	200.895
1487.5	70.285
1491.02	102.797
1494.54	20.736
1498.06	98.311
1501.58	79.605
1505.1	56.924
1508.62	66.62
1512.13	3.611
1515.64	100.893
1519.15	0
