Measurement: Raman, 514 nm, ccw, Raman Data Processed
Mineral: Fluorite
Rruff sample: R050046
Ideal chemistry: CaF_2_
Locality: Shangbao, Lei Yang, Hunan Province, China
Source: Eugene Schlepp
Description: Pale purple crystal
Measured chemistry: Ca_1.000_ F_2.000_
Pin_id: L01404
Orientation: Laser parallel to c* (0 0 1). Fiducial mark perpendicular to laser is parallel to b [0 1 0]
Raman shift (cm-1)	intensity
168.104	0
173.013	64.3574
177.92	181.936
182.823	27.6924
187.725	205.566
192.623	403.703
197.52	633
202.413	655.184
207.305	323.573
212.193	452.475
217.079	419.361
221.963	528.028
226.844	565.067
231.723	414.703
236.599	454.851
241.472	552.408
246.343	367.652
251.211	452.139
256.077	411.525
260.94	151.571
265.801	164.133
270.66	170.703
275.515	110.324
280.368	44.4824
285.219	102.094
290.067	180.334
294.913	549.74
299.756	635.01
304.596	667.346
309.434	1529.65
314.27	3528.68
319.102	5815.78
323.933	4603.65
328.76	2309.49
333.586	1073.28
338.408	747.857
343.229	816.113
348.046	733.961
352.861	738.348
357.674	632.221
362.484	762.543
367.291	587.887
372.096	578.377
376.898	481.873
381.698	476.922
386.495	418.217
391.29	492.947
396.082	211.967
400.872	389.938
405.659	240.951
410.443	57.5762
415.225	93.3496
420.005	185.732
424.782	13.1621
429.556	166.783
434.328	234.178
439.097	349.535
443.864	482.156
448.628	400.777
453.389	642.9
458.148	424.219
462.905	314.496
467.659	410.305
472.41	227.086
477.159	481.147
481.905	601.473
486.649	726.982
491.39	1005.69
496.129	881.648
500.865	585.795
505.598	387.926
510.329	372.539
515.057	125.061
519.783	205.658
524.506	127.697
529.227	102.381
533.945	52.0977
538.661	7.86328
543.374	40.0312
548.084	35.8223
552.792	148.875
557.498	50.9941
562.2	68.7031
566.901	101.062
571.598	144.582
576.293	82.9082
580.986	7.66602
585.676	28.9473
590.363	42.207
595.048	1.95508
599.731	140.371
604.41	260.713
609.088	278.164
613.762	433.668
618.434	679.525
623.104	803.221
627.771	596.508
632.435	610.57
637.097	523.16
641.756	489.875
646.413	474.301
651.067	313.428
655.719	142.91
660.368	252.592
665.014	584.312
669.658	414.424
674.299	335.129
678.938	531.023
683.574	993.324
688.208	1255.99
692.839	1566.81
697.468	1575.61
702.094	1591.17
706.717	1714.68
711.338	1792.1
715.956	1240.14
720.572	717.256
725.185	672.266
729.795	463.031
734.403	533.094
739.009	230.281
743.611	83.584
748.212	83.5508
752.809	41.1914
757.405	17.0469
761.997	86.1367
766.587	216.049
771.174	81.6523
775.759	567.871
780.342	426.01
784.921	434.301
789.498	533.248
794.073	533.518
798.645	557.652
803.215	620.721
807.781	764.238
812.346	948.104
816.907	862.568
821.467	789.715
826.023	1215.67
830.577	1493.34
835.129	1890.88
839.678	867.002
844.224	587.752
848.768	571.125
853.309	441.928
857.847	36.2754
862.383	22.498
866.917	398.412
871.448	1218.98
875.976	2605.14
880.502	3497.72
885.025	1995.43
889.545	470.836
894.063	235.332
898.579	357.535
903.092	6.64453
907.602	2559.52
912.11	5204.91
916.615	3939.82
921.118	7204.6
925.618	9902.28
930.115	8243.26
934.61	5700.74
939.102	4680.92
943.592	5733.82
948.079	8899.39
952.564	3021.59
957.046	845.324
961.525	807.623
966.002	955.531
970.476	780.088
974.948	412.34
979.417	379.324
983.883	331.078
988.347	80.6484
992.809	293.742
997.268	382.731
1001.72	619.731
1006.18	591.008
1010.63	1046.37
1015.08	1338.85
1019.52	1857.62
1023.97	3682.74
1028.41	4543.76
1032.85	3756
1037.28	2862.95
1041.71	2357.64
1046.14	2459.26
1050.57	2097.68
1055	1864.86
1059.42	1712.06
1063.84	1776.09
1068.26	1850.29
1072.67	2688.24
1077.09	2866.81
1081.5	1708.44
1085.9	1400.04
1090.31	647.617
1094.71	348.023
1099.11	262.262
1103.51	397.352
1107.9	999.297
1112.29	1900.1
1116.68	4560.77
1121.07	8664.29
1125.45	10099.7
1129.84	6266.34
1134.21	4058.05
1138.59	3518.59
1142.96	3239.95
1147.34	3219.12
1151.7	3208.52
1156.07	2585.09
1160.43	2547.91
1164.79	2210.58
1169.15	2293.22
1173.51	1721.57
1177.86	1092.9
1182.21	688.512
1186.56	220.812
1190.91	78.3125
1195.25	142.109
1199.59	313.734
1203.93	26.7188
1208.26	119.074
1212.6	163.297
1216.92	186.312
1221.25	423.098
1225.58	704.027
1229.9	503.066
1234.22	549.16
1238.54	395.231
1242.85	854.109
1247.16	1027.66
1251.47	1330.42
1255.78	1859.39
1260.08	2202.41
1264.38	2186.77
1268.68	2991.4
1272.98	2300.21
1277.28	2393.55
1281.57	2864.57
1285.86	3060.62
1290.14	3278.04
1294.42	3866.28
1298.71	4015.95
1302.98	4051.03
1307.26	3751.61
1311.53	3607.09
1315.8	3345.03
1320.07	3176.1
1324.34	2987.58
1328.6	2411.3
1332.86	2049.04
1337.12	1619.68
1341.38	1262.48
1345.63	1277.41
1349.88	1467.91
1354.13	2125.93
1358.37	3673.44
1362.61	4597.68
1366.85	2208.74
1371.09	1217.44
1375.33	1113.16
1379.56	1770.33
1383.79	2432.41
1388.01	3127.43
1392.24	2993.1
1396.46	3087.08
1400.68	1251.92
1404.9	174.164
1409.11	56.7422
1413.32	187.637
1417.53	349.211
1421.74	85.3906
1425.94	594.394
1430.14	169.316
1434.34	197.188
1438.54	906.031
1442.73	1334.16
1446.92	2670.63
1451.11	2653.03
1455.3	2605.52
1459.48	3579.14
1463.66	3779.45
1467.84	3454.35
1472.01	2884.59
1476.19	2889.76
1480.36	2997.16
1484.53	2728.97
1488.69	2471.07
1492.85	2106.45
1497.01	2268.56
1501.17	2036.68
1505.33	2053.92
1509.48	2348.41
1513.63	2165.75
1517.78	2316.67
1521.92	1572.71
1526.06	724.242
1530.2	1232.41
1534.34	196.363
1538.47	389.559
1542.6	153.309
1546.73	19.1289
1550.86	67.2109
1554.98	433.004
1559.11	330.695
1563.22	103.539
