Measurement: Raman, 514 nm, ccw, Raman Data Processed
Mineral: Fluorapatite
Rruff sample: R050340
Ideal chemistry: Ca_5_(PO_4_)_3_F
Locality: Buckingham, Quebec, Canada
Source: California Institute of Technology
Description: Blue fragment
Measured chemistry: Ca_5.00_((P_0.98_Si_0.02_)O_4_)_3_F_1.00_
Pin_id: L00787
Orientation: Laser parallel to c* (0 0 1). Fiducial mark perpendicular to laser is parallel to a [1 0 0]
Raman shift (cm-1)	intensity
108.28	0
113.208	2.55188
118.134	133.625
123.058	39.0907
127.979	93.839
132.898	203.059
137.814	733.607
142.728	1395.85
147.639	587.653
152.549	334.543
157.455	460.133
162.359	803.206
167.261	551.625
172.161	485.767
177.058	324.016
181.952	144.269
186.845	150.309
191.734	39.0802
196.622	80.6813
201.507	28.167
206.389	89.5609
211.269	151.871
216.147	159.1
221.022	165.242
225.895	138.608
230.765	246.782
235.633	421.997
240.498	417.448
245.361	250.32
250.222	191.612
255.08	264.295
259.936	505.765
264.789	773.493
269.64	1210.7
274.488	887.823
279.334	478.199
284.178	290.657
289.019	239.16
293.857	226.702
298.693	318.171
303.527	380.778
308.358	584.044
313.187	638.396
318.013	513.675
322.837	312.859
327.659	203.925
332.478	85.866
337.294	136.724
342.108	64.4775
346.92	14.8462
351.729	21.8581
356.535	7.53247
361.34	35.0015
366.141	2.77661
370.94	15.5039
375.737	45.6533
380.531	12.8042
385.323	16.7583
390.113	33.293
394.9	14.1748
399.684	17.374
404.466	116.358
409.245	65.4062
414.022	155.054
418.797	274.479
423.569	485.693
428.338	764.754
433.105	1020.66
437.87	1291.41
442.632	1744
447.391	2230.43
452.149	2070.69
456.903	1334.79
461.655	702.707
466.405	411.453
471.152	325.033
475.897	211.465
480.639	117.719
485.378	187.545
490.116	67.8294
494.85	80.8379
499.582	145.367
504.312	20.0312
509.039	95.6143
513.764	21.8684
518.486	12.6152
523.206	9.17773
527.923	51.1709
532.638	35.7178
537.35	75.9853
542.059	41.706
546.766	100.763
551.471	101.777
556.173	160.6
560.873	151.658
565.57	171.664
570.264	336.213
574.957	814.285
579.646	2205.98
584.333	3160.82
589.018	1271.13
593.7	1025.25
598.379	592.023
603.056	927.348
607.73	2213.41
612.402	1323.64
617.072	1095.71
621.739	505.556
626.403	164.554
631.065	156.615
635.724	101.354
640.381	157.654
645.035	157.521
649.687	273.188
654.336	183.817
658.983	182.058
663.627	140.805
668.268	137.608
672.907	79.8901
677.544	12.6968
682.178	29.2759
686.809	25.0195
691.438	22.4697
696.065	120.08
700.688	92.0889
705.31	76.9253
709.929	26.2803
714.545	138.462
719.158	87.3696
723.77	67.0698
728.378	89.9004
732.984	0.625488
737.588	94.6455
742.189	22.5898
746.787	105.009
751.383	85.4546
755.976	33.8955
760.567	10.4741
765.155	48.0679
769.741	86.2051
774.324	70.4683
778.904	114.114
783.482	38.3882
788.058	85.8345
792.631	41.8809
797.201	27.3867
801.769	43.5234
806.334	30.0605
810.897	41.9253
815.457	40.1094
820.014	40.082
824.569	44.9458
829.122	47.7993
833.671	31.8379
838.219	3.70703
842.763	73.0552
847.306	8.64404
851.845	75.3003
856.382	73.5342
860.917	107.228
865.448	112.232
869.978	202.83
874.505	124.198
879.029	86.2959
883.55	0.09375
888.069	16.5649
892.586	27.4639
897.1	41.8179
901.611	66.7441
906.12	105.408
910.626	115.817
915.129	163.473
919.63	121.925
924.129	13.4595
928.625	58.3901
933.118	162.33
937.609	150.106
942.097	531.979
946.582	963.188
951.065	1815.96
955.546	3928.39
960.023	14157.6
964.499	45577.2
968.971	35900.3
973.441	7683.01
977.909	2010.67
982.374	688.196
986.836	273.989
991.295	228.304
995.753	98.5527
1000.21	108.249
1004.66	267.017
1009.11	672.642
1013.55	576.277
1018	286.713
1022.44	299.312
1026.88	558.725
1031.32	1091.85
1035.75	2063.58
1040.18	1012.6
1044.61	778.838
1049.04	586.508
1053.46	694.581
1057.88	1128.21
1062.3	1543.87
1066.71	703.489
1071.13	586.562
1075.54	769.351
1079.94	1013.01
1084.35	655.705
1088.75	371.481
1093.15	182.358
1097.55	127.305
1101.94	17.6904
1106.34	88.3623
1110.73	52.6035
1115.11	124.302
1119.5	229.253
1123.88	366.3
1128.26	149.371
1132.63	8.6875
1137.01	193.935
1141.38	36.3486
1145.75	84.7598
1150.12	53.9893
1154.48	174.145
1158.84	86.6602
1163.2	196.216
1167.55	201.84
1171.91	147.602
1176.26	29.7549
1180.61	140.605
1184.95	49.8398
1189.29	136.353
1193.63	9.9248
1197.97	144.427
1202.31	170.748
1206.64	135.031
1210.97	76.2715
1215.29	195.463
1219.62	235.603
1223.94	147.883
1228.26	176.916
1232.57	179.475
1236.89	282.391
1241.2	246.468
1245.51	157.266
1249.81	45.8008
1254.12	176.477
1258.42	111.092
1262.72	160.586
1267.01	169.955
1271.3	26.249
1275.59	101.466
1279.88	61.5879
1284.17	190.613
1288.45	203.418
1292.73	139.248
1297.01	211.005
1301.28	103.37
1305.55	51.3174
1309.82	56.1553
1314.09	27.2695
1318.35	278.421
1322.61	51.1992
1326.87	210.951
1331.13	206.045
1335.38	147.691
1339.63	152.3
1343.88	175.843
1348.12	164.311
1352.37	159.706
1356.61	173.024
1360.85	109.274
1365.08	49.4404
1369.31	100.643
1373.54	222.83
1377.77	178.92
1381.99	155.003
1386.22	231.016
1390.43	200.786
1394.65	130.633
1398.87	263.166
1403.08	261.059
1407.29	95.9512
1411.49	133.061
1415.69	147.894
1419.89	123.993
1424.09	151.027
1428.29	252.416
1432.48	123.571
1436.67	18.4111
1440.86	73.2314
1445.04	115.246
1449.23	150.548
1453.4	164.415
1457.58	171.206
1461.76	0.924805
1465.93	222.351
1470.1	128.832
1474.26	102.327
1478.43	133.744
1482.59	103.16
1486.75	117.594
1490.9	308.433
1495.06	162.601
1499.21	53.6719
1503.35	271.492
1507.5	223.753
1511.64	146.712
1515.78	158.477
1519.92	120.073
1524.05	146.022
1528.18	194.361
1532.31	193.398
1536.44	157.552
1540.56	93.7441
1544.69	251.117
1548.8	185.023
1552.92	292.974
1557.03	106.645
1561.14	138.066
1565.25	119.492
1569.36	0.207031
