Measurement: Raman, 514 nm, ccw, Raman Data Processed
Mineral: Fluorapatite
Rruff sample: R060421
Ideal chemistry: Ca_5_(PO_4_)_3_F
Locality: Levant mine, St. Just, Cornwall, England
Source: Michael Scott
Description: Brown hexagonal prisms
Measured chemistry: (Ca_4.93_[box]_0.07_)_Σ=5_((PO_4_)_2.86_(CO_3_)_0.14_)_Σ=3_F_1.00_ : C not measured but estimated by difference and charge balance
Pin_id: M00074
Orientation: Laser parallel to a* (1 0 0). Fiducial mark perpendicular to laser is parallel to -c [0 0 -1]
Raman shift (cm-1)	intensity
124.288	0
129.209	67.3746
134.127	63.9131
139.043	82.9565
143.956	56.7947
148.867	34.2766
153.775	48.4607
158.681	129.147
163.585	25.3677
168.486	48.261
173.385	14.342
178.282	56.831
183.176	40.4736
188.067	69.6863
192.956	80.9011
197.843	80.1245
202.727	69.8843
207.609	98.5627
212.489	88.2607
217.366	107.588
222.24	41.8115
227.112	108.748
231.982	120.031
236.849	96.5938
241.714	80.2795
246.577	174.625
251.437	92.0588
256.294	126.926
261.149	117.171
266.002	91.1614
270.852	45.7793
275.7	128.11
280.545	129.983
285.388	68.2827
290.229	94.5383
295.067	25.2312
299.902	116.49
304.735	50.2107
309.566	25.7805
314.394	68.6636
319.22	26.227
324.043	157.011
328.864	9.44434
333.682	124.923
338.498	79.1269
343.311	88.5125
348.122	54.1074
352.931	61.333
357.737	94.5933
362.54	131.666
367.341	66.6387
372.14	11.1597
376.936	78.9912
381.73	67.8452
386.521	49.8882
391.31	149.133
396.096	47.1582
400.88	84.7256
405.661	227.794
410.44	131.697
415.216	131.293
419.99	182.336
424.761	252.419
429.53	313.432
434.297	267.913
439.061	156.895
443.822	222.974
448.581	145.844
453.337	72.3276
458.091	119.913
462.843	2.95459
467.592	3.25
472.338	47.0151
477.082	22.9204
481.824	35.9224
486.563	73.7412
491.3	74.7935
496.034	5.99805
500.765	97.3794
505.494	24.4102
510.221	29.0127
514.945	19.6699
519.666	41.6655
524.385	7.97119
529.102	25.9883
533.816	105.705
538.527	8.95801
543.236	74.1777
547.943	33.9082
552.647	108.915
557.348	41.7695
562.047	102.345
566.744	75.5928
571.438	159.017
576.129	71.8057
580.818	282.595
585.504	306.729
590.188	288.888
594.87	321.352
599.549	376.12
604.225	379.688
608.899	432.026
613.57	460.344
618.239	304.262
622.905	357.302
627.569	266.414
632.23	327.156
636.889	475.557
641.545	532.886
646.198	336.956
650.849	459.192
655.498	427.787
660.144	393.388
664.787	359.046
669.428	487.348
674.067	406.261
678.703	461.375
683.336	495.305
687.967	244.818
692.595	436.166
697.221	418.784
701.844	416.503
706.465	339.011
711.083	445.782
715.698	313.517
720.311	338.445
724.922	295.12
729.53	480.914
734.135	522.694
738.738	320.805
743.338	659.577
747.936	445.22
752.531	307.47
757.124	308.393
761.714	529.482
766.302	334.836
770.887	497.65
775.469	388.9
780.049	325.584
784.626	452.904
789.201	367.812
793.773	419.029
798.343	570.09
802.91	294.269
807.475	262.469
812.037	165.967
816.596	363.891
821.153	310.57
825.707	155.518
830.259	147.756
834.808	246.654
839.355	159.231
843.899	274.852
848.441	115.158
852.98	284.537
857.516	301.934
862.05	10.0898
866.581	184.578
871.11	252.957
875.636	280.022
880.159	187.635
884.68	262.191
889.199	71.5273
893.714	87.2363
898.228	156.744
902.738	50.9062
907.246	24.8516
911.752	48.7012
916.255	151.5
920.755	222.51
925.253	127.691
929.748	3.89844
934.241	59.8223
938.731	208
943.218	237.943
947.703	144.984
952.186	506.731
956.665	594.152
961.142	1308.25
965.617	1235.22
970.089	653.447
974.558	28.832
979.025	43.209
983.489	64.7168
987.951	4.3457
992.41	168.684
996.866	6.32812
1001.32	90.916
1005.77	89.4785
1010.22	55.4531
1014.67	100.227
1019.11	19.9473
1023.55	52.7988
1027.99	211.176
1032.42	111.459
1036.86	20.3867
1041.29	268.959
1045.72	394.041
1050.14	405.861
1054.56	464.816
1058.98	226.672
1063.4	243.697
1067.82	340.031
1072.23	413.594
1076.64	238.125
1081.05	358.91
1085.45	411.168
1089.85	21.0078
1094.25	110.988
1098.65	512.144
1103.04	477.531
1107.43	543.731
1111.82	602.019
1116.21	356.352
1120.59	396.422
1124.97	790.32
1129.35	619.957
1133.73	720.453
1138.1	575.113
1142.47	571.426
1146.84	712.055
1151.21	892.16
1155.57	609.312
1159.93	780.09
1164.29	799.981
1168.64	792.348
1172.99	1009.85
1177.34	867.301
1181.69	671.359
1186.04	1030.45
1190.38	1059.02
1194.72	1003.59
1199.05	834.453
1203.39	955.481
1207.72	1047.69
1212.05	948.027
1216.37	633.465
1220.7	658.004
1225.02	886.465
1229.34	634.453
1233.65	478.398
1237.97	686.527
1242.28	786.898
1246.59	556.277
1250.89	603.465
1255.19	558.664
1259.49	567.195
1263.79	567.309
1268.09	628.867
1272.38	239.66
1276.67	214.148
1280.95	86.8203
1285.24	291.769
1289.52	560.141
1293.8	179.582
1298.08	88.6875
1302.35	244
1306.62	284.621
1310.89	360.481
1315.15	31.4648
1319.42	204.742
1323.68	233.086
1327.94	273.613
1332.19	58.1172
1336.44	230.707
1340.69	97.3906
1344.94	539.172
1349.19	77.9844
1353.43	498.832
1357.67	194.75
1361.9	135.691
1366.14	531.57
1370.37	87.4648
1374.6	335.316
1378.83	82.2461
1383.05	109.953
1387.27	83.6719
1391.49	263.844
1395.7	306.121
1399.92	170.918
1404.13	339.715
1408.34	345.211
1412.54	288.902
1416.74	300.695
1420.94	295.84
1425.14	254.262
1429.34	266.176
1433.53	259.91
1437.72	251.059
1441.9	350.352
1446.09	194.828
1450.27	0.929688
1454.45	189.269
1458.63	367.984
1462.8	318.078
1466.97	384.516
1471.14	424.281
1475.31	264.508
1479.47	238.18
1483.63	302.281
1487.79	403.375
1491.94	433.047
1496.09	308.715
1500.24	49.6055
1504.39	434.004
1508.54	467.359
1512.68	642.637
1516.82	65.3984
1520.95	475.894
1525.09	200.816
1529.22	519.387
1533.35	247.496
1537.47	173.652
1541.6	382.996
1545.72	141.684
1549.83	181.438
1553.95	335.644
1558.06	372.66
1562.17	287.32
1566.28	177.223
1570.38	137.445
