Measurement: Raman, 514 nm, ccw, Raman Data Processed
Mineral: Fluoro-richterite
Rruff sample: R040019
Ideal chemistry: Na(NaCa)Mg_5_Si_8_O_22_F_2_
Locality: Wilberforce, Ontario, Canada
Source: University of Arizona Mineral Museum
Description: Brown prismatic crystals
Measured chemistry: (Na_0.59_K_0.27_[box]_0.14_)_Σ=1_(Ca_1.30_Na_0.70_)_Σ=2_(Mg_4.67_Fe_0.17_Fe^3+^_0.10_Ti_0.03_Mn_0.02_Al_0.01_)_Σ=5_(Si_7.67_Al_0.33_)_Σ=8_(F_1.12_(OH)_0.88_)_Σ=2_; OH estimated by charge balance
Pin_id: L00217
Orientation: Laser parallel to -b* (0 -1 0). Fiducial mark perpendicular to laser is parallel to c [0 0 1]
Raman shift (cm-1)	intensity
76.635	0
80.823	0.77
85.009	119.208
89.193	317.447
93.375	604.154
97.554	1091.81
101.732	1863.18
105.908	3120.26
110.082	4267.91
114.254	4057.31
118.424	3059.59
122.592	1561.73
126.758	639.673
130.922	320.444
135.083	57.924
139.243	72.882
143.401	2.786
147.557	319.826
151.711	1404.62
155.863	3900.52
160.013	6300.41
164.161	5782.28
168.308	4896.24
172.452	4979.6
176.594	5293.3
180.734	5350.98
184.872	4845.72
189.008	4216.48
193.143	4021.48
197.275	4317.6
201.405	5005.59
205.534	5684.17
209.66	6380.32
213.784	7179.98
217.907	8684.11
222.027	9515.7
226.146	9832.72
230.263	8895.16
234.377	7340.01
238.49	5190.23
242.601	3445.44
246.709	2350.16
250.816	1473.65
254.921	879.253
259.024	433.401
263.125	210.932
267.224	7.457
271.321	94.161
275.416	144.134
279.51	145.497
283.601	10.021
287.69	262.396
291.778	632.95
295.863	988.394
299.947	1510.58
304.029	2067.33
308.108	2876.55
312.186	3450.12
316.262	3341.95
320.336	2816.03
324.408	2415.34
328.478	2099.88
332.546	2114.16
336.612	1843.15
340.677	1549.11
344.739	1318.86
348.799	1149.75
352.858	1220.84
356.915	1307.1
360.969	1467.54
365.022	1826.14
369.073	2125.89
373.122	2499.79
377.169	3121.82
381.215	3423.97
385.258	3456.25
389.299	3168.63
393.339	2909.12
397.376	2791.71
401.412	2240.38
405.446	1663.15
409.478	1179.17
413.508	680.419
417.536	468.844
421.562	414.192
425.586	484.141
429.609	446.971
433.629	429.173
437.648	296.632
441.665	99.513
445.68	23.028
449.693	82.476
453.704	52.78
457.713	46.952
461.721	1.13
465.726	82.623
469.73	137.386
473.731	189.183
477.731	123.002
481.729	99.901
485.725	125.875
489.72	89.914
493.712	150.965
497.703	111.025
501.691	207.137
505.678	325.293
509.663	377.518
513.646	470.776
517.627	701.006
521.607	909.194
525.584	1063.33
529.56	1014.42
533.534	920.444
537.506	964.382
541.476	823.223
545.444	803.957
549.41	768.578
553.375	762.32
557.337	716.45
561.298	663.69
565.257	521.786
569.214	368.729
573.17	358.513
577.123	284.131
581.075	392.576
585.024	387.844
588.972	353.928
592.918	200.884
596.863	6.252
600.805	19.813
604.746	73.314
608.685	2.574
612.621	81.862
616.557	188.158
620.49	280.991
624.421	470.441
628.351	620.564
632.279	780.417
636.205	903.288
640.129	1128.87
644.051	1462.69
647.972	1894.62
651.89	2487.86
655.807	3445.12
659.722	4907.57
663.636	7146.22
667.547	11604.5
671.457	18990.9
675.365	33193.4
679.271	48532.1
683.175	47388.2
687.077	30414.4
690.978	16616.1
694.877	9585.22
698.774	5835.53
702.669	4175.7
706.562	3228.17
710.454	2509.53
714.344	2090.24
718.232	1796.46
722.118	1728.1
726.002	1610.46
729.885	1550.55
733.766	1450.37
737.645	1315.92
741.522	1154.21
745.397	1009.24
749.271	779.011
753.143	630.649
757.013	518.264
760.881	496.845
764.748	382.429
768.613	266.556
772.476	138.486
776.337	108.361
780.196	62.017
784.054	16.403
787.91	5.477
791.764	31.31
795.616	25.472
799.467	8.599
803.316	36.107
807.163	32.035
811.008	47.148
814.851	57.75
818.693	64.779
822.533	19.725
826.371	13.085
830.208	14.826
834.042	8.502
837.875	20.556
841.706	7.938
845.536	23.99
849.363	18.725
853.189	67.277
857.013	90.655
860.836	68.866
864.656	126.917
868.475	96.825
872.292	167.617
876.108	254.313
879.922	331.954
883.733	375.595
887.544	477.204
891.352	664.856
895.159	753.579
898.964	826.326
902.767	974.522
906.568	1165.79
910.368	1458.73
914.166	1749.97
917.962	2339.48
921.757	3003.13
925.55	4002.57
929.341	4707.07
933.13	4818.72
936.918	4288.31
940.703	3697.12
944.488	3296.64
948.27	3145.82
952.051	2871.2
955.83	2386.4
959.607	1921.87
963.383	1489.62
967.156	1290.56
970.928	1183.26
974.699	964.488
978.468	955.569
982.234	847.496
986	882.958
989.763	863.525
993.525	831.692
997.285	850.868
1001.04	954.912
1004.8	937.687
1008.55	1040.17
1012.31	1133.82
1016.06	1186.03
1019.81	1366.76
1023.56	1521.62
1027.31	1761.61
1031.05	2070.59
1034.79	2410.09
1038.53	2811.2
1042.27	3271.32
1046.01	3957.68
1049.75	4796.16
1053.48	5684.59
1057.22	7175.32
1060.95	9038.84
1064.68	11597.4
1068.4	14029.6
1072.13	14863.2
1075.86	13972
1079.58	11369.2
1083.3	8865.4
1087.02	6514.63
1090.74	4570.97
1094.45	3309.66
1098.17	2536.07
1101.88	1939.37
1105.59	1743.37
1109.3	1467.12
1113.01	1294.27
1116.71	1164.84
1120.42	1144.97
1124.12	1167.72
1127.82	947.657
1131.52	838.746
1135.22	799.657
1138.91	863.808
1142.61	620.321
1146.3	589.053
1149.99	530
1153.68	430.732
1157.37	312.361
1161.06	263.704
1164.74	151.732
1168.42	55.616
1172.1	4.101
1175.78	46.092
1179.46	59.926
1183.14	21.926
1186.81	56.734
1190.48	45.76
1194.15	62.915
1197.83	6.917
1201.49	25.477
1205.16	38.673
1208.82	11.959
1212.49	5.834
1216.15	5.134
1219.81	1.286
1223.46	31.882
1227.12	29.554
1230.78	1.617
1234.43	24.167
1238.08	39.939
1241.73	56.226
1245.38	46.534
1249.03	20.118
1252.67	6.519
1256.31	1.724
1259.95	101.783
1263.6	32.337
1267.23	66.441
1270.87	94.527
1274.51	124.813
1278.14	148.047
1281.77	100.604
1285.4	167.378
1289.03	115.691
1292.66	84.832
1296.28	98.935
1299.91	176.417
1303.53	122.154
1307.15	59.197
1310.77	38.621
1314.38	56.58
1318	98.753
1321.61	125.773
1325.23	149.332
1328.84	62.22
1332.45	113.857
1336.06	108.93
1339.66	37.96
1343.27	107.342
1346.87	123.9
1350.47	121.902
1354.07	138.949
1357.67	132.613
1361.26	148.303
1364.86	148.306
1368.45	96.687
1372.04	63.374
1375.63	48.479
1379.22	72.269
1382.81	107.065
1386.39	39.716
1389.98	33.907
1393.56	52.719
1397.14	89.178
1400.72	106.017
1404.3	16.159
1407.87	43.649
1411.45	48.31
1415.02	51.179
1418.59	46.906
1422.16	110.729
1425.73	120.92
1429.29	97.534
1432.86	162.969
1436.42	229.388
1439.98	171.191
1443.54	157.113
1447.1	85.876
1450.66	69.516
1454.21	184.103
1457.77	231.111
1461.32	138.047
1464.87	252.283
1468.42	112.843
1471.96	313.86
1475.51	135.72
1479.06	151.54
1482.6	119.777
1486.14	159.684
1489.68	90.854
1493.22	131.509
1496.75	52.655
1500.29	40.005
1503.82	48.572
1507.35	65.412
1510.88	73.397
1514.41	80.807
1517.94	0.252
