Measurement: Raman, 514 nm, ccw, Raman Data Processed
Mineral: Fluorapatite
Rruff sample: R060333
Ideal chemistry: Ca_5_(PO_4_)_3_F
Locality: Lovozero Massif, Kola Peninsula, U.S.S.R.
Source: Michael Scott
Description: Colorless fragment associated with red villiaumite
Measured chemistry: (Ca_4.29_Sr_0.47_Na_0.12_Ce_0.07_La_0.06_)_Σ=5_((P_0.99_Si_0.01_)_Σ=1_O_4_)_3_F_1.00_
Pin_id: L01212
Orientation: Laser parallel to a* (1 0 0). Fiducial mark perpendicular to laser is parallel to -c [0 0 -1]
Raman shift (cm-1)	intensity
164.221	0
169.145	77.8467
174.066	95.5244
178.984	122.511
183.9	101.715
188.812	16.541
193.722	173.706
198.628	323.352
203.532	489.687
208.433	515.224
213.331	400.149
218.226	392.655
223.118	404.486
228.007	384.236
232.893	344.738
237.777	295.671
242.657	160.317
247.535	124.499
252.41	266.474
257.281	430.521
262.15	472.73
267.017	459.424
271.88	581.632
276.74	586.385
281.598	726.363
286.453	762.873
291.304	690.245
296.153	464.81
301	429.469
305.843	417.185
310.683	300.128
315.521	230.642
320.356	17.4145
325.188	10.8276
330.017	23.2666
334.843	3.9956
339.666	16.27
344.487	10.0288
349.305	59.9116
354.12	19.1611
358.932	7.60986
363.741	73.7632
368.548	163.89
373.352	44.9878
378.153	215.125
382.951	133.019
387.746	131.866
392.539	218.51
397.328	195.76
402.115	317.137
406.899	417.835
411.681	794.174
416.459	1359.07
421.235	2221.9
426.008	3498.2
430.779	3633.86
435.546	2485.02
440.311	1846.68
445.073	1803.77
449.832	1724.3
454.588	1466.28
459.342	1094.68
464.093	717.155
468.841	492.379
473.587	336.229
478.329	252.353
483.069	215.157
487.806	132.196
492.541	160.92
497.272	122.436
502.001	54.9443
506.728	55.5044
511.451	74.9575
516.172	115.894
520.89	12.9004
525.605	137.141
530.318	25.1172
535.028	14.5654
539.735	89.2852
544.44	27.9917
549.141	65.0596
553.841	96.98
558.537	185.013
563.231	271.638
567.922	351.063
572.61	766.061
577.296	1376.71
581.979	1986.46
586.659	2894.89
591.336	4247.64
596.011	2089.66
600.683	1461.82
605.353	2246.03
610.02	1389.52
614.684	708.477
619.345	496.144
624.004	293.968
628.661	97.0742
633.314	121.958
637.965	172.389
642.613	143.284
647.259	316.398
651.902	185.975
656.542	277.239
661.18	412.098
665.815	311.2
670.447	143.148
675.077	135.9
679.704	117.909
684.328	100.679
688.95	46.9932
693.569	123.397
698.186	43.125
702.8	17.1445
707.411	8.81641
712.02	63.9893
716.626	91.5371
721.23	142.547
725.83	134.718
730.429	56.3457
735.024	106.233
739.618	47.6553
744.208	114.626
748.796	24.7959
753.381	51.6924
757.964	6.29102
762.544	39.9551
767.122	48.8613
771.697	18.2715
776.269	65.5273
780.839	6.58984
785.406	124.181
789.971	168.68
794.533	175.002
799.093	186.717
803.65	215.423
808.204	64.8389
812.756	145.317
817.305	185.852
821.852	247.31
826.396	65.7842
830.938	35.7197
835.477	156.183
840.013	116.603
844.547	102.628
849.079	174.855
853.608	199.7
858.134	117.93
862.658	314.633
867.179	139.238
871.698	279.494
876.214	280.779
880.728	276.948
885.239	690.142
889.748	128.789
894.254	120.85
898.758	156.055
903.259	102.26
907.758	225.799
912.254	93.0215
916.748	147.062
921.239	50.8633
925.728	16.2676
930.214	229.44
934.698	230.467
939.179	563.783
943.657	1240.37
948.134	2378.18
952.607	6389.84
957.079	18586.2
961.548	36632.7
966.014	27844.7
970.478	12324.7
974.939	4246.98
979.398	1464.08
983.854	378.047
988.308	240.812
992.76	300.607
997.209	303.103
1001.65	586.293
1006.1	641.322
1010.54	434.223
1014.98	513.25
1019.42	530.328
1023.85	837.562
1028.28	1177.63
1032.71	1623.79
1037.14	1889.22
1041.56	1829.85
1045.99	2349.27
1050.41	2931.16
1054.82	2703.42
1059.24	1916.63
1063.65	1519.98
1068.06	1186.82
1072.47	1314.33
1076.87	1731.11
1081.28	1752.17
1085.68	1277.14
1090.08	642.945
1094.47	551.209
1098.86	301.627
1103.25	319.498
1107.64	292.885
1112.03	83.4629
1116.41	75.6836
1120.79	427.807
1125.17	31.5312
1129.55	45.6133
1133.92	108.816
1138.29	234.137
1142.66	64.9531
1147.03	24.8789
1151.39	164.934
1155.76	174.385
1160.12	283.607
1164.47	94.6562
1168.83	6.5293
1173.18	282.613
1177.53	172.551
1181.88	18.1719
1186.22	23.7266
1190.57	14.4863
1194.91	255.482
1199.25	140.154
1203.58	297.709
1207.92	284.68
1212.25	75.7344
1216.58	83.3887
1220.9	191.602
1225.23	112.562
1229.55	223.473
1233.87	249.947
1238.19	210.188
1242.5	208.779
1246.81	48.9277
1251.12	57.334
1255.43	170.736
1259.74	303.363
1264.04	121.217
1268.34	193.582
1272.64	162.016
1276.94	6.95312
1281.23	203.197
1285.52	110.424
1289.81	116.871
1294.1	178.76
1298.39	155.197
1302.67	264.32
1306.95	48.9512
1311.23	330.791
1315.5	247.232
1319.78	382.246
1324.05	193.578
1328.32	215.277
1332.58	521.055
1336.85	56.5273
1341.11	278.293
1345.37	252.816
1349.63	366.723
1353.88	156.894
1358.13	214.559
1362.38	218.578
1366.63	203.887
1370.88	227.695
1375.12	295.316
1379.36	130.141
1383.6	189.281
1387.84	272.707
1392.08	223.578
1396.31	76.8086
1400.54	276.707
1404.77	402.164
1408.99	359.586
1413.21	301.531
1417.44	274.394
1421.66	188.062
1425.87	217.785
1430.09	139.469
1434.3	23.5117
1438.51	47.9375
1442.72	209.496
1446.92	345.219
1451.13	281.781
1455.33	226.938
1459.53	334.582
1463.72	131.887
1467.92	434.336
1472.11	47.0898
1476.3	102.824
1480.49	23.8477
1484.67	219.801
1488.86	271.594
1493.04	214.141
1497.22	270.336
1501.39	94.9922
1505.57	297.684
1509.74	323.375
1513.91	125.324
1518.08	269.856
1522.25	347.5
1526.41	221.359
1530.57	283.418
1534.73	305.004
1538.89	354.785
1543.04	469.918
1547.2	254.82
1551.35	261.481
1555.49	43.8711
1559.64	106.121
1563.79	0
