Measurement: Raman, 514 nm, ccw, Raman Data Processed
Mineral: Fluorapatite
Rruff sample: R050401
Ideal chemistry: Ca_5_(PO_4_)_3_F
Locality: Urbano mine, Golconda District, Minas Gerais, Brazil
Source: Bob Downs
Description: Pale purple hexagonal prism associated with albite R050402
Measured chemistry: (Ca_0.99_Mn_0.01_)_5_(P_1.00_O_4_)_3_F_1.00_
Pin_id: L00654
Orientation: Laser parallel to c* (0 0 1). Fiducial mark perpendicular to laser is parallel to a [1 0 0]
Raman shift (cm-1)	intensity
134.127	0
139.043	5.44727
143.956	48.6377
148.867	121.14
153.775	80.1977
158.681	77.73
163.585	45.9204
168.486	71.5298
173.385	42.3105
178.282	64.1313
183.176	52.4898
188.067	76.3457
192.956	79.5981
197.843	200.111
202.727	126.761
207.609	185.387
212.489	53.5107
217.366	41.4331
222.24	104.368
227.112	137.119
231.982	63.0195
236.849	178.619
241.714	20.3828
246.577	92.3687
251.437	129.629
256.294	65.5962
261.149	111.007
266.002	192.191
270.852	12.9307
275.7	154.773
280.545	5.03027
285.388	102.047
290.229	2.68066
295.067	85.4517
299.902	37.2148
304.735	63.1665
309.566	22.9439
314.394	163.933
319.22	81.1816
324.043	162.825
328.864	36.0342
333.682	94.8174
338.498	28.9023
343.311	174.964
348.122	59.5273
352.931	99.0391
357.737	99.2119
362.54	170.538
367.341	13.7363
372.14	6.9668
376.936	82.0518
381.73	124.106
386.521	74.8301
391.31	72.1973
396.096	87.5449
400.88	161.732
405.661	160.88
410.44	79.3809
415.216	144.126
419.99	51.7246
424.761	145.893
429.53	35.4639
434.297	156.606
439.061	135.568
443.822	112.398
448.581	146.615
453.337	85.6143
458.091	94.8691
462.843	211.688
467.592	233.466
472.338	19.8809
477.082	40.4219
481.824	173.412
486.563	92.2988
491.3	251.975
496.034	183.328
500.765	3.79102
505.494	164.29
510.221	32.4756
514.945	42.6816
519.666	91.0244
524.385	113.164
529.102	64.4629
533.816	35.7529
538.527	155.095
543.236	187.752
547.943	119.839
552.647	155.157
557.348	132.314
562.047	168.482
566.744	202.974
571.438	231.731
576.129	265.492
580.818	324.3
585.504	215.8
590.188	109.846
594.87	74.3721
599.549	49.5742
604.225	108.268
608.899	272.142
613.57	263.888
618.239	306.357
622.905	214.174
627.569	177.875
632.23	272.803
636.889	41.916
641.545	108.838
646.198	272.24
650.849	145.779
655.498	251.66
660.144	39.3105
664.787	84.8887
669.428	328.893
674.067	176.912
678.703	193.414
683.336	47.6875
687.967	334.18
692.595	189.012
697.221	153.004
701.844	325.062
706.465	96.9004
711.083	301.203
715.698	84.9394
720.311	338.367
724.922	273.137
729.53	154.975
734.135	207.531
738.738	209.006
743.338	303.154
747.936	244.977
752.531	300.262
757.124	295.471
761.714	70.7949
766.302	266.435
770.887	27.4863
775.469	302.791
780.049	302.609
784.626	194.19
789.201	278.9
793.773	152.297
798.343	236.525
802.91	235.203
807.475	262.584
812.037	277.367
816.596	216.68
821.153	386.568
825.707	106.926
830.259	1.98828
834.808	125.256
839.355	58.6055
843.899	157.391
848.441	34.2441
852.98	291.057
857.516	163.893
862.05	378.551
866.581	457.262
871.11	235.805
875.636	212.266
880.159	140.912
884.68	263.828
889.199	143.723
893.714	71.1738
898.228	186.215
902.738	267.035
907.246	45.6875
911.752	49.6602
916.255	526.314
920.755	164.117
925.253	155.318
929.748	261.519
934.241	244.287
938.731	149.322
943.218	290.338
947.703	71.8066
952.186	222.725
956.665	140.555
961.142	728.275
965.617	1642.44
970.089	189.519
974.558	165.746
979.025	232.055
983.489	67.5039
987.951	319.023
992.41	121.617
996.866	124.606
1001.32	322.008
1005.77	209.164
1010.22	198.894
1014.67	19.8711
1019.11	184.098
1023.55	121.34
1027.99	155.297
1032.42	311.055
1036.86	514.312
1041.29	196.227
1045.72	3.36328
1050.14	288.465
1054.56	151.484
1058.98	298.074
1063.4	331.07
1067.82	5.53516
1072.23	319.348
1076.64	302.219
1081.05	259.785
1085.45	46.7578
1089.85	196.344
1094.25	236.047
1098.65	225.094
1103.04	20.043
1107.43	90.2617
1111.82	166.762
1116.21	252.43
1120.59	278.535
1124.97	43.2773
1129.35	29.957
1133.73	428.664
1138.1	303.254
1142.47	148.625
1146.84	568.312
1151.21	72.9727
1155.57	329.383
1159.93	354.258
1164.29	473.32
1168.64	300.918
1172.99	314.273
1177.34	375.551
1181.69	202.438
1186.04	323.383
1190.38	312.801
1194.72	232.812
1199.05	350.898
1203.39	121.219
1207.72	383.113
1212.05	162.617
1216.37	327.887
1220.7	382.805
1225.02	206.391
1229.34	425.633
1233.65	576.988
1237.97	128.535
1242.28	652.93
1246.59	121.816
1250.89	576.66
1255.19	658.867
1259.49	399.973
1263.79	385.812
1268.09	573.859
1272.38	95.4062
1276.67	278.156
1280.95	375.961
1285.24	838.805
1289.52	906.34
1293.8	1075.3
1298.08	629.777
1302.35	1080.76
1306.62	554.66
1310.89	752.125
1315.15	793.289
1319.42	722.633
1323.68	1019.89
1327.94	1047.65
1332.19	236.008
1336.44	627.84
1340.69	191.992
1344.94	409.977
1349.19	663.777
1353.43	141.426
1357.67	351.754
1361.9	607.281
1366.14	446.504
1370.37	270.629
1374.6	516.422
1378.83	389.266
1383.05	407.715
1387.27	150.453
1391.49	412.234
1395.7	454.152
1399.92	212.934
1404.13	875.883
1408.34	118.723
1412.54	227.641
1416.74	298.68
1420.94	267.398
1425.14	93.9414
1429.34	244.731
1433.53	421.047
1437.72	490.641
1441.9	383.121
1446.09	841.531
1450.27	495.106
1454.45	29.5039
1458.63	601.277
1462.8	572.359
1466.97	310.785
1471.14	238.266
1475.31	537.547
1479.47	614.09
1483.63	290.363
1487.79	656.625
1491.94	404.902
1496.09	263.07
1500.24	556.418
1504.39	714.711
1508.54	932.449
1512.68	580.996
1516.82	424.508
1520.95	799.144
1525.09	507.055
1529.22	665.269
1533.35	373.758
1537.47	882.691
1541.6	206.348
1545.72	87.7617
1549.83	569.016
1553.95	266.625
1558.06	248.164
1562.17	292.328
1566.28	110.617
1570.38	61.9766
