Measurement: Raman, 514 nm, ccw, Raman Data Processed
Mineral: Fluorapatite
Rruff sample: R050194
Ideal chemistry: Ca_5_(PO_4_)_3_F
Locality: Siglo XX mine, Llallagua, Bolivia
Source: Dave Bunk Minerals
Description: Purple crystal fragments
Measured chemistry: Ca_5.00_(P_1.00_O_4_)_3_F_1.00_
Pin_id: L01968
Orientation: Laser parallel to -a* (-1 0 0). Fiducial mark perpendicular to laser is parallel to -c [0 0 -1]
Raman shift (cm-1)	intensity
136.585	0
141.5	21.5786
146.412	33.2065
151.321	90.9619
156.229	7.375
161.134	94.9263
166.036	130.627
170.936	61.9273
175.834	128.181
180.729	125.881
185.622	32.1201
190.512	78.6821
195.4	75.0254
200.286	39.8657
205.169	126.724
210.049	154.443
214.928	117.524
219.803	110.089
224.677	141.54
229.548	155.726
234.416	85.3994
239.282	129.434
244.146	123.478
249.007	68.7534
253.866	75.5952
258.722	69.8496
263.576	117.951
268.427	117.978
273.276	163.012
278.123	126.815
282.967	70.9707
287.809	158.216
292.648	17.7398
297.485	95.957
302.319	42.0347
307.151	170.669
311.98	34.2964
316.807	139.453
321.631	155.213
326.454	87.0229
331.273	96.5752
336.09	51.5449
340.905	73.7329
345.717	141.915
350.527	179.66
355.334	5.76856
360.139	125.211
364.941	133.67
369.741	76.8857
374.538	110.286
379.333	172.952
384.126	76.9004
388.916	165.536
393.703	146.857
398.488	160.736
403.271	90.1357
408.051	97.2022
412.828	136.684
417.603	216.415
422.376	198.96
427.146	315.571
431.914	347.199
436.679	233.004
441.442	143.497
446.202	174.995
450.96	257.258
455.715	127.241
460.467	148.065
465.218	142.231
469.965	220.566
474.711	142.941
479.454	269.495
484.194	135.196
488.932	219.6
493.667	257.918
498.4	74.6387
503.13	83.8867
507.858	85.4951
512.583	109.795
517.306	117.247
522.026	123.103
526.744	14.0156
531.459	107.987
536.172	80.4287
540.882	265.029
545.59	298.017
550.295	196.752
554.998	1.62402
559.698	54.3545
564.396	119.405
569.091	204.499
573.784	359.557
578.474	224.014
583.162	113.015
587.847	334.997
592.529	216.101
597.209	123.68
601.887	119.426
606.562	196.994
611.235	273.538
615.905	39.7559
620.572	230.444
625.237	162.18
629.9	133.296
634.56	119.634
639.217	135.095
643.872	62.168
648.524	235.483
653.174	106.875
657.821	39.5625
662.466	178.246
667.108	149.266
671.748	197.225
676.385	208.199
681.02	109.322
685.652	172.701
690.281	149.1
694.908	199.44
699.533	104.299
704.155	204.334
708.774	169.234
713.391	235.356
718.005	170.945
722.617	154.348
727.226	168.377
731.833	204.342
736.437	31.3574
741.039	53.9941
745.638	241.852
750.234	155.703
754.828	230.922
759.419	218.453
764.008	1.69922
768.595	60.4023
773.178	159.576
777.759	206.887
782.338	355.223
786.914	150.283
791.488	5.55469
796.059	23.0293
800.627	199.572
805.193	95.5508
809.756	294.451
814.317	44.8555
818.875	249.377
823.431	26.2559
827.984	66.4082
832.534	122.039
837.082	20.7285
841.627	266.565
846.17	253.994
850.71	80.2305
855.248	248.152
859.783	185.756
864.316	32.6621
868.846	197.225
873.373	56.5293
877.898	379.791
882.42	271.607
886.94	222.135
891.457	106.963
895.971	139
900.483	170.547
904.993	15.916
909.5	107.832
914.004	246.289
918.505	141.875
923.004	302.066
927.501	146.039
931.995	126.148
936.486	1.82227
940.975	148.773
945.461	219.539
949.945	240.666
954.426	271.301
958.904	709.045
963.38	1999.83
967.853	1093.8
972.324	165.904
976.792	197.779
981.258	292.092
985.72	120.574
990.181	169.977
994.639	163.318
999.094	202.516
1003.55	35.7246
1008	36.7422
1012.44	113.004
1016.89	132.781
1021.33	327.461
1025.77	78.5703
1030.21	382.008
1034.64	121.434
1039.07	329.211
1043.5	88.0312
1047.93	228.805
1052.35	328.805
1056.78	268.875
1061.19	47.1875
1065.61	300.805
1070.02	80.2539
1074.43	3.77734
1078.84	197.555
1083.25	225.469
1087.65	205.539
1092.05	65.4062
1096.45	248.356
1100.85	274.344
1105.24	347.312
1109.63	352.801
1114.02	45.6445
1118.4	127.262
1122.78	319.902
1127.16	126.269
1131.54	225.371
1135.92	248.082
1140.29	175.992
1144.66	248.969
1149.02	378.75
1153.39	139.531
1157.75	16.75
1162.11	315.867
1166.46	128.457
1170.82	307.254
1175.17	288.25
1179.52	265.434
1183.86	22.8047
1188.21	271.398
1192.55	143.836
1196.89	335.984
1201.22	386.465
1205.55	238.527
1209.88	201.504
1214.21	408.336
1218.54	129.891
1222.86	324.648
1227.18	337.809
1231.5	268.606
1235.81	373.891
1240.12	589.043
1244.43	291.203
1248.74	251.293
1253.04	215.594
1257.34	150.644
1261.64	222.945
1265.94	434.426
1270.23	168.43
1274.52	181.859
1278.81	192.496
1283.1	183.316
1287.38	253.981
1291.66	37.6289
1295.94	154.156
1300.21	394.742
1304.48	272.359
1308.75	401.551
1313.02	376.324
1317.29	644.738
1321.55	625.828
1325.81	258.469
1330.06	492.965
1334.32	298.59
1338.57	335.727
1342.82	278.379
1347.06	791.555
1351.31	472.32
1355.55	613.648
1359.79	366.543
1364.02	212.031
1368.26	651.141
1372.49	239.887
1376.71	608.629
1380.94	135.383
1385.16	204.262
1389.38	65.9336
1393.6	197.293
1397.81	391.981
1402.02	441.953
1406.23	365.477
1410.44	272.629
1414.64	341.84
1418.85	477.387
1423.04	199.535
1427.24	215.746
1431.43	533.141
1435.62	348.527
1439.81	460.59
1444	545.703
1448.18	151.496
1452.36	259.414
1456.54	223.285
1460.71	480.086
1464.89	427.84
1469.06	282.547
1473.22	288.227
1477.39	513.887
1481.55	450.519
1485.71	241.188
1489.86	294.367
1494.02	243.043
1498.17	82.7148
1502.32	229.273
1506.46	195.598
1510.61	324.301
1514.75	494.234
1518.88	159.082
1523.02	231
1527.15	348.637
1531.28	329.789
1535.41	474.055
1539.53	255.375
1543.66	228.613
1547.78	311.938
1551.89	191.004
1556.01	233.426
1560.12	296.445
1564.23	89.3281
1568.33	167.32
