Measurement: Raman, 514 nm, ccw, Raman Data Processed
Mineral: Fluorapophyllite-(K)
Rruff sample: R050021
Ideal chemistry: KCa_4_Si_8_O_20_F8H_2_O
Locality: Poona, Maharashtra State, India
Source: Eugene Schlepp
Description: Colorless tetragonal prisms
Measured chemistry: (K_0.98_Na_0.02_)_Σ=1_Ca_4.00_Si_8.00_O_20_(F_0.84_(OH)_0.16_)_Σ=1_·8H_2_O
Pin_id: L00290
Orientation: Laser parallel to a* (1 0 0). Fiducial mark perpendicular to laser is parallel to -c [0 0 -1]
Raman shift (cm-1)	intensity
114.949	0
119.119	429.175
123.286	2016.71
127.452	2499.13
131.615	3634.41
135.777	1063.85
139.937	168.167
144.094	70.763
148.25	28.084
152.403	532.596
156.555	2647.92
160.705	7236.15
164.853	6836.42
168.998	2407.86
173.142	380.071
177.284	493.179
181.424	3519.19
185.562	9106.57
189.698	6122.55
193.831	2566.28
197.963	2398.45
202.093	4610.49
206.221	10332.5
210.347	17213.7
214.472	13253.1
218.594	8321.22
222.714	6798.97
226.832	7306.44
230.948	7173.61
235.063	4440.93
239.175	1904.46
243.286	806.056
247.394	472.513
251.501	395.677
255.605	118.571
259.708	687.468
263.808	1604.36
267.907	2136.78
272.004	1204.88
276.099	792.835
280.192	697.084
284.283	914.619
288.372	1499.38
292.459	3280.57
296.544	5775.99
300.627	5169.36
304.709	2950.64
308.788	1744.48
312.865	992.778
316.941	915.812
321.015	1000.06
325.086	1264.31
329.156	1618.5
333.224	2332.62
337.29	2856.71
341.354	2649.67
345.416	1623.45
349.476	717.008
353.534	400.74
357.591	204.095
361.645	63.178
365.698	80.988
369.748	220.773
373.797	202.251
377.844	26.547
381.889	155.771
385.932	125.606
389.973	36.09
394.012	117.089
398.049	38.408
402.084	69.971
406.118	277.717
410.15	35.241
414.179	111.921
418.207	255.377
422.233	1040.35
426.257	2855.77
430.279	9001.09
434.299	9726.37
438.318	3451.55
442.334	1256.6
446.349	611.34
450.361	615.753
454.372	529.883
458.381	1063.79
462.388	1427.52
466.394	1251.09
470.397	834.638
474.398	418.373
478.398	322.019
482.396	595.469
486.391	798.729
490.385	751.797
494.377	264.67
498.368	137.354
502.356	259.848
506.342	282.152
510.327	204.268
514.31	115.902
518.291	185.363
522.27	466.402
526.247	750.426
530.222	1108.84
534.196	1337.36
538.167	1891.36
542.137	1771.38
546.105	1316.96
550.071	1094.72
554.035	1181.69
557.998	1153.13
561.958	1359.14
565.917	1675.36
569.874	2101.25
573.829	3550.86
577.782	5831.65
581.733	8629.36
585.683	9773.23
589.63	7407.2
593.576	4666.71
597.52	2876.14
601.462	1885.47
605.402	1564.72
609.341	1203.9
613.277	1123.07
617.212	1222.17
621.145	1451.2
625.076	1820.19
629.006	1939.15
632.933	1677.96
636.859	1806.46
640.783	2165.3
644.705	2433.96
648.625	3242.64
652.543	3751.27
656.46	4819.41
660.375	5597.98
664.288	6086.53
668.199	5355
672.108	4012.66
676.016	2631.06
679.921	1699.65
683.825	1168.45
687.727	807.355
691.628	686.287
695.526	305.285
699.423	274.607
703.318	224.361
707.211	44.518
711.102	234.945
714.992	4.83
718.879	164.623
722.765	55.34
726.649	165.145
730.532	124.631
734.412	136.322
738.291	187.811
742.168	40.332
746.043	138.441
749.916	46.525
753.788	34.67
757.658	302.877
761.526	671.16
765.392	1393.84
769.257	1222.27
773.119	660.785
776.98	99.381
780.839	170.902
784.697	509.855
788.552	1028.72
792.406	1407.68
796.258	936.742
800.108	628.176
803.957	435.172
807.804	364.547
811.649	384.037
815.492	426.635
819.333	316.354
823.173	416.195
827.011	686.16
830.847	876.301
834.681	887.494
838.514	557.904
842.345	658.576
846.174	749.441
850.001	590.631
853.827	782.053
857.651	783.682
861.473	554.467
865.293	470.965
869.112	302.76
872.928	531.885
876.744	305.652
880.557	108.336
884.369	288.35
888.178	130.857
891.987	452.969
895.793	344.223
899.598	323.625
903.401	287.65
907.202	81.904
911.001	166.404
914.799	551.143
918.595	386.068
922.389	81.127
926.182	16.385
929.972	108.16
933.761	327.414
937.549	293.182
941.334	399.137
945.118	255.277
948.9	351.598
952.681	198.094
956.459	184.76
960.236	421.66
964.012	608.729
967.785	835.9
971.557	573.203
975.327	110.656
979.095	178.26
982.862	11.049
986.627	349.02
990.39	517.422
994.152	645.832
997.912	260.621
1001.67	1141.65
1005.43	1640.72
1009.18	1929.31
1012.93	1308.82
1016.68	808.566
1020.43	678.85
1024.18	779.439
1027.93	1070.42
1031.67	1181.73
1035.42	1283.48
1039.16	1362.5
1042.9	1915.3
1046.63	2498.74
1050.37	3927.85
1054.11	7331.52
1057.84	14418.4
1061.57	18284.9
1065.3	10858.9
1069.03	5200.14
1072.75	2673.4
1076.47	1656.47
1080.2	1436.85
1083.92	1470.09
1087.64	1733.05
1091.36	1175.57
1095.07	817.836
1098.79	559.729
1102.5	221.406
1106.21	808.006
1109.92	779.398
1113.62	930.682
1117.33	1108.99
1121.04	479.488
1124.74	199.877
1128.44	79.398
1132.14	24.861
1135.83	281.918
1139.53	648.91
1143.22	495.785
1146.92	242.865
1150.61	180.025
1154.3	122.475
1157.98	185.273
1161.67	383.16
1165.35	700.809
1169.04	668.5
1172.72	576.264
1176.4	394.359
1180.07	322.811
1183.75	48.334
1187.42	270.959
1191.1	380.797
1194.77	411.047
1198.44	662.162
1202.1	574.219
1205.77	486.721
1209.43	137.227
1213.1	23.584
1216.76	369.143
1220.42	619.951
1224.07	874.672
1227.73	1128.67
1231.38	869.619
1235.04	432.248
1238.69	153.291
1242.34	66.855
1245.99	241.082
1249.63	667.57
1253.28	830.293
1256.92	1093.94
1260.56	895.93
1264.2	603.033
1267.84	97.572
1271.48	9.85
1275.11	0
