Measurement: Raman, 514 nm, ccw, Raman Data Processed
Mineral: Fluorite
Rruff sample: R050046
Ideal chemistry: CaF_2_
Locality: Shangbao, Lei Yang, Hunan Province, China
Source: Eugene Schlepp
Description: Pale purple crystal
Measured chemistry: Ca_1.000_ F_2.000_
Pin_id: L01404
Orientation: Laser parallel to c* (0 0 1). Fiducial mark perpendicular to laser is parallel to b [0 1 0]
Raman shift (cm-1)	intensity
168.104	0
173.013	129.597
177.92	103.188
182.823	12.5176
187.725	187.61
192.623	293.372
197.52	451.901
202.413	386.763
207.305	193.273
212.193	48.6055
217.079	265.157
221.963	116.581
226.844	206.72
231.723	78.751
236.599	110.558
241.472	232.88
246.343	114.79
251.211	220.023
256.077	266.754
260.94	520.128
265.801	55.1816
270.66	36.916
275.515	92.3193
280.368	357.094
285.219	594.813
290.067	614.761
294.913	1348.64
299.756	2036.1
304.596	3665.83
309.434	9331.79
314.27	20679.3
319.102	34375.6
323.933	28871.2
328.76	12388.3
333.586	5774.97
338.408	3537.47
343.229	2535.69
348.046	1953.54
352.861	1697.97
357.674	1319.9
362.484	1141.3
367.291	1201.1
372.096	971.954
376.898	856.888
381.698	687.828
386.495	638.084
391.29	685.324
396.082	729.668
400.872	622.977
405.659	476.969
410.443	260.231
415.225	253.201
420.005	469.996
424.782	325.588
429.556	340.43
434.328	509.844
439.097	384.656
443.864	368.457
448.628	582.734
453.389	362.018
458.148	520.777
462.905	560.695
467.659	506.025
472.41	463.125
477.159	552.404
481.905	603.844
486.649	728.375
491.39	973.981
496.129	725.672
500.865	534.367
505.598	402.412
510.329	326.662
515.057	294.967
519.783	232.115
524.506	17.1621
529.227	75.0449
533.945	201.227
538.661	57.0469
543.374	50.748
548.084	79.7773
552.792	13.207
557.498	144.156
562.2	77.6387
566.901	203.527
571.598	31.0098
576.293	146.24
580.986	180.221
585.676	213.072
590.363	50.8828
595.048	122.549
599.731	201.922
604.41	36.1953
609.088	186.926
613.762	376.342
618.434	671.871
623.104	413.828
627.771	541.158
632.435	323.441
637.097	300
641.756	460.566
646.413	140.435
651.067	180.908
655.719	209.449
660.368	12.5566
665.014	377.139
669.658	336.465
674.299	366.273
678.938	415.014
683.574	576.562
688.208	1021.66
692.839	1054.16
697.468	1119.64
702.094	1368.92
706.717	1421
711.338	1124.24
715.956	801.449
720.572	688.769
725.185	476.783
729.795	489.197
734.403	166.062
739.009	166.644
743.611	84.6289
748.212	54.0859
752.809	73.2207
757.405	184.147
761.997	57.4355
766.587	95.9922
771.174	161.566
775.759	146.486
780.342	328.869
784.921	14.8105
789.498	295.982
794.073	464.051
798.645	543.867
803.215	292.34
807.781	550.973
812.346	626.535
816.907	631.943
821.467	608.34
826.023	807.418
830.577	786.281
835.129	1451.93
839.678	651.426
844.224	421.615
848.768	466.504
853.309	242.652
857.847	10.2266
862.383	49.5449
866.917	435.49
871.448	641.201
875.976	2018.47
880.502	2542.34
885.025	1444.02
889.545	444.797
894.063	81.0469
898.579	55.2988
903.092	146.963
907.602	1693.14
912.11	3674.12
916.615	2777.31
921.118	5279.28
925.618	7092.34
930.115	6057.92
934.61	3866.64
939.102	3268.59
943.592	4024.77
948.079	6401.12
952.564	1883.64
957.046	636.34
961.525	612.256
966.002	720.412
970.476	577.832
974.948	404.539
979.417	248.525
983.883	19.9355
988.347	54.5742
992.809	104.053
997.268	25.166
1001.72	3.29688
1006.18	641.387
1010.63	657.061
1015.08	812.305
1019.52	1263.19
1023.97	2573.81
1028.41	3498.62
1032.85	2907.3
1037.28	1889.65
1041.71	1526.96
1046.14	1600.34
1050.57	1512.73
1055	1435.21
1059.42	1180.85
1063.84	1264.56
1068.26	1149.55
1072.67	1854.35
1077.09	1728.18
1081.5	954.264
1085.9	650.557
1090.31	457.01
1094.71	181.637
1099.11	215.457
1103.51	247.481
1107.9	606.719
1112.29	1128.18
1116.68	2761.71
1121.07	4892.33
1125.45	5985.24
1129.84	4628.32
1134.21	3093.28
1138.59	2776.96
1142.96	2537.84
1147.34	2487.06
1151.7	2506.07
1156.07	2268.94
1160.43	1995.15
1164.79	1836.27
1169.15	1672.87
1173.51	1287.39
1177.86	943.316
1182.21	804.996
1186.56	347.223
1190.91	244.625
1195.25	158.141
1199.59	4.56641
1203.93	66.082
1208.26	19.1289
1212.6	74.3477
1216.92	213.57
1221.25	401.785
1225.58	386.969
1229.9	290.106
1234.22	557.16
1238.54	562.078
1242.85	680.738
1247.16	814.051
1251.47	846.137
1255.78	1232.27
1260.08	1339.3
1264.38	1475.82
1268.68	1247.73
1272.98	1633.95
1277.28	1844.34
1281.57	1920.37
1285.86	1931.07
1290.14	2641.66
1294.42	2567.82
1298.71	2587
1302.98	2295.24
1307.26	2473.29
1311.53	2368.39
1315.8	2464.55
1320.07	2227
1324.34	2007.51
1328.6	1494.86
1332.86	1445.78
1337.12	1201.27
1341.38	881.789
1345.63	654.121
1349.88	1134.31
1354.13	1618.31
1358.37	2883.11
1362.61	2968.98
1366.85	1722.38
1371.09	785.371
1375.33	1141.2
1379.56	1410.3
1383.79	1621.93
1388.01	2207.16
1392.24	1956.77
1396.46	2035.48
1400.68	836.973
1404.9	20.1172
1409.11	212.992
1413.32	190.859
1417.53	364.106
1421.74	132.859
1425.94	175.273
1430.14	659.574
1434.34	58.0273
1438.54	276.004
1442.73	1172.28
1446.92	1794.21
1451.11	1973.33
1455.3	1769.37
1459.48	2350
1463.66	2701.05
1467.84	2454.49
1472.01	2254.83
1476.19	2141.5
1480.36	2209.72
1484.53	2153.6
1488.69	1903.17
1492.85	1841.22
1497.01	1857.25
1501.17	1443.97
1505.33	1716.67
1509.48	1773.19
1513.63	1968.41
1517.78	1861.89
1521.92	1282.25
1526.06	777.578
1530.2	720.246
1534.34	261.004
1538.47	147.973
1542.6	343.734
1546.73	266.758
1550.86	394.406
1554.98	481.859
1559.11	9.98828
1563.22	132.996
