Measurement: Raman, 514 nm, ccw, Raman Data Processed
Mineral: Fluorapatite
Rruff sample: R050369
Ideal chemistry: Ca_5_(PO_4_)_3_F
Locality: Russia
Source: Eugene Schlepp
Description: Blueish-green hexagonal prismatic crystal
Measured chemistry: (Ca_0.99_Na_0.01_)_5_((P_0.98_S_0.02_)O_4_)_3_F_1.00_
Pin_id: L01224
Orientation: Laser parallel to a* (1 0 0). Fiducial mark perpendicular to laser is parallel to c [0 0 1]
Raman shift (cm-1)	intensity
53.91	0
58.864	35.2095
63.817	7.45242
68.767	4.64966
73.714	104.167
78.659	207.875
83.602	421.701
88.542	525.335
93.48	686.888
98.416	759.501
103.349	782.648
108.28	857.125
113.208	939.289
118.134	970.485
123.058	929.034
127.979	1067.2
132.898	1379.01
137.814	1544.39
142.728	1171.71
147.639	983.971
152.549	1034.38
157.455	1200.94
162.359	1096.6
167.261	1093.04
172.161	1131.23
177.058	1256.15
181.952	1272.79
186.845	986.113
191.734	847.089
196.622	844.693
201.507	972.197
206.389	1247.18
211.269	1345.33
216.147	1082.91
221.022	953.654
225.895	1066.28
230.765	1185.19
235.633	990.777
240.498	795.797
245.361	536.293
250.222	473.347
255.08	582.987
259.936	762.197
264.789	892.945
269.64	890.15
274.488	922.807
279.334	1087.87
284.178	1186.32
289.019	1038.14
293.857	859.331
298.693	811.859
303.527	805.716
308.358	665.886
313.187	526.354
318.013	334.107
322.837	219.131
327.659	204.41
332.478	92.9319
337.294	72.6826
342.108	22.0872
346.92	51.8286
351.729	34.0969
356.535	71.5181
361.34	62.4697
366.141	3.62402
370.94	1.82861
375.737	30.7178
380.531	9.41626
385.323	1.26929
390.113	40.8684
394.9	92.7144
399.684	175.193
404.466	241.138
409.245	311.167
414.022	892.298
418.797	1730.32
423.569	3502.96
428.338	5597.66
433.105	4499.41
437.87	2673.23
442.632	2144.09
447.391	1939.97
452.149	1568.87
456.903	1134.78
461.655	657.696
466.405	453.615
471.152	328.899
475.897	180.36
480.639	65.1794
485.378	125.956
490.116	88.7307
494.85	1.74072
499.582	74.2424
504.312	64.323
509.039	30.6243
513.764	17.2986
518.486	49.3655
523.206	94.0049
527.923	5.74365
532.638	66.8337
537.35	0.032227
542.059	4.85083
546.766	1.69775
551.471	53.5098
556.173	61.5537
560.873	158.668
565.57	252.645
570.264	550.881
574.957	1188.81
579.646	2178.61
584.333	2967.39
589.018	5021.68
593.7	3021.81
598.379	1305.18
603.056	1840.77
607.73	1872.4
612.402	910.064
617.072	487.012
621.739	276.982
626.403	222.344
631.065	226.246
635.724	178.332
640.381	184.823
645.035	169.359
649.687	154.693
654.336	133.672
658.983	87.561
663.627	113.299
668.268	85.9995
672.907	115.53
677.544	100.598
682.178	102.378
686.809	82.8945
691.438	104.76
696.065	91.7886
700.688	6.61865
705.31	98.1382
709.929	52.1421
714.545	78.6958
719.158	134.547
723.77	109.327
728.378	167.827
732.984	51.0772
737.588	135.191
742.189	43.208
746.787	78.5093
751.383	94.7246
755.976	122.592
760.567	21.8037
765.155	28.1553
769.741	56.2378
774.324	42.1611
778.904	101.793
783.482	23.146
788.058	97.2754
792.631	93.5835
797.201	30.145
801.769	32.5542
806.334	49.6699
810.897	65.5762
815.457	56.1108
820.014	45.4497
824.569	26.0513
829.122	97.2139
833.671	13.9815
838.219	31.1172
842.763	78.0659
847.306	102.185
851.845	23.311
856.382	12.2285
860.917	118.003
865.448	62.0259
869.978	121.335
874.505	158.46
879.029	21.0825
883.55	4.65576
888.069	22.5869
892.586	49.2554
897.1	3.2085
901.611	64.02
906.12	3.53662
910.626	69.9365
915.129	109.163
919.63	42.4585
924.129	31.8066
928.625	110.06
933.118	260.077
937.609	334.965
942.097	724.689
946.582	1341.4
951.065	2769.54
955.546	8609.56
960.023	30402.5
964.499	50855.9
968.971	15982.9
973.441	3572.56
977.909	1091.02
982.374	402.691
986.836	287.476
991.295	166.158
995.753	211.57
1000.21	208.099
1004.66	574.762
1009.11	973.106
1013.55	803.201
1018	819.564
1022.44	534.262
1026.88	759.355
1031.32	1493.57
1035.75	2036.31
1040.18	2951.41
1044.61	2718.25
1049.04	4029.78
1053.46	4598.88
1057.88	2339.04
1062.3	1235.86
1066.71	744.106
1071.13	770.551
1075.54	1578.1
1079.94	2397.81
1084.35	1132.7
1088.75	505.756
1093.15	289.006
1097.55	176.434
1101.94	92.7891
1106.34	42.3125
1110.73	43.126
1115.11	25.0918
1119.5	172.422
1123.88	173.535
1128.26	261.555
1132.63	213.643
1137.01	101.877
1141.38	14.6641
1145.75	250.94
1150.12	178.815
1154.48	159.29
1158.84	239.664
1163.2	355.214
1167.55	252.245
1171.91	209.397
1176.26	182.401
1180.61	127.624
1184.95	85.9863
1189.29	6.54004
1193.63	92.0518
1197.97	126.752
1202.31	24.5576
1206.64	49.4639
1210.97	245.468
1215.29	22.6055
1219.62	101.796
1223.94	68.0703
1228.26	12.5283
1232.57	180.876
1236.89	151.273
1241.2	36.3623
1245.51	32.5147
1249.81	2.20606
1254.12	38.1445
1258.42	55.748
1262.72	181.073
1267.01	129.44
1271.3	64.5059
1275.59	65.001
1279.88	1.68457
1284.17	53.5996
1288.45	86.8232
1292.73	21.0518
1297.01	22.8477
1301.28	6.89844
1305.55	70.3769
1309.82	80.3037
1314.09	201.207
1318.35	138.987
1322.61	135.065
1326.87	85.8428
1331.13	158.873
1335.38	159.779
1339.63	117.673
1343.88	166.544
1348.12	163.284
1352.37	47.9668
1356.61	186.011
1360.85	2.45215
1365.08	23.9922
1369.31	50.5322
1373.54	81.9824
1377.77	204.75
1381.99	24.8936
1386.22	30.3086
1390.43	114.587
1394.65	161.849
1398.87	119.029
1403.08	115.281
1407.29	188.963
1411.49	124.595
1415.69	71.7549
1419.89	226.996
1424.09	83.9502
1428.29	4.93262
1432.48	7.3418
1436.67	18.6973
1440.86	202.116
1445.04	81.9541
1449.23	254.985
1453.4	190.522
1457.58	183.996
1461.76	211.366
1465.93	36.667
1470.1	208.43
1474.26	61.9736
1478.43	119.32
1482.59	126.474
1486.75	38.7305
1490.9	136.257
1495.06	214.076
1499.21	166.571
1503.35	152.749
1507.5	51.624
1511.64	115.38
1515.78	126.825
1519.92	184.598
1524.05	170.817
1528.18	91.7432
1532.31	345.085
1536.44	57.1074
1540.56	116.363
1544.69	64.8955
1548.8	14.2969
1552.92	206.211
1557.03	292.808
1561.14	94.6201
1565.25	72.833
1569.36	188.678
