Measurement: Raman, 514 nm, ccw, Raman Data Processed
Mineral: Fluorophlogopite
Rruff sample: R040075
Ideal chemistry: KMg_3_(Si_3_Al)O_10_F_2_
Locality: unknown
Source: University of Arizona Mineral Museum
Description: Green hexagonal tablet
Measured chemistry: (K_0.93_[box]_0.04_Na_0.03_)(Mg_0.66_Fe_0.30_Ti_0.02_)_3_(Si_0.75_Al_0.25_)_4_O_10_(F_0.90_(OH)_0.06_Cl_0.04_)
Pin_id: L00309
Orientation: Laser parallel to -b* (0 -1 0). Fiducial mark perpendicular to laser is parallel to -c [0 0 -1]
Raman shift (cm-1)	intensity
137.307	0
141.469	7.159
145.628	140.489
149.786	111.852
153.941	112.044
158.094	121.452
162.245	198.002
166.395	249.811
170.542	403.409
174.687	604.424
178.83	694.104
182.972	995.097
187.111	1182.33
191.248	1136.23
195.383	951.971
199.516	747.501
203.647	570.102
207.777	390.995
211.904	322.776
216.029	301.466
220.152	117.5
224.273	64.14
228.392	195.77
232.509	34.165
236.625	10.635
240.738	10.599
244.849	72.519
248.958	16.516
253.065	68.976
257.171	12.454
261.274	46.92
265.375	83.746
269.475	12.929
273.572	112.121
277.667	144.177
281.76	84.438
285.852	13.562
289.941	25.95
294.029	103.36
298.114	17.675
302.198	0.986
306.279	155.866
310.359	232.274
314.436	269.889
318.512	189.333
322.586	369.679
326.657	353.999
330.727	297.847
334.795	228.219
338.861	359.337
342.924	369.132
346.986	254.568
351.046	397.644
355.104	358.398
359.16	496.746
363.214	341.225
367.267	357.481
371.317	430.589
375.365	414.271
379.411	371.716
383.456	485.237
387.498	353.817
391.539	496.123
395.577	477.29
399.614	447.19
403.649	409.923
407.681	490.545
411.712	434.545
415.741	362.058
419.768	288.355
423.793	252.008
427.816	261.287
431.837	90.247
435.857	86.602
439.874	65.758
443.889	115.139
447.903	19.752
451.914	59.499
455.924	50.079
459.932	8.981
463.938	9.413
467.941	35.495
471.943	62.983
475.944	96.613
479.942	141.959
483.938	147.394
487.932	160.37
491.925	300.994
495.915	338.103
499.904	259.601
503.891	276.117
507.876	383.6
511.859	490.195
515.84	321.959
519.819	372.644
523.796	453.686
527.771	513.387
531.745	481.929
535.716	450.494
539.686	540.438
543.654	588.678
547.62	591.897
551.584	498.591
555.546	469.486
559.506	485.42
563.465	371.329
567.421	343.863
571.376	208.897
575.329	154.144
579.279	171.729
583.228	115.812
587.175	10.14
591.121	24.189
595.064	33.003
599.006	129.23
602.945	59.696
606.883	59.609
610.819	142.145
614.753	119.345
618.685	87.872
622.615	227.807
626.544	186.498
630.471	253.324
634.395	297.193
638.318	448.132
642.239	333.361
646.158	307.069
650.076	548.161
653.991	652.291
657.905	741.912
661.817	895.038
665.726	1200.53
669.635	1544.01
673.541	1876.54
677.445	2283.89
681.348	2104.75
685.248	1902.7
689.147	1506.08
693.044	1431.34
696.94	1319.05
700.833	1364.05
704.724	1523.38
708.614	1612.19
712.502	1992.73
716.388	2016.73
720.272	2023.5
724.155	1888.13
728.035	1671.65
731.914	1655.13
735.791	1571.61
739.666	1450.07
743.539	1229.35
747.41	1145.06
751.28	1046.44
755.148	1316.2
759.014	1456.42
762.878	1249.8
766.74	1229.3
770.601	1241.35
774.46	1164.89
778.316	1047.38
782.172	911.966
786.025	617.589
789.876	454.236
793.726	413.862
797.574	442.46
801.42	267.025
805.264	90.552
809.107	132.036
812.947	136.471
816.786	57.843
820.623	30.096
824.459	23.821
828.292	72.852
832.124	22.13
835.954	32.685
839.782	140.428
843.608	94.713
847.433	58.644
851.255	32.821
855.076	6.018
858.895	126.002
862.713	152.873
866.528	126.666
870.342	37.406
874.154	69.085
877.965	90.711
881.773	141.29
885.58	252.831
889.385	144.32
893.188	465.786
896.989	281.243
900.789	387.658
904.587	446.031
908.383	410.373
912.177	296.673
915.97	450.922
919.76	421.118
923.55	392.267
927.337	463.36
931.122	404.399
934.906	278.381
938.688	228.325
942.468	287.22
946.247	336.058
950.023	360.845
953.798	355.58
957.572	428.256
961.343	195.877
965.113	154
968.881	297.469
972.647	260.658
976.411	260.397
980.174	279.791
983.935	271.288
987.694	195.341
991.452	192.376
995.207	269.989
998.961	369.374
1002.71	234.625
1006.46	218.862
1010.21	165.272
1013.96	168.067
1017.71	215.484
1021.45	285.211
1025.19	351.585
1028.93	296.478
1032.67	263.951
1036.41	245.388
1040.14	330.174
1043.87	328.363
1047.61	513.742
1051.34	415.566
1055.06	371.175
1058.79	244.885
1062.52	314.13
1066.24	449.295
1069.96	487.759
1073.68	528.87
1077.4	546.988
1081.11	498.203
1084.83	354.344
1088.54	381.502
1092.25	349.596
1095.96	296.204
1099.67	401.651
1103.37	429.792
1107.08	157.725
1110.78	67.989
1114.48	155.221
1118.18	133.281
1121.88	83.438
1125.57	221.09
1129.27	239.547
1132.96	273.645
1136.65	68.752
1140.34	22.915
1144.02	307.044
1147.71	25.389
1151.39	183.572
1155.07	223.234
1158.76	220.918
1162.43	10.528
1166.11	98.171
1169.79	56.726
1173.46	5.614
1177.13	74.587
1180.8	275.99
1184.47	263.953
1188.14	240.291
1191.8	120.221
1195.46	29.735
1199.13	44.789
1202.79	24.259
1206.45	106.462
1210.1	186.352
1213.76	293.693
1217.41	309.65
1221.06	165.066
1224.71	156.519
1228.36	167.299
1232.01	15.045
1235.65	147.862
1239.3	215.694
1242.94	328.521
1246.58	255.698
1250.22	239.462
1253.85	180.927
1257.49	180.817
1261.12	88.645
1264.75	120.386
1268.38	77.408
1272.01	216.731
1275.64	426.348
1279.27	262.73
1282.89	105.657
1286.51	113.707
1290.13	50.607
1293.75	22.664
1297.37	30.834
1300.98	95.936
1304.6	72.011
1308.21	156.864
1311.82	250.793
1315.43	133.093
1319.03	85.091
1322.64	15.261
1326.24	10.23
1329.85	9.006
1333.44	147.247
1337.04	151.855
1340.64	179.75
1344.24	255.87
1347.83	134.648
1351.42	126.531
1355.01	153.15
1358.6	39.237
1362.19	12.793
1365.78	48.657
1369.36	51.009
1372.94	177.13
1376.53	245.521
1380.1	236.19
1383.68	361.644
1387.26	164.176
1390.83	137.162
1394.41	135.403
1397.98	31.129
1401.55	47.962
1405.12	78.14
1408.68	253.81
1412.25	317.856
1415.81	260.623
1419.37	300.789
1422.93	363.154
1426.49	171.525
1430.05	157.785
1433.6	35.904
1437.15	9.897
1440.71	174.295
1444.26	86.818
1447.81	293.15
1451.35	419.193
1454.9	316.338
1458.44	317.382
1461.98	400.427
1465.53	329.763
1469.07	159.308
1472.6	126.188
1476.14	226.186
1479.67	174.209
1483.21	115.599
1486.74	183.969
1490.27	275.536
1493.8	367.312
1497.32	361.185
1500.85	454.525
1504.37	432.352
1507.89	304.213
1511.41	195.884
