Measurement: Raman, 514 nm, ccw, Raman Data Processed
Mineral: Fluorapophyllite-(K)
Rruff sample: R050084
Ideal chemistry: KCa_4_Si_8_O_20_F8H_2_O
Locality: near Ahmednagar, Maharashtra, India
Source: Rock Currier
Description: Greenish-white prismatic single crystal associated with scolecite
Measured chemistry: (K_0.98_Na_0.02_)Ca_4.00_Si_8.00_O_20_F_1.00_Â·8H_2_O
Pin_id: L00295
Orientation: Laser parallel to -a* (-1 0 0). Fiducial mark perpendicular to laser is parallel to -c [0 0 -1]
Raman shift (cm-1)	intensity
71.917	0
76.123	121.917
80.327	229.803
84.529	372.845
88.728	1018.13
92.926	2117.32
97.121	2397.99
101.314	2699.89
105.505	6873.13
109.694	20055.9
113.881	3746.04
118.066	2137.39
122.249	552.535
126.43	284.834
130.608	128.796
134.785	2.005
138.959	76.361
143.131	214.457
147.301	32.731
151.469	15.752
155.635	81.147
159.799	528.373
163.961	2758.51
168.121	6422.77
172.278	4206.9
176.434	1309.28
180.587	641.058
184.739	395.809
188.888	327.367
193.035	530.448
197.18	816.194
201.324	502.987
205.465	176.871
209.603	59.927
213.74	26.263
217.875	29.844
222.008	0.487
226.139	378.152
230.267	987.066
234.394	880.119
238.518	391.449
242.641	118.008
246.761	18.299
250.879	110.989
254.996	53.515
259.11	45.12
263.222	51.899
267.332	60.692
271.44	24.896
275.546	9.743
279.65	0.763
283.752	19.782
287.852	36.088
291.95	51.29
296.046	77.043
300.14	123.544
304.231	138.309
308.321	134.895
312.409	145.905
316.495	121.78
320.578	155.79
324.66	189.971
328.739	181.148
332.817	134.868
336.892	160.439
340.966	162.039
345.037	147.889
349.107	171.363
353.174	164.854
357.24	152.653
361.303	168.73
365.365	181.135
369.424	249.21
373.481	266.417
377.537	278.373
381.59	357.412
385.642	687.687
389.691	974.971
393.738	1455.25
397.784	2316.45
401.827	3063.2
405.868	2730.81
409.908	1811.3
413.945	1262.49
417.98	1025.61
422.014	822.77
426.045	743.838
430.075	1310.8
434.102	2293.28
438.127	1530.54
442.151	518.319
446.172	210.124
450.192	247.405
454.209	227.037
458.225	178.292
462.238	261.625
466.25	412.547
470.259	693.958
474.267	1096.86
478.273	1952.05
482.276	4957.69
486.278	12244.7
490.278	9618.78
494.276	3734.7
498.271	1923.71
502.265	1512.86
506.257	1319.33
510.247	1073.1
514.235	1129.76
518.221	1471.61
522.205	2136.89
526.187	2625.56
530.167	3352.84
534.145	5115.09
538.122	7528.77
542.096	8459.42
546.068	6941.6
550.039	5713.04
554.007	5639.27
557.973	5774.97
561.938	5441.43
565.901	5405.64
569.861	6478.52
573.82	9209.4
577.777	12953.5
581.732	16797.5
585.685	19705.7
589.636	18885.1
593.585	13318.4
597.532	7915.31
601.477	4386.26
605.42	2768.96
609.361	2186.75
613.301	1751.95
617.238	1282.13
621.174	931.265
625.108	871.047
629.039	793.366
632.969	791.596
636.897	631.926
640.823	493.357
644.747	485.895
648.669	555.516
652.589	572.24
656.508	471.025
660.424	432.34
664.339	413.025
668.251	397.753
672.162	311.902
676.071	197.81
679.978	108.132
683.883	47.432
687.786	81.232
691.687	55.838
695.586	38.69
699.484	12.306
703.379	25.842
707.273	54.362
711.165	7.469
715.055	7.648
718.943	19.058
722.829	9.89
726.713	4.616
730.595	31.594
734.476	19.997
738.354	68.101
742.231	69.899
746.106	19.988
749.978	12.736
753.849	1.608
757.719	15.189
761.586	34.547
765.451	0.053
769.315	68.992
773.177	61.266
777.036	15.725
780.894	0.955
784.75	126.554
788.605	238.642
792.457	455.633
796.307	411.778
800.156	165.57
804.003	49.259
807.848	75.843
811.691	47.321
815.532	27.273
819.371	30.9
823.209	2.032
827.045	47.922
830.878	35.686
834.71	65.273
838.54	41.697
842.369	20.981
846.195	11.781
850.02	59.28
853.842	87.863
857.663	109.801
861.482	84.716
865.299	51.905
869.115	56.93
872.928	77.207
876.74	116.805
880.55	65.88
884.358	73.054
888.164	16.529
891.969	31.779
895.771	78.918
899.572	91.24
903.371	71.271
907.168	84.921
910.963	7.43
914.757	26.931
918.548	42.709
922.338	65.02
926.126	24.599
929.912	29.986
933.697	12.776
937.479	50.055
941.26	25.843
945.039	85.59
948.816	69.259
952.591	20.871
956.365	19.425
960.136	15.972
963.906	45.441
967.674	81.053
971.441	108.839
975.205	50.939
978.968	71.165
982.729	47.486
986.488	68.056
990.245	129.099
994	161.207
997.754	137.79
1001.51	107.963
1005.26	112.643
1009	191.852
1012.75	214.314
1016.5	285.792
1020.24	267.4
1023.98	258.757
1027.72	282.216
1031.46	411.329
1035.19	562.153
1038.93	886.652
1042.66	1264.76
1046.39	1898.03
1050.12	2888.59
1053.85	5411.45
1057.57	11789
1061.29	24495.7
1065.02	24362.5
1068.74	13649.5
1072.45	7292.41
1076.17	4055.9
1079.88	2490.14
1083.6	1864.12
1087.31	1594.54
1091.02	1405.04
1094.72	1209.6
1098.43	876.956
1102.13	643.627
1105.84	494.355
1109.54	452.213
1113.24	392.052
1116.93	381.955
1120.63	384.026
1124.32	508.08
1128.01	263.15
1131.7	137.349
1135.39	155.63
1139.08	120.985
1142.76	190.171
1146.45	205.998
1150.13	204.619
1153.81	99.361
1157.48	82.036
1161.16	104.631
1164.84	50.991
1168.51	83.915
1172.18	100.083
1175.85	103.876
1179.52	143.977
1183.18	78.692
1186.85	51.446
1190.51	39.224
1194.17	13.192
1197.83	29.302
1201.48	55.7
1205.14	144.862
1208.79	114.913
1212.44	18.708
1216.09	20.923
1219.74	19.122
1223.39	7.424
1227.03	65.657
1230.68	117.371
1234.32	79.509
1237.96	103.671
1241.6	92.271
1245.23	45.93
1248.87	30.498
1252.5	4.035
1256.13	31.736
1259.76	37.414
1263.39	87.773
1267.02	97.156
1270.64	165.529
1274.26	83.923
1277.88	54.083
1281.5	45.176
1285.12	10.834
1288.74	9.789
1292.35	64.736
1295.96	81.474
1299.57	95.065
1303.18	44.567
1306.79	22.077
1310.4	14.363
1314	1.55
1317.6	8.356
1321.2	16.635
1324.8	6.506
1328.4	41.274
1331.99	74.924
1335.59	80.451
1339.18	79.881
1342.77	31.101
1346.36	16.052
1349.95	52.651
1353.53	17.191
1357.12	12.487
1360.7	46.049
1364.28	113.605
1367.86	84.022
1371.44	56.362
1375.01	58.644
1378.59	37.795
1382.16	25.878
1385.73	24.04
1389.3	1.173
1392.87	57.237
1396.43	57.31
1399.99	107.075
1403.56	160.205
1407.12	83.198
1410.68	139.131
1414.23	84.318
1417.79	94.004
1421.34	104.315
1424.9	64.437
1428.45	6.21
1431.99	97.936
1435.54	92.272
1439.09	124.396
1442.63	133.796
1446.17	148.491
1449.71	119.862
1453.26	61.457
1456.79	77.014
1460.33	32.315
1463.86	13.664
1467.39	43.09
1470.92	72.67
1474.45	71.781
1477.98	82.645
1481.51	62.218
1485.03	86.034
1488.56	128.564
1492.08	109.257
1495.6	0
