Measurement: Raman, 514 nm, ccw, Raman Data Processed
Mineral: Fluoro-richterite
Rruff sample: R040019
Ideal chemistry: Na(NaCa)Mg_5_Si_8_O_22_F_2_
Locality: Wilberforce, Ontario, Canada
Source: University of Arizona Mineral Museum
Description: Brown prismatic crystals
Measured chemistry: (Na_0.59_K_0.27_[box]_0.14_)_Σ=1_(Ca_1.30_Na_0.70_)_Σ=2_(Mg_4.67_Fe_0.17_Fe^3+^_0.10_Ti_0.03_Mn_0.02_Al_0.01_)_Σ=5_(Si_7.67_Al_0.33_)_Σ=8_(F_1.12_(OH)_0.88_)_Σ=2_; OH estimated by charge balance
Pin_id: L00352
Orientation: Laser parallel to a [1 0 0]. Fiducial mark perpendicular to laser is parallel to -b* (0 -1 0)
Raman shift (cm-1)	intensity
73.842	0
78.031	129.298
82.218	302.871
86.404	644.777
90.587	1066.6
94.768	1855.53
98.947	3054.39
103.124	5332.29
107.3	8582.42
111.473	10202
115.644	9550.02
119.813	6094.9
123.981	3149.42
128.146	1559.58
132.309	770.021
136.47	363.931
140.63	233.6
144.787	40.701
148.942	19.852
153.096	358.188
157.247	979.429
161.396	1193.37
165.544	972.139
169.689	993.069
173.833	1679.28
177.974	2362.61
182.114	2701.83
186.251	2280.08
190.387	1825.07
194.52	1545.68
198.652	1554.96
202.782	1669.91
206.909	2059.68
211.035	2175.57
215.159	2609.84
219.281	3606.37
223.4	5580.15
227.518	8627.18
231.634	10397.7
235.748	9488.88
239.86	6558.23
243.97	4412.98
248.079	3000.86
252.185	1978.17
256.289	1165.31
260.391	667.267
264.492	308.513
268.59	10.353
272.687	129.396
276.781	213.118
280.874	178.767
284.964	6.314
289.053	165.619
293.14	445.664
297.225	770.214
301.308	1159.73
305.389	1541.26
309.468	1967.27
313.545	2272.26
317.62	2104.17
321.693	1774.68
325.765	1428.02
329.834	1279.76
333.902	1213.74
337.967	1218.83
342.031	1171.78
346.093	1244.2
350.153	1506.85
354.21	2070.46
358.267	2858.07
362.321	3898.74
366.373	4650.46
370.423	4898.21
374.471	5130.98
378.518	6007.77
382.563	6601.56
386.605	6791.35
390.646	6747.14
394.685	6561.92
398.722	6389.68
402.757	5642.44
406.79	4495.24
410.821	3415.14
414.851	2440.05
418.878	2098.95
422.904	1953.84
426.927	1950.68
430.949	1768.46
434.969	1390.75
438.987	861.666
443.003	432.882
447.018	253.98
451.03	123.143
455.041	108.336
459.049	157.591
463.056	168.156
467.061	189.541
471.064	194.21
475.065	22.753
479.064	43.086
483.062	85.169
487.057	136.04
491.051	32.717
495.043	24.858
499.032	18.944
503.02	40.424
507.007	138.502
510.991	410.386
514.973	663.094
518.954	929.631
522.933	1052
526.91	1183.2
530.885	1220.29
534.858	1174.06
538.829	1242.33
542.799	1191.29
546.766	1196.15
550.732	1258.83
554.696	1171.35
558.658	1206.72
562.618	1121.92
566.576	1042.91
570.533	1017.66
574.488	921.194
578.44	838.488
582.391	808.544
586.341	538.362
590.288	330.938
594.233	45.4
598.177	121.177
602.119	164.356
606.059	107.597
609.997	46.881
613.933	44.91
617.868	164.139
621.801	215.136
625.731	366.969
629.66	484.551
633.588	684.869
637.513	806.036
641.437	1072.62
645.358	1400
649.278	1973.82
653.196	2713.98
657.113	3615.12
661.027	5304.49
664.94	8235.76
668.851	13285.2
672.76	23514.9
676.667	40432
680.572	51998.5
684.476	44255.3
688.378	26289.6
692.278	15172.7
696.176	9205.22
700.072	6296.05
703.967	4558.09
707.86	3784.1
711.751	3250.23
715.64	3012.54
719.527	2896.72
723.413	2837.24
727.297	2843.16
731.179	2865.88
735.059	2782.37
738.937	2617.66
742.814	2345.9
746.689	2038.62
750.562	1784.59
754.433	1511.08
758.303	1332.81
762.17	1161.96
766.036	978.575
769.901	778.416
773.763	659.606
777.624	479.866
781.482	455.213
785.339	463.637
789.195	321.968
793.048	317.231
796.9	283.444
800.75	331.572
804.598	309.679
808.445	231.652
812.289	201.8
816.132	97.014
819.973	109.177
823.813	115.268
827.65	1.277
831.486	49.181
835.32	67.974
839.152	38.357
842.983	39.962
846.812	67.932
850.639	78.347
854.464	14.08
858.288	1.015
862.11	6.982
865.93	25.851
869.748	51.572
873.564	79.235
877.379	107.897
881.192	159.646
885.004	304.44
888.813	448.263
892.621	541.172
896.427	531.188
900.232	681.3
904.034	743.496
907.835	910.893
911.634	1009.91
915.432	1163.5
919.227	1545.1
923.021	1935.8
926.813	2548.25
930.604	2849.76
934.393	2688.29
938.18	2400.84
941.965	1947.4
945.749	1594.96
949.53	1328.51
953.311	1115.06
957.089	948.595
960.866	820.121
964.641	829.576
968.414	742.889
972.185	745.229
975.955	773.444
979.723	709.664
983.49	716.888
987.254	675.341
991.017	622.048
994.779	722.148
998.538	743.71
1002.3	721.743
1006.05	838.091
1009.81	913.434
1013.56	1093.34
1017.31	1186.47
1021.06	1240.54
1024.81	1373.8
1028.55	1497.35
1032.3	1729.73
1036.04	2027.51
1039.78	2310.57
1043.52	2479.98
1047.26	2801.57
1050.99	2882.42
1054.73	3061.43
1058.46	3380.68
1062.19	3652.82
1065.92	3893.6
1069.65	3975.31
1073.37	3783.66
1077.1	3300.84
1080.82	2840.3
1084.54	2587.38
1088.26	2412.63
1091.97	1809.22
1095.69	1589.87
1099.4	1249.13
1103.12	1121.75
1106.83	930.367
1110.54	772.969
1114.24	652.693
1117.95	607.992
1121.65	668.677
1125.35	641.524
1129.06	408.936
1132.75	404.909
1136.45	386.308
1140.15	312.304
1143.84	218.695
1147.53	260.093
1151.22	179.53
1154.91	121.797
1158.6	132.575
1162.28	6.348
1165.97	69.592
1169.65	16.929
1173.33	18.163
1177.01	56.711
1180.69	75.303
1184.36	13.632
1188.04	23.893
1191.71	68.623
1195.38	12.446
1199.05	11.555
1202.71	11.28
1206.38	53.001
1210.04	41.254
1213.71	19.307
1217.37	2.376
1221.03	123.04
1224.68	18.472
1228.34	38.792
1231.99	87.229
1235.65	82.36
1239.3	77.018
1242.95	116.339
1246.59	141.388
1250.24	103.982
1253.88	79.078
1257.53	110.865
1261.17	96.297
1264.81	126.232
1268.45	171.955
1272.08	194.303
1275.72	152.028
1279.35	126.743
1282.98	135.669
1286.61	128.675
1290.24	94.749
1293.87	183.713
1297.49	146.935
1301.11	167.466
1304.73	158.889
1308.36	115.688
1311.97	145.947
1315.59	162.28
1319.2	176.958
1322.82	69.561
1326.43	194.917
1330.04	138.257
1333.65	151.139
1337.26	108.499
1340.86	122.718
1344.47	137.828
1348.07	132.812
1351.67	102
1355.27	102.601
1358.87	184.934
1362.46	71.184
1366.06	14.402
1369.65	91.281
1373.24	29.62
1376.83	72.239
1380.42	70.535
1384	98.935
1387.59	33.665
1391.17	118.143
1394.75	91.865
1398.33	5.111
1401.91	49.314
1405.49	31.196
1409.06	41.759
1412.64	135.683
1416.21	166.072
1419.78	166.726
1423.35	111.273
1426.91	135.351
1430.48	47.816
1434.05	140.082
1437.61	176.948
1441.17	160.568
1444.73	212.033
1448.29	255.843
1451.84	271.849
1455.4	229.178
1458.95	212.817
1462.5	191.219
1466.05	156.359
1469.6	151.367
1473.15	40.114
1476.69	185.482
1480.24	81.948
1483.78	186.98
1487.32	81.141
1490.86	56.231
1494.39	50.348
1497.93	61.045
1501.46	6.392
1505	148.736
1508.53	52.996
1512.06	166.567
1515.59	52.92
1519.11	81.499
1522.64	0
