Measurement: Raman, 514 nm, ccw, Raman Data Processed
Mineral: Fluorophlogopite
Rruff sample: R040039
Ideal chemistry: KMg_3_(Si_3_Al)O_10_F_2_
Locality: Franklin, Sussex County, New Jersey, USA
Source: University of Arizona Mineral Museum
Description: Brown hexagonal sheets
Measured chemistry: (K_0.92_Na_0.06_[box]_0.02_)_Σ=1_(Mg_2.94_Fe_0.04_Ti_0.02_)_Σ=3_(Si_2.98_Al_1.02_)O_10_(F_1.24_(OH)_0.76_)_Σ=2_; OH estimated by charge balance
Pin_id: L00415
Orientation: Laser parallel to [-1 0 -1]. Fiducial mark perpendicular to laser is parallel to b* (0 1 0)
Raman shift (cm-1)	intensity
94.838	0
99.023	1577.81
103.206	4971.62
107.387	5926.04
111.566	3890.59
115.744	2991.99
119.919	2238.01
124.092	1782.03
128.263	1367.94
132.432	867.789
136.599	515.831
140.764	417.489
144.927	163.238
149.088	83.492
153.247	72.846
157.404	101.207
161.559	1.275
165.711	203.774
169.862	551.789
174.011	1105.17
178.158	1781.15
182.303	3202.85
186.446	6841.63
190.587	15142.6
194.726	28035.1
198.862	27278.9
202.997	13973.7
207.13	6069.46
211.261	3156.43
215.39	1853.52
219.517	1017.93
223.642	444.408
227.765	266.928
231.886	148.587
236.005	61.01
240.122	98.307
244.237	98.477
248.35	174.554
252.461	248.492
256.57	172.428
260.677	65.959
264.782	422.228
268.885	1119
272.986	2852.06
277.085	5314.63
281.182	5113.06
285.278	2793.82
289.371	1959.5
293.462	1815.68
297.552	1961.71
301.639	2675.61
305.724	4566.16
309.808	7070.39
313.889	8432.41
317.969	8420.18
322.046	7654.42
326.122	6379.77
330.196	4397.03
334.267	2920.66
338.337	2061.81
342.405	1484.98
346.471	1083.87
350.535	955.699
354.597	1082.44
358.657	1208.06
362.715	1544.53
366.771	2571.85
370.825	3842.98
374.877	3055.48
378.928	1742.59
382.976	1073.26
387.023	947.243
391.067	738.632
395.11	594.438
399.15	578.456
403.189	557.846
407.226	513.73
411.261	289.03
415.294	151.188
419.325	140.486
423.354	131.173
427.381	32.099
431.406	41.943
435.43	149.416
439.451	270.745
443.471	235.319
447.488	236.417
451.504	445.148
455.518	607.527
459.53	773.562
463.54	1251.25
467.548	1285.6
471.554	616.602
475.558	70.28
479.561	51.48
483.561	148.929
487.559	81.806
491.556	206.995
495.551	209.832
499.544	403.382
503.535	826.675
507.524	1365.72
511.511	1562.52
515.496	1249.08
519.48	781.387
523.461	485.466
527.441	317.312
531.418	197.961
535.394	7.424
539.368	43.621
543.34	154.506
547.311	156.078
551.279	55.64
555.245	131.251
559.21	114.956
563.173	134.634
567.133	52.512
571.092	53.726
575.049	150.382
579.005	33.473
582.958	90.902
586.909	4.871
590.859	87.838
594.807	63.833
598.753	197.956
602.697	142.475
606.639	173.013
610.579	405.421
614.518	775.696
618.454	1193.85
622.389	1550.88
626.322	2129.81
630.253	3001.66
634.182	3969.45
638.109	4462.37
642.035	4632.37
645.958	4381.52
649.88	4788.22
653.8	5447.74
657.718	5767.25
661.634	6626.73
665.549	8246.15
669.461	11005.5
673.372	16144.9
677.281	23155
681.188	29664.3
685.093	29565.8
688.997	24928.5
692.898	18417.8
696.798	12079
700.696	7346.85
704.592	4842.36
708.486	3534.92
712.378	2683.36
716.269	2105.44
720.158	1837.37
724.045	1641.1
727.93	1627.87
731.813	1626.26
735.694	1520.43
739.574	1491.7
743.452	1375.17
747.328	1438.92
751.202	1532.32
755.075	1308.04
758.945	1065.05
762.814	835.17
766.681	916.324
770.546	984.959
774.409	1021.24
778.271	1075.56
782.131	1069.14
785.989	1126.56
789.845	1313.18
793.699	1466.51
797.552	1328.7
801.402	960.453
805.251	727.813
809.098	631.22
812.944	617.668
816.787	579.158
820.629	447.691
824.469	133.268
828.307	157.89
832.144	102.548
835.978	127.236
839.811	38.932
843.642	69.418
847.472	107.805
851.299	4.539
855.125	129.551
858.949	330.436
862.771	227.43
866.591	46.459
870.41	77.327
874.227	132.238
878.042	94.707
881.855	167.608
885.667	22.414
889.476	25.297
893.284	51.399
897.09	232.707
900.895	332.227
904.698	325.933
908.499	160.703
912.298	97.563
916.095	98.468
919.891	89.414
923.685	263.401
927.477	213.416
931.267	132.464
935.056	86.458
938.843	1.516
942.628	50.515
946.411	208.472
950.193	185.259
953.973	117.016
957.751	16.773
961.527	56.549
965.302	157.339
969.075	255.141
972.846	533.951
976.615	554.77
980.383	475.593
984.149	553.678
987.913	714.509
991.675	778.129
995.436	1068.9
999.195	1258.77
1002.95	1787.66
1006.71	1512.88
1010.46	1436.79
1014.21	1420.6
1017.96	1352.11
1021.71	1362.13
1025.46	1447.85
1029.2	1767.14
1032.95	2426.91
1036.69	2957.35
1040.43	2425.5
1044.17	1798.98
1047.9	1586.14
1051.64	1400.06
1055.37	1263.59
1059.1	1170.22
1062.83	1263.66
1066.56	1516.72
1070.29	1860.63
1074.01	2043.44
1077.73	2186.28
1081.46	2529.81
1085.17	2947.77
1088.89	3220.66
1092.61	3793.78
1096.32	3927.57
1100.04	3818.12
1103.75	3609.3
1107.46	3121.73
1111.16	2254.35
1114.87	1577
1118.57	1319.23
1122.28	1321.38
1125.98	833.454
1129.67	505.447
1133.37	179.373
1137.07	219.225
1140.76	28.026
1144.45	0.797
1148.14	168.557
1151.83	219.118
1155.52	251.495
1159.21	46.66
1162.89	60.716
1166.57	1.604
1170.25	25.378
1173.93	44.093
1177.61	157.769
1181.28	263.342
1184.96	273.828
1188.63	75.34
1192.3	35.246
1195.97	150.693
1199.64	29.782
1203.3	231.06
1206.97	289.833
1210.63	244.473
1214.29	220.952
1217.95	203.234
1221.6	125.363
1225.26	44.793
1228.91	83.715
1232.57	373.938
1236.21	363.547
1239.86	561.722
1243.51	489.281
1247.16	376.693
1250.8	219.742
1254.44	159.863
1258.08	137.067
1261.72	244.108
1265.36	480.766
1268.99	697.325
1272.63	703.725
1276.26	660.658
1279.89	607.366
1283.52	253.681
1287.15	279.38
1290.77	214.582
1294.4	318.388
1298.02	517.262
1301.64	608.388
1305.26	641.301
1308.88	504.419
1312.49	616.99
1316.11	410.073
1319.72	352.358
1323.33	274.047
1326.94	306.389
1330.55	465.197
1334.15	361.892
1337.76	399.905
1341.36	320.132
1344.96	220.986
1348.56	182.338
1352.16	70.216
1355.75	99.766
1359.35	18.96
1362.94	172.251
1366.53	242.361
1370.12	222.533
1373.71	234.166
1377.3	433.839
1380.88	295.032
1384.46	198.435
1388.05	141.526
1391.63	66.095
1395.2	13.308
1398.78	129.245
1402.36	281.526
1405.93	433.546
1409.5	475.337
1413.07	487.202
1416.64	519.032
1420.21	270.848
1423.78	102.631
1427.34	122.562
1430.9	86.117
1434.46	244.349
1438.02	286.582
1441.58	737.208
1445.13	979.468
1448.69	1192.22
1452.24	1225.9
1455.79	1344.1
1459.34	1121.82
1462.89	917.176
1466.44	702.958
1469.98	366.064
1473.53	307.205
1477.07	298.157
1480.61	460.689
1484.14	704.91
1487.68	660.576
1491.22	637.666
1494.75	555.646
1498.28	375.278
1501.81	267.686
1505.34	253.357
1508.87	63.449
1512.4	8.678
1515.92	122.542
1519.44	0
