Measurement: Raman, 514 nm, ccw, Raman Data Processed
Mineral: Fluorapatite
Rruff sample: R060184
Ideal chemistry: Ca_5_(PO_4_)_3_F
Locality: Yates mine, Otter Lake, Quebec, Canada
Source: Lloyd Twaites
Description: Green colored fragment of a hexagonal prism
Measured chemistry: (Ca_0.99_Ce_0.01_)_5.00_((P_0.98_Si_0.01_S_0.01_)O_4_)_3_F_1.00_
Pin_id: M00887
Orientation: Laser parallel to c* (0 0 1). Fiducial mark perpendicular to laser is parallel to a [1 0 0]
Raman shift (cm-1)	intensity
170.559	0
175.467	48.2756
180.372	61.6172
185.274	47.3003
190.174	34.6521
195.072	40.1211
199.967	62.0166
204.859	128.81
209.749	203.297
214.637	183.721
219.521	188.771
224.404	343.126
229.284	403.726
234.161	464.729
239.036	415.651
243.908	179.712
248.777	203.983
253.645	240.712
258.509	688.909
263.371	1016.8
268.231	977.628
273.088	801.15
277.942	685.601
282.794	505.901
287.643	433.426
292.49	498.425
297.335	498.479
302.176	632.103
307.015	683.247
311.852	632.96
316.686	420.142
321.518	336.58
326.347	221.558
331.173	161.785
335.997	93.4578
340.819	98.3269
345.638	7.77954
350.454	48.3897
355.268	46.4971
360.079	54.9417
364.888	12.0735
369.694	3.6333
374.498	87.6877
379.299	47.6484
384.097	12.2876
388.893	26.2761
393.686	12.5271
398.477	116.14
403.266	223.534
408.051	218.853
412.835	308.259
417.615	403.53
422.394	723.827
427.169	1262.29
431.942	1482.12
436.713	1890.42
441.481	2256.24
446.246	2500.6
451.009	2093.51
455.769	1325.97
460.527	852.011
465.282	602.462
470.035	481.316
474.785	285.875
479.532	227.978
484.277	170.211
489.02	37.9009
493.76	34.7593
498.497	3.28662
503.232	12.4727
507.964	21.1846
512.693	46.7837
517.421	32.1113
522.145	3.60596
526.867	49.7285
531.587	41.1929
536.303	29.2891
541.018	0.873535
545.729	93.1318
550.439	197.662
555.145	114.874
559.849	237.834
564.551	402.576
569.25	648.334
573.946	1610.89
578.64	3401.66
583.331	2578.17
588.02	1392.78
592.706	1179.97
597.39	993.634
602.071	1563.54
606.749	2268.67
611.425	1457.77
616.099	1151.45
620.769	612.382
625.438	373.229
630.103	354.571
634.766	381.822
639.427	624.822
644.085	611.881
648.74	925.707
653.393	802.704
658.044	672.58
662.691	470.572
667.336	296.236
671.979	391.212
676.619	296.582
681.257	263.851
685.892	214.2
690.524	50.8159
695.154	170.012
699.781	166.469
704.406	41.1367
709.028	136.659
713.647	156.11
718.264	179.949
722.878	117.356
727.49	145.316
732.1	92.5332
736.706	37.5107
741.31	103.978
745.912	36.0947
750.511	170.63
755.107	73.2695
759.701	50.0303
764.292	163.807
768.881	48.6934
773.467	136.938
778.051	1.38086
782.632	112.305
787.21	154.777
791.786	41.9883
796.359	34.9541
800.93	126.956
805.498	59.0869
810.064	111.481
814.627	220.939
819.187	85.3164
823.745	202.099
828.301	71.7705
832.853	92.665
837.403	234.382
841.951	90.5205
846.496	77.293
851.038	169.742
855.578	305.66
860.116	266.295
864.65	307.998
869.183	288.569
873.712	158.431
878.239	33.6074
882.764	0.850586
887.285	182.44
891.805	180.873
896.322	74.3906
900.836	38.3603
905.347	178.999
909.856	186.697
914.363	194.775
918.867	131.423
923.368	2.10742
927.867	119.814
932.363	243.664
936.856	633.031
941.347	892.23
945.836	1936.91
950.322	3938.49
954.805	10047.9
959.286	26525.9
963.764	47298.6
968.239	23693.5
972.712	7598.43
977.183	2504.26
981.65	974.684
986.116	340.704
990.578	142.941
995.038	99.0732
999.496	78.7617
1003.95	743.352
1008.4	953.385
1012.85	722.428
1017.3	516.97
1021.75	781.969
1026.19	1140.54
1030.63	1806.4
1035.06	1573.05
1039.5	1023.34
1043.93	868.019
1048.36	828.943
1052.79	1073.82
1057.21	1417.1
1061.63	1345.38
1066.05	1086.66
1070.47	1487.36
1074.88	1406.4
1079.29	1026.88
1083.7	581.762
1088.11	348.029
1092.51	92.6973
1096.91	103.758
1101.31	57.7559
1105.7	158.744
1110.1	16.0156
1114.49	62.7324
1118.88	300.156
1123.26	276.805
1127.64	5.52734
1132.02	192.057
1136.4	163.438
1140.78	16.9707
1145.15	212.264
1149.52	143.93
1153.89	206.709
1158.25	149.172
1162.61	158.918
1166.97	296.898
1171.33	145.088
1175.68	108.039
1180.04	35.5156
1184.39	144.727
1188.73	218.522
1193.08	54.8945
1197.42	319.144
1201.76	24.2578
1206.1	212.244
1210.43	33.7656
1214.76	258.455
1219.09	354.051
1223.41	261.182
1227.74	81.8496
1232.06	25.6055
1236.38	57.2344
1240.69	129.381
1245.01	205.078
1249.32	66.7715
1253.63	145.443
1257.93	35.875
1262.23	85.5547
1266.54	125.705
1270.83	105.365
1275.13	275.551
1279.42	120.256
1283.71	47.5781
1288	30.8848
1292.28	226.721
1296.57	98.0644
1300.85	194.906
1305.12	194.203
1309.4	99.0527
1313.67	398.332
1317.94	197.133
1322.21	284.031
1326.47	155.598
1330.73	375.574
1334.99	342.961
1339.25	11.2363
1343.5	471.861
1347.75	196.565
1352	82.5488
1356.25	165.926
1360.49	163.762
1364.73	287.357
1368.97	221.025
1373.21	132.879
1377.44	238.107
1381.67	67.9883
1385.9	293.842
1390.13	111.066
1394.35	92.3262
1398.57	153.885
1402.79	281.676
1407	166.127
1411.22	216.588
1415.43	266.721
1419.63	169.248
1423.84	137.152
1428.04	362.518
1432.24	154.637
1436.44	191.809
1440.63	156.922
1444.83	230.269
1449.02	265.338
1453.2	275.92
1457.39	301.352
1461.57	321.832
1465.75	195.9
1469.93	230.559
1474.1	69.7305
1478.27	142.393
1482.44	193.4
1486.61	103.838
1490.77	183.318
1494.93	399.01
1499.09	171.068
1503.25	181.549
1507.4	298.602
1511.55	54.4844
1515.7	84.2441
1519.85	375.949
1523.99	122.873
1528.13	39.9922
1532.27	259.992
1536.4	295.103
1540.54	16.3906
1544.67	60.0762
1548.8	198.662
1552.92	153.609
1557.05	148.09
1561.16	9.61133
1565.28	0
