Measurement: Raman, 514 nm, ccw, Raman Data Processed
Mineral: Fluor-buergerite
Rruff sample: R060132
Ideal chemistry: NaFe^3+^_3_Al_6_(Si_6_O_18_)(BO_3_)_3_O_3_F
Locality: 20 km. south of San Luis Potasi, Mexico
Source: University of Arizona Mineral Museum
Description: Brown short prismatic
Measured chemistry: (Na_0.87_Ca_0.03_[box]_0.10_)(Fe^3+^_0.82_Al_0.12_Mg_0.04_Ti_0.02_)_3_Al_6_(BO_3_)_3_(Si_0.98_Al_0.02_)_6_O_18_(O_0.66_F_0.19_(OH)_0.15_)_4_
Pin_id: L00828
Orientation: Laser parallel to -c* (0 0 -1). Fiducial mark perpendicular to laser is parallel to -a [-1 0 0]
Raman shift (cm-1)	intensity
131.668	0
136.585	1.92578
141.5	172.883
146.412	198.278
151.321	694.445
156.229	836.517
161.134	764.337
166.036	1234.48
170.936	1324.45
175.834	1629.33
180.729	1889.36
185.622	2191.31
190.512	3364.47
195.4	2279.4
200.286	2384.54
205.169	1514.05
210.049	288.131
214.928	131.617
219.803	18.1113
224.677	33.3867
229.548	106.363
234.416	23.4268
239.282	346.443
244.146	663.746
249.007	1067.5
253.866	2129.41
258.722	3534.48
263.576	3602.24
268.427	3385.18
273.276	3776.28
278.123	3857.82
282.967	2957.89
287.809	2292.55
292.648	2117.64
297.485	2328.23
302.319	1857.25
307.151	1191.12
311.98	1333.13
316.807	1297.71
321.631	2127.81
326.454	2342.91
331.273	2344.45
336.09	1965.35
340.905	1876.64
345.717	2247.43
350.527	2509.45
355.334	2226.98
360.139	1878.38
364.941	1651.1
369.741	1330.33
374.538	1145.98
379.333	929.92
384.126	977.102
388.916	1591.85
393.703	2615.35
398.488	3464.6
403.271	3901.49
408.051	3206.39
412.828	2222.33
417.603	851.327
422.376	25.5918
427.146	500.062
431.914	200.233
436.679	19.5967
441.442	419.669
446.202	1300.78
450.96	2042.66
455.715	2779.58
460.467	2903.61
465.218	2785.76
469.965	2301.44
474.711	1470.72
479.454	799.64
484.194	241.217
488.932	21.5459
493.667	76.6992
498.4	31.4883
503.13	347.258
507.858	1168.82
512.583	1788.63
517.306	1428.79
522.026	807.242
526.744	296.718
531.459	40.8369
536.172	7.55078
540.882	416.863
545.59	946.864
550.295	1393.92
554.998	1924.65
559.698	2086.18
564.396	1945.03
569.091	1869.63
573.784	2533.58
578.474	3390.28
583.162	4062.41
587.847	5352.52
592.529	6641.69
597.209	9144.75
601.887	12340.5
606.562	16023
611.235	19046.9
615.905	21440.2
620.572	23853.6
625.237	27642.7
629.9	31692.3
634.56	36931.4
639.217	37789.3
643.872	32865.3
648.524	26068.1
653.174	21913.7
657.821	18196
662.466	13854.9
667.108	10239.4
671.748	7408.82
676.385	4871.71
681.02	2312.44
685.652	946.512
690.281	256.58
694.908	561.849
699.533	935.032
704.155	1159.05
708.774	1458.93
713.391	1450.13
718.005	930.334
722.617	872.122
727.226	623.283
731.833	734.723
736.437	730.294
741.039	705.911
745.638	1024.38
750.234	1910.7
754.828	2433.81
759.419	2266.25
764.008	1553.17
768.595	945.948
773.178	724.786
777.759	1070.28
782.338	1833.95
786.914	3111.71
791.488	3421.5
796.059	1826.24
800.627	876.894
805.193	771.383
809.756	498.694
814.317	460.764
818.875	165.519
823.431	88.2607
827.984	108.706
832.534	220.801
837.082	121.856
841.627	159.717
846.17	189.885
850.71	15.5557
855.248	0.764648
859.783	20.7969
864.316	27.2949
868.846	145.612
873.373	138.019
877.898	148.948
882.42	375.519
886.94	475.935
891.457	457.275
895.971	588.595
900.483	717.081
904.993	727.782
909.5	894.922
914.004	971.284
918.505	1080.97
923.004	1134.96
927.501	1367.16
931.995	1488.54
936.486	1672.14
940.975	1789.99
945.461	1751.11
949.945	2145.45
954.426	2300.26
958.904	2259.68
963.38	2453.81
967.853	2384.51
972.324	2644.01
976.792	2651.51
981.258	2743.54
985.72	2635.19
990.181	2778.51
994.639	2608.76
999.094	2555.53
1003.55	2810.47
1008	2801.81
1012.44	2936.82
1016.89	3362.5
1021.33	3136.13
1025.77	3080.16
1030.21	2621.71
1034.64	2326.51
1039.07	2246.62
1043.5	2057.55
1047.93	2181.53
1052.35	2504.41
1056.78	3003.38
1061.19	3209.22
1065.61	2862.64
1070.02	2452.6
1074.43	2149.91
1078.84	1755.01
1083.25	1645.82
1087.65	1514.33
1092.05	1294.78
1096.45	1525.79
1100.85	1280.77
1105.24	1017.79
1109.63	995.894
1114.02	1022.28
1118.4	849.929
1122.78	815.535
1127.16	650.715
1131.54	379.389
1135.92	218.719
1140.29	281.495
1144.66	38.4522
1149.02	87.9629
1153.39	31.6572
1157.75	53.4307
1162.11	42.4219
1166.46	4.49219
1170.82	11.3223
1175.17	100.8
1179.52	131.698
1183.86	1.73144
1188.21	1.75195
1192.55	23.9365
1196.89	34.1465
1201.22	37.959
1205.55	190.453
1209.88	15.1162
1214.21	218.288
1218.54	309.36
1222.86	453.669
1227.18	816.91
1231.5	1164.58
1235.81	1624.55
1240.12	2379.83
1244.43	2862.48
1248.74	2889.39
1253.04	2787.51
1257.34	2988.85
1261.64	3099.4
1265.94	3239.13
1270.23	3026.04
1274.52	2726.76
1278.81	2811.91
1283.1	3115.27
1287.38	3630.2
1291.66	3603.94
1295.94	3258.34
1300.21	2670.68
1304.48	2591.94
1308.75	2663.57
1313.02	3001.59
1317.29	2945.75
1321.55	2581.39
1325.81	2539.83
1330.06	2319.07
1334.32	2152.27
1338.57	2188.55
1342.82	2041.52
1347.06	1945.23
1351.31	2053.91
1355.55	1714.39
1359.79	1647.12
1364.02	1612.61
1368.26	1311.64
1372.49	1080.9
1376.71	948.794
1380.94	670.337
1385.16	671.452
1389.38	672.268
1393.6	710.614
1397.81	527.898
1402.02	715.997
1406.23	592.709
1410.44	469.017
1414.64	436.434
1418.85	243.165
1423.04	69.9434
1427.24	221.46
1431.43	178.851
1435.62	106.493
1439.81	0.571289
1444	164.139
1448.18	200.885
1452.36	29.0781
1456.54	25.3701
1460.71	95.1191
1464.89	67.8848
1469.06	127
1473.22	135.734
1477.39	26.5088
1481.55	203.385
1485.71	197.424
1489.86	119.734
1494.02	215.443
1498.17	167.661
1502.32	151.528
1506.46	112.415
1510.61	295.875
1514.75	186.447
1518.88	145.733
1523.02	336.739
1527.15	182.265
1531.28	130.428
1535.41	146.277
1539.53	197
1543.66	104.946
1547.78	73.6504
1551.89	235.665
1556.01	305.618
1560.12	95.6494
1564.23	242.685
1568.33	0.516602
