Measurement: Raman, 514 nm, ccw, Raman Data Processed
Mineral: Fluorapatite
Rruff sample: R050194
Ideal chemistry: Ca_5_(PO_4_)_3_F
Locality: Siglo XX mine, Llallagua, Bolivia
Source: Dave Bunk Minerals
Description: Purple crystal fragments
Measured chemistry: Ca_5.00_(P_1.00_O_4_)_3_F_1.00_
Pin_id: L01106
Orientation: Laser parallel to -c* (0 0 -1). Fiducial mark perpendicular to laser is parallel to -a [-1 0 0]
Raman shift (cm-1)	intensity
134.127	0
139.043	57.5288
143.956	89.8677
148.867	79.6382
153.775	49.29
158.681	67.0674
163.585	2.03857
168.486	37.4385
173.385	84.1606
178.282	68.6856
183.176	53.959
188.067	84.5112
192.956	71.7681
197.843	53.4233
202.727	79.3613
207.609	114.351
212.489	178.624
217.366	12.5864
222.24	95.6807
227.112	128.762
231.982	104.938
236.849	56.9609
241.714	45.585
246.577	39.8843
251.437	195.948
256.294	98.5918
261.149	82.1719
266.002	90.356
270.852	49.5742
275.7	110.118
280.545	35.4536
285.388	28.0571
290.229	148.779
295.067	224.851
299.902	123.973
304.735	160.749
309.566	163.306
314.394	124.639
319.22	40.3394
324.043	145.098
328.864	3.19531
333.682	63.3643
338.498	22.7769
343.311	49.2339
348.122	86.9394
352.931	79.9165
357.737	72.791
362.54	61.564
367.341	92.917
372.14	142.125
376.936	68.6338
381.73	49.7305
386.521	105.436
391.31	108.391
396.096	38.8184
400.88	253.835
405.661	2.17285
410.44	191.117
415.216	118.814
419.99	49.1846
424.761	91.75
429.53	136.732
434.297	120.644
439.061	116.429
443.822	191.509
448.581	193.911
453.337	111.215
458.091	170.826
462.843	160.924
467.592	198.258
472.338	128.004
477.082	174.468
481.824	107.376
486.563	68.1738
491.3	145.186
496.034	200.26
500.765	69.2842
505.494	26.5186
510.221	105.814
514.945	183.863
519.666	44.0918
524.385	119.874
529.102	50.9424
533.816	139.847
538.527	98.8926
543.236	210.096
547.943	205.015
552.647	96.7529
557.348	145.15
562.047	63.3193
566.744	5.18066
571.438	224.737
576.129	212.238
580.818	331.716
585.504	142.915
590.188	187.5
594.87	185.481
599.549	168.67
604.225	190.569
608.899	182.877
613.57	142.5
618.239	254.018
622.905	40.0049
627.569	2.46582
632.23	100.275
636.889	41.8369
641.545	103.41
646.198	260.802
650.849	116.722
655.498	175.523
660.144	155.248
664.787	4.83008
669.428	161.094
674.067	141.102
678.703	86.5703
683.336	110.758
687.967	89.3828
692.595	96.5684
697.221	133.705
701.844	131.393
706.465	213.394
711.083	163.053
715.698	22.7988
720.311	238.66
724.922	200.744
729.53	183.607
734.135	123.414
738.738	81.2617
743.338	192.213
747.936	160.103
752.531	86.4258
757.124	196.66
761.714	142.478
766.302	240.025
770.887	171.875
775.469	86.2129
780.049	112.695
784.626	191.705
789.201	264.301
793.773	34.5
798.343	198.297
802.91	90.7754
807.475	69.7852
812.037	79.4121
816.596	232.068
821.153	354.565
825.707	192.844
830.259	26.1113
834.808	126.689
839.355	15.334
843.899	98.5156
848.441	44.2148
852.98	194.215
857.516	219.115
862.05	425.897
866.581	226.971
871.11	166.828
875.636	262.32
880.159	69.5312
884.68	54.9062
889.199	229.377
893.714	125.412
898.228	81.4394
902.738	59.6074
907.246	236.768
911.752	241.242
916.255	74.3086
920.755	16.3555
925.253	342.644
929.748	104.24
934.241	126.188
938.731	14.3242
943.218	199.648
947.703	338.51
952.186	228.195
956.665	490.67
961.142	997.428
965.617	2235.38
970.089	728.481
974.558	431.434
979.025	135.332
983.489	193.627
987.951	176.418
992.41	83.5977
996.866	148.785
1001.32	35.5273
1005.77	114.121
1010.22	5.63281
1014.67	238.195
1019.11	226.305
1023.55	82.7598
1027.99	182.041
1032.42	8.46094
1036.86	236.565
1041.29	124.883
1045.72	25.3438
1050.14	109.043
1054.56	184.402
1058.98	210.125
1063.4	61.1133
1067.82	210.297
1072.23	160.871
1076.64	170.324
1081.05	378.113
1085.45	21.0781
1089.85	231.766
1094.25	442.84
1098.65	157.66
1103.04	217.414
1107.43	234.125
1111.82	299.023
1116.21	184.965
1120.59	326.656
1124.97	135.438
1129.35	351.906
1133.73	244.023
1138.1	291.551
1142.47	256.742
1146.84	4.46094
1151.21	174.223
1155.57	266.062
1159.93	365.156
1164.29	336.113
1168.64	339.719
1172.99	247.797
1177.34	475.711
1181.69	257.863
1186.04	175.496
1190.38	404.059
1194.72	372.223
1199.05	394.703
1203.39	168.445
1207.72	271.426
1212.05	364.516
1216.37	128.793
1220.7	200.723
1225.02	249.664
1229.34	327.805
1233.65	357.188
1237.97	454.805
1242.28	268.688
1246.59	526.902
1250.89	74.3008
1255.19	271.305
1259.49	452.856
1263.79	84.0273
1268.09	461.082
1272.38	461.031
1276.67	80.5273
1280.95	315.688
1285.24	262.711
1289.52	186.316
1293.8	14.6016
1298.08	262.469
1302.35	148.352
1306.62	233.637
1310.89	155.648
1315.15	145.441
1319.42	230.543
1323.68	402.449
1327.94	240.531
1332.19	731.918
1336.44	566.672
1340.69	545.832
1344.94	433.348
1349.19	336.211
1353.43	713.484
1357.67	224.164
1361.9	355.191
1366.14	452.887
1370.37	456.074
1374.6	182.856
1378.83	383.344
1383.05	363.594
1387.27	451.922
1391.49	102.641
1395.7	234.777
1399.92	864.023
1404.13	503.07
1408.34	485.629
1412.54	169.176
1416.74	273.758
1420.94	435.43
1425.14	260.754
1429.34	437.242
1433.53	153.606
1437.72	155.863
1441.9	389.344
1446.09	108.031
1450.27	333.691
1454.45	186.211
1458.63	258.078
1462.8	230.945
1466.97	388.164
1471.14	259.949
1475.31	302.316
1479.47	380.359
1483.63	277.012
1487.79	434.262
1491.94	50.1953
1496.09	21.6523
1500.24	416.824
1504.39	273.551
1508.54	124.977
1512.68	242.074
1516.82	384.309
1520.95	363.785
1525.09	336.629
1529.22	383.965
1533.35	300.676
1537.47	227.676
1541.6	452.297
1545.72	74.8867
1549.83	88.3555
1553.95	71.0039
1558.06	23.0898
1562.17	239.949
1566.28	194.262
1570.38	1.10547
