Measurement: Raman, 514 nm, ccw, Raman Data Processed
Mineral: Fluorapatite
Rruff sample: R050340
Ideal chemistry: Ca_5_(PO_4_)_3_F
Locality: Buckingham, Quebec, Canada
Source: California Institute of Technology
Description: Blue fragment
Measured chemistry: Ca_5.00_((P_0.98_Si_0.02_)O_4_)_3_F_1.00_
Pin_id: L00565
Orientation: Laser parallel to -a* (-1 0 0). Fiducial mark perpendicular to laser is parallel to -c [0 0 -1]
Raman shift (cm-1)	intensity
108.28	0
113.208	10.624
118.134	128.56
123.058	172.567
127.979	212.44
132.898	331.875
137.814	696.824
142.728	1129.51
147.639	585.161
152.549	465.733
157.455	393.434
162.359	385.821
167.261	286.601
172.161	333.935
177.058	250.044
181.952	369.208
186.845	267.462
191.734	384.727
196.622	595.152
201.507	873.847
206.389	1429.86
211.269	1529.2
216.147	1105.86
221.022	756.833
225.895	526.098
230.765	578.753
235.633	441.729
240.498	362.337
245.361	282.711
250.222	388.361
255.08	206.597
259.936	300.506
264.789	343.349
269.64	395.764
274.488	350.106
279.334	445.227
284.178	522.754
289.019	587.816
293.857	666.253
298.693	717.002
303.527	737.019
308.358	740.269
313.187	419.721
318.013	356.353
322.837	242.128
327.659	198.004
332.478	96.9707
337.294	39.0269
342.108	65.1689
346.92	1.92041
351.729	25.437
356.535	31.7246
361.34	50.686
366.141	144.696
370.94	63.8999
375.737	68.8638
380.531	121.092
385.323	24.0151
390.113	104.504
394.9	5.05078
399.684	109.378
404.466	56.8799
409.245	196.417
414.022	161.331
418.797	376.004
423.569	726.737
428.338	1089.54
433.105	1120.36
437.87	951.2
442.632	1061.05
447.391	1265.91
452.149	1438.79
456.903	1130.67
461.655	702.543
466.405	384.397
471.152	234.241
475.897	177.061
480.639	175.853
485.378	145.616
490.116	2.27539
494.85	87.9194
499.582	73.2417
504.312	108.254
509.039	52.5185
513.764	119.095
518.486	77.896
523.206	13.0102
527.923	96.3955
532.638	101.32
537.35	99.3384
542.059	49.8452
546.766	74.647
551.471	208.056
556.173	112.208
560.873	242.532
565.57	238.037
570.264	290.481
574.957	686.607
579.646	1184.69
584.333	2710.06
589.018	4944.02
593.7	3336.04
598.379	1664.37
603.056	2168.03
607.73	2134.51
612.402	813.278
617.072	296.479
621.739	223.32
626.403	340.016
631.065	182.194
635.724	212.102
640.381	251.52
645.035	183.287
649.687	229.75
654.336	125.872
658.983	77.7095
663.627	160.99
668.268	42.7998
672.907	5.68311
677.544	68.6992
682.178	135.723
686.809	172.118
691.438	83.9917
696.065	134.058
700.688	94.9663
705.31	49.0781
709.929	84.1045
714.545	154.203
719.158	133.775
723.77	25.1284
728.378	66.2466
732.984	166.108
737.588	102.739
742.189	106.151
746.787	193.439
751.383	158.231
755.976	128.136
760.567	59.8882
765.155	91.7568
769.741	74.8843
774.324	95.7134
778.904	41.396
783.482	116.234
788.058	38.708
792.631	149.788
797.201	82.3257
801.769	110.131
806.334	34.7935
810.897	50.5498
815.457	20.8574
820.014	33.5649
824.569	13.1123
829.122	21.9199
833.671	63.8779
838.219	88.208
842.763	38.0713
847.306	74.6856
851.845	104.35
856.382	150.633
860.917	231.205
865.448	290.627
869.978	271.538
874.505	204.943
879.029	24.5068
883.55	98.1699
888.069	103.278
892.586	0.69043
897.1	155.997
901.611	16.7383
906.12	54.9287
910.626	91.6758
915.129	73.1689
919.63	150.562
924.129	18.1963
928.625	108.606
933.118	245.746
937.609	372.389
942.097	851.357
946.582	1457.98
951.065	2972.49
955.546	8652.48
960.023	29727
964.499	49644.2
968.971	20194.5
973.441	5117.87
977.909	1416.94
982.374	611.187
986.836	311.059
991.295	66.0996
995.753	74.2227
1000.21	220.139
1004.66	738.479
1009.11	1204.77
1013.55	654.438
1018	236.285
1022.44	318.455
1026.88	486.273
1031.32	781.271
1035.75	1109.05
1040.18	1873.58
1044.61	2878.01
1049.04	5906.53
1053.46	7619.42
1057.88	3610.42
1062.3	1739.74
1066.71	1390.84
1071.13	1727.46
1075.54	2577.31
1079.94	2991.5
1084.35	1946.79
1088.75	1080.29
1093.15	547.67
1097.55	439.871
1101.94	298.973
1106.34	222.237
1110.73	45.5781
1115.11	109.093
1119.5	103.795
1123.88	190.572
1128.26	27.4951
1132.63	42.6973
1137.01	51.2109
1141.38	3.27734
1145.75	71.9619
1150.12	142.605
1154.48	173.688
1158.84	39.2666
1163.2	236.191
1167.55	88.5801
1171.91	208.217
1176.26	86.416
1180.61	101.564
1184.95	72.8525
1189.29	206.162
1193.63	42.5508
1197.97	86.6465
1202.31	161.812
1206.64	228.204
1210.97	156.23
1215.29	198.317
1219.62	89.3066
1223.94	159.277
1228.26	120.228
1232.57	186.138
1236.89	98.7129
1241.2	133.237
1245.51	266.676
1249.81	127.602
1254.12	139.197
1258.42	56.0557
1262.72	28.5166
1267.01	48.8408
1271.3	104.356
1275.59	3.2832
1279.88	50.082
1284.17	59.2236
1288.45	47.3389
1292.73	202.606
1297.01	123.814
1301.28	2.94336
1305.55	61.3438
1309.82	19.4707
1314.09	291.114
1318.35	158.792
1322.61	105.597
1326.87	70.6045
1331.13	223.268
1335.38	163.428
1339.63	41.3867
1343.88	210.145
1348.12	225.893
1352.37	244.714
1356.61	150.794
1360.85	0.450195
1365.08	216.873
1369.31	40.5801
1373.54	49.0478
1377.77	308.43
1381.99	180.941
1386.22	191.13
1390.43	226.215
1394.65	53.456
1398.87	218.776
1403.08	43.9414
1407.29	228.183
1411.49	196.661
1415.69	265.125
1419.89	204.23
1424.09	220.485
1428.29	109.434
1432.48	141.253
1436.67	108.745
1440.86	147.922
1445.04	201.911
1449.23	83.3379
1453.4	146.603
1457.58	170.269
1461.76	113.356
1465.93	92.3223
1470.1	139.35
1474.26	178.889
1478.43	163.352
1482.59	108.98
1486.75	328.103
1490.9	321.023
1495.06	111.198
1499.21	134.485
1503.35	74.6211
1507.5	314.153
1511.64	248.847
1515.78	190.826
1519.92	171.082
1524.05	92.1328
1528.18	278.49
1532.31	191.083
1536.44	258.914
1540.56	35.5254
1544.69	20.8242
1548.8	212.038
1552.92	204.351
1557.03	226.778
1561.14	201.139
1565.25	8.5293
1569.36	107.3
