Measurement: Raman, 514 nm, ccw, Raman Data Processed
Mineral: Fluorophlogopite
Rruff sample: R040039
Ideal chemistry: KMg_3_(Si_3_Al)O_10_F_2_
Locality: Franklin, Sussex County, New Jersey, USA
Source: University of Arizona Mineral Museum
Description: Brown hexagonal sheets
Measured chemistry: (K_0.92_Na_0.06_[box]_0.02_)_Σ=1_(Mg_2.94_Fe_0.04_Ti_0.02_)_Σ=3_(Si_2.98_Al_1.02_)O_10_(F_1.24_(OH)_0.76_)_Σ=2_; OH estimated by charge balance
Pin_id: M00363
Orientation: Laser parallel to c* (0 0 1). Fiducial mark perpendicular to laser is parallel to b [0 1 0]
Raman shift (cm-1)	intensity
68.253	0
72.445	26.293
76.635	1715.24
80.823	3143.78
85.009	6057.11
89.193	8585.21
93.375	10593.2
97.554	11372.2
101.732	11658.7
105.908	10801.3
110.082	8464.75
114.254	7128.67
118.424	6848.18
122.592	4723.93
126.758	3385.52
130.922	2711.84
135.083	1804.46
139.243	1829.31
143.401	1187.79
147.557	713.238
151.711	442.254
155.863	174.376
160.013	676.366
164.161	944.165
168.308	1024.61
172.452	1426.74
176.594	2227
180.734	4233.06
184.872	7688.62
189.008	16411.4
193.143	29942.1
197.275	33728.4
201.405	19712.5
205.534	8961.26
209.66	4431.82
213.784	2214.12
217.907	1148.13
222.027	384.87
226.146	204.532
230.263	63.098
234.377	134.244
238.49	262.282
242.601	474.866
246.709	456.643
250.816	512.375
254.921	334.467
259.024	267.699
263.125	1122.73
267.224	2937.15
271.321	5949.48
275.416	10684.6
279.51	12076.3
283.601	7531.31
287.69	4043.44
291.778	3014.82
295.863	2904.52
299.947	4142.57
304.029	5702.01
308.108	8828.85
312.186	12044.3
316.262	13615.1
320.336	14275.1
324.408	12925.7
328.478	9549.85
332.546	6678.79
336.612	4697.5
340.677	3311.95
344.739	2593.11
348.799	2245.94
352.858	2064.42
356.915	2087.91
360.969	2278.19
365.022	2978.39
369.073	3961.36
373.122	3620.1
377.169	2593.74
381.215	1807.86
385.258	1552.37
389.299	1274.53
393.339	1163.84
397.376	1145.13
401.412	995.223
405.446	801.266
409.478	581.214
413.508	232.581
417.536	165.357
421.562	167.297
425.586	128.862
429.609	190.733
433.629	492.431
437.648	611.837
441.665	862.478
445.68	1271.99
449.693	1896.12
453.704	2431.59
457.713	1805.4
461.721	1403.57
465.726	1225.1
469.73	365.979
473.731	35.868
477.731	149.338
481.729	13.821
485.725	294.234
489.72	672.633
493.712	1449.55
497.703	2123.97
501.691	2206.91
505.678	2364.37
509.663	2222.34
513.646	2004.84
517.627	1390.86
521.607	938.415
525.584	405.496
529.56	153.117
533.534	47.218
537.506	48.717
541.476	43.676
545.444	191.2
549.41	135.27
553.375	284.919
557.337	325.495
561.298	171.217
565.257	254.384
569.214	274.443
573.17	207.146
577.123	44.734
581.075	26.578
585.024	61.234
588.972	61.251
592.918	40.092
596.863	6.559
600.805	125.497
604.746	321.384
608.685	713.939
612.621	1033.17
616.557	1516.09
620.49	2279.71
624.421	3128.02
628.351	4510.83
632.279	6004.13
636.205	6677.24
640.129	7416.91
644.051	7538.63
647.972	7775.38
651.89	8393.11
655.807	9675.67
659.722	11054.1
663.636	13168.3
667.547	16946.4
671.457	23195.4
675.365	33356.2
679.271	45367.9
683.175	50521.9
687.077	44555.9
690.978	34139.2
694.877	24054
698.774	15167.6
702.669	10000.2
706.562	7173.55
710.454	5260.39
714.344	4090.2
718.232	3225.81
722.118	2905.23
726.002	2745.27
729.885	2648.95
733.766	2492.45
737.645	2465.22
741.522	2369.57
745.397	2271.36
749.271	1970.57
753.143	1861.98
757.013	1606.19
760.881	1469.31
764.748	1484.39
768.613	1394.43
772.476	1456.41
776.337	1679.36
780.196	1819.27
784.054	1805.14
787.91	1753.13
791.764	1887.75
795.616	1929.69
799.467	1626.24
803.316	1310.91
807.163	1084.44
811.008	779.969
814.851	721.484
818.693	577.991
822.533	416.492
826.371	322.989
830.208	214.484
834.042	55.976
837.875	50.461
841.706	67.53
845.536	31.521
849.363	119.77
853.189	131.159
857.013	143.178
860.836	44.501
864.656	7.666
868.475	77.299
872.292	12.348
876.108	109.564
879.922	41.032
883.733	131.303
887.544	67.721
891.352	129.234
895.159	119
898.964	246.027
902.767	247.406
906.568	247.96
910.368	186.582
914.166	147.289
917.962	170.058
921.757	197.864
925.55	214.705
929.341	132.644
933.13	77.647
936.918	116.665
940.703	100.685
944.488	2.306
948.27	142.661
952.051	186.606
955.83	256.514
959.607	186.388
963.383	220.235
967.156	273.102
970.928	556.942
974.699	547.73
978.468	622.459
982.234	972.127
986	1070.73
989.763	1207.28
993.525	1242.41
997.285	1535.56
1001.04	1983.27
1004.8	1998.55
1008.55	2037.52
1012.31	1988.15
1016.06	1696.62
1019.81	1673.94
1023.56	1787.91
1027.31	2290.65
1031.05	3438.18
1034.79	4483.92
1038.53	4187.98
1042.27	3115.67
1046.01	2636.14
1049.75	2541.23
1053.48	2414.49
1057.22	2649.54
1060.95	2653.6
1064.68	2865.84
1068.4	3184.89
1072.13	3399.67
1075.86	3951.81
1079.58	4692.49
1083.3	5292.9
1087.02	6087.95
1090.74	6366.46
1094.45	6624.18
1098.17	6685.07
1101.88	6668.17
1105.59	6028.62
1109.3	4829.97
1113.01	3662.71
1116.71	2597.25
1120.42	1850.83
1124.12	2160.69
1127.82	915.396
1131.52	516.889
1135.22	160.304
1138.91	277.49
1142.61	69.916
1146.3	124.967
1149.99	87.856
1153.68	18.6
1157.37	55.146
1161.06	67.753
1164.74	80.787
1168.42	112.525
1172.1	64.157
1175.78	99.098
1179.46	88.083
1183.14	89.712
1186.81	4.24
1190.48	80.007
1194.15	83.63
1197.83	129.909
1201.49	53.596
1205.16	66.835
1208.82	64.26
1212.49	18.365
1216.15	62.597
1219.81	0.331
1223.46	21.524
1227.12	2.477
1230.78	147.271
1234.43	274.744
1238.08	195.24
1241.73	202.185
1245.38	282.585
1249.03	88.997
1252.67	161.393
1256.31	118.074
1259.95	24.78
1263.6	148.014
1267.23	330.432
1270.87	218.309
1274.51	260.825
1278.14	171.059
1281.77	284.945
1285.4	97.178
1289.03	203.93
1292.66	246.62
1296.28	288.058
1299.91	366.931
1303.53	255.436
1307.15	225.082
1310.77	363.376
1314.38	307.874
1318	460.896
1321.61	400.722
1325.23	443.333
1328.84	113.236
1332.45	217.644
1336.06	157.049
1339.66	133.988
1343.27	195.473
1346.87	191.249
1350.47	255.308
1354.07	219.806
1357.67	431.198
1361.26	328.62
1364.86	256.877
1368.45	256.224
1372.04	192.531
1375.63	227.352
1379.22	94.115
1382.81	73.277
1386.39	105.059
1389.98	42.242
1393.56	95.684
1397.14	156.188
1400.72	146.553
1404.3	240.881
1407.87	77.348
1411.45	67.375
1415.02	143.219
1418.59	41.418
1422.16	173.945
1425.73	201.109
1429.29	66.465
1432.86	0
