Measurement: Raman, 514 nm, ccw, Raman Data Processed
Mineral: Fluorapatite
Rruff sample: R050369
Ideal chemistry: Ca_5_(PO_4_)_3_F
Locality: Russia
Source: Eugene Schlepp
Description: Blueish-green hexagonal prismatic crystal
Measured chemistry: (Ca_0.99_Na_0.01_)_5_((P_0.98_S_0.02_)O_4_)_3_F_1.00_
Pin_id: L01431
Orientation: Laser parallel to -c* (0 0 -1). Fiducial mark perpendicular to laser is parallel to b [0 1 0]
Raman shift (cm-1)	intensity
107.047	0
111.976	59.3071
116.903	93.2095
121.827	54.793
126.749	143.886
131.668	334.417
136.585	828.556
141.5	1292.33
146.412	601.401
151.321	389.084
156.229	568.839
161.134	702.342
166.036	486.394
170.936	524.556
175.834	253.403
180.729	83.124
185.622	36.7468
190.512	88.1318
195.4	77.3376
200.286	60.4099
205.169	54.3733
210.049	164.233
214.928	170.983
219.803	153.609
224.677	151.812
229.548	273.766
234.416	287.424
239.282	417.69
244.146	227.505
249.007	186.826
253.866	167.888
258.722	387.246
263.576	693.545
268.427	983.701
273.276	674.627
278.123	313.302
282.967	231.094
287.809	214.935
292.648	117.775
297.485	210.571
302.319	315.292
307.151	492.918
311.98	514.43
316.807	391.806
321.631	270.013
326.454	85.0208
331.273	74.8398
336.09	35.5569
340.905	10.0972
345.717	37.1191
350.527	41.6982
355.334	12.3359
360.139	5.81592
364.941	67.2305
369.741	22.5825
374.538	42.541
379.333	21.063
384.126	63.9409
388.916	119.611
393.703	44.4609
398.488	107.796
403.271	44.8477
408.051	127.642
412.828	98.4556
417.603	191.924
422.376	229.769
427.146	492.198
431.914	749.083
436.679	1073.66
441.442	1678.9
446.202	2087.82
450.96	2046.41
455.715	1226.66
460.467	659.559
465.218	545.1
469.965	305.29
474.711	186.135
479.454	138.42
484.194	108.179
488.932	214.273
493.667	186.743
498.4	11.3208
503.13	72.1103
507.858	111.712
512.583	3.98047
517.306	107.214
522.026	11.9009
526.744	13.4097
531.459	43.3032
536.172	65.6841
540.882	126.049
545.59	84.4981
550.295	15.0298
554.998	41.352
559.698	173.192
564.396	113.353
569.091	359.032
573.784	837.485
578.474	2117.2
583.162	2792.66
587.847	1011.39
592.529	898.149
597.209	554.113
601.887	796.433
606.562	1948.77
611.235	1442.41
615.905	1020.73
620.572	502.254
625.237	212.399
629.9	142.631
634.56	50.6343
639.217	88.9365
643.872	119.115
648.524	203.512
653.174	162.175
657.821	225.292
662.466	121.629
667.108	67.3726
671.748	199.356
676.385	120.222
681.02	31.7417
685.652	194.16
690.281	163.547
694.908	153.091
699.533	122.603
704.155	132.517
708.774	88.3408
713.391	79.7783
718.005	129.703
722.617	69.3169
727.226	53.2593
731.833	155.973
736.437	106.974
741.039	131.482
745.638	83.5537
750.234	37.1553
754.828	51.9912
759.419	154.871
764.008	150.181
768.595	36.8633
773.178	82.1728
777.759	139.467
782.338	87.1309
786.914	14.2793
791.488	173.116
796.059	92.3486
800.627	22.3887
805.193	127.824
809.756	134.027
814.317	83.5469
818.875	41.8789
823.431	46.749
827.984	176.92
832.534	101.698
837.082	28.7031
841.627	21.9746
846.17	60.6455
850.71	36.4805
855.248	104.561
859.783	99.1113
864.316	34.8115
868.846	205.207
873.373	86.0098
877.898	88.9971
882.42	65.9356
886.94	85.8086
891.457	94.4922
895.971	97.1309
900.483	92.9961
904.993	49.4131
909.5	34.5664
914.004	115.504
918.505	86.875
923.004	13.0938
927.501	206.127
931.995	130.295
936.486	161.144
940.975	407.923
945.461	756.625
949.945	1654.55
954.426	3998.54
958.904	13749.9
963.38	42164.8
967.853	34045.1
972.324	7367.6
976.792	1875.05
981.258	727.491
985.72	227.817
990.181	219.84
994.639	63.7881
999.094	81.0059
1003.55	358.397
1008	951.717
1012.44	1044.15
1016.89	526.196
1021.33	350.44
1025.77	548.18
1030.21	1210.92
1034.64	1773.41
1039.07	779.914
1043.5	493.335
1047.93	290.815
1052.35	449.962
1056.78	904.989
1061.19	1467.45
1065.61	456.975
1070.02	353.108
1074.43	446.358
1078.84	724.685
1083.25	632.106
1087.65	401.662
1092.05	25.3223
1096.45	18.8975
1100.85	27.9814
1105.24	169.14
1109.63	14.4756
1114.02	39.1602
1118.4	10.8916
1122.78	309.491
1127.16	171.967
1131.54	92.5273
1135.92	82.1758
1140.29	29.0947
1144.66	100.696
1149.02	338.767
1153.39	259.728
1157.75	89.7227
1162.11	205.01
1166.46	375.438
1170.82	125.716
1175.17	263.324
1179.52	191.697
1183.86	154.258
1188.21	104.158
1192.55	271.102
1196.89	229.066
1201.22	261.051
1205.55	234.049
1209.88	217.062
1214.21	325.086
1218.54	106.113
1222.86	281.143
1227.18	251.705
1231.5	212.727
1235.81	354.785
1240.12	433.766
1244.43	333.728
1248.74	405.836
1253.04	209.695
1257.34	230.647
1261.64	283.58
1265.94	213.5
1270.23	41.3574
1274.52	219.75
1278.81	102.602
1283.1	420.381
1287.38	91.0723
1291.66	166.678
1295.94	84.7363
1300.21	151.549
1304.48	18.4141
1308.75	141.881
1313.02	55.6504
1317.29	325.221
1321.55	283.809
1325.81	165.422
1330.06	59.002
1334.32	301.127
1338.57	374.635
1342.82	281.098
1347.06	391.5
1351.31	290.861
1355.55	141.184
1359.79	280.473
1364.02	339.723
1368.26	218.916
1372.49	175.176
1376.71	285.481
1380.94	318.775
1385.16	80.0898
1389.38	257.428
1393.6	257.779
1397.81	271.16
1402.02	156.615
1406.23	225.356
1410.44	143.967
1414.64	198.779
1418.85	127.648
1423.04	32.0137
1427.24	305.26
1431.43	7.30859
1435.62	221.572
1439.81	94.1406
1444	158.098
1448.18	263.273
1452.36	117.598
1456.54	209.023
1460.71	15.4277
1464.89	134.82
1469.06	220.648
1473.22	26.3027
1477.39	190.629
1481.55	135.94
1485.71	176.9
1489.86	80.4707
1494.02	236.807
1498.17	94.2266
1502.32	210.221
1506.46	141.113
1510.61	103.879
1514.75	138.688
1518.88	126.615
1523.02	243.42
1527.15	79.0176
1531.28	209.574
1535.41	325.397
1539.53	186.81
1543.66	204.818
1547.78	197.055
1551.89	169.728
1556.01	24.9082
1560.12	456.508
1564.23	280.338
1568.33	135.062
1572.43	0
