Measurement: Raman, 514 nm, ccw, Raman Data Processed
Mineral: Fluorapatite
Rruff sample: R060421
Ideal chemistry: Ca_5_(PO_4_)_3_F
Locality: Levant mine, St. Just, Cornwall, England
Source: Michael Scott
Description: Brown hexagonal prisms
Measured chemistry: (Ca_4.93_[box]_0.07_)_Σ=5_((PO_4_)_2.86_(CO_3_)_0.14_)_Σ=3_F_1.00_ : C not measured but estimated by difference and charge balance
Pin_id: M00074
Orientation: Laser parallel to a* (1 0 0). Fiducial mark perpendicular to laser is parallel to -c [0 0 -1]
Raman shift (cm-1)	intensity
127.979	0
132.898	1.30542
137.814	77.6899
142.728	51.8389
147.639	0.228516
152.549	60.0654
157.455	21.5945
162.359	21.2244
167.261	5.90869
172.161	39.158
177.058	28.7446
181.952	47.9387
186.845	59.5762
191.734	82.542
196.622	77.4712
201.507	119.269
206.389	129.479
211.269	146.053
216.147	140.039
221.022	84.073
225.895	98.2261
230.765	100.835
235.633	140.408
240.498	72.6379
245.361	111.208
250.222	103.795
255.08	90.0757
259.936	101.849
264.789	55.3137
269.64	67.4863
274.488	101.566
279.334	79.7524
284.178	89.6785
289.019	70.3101
293.857	39.2668
298.693	24.2688
303.527	133.642
308.358	29.4045
313.187	50.188
318.013	83.4539
322.837	61.8037
327.659	41.6873
332.478	105.407
337.294	74.032
342.108	67.5325
346.92	53.5039
351.729	96.3994
356.535	23.3359
361.34	97.2183
366.141	126.878
370.94	106.923
375.737	84.7114
380.531	78.104
385.323	77.0591
390.113	29.6167
394.9	40.4585
399.684	179.618
404.466	1.67822
409.245	149.863
414.022	121.311
418.797	131.069
423.569	82.353
428.338	121.031
433.105	50.9477
437.87	82.689
442.632	97.4531
447.391	83.9898
452.149	131.512
456.903	133.133
461.655	26.6074
466.405	32.0049
471.152	0.925781
475.897	42.6148
480.639	19.1709
485.378	21.5054
490.116	2.77734
494.85	29.7354
499.582	30.5181
504.312	45.2871
509.039	83.0615
513.764	60.8535
518.486	15.1489
523.206	54.4551
527.923	64.9502
532.638	11.7012
537.35	95.293
542.059	95.9277
546.766	122.592
551.471	23.4355
556.173	188.511
560.873	53.5732
565.57	56.209
570.264	189.593
574.957	358.751
579.646	459.154
584.333	432.278
589.018	510.88
593.7	435.282
598.379	486.224
603.056	395.149
607.73	498.766
612.402	488.776
617.072	413.214
621.739	475.588
626.403	479.199
631.065	396.17
635.724	448.643
640.381	456.672
645.035	426.718
649.687	579.74
654.336	616.152
658.983	448.291
663.627	601.598
668.268	434.527
672.907	533.194
677.544	518.577
682.178	567.229
686.809	616.017
691.438	593.187
696.065	659.844
700.688	533.683
705.31	654.275
709.929	678.974
714.545	648.306
719.158	561.244
723.77	564.473
728.378	643.655
732.984	632.737
737.588	631.473
742.189	316.498
746.787	616.795
751.383	539.954
755.976	507.874
760.567	532.827
765.155	479.968
769.741	541.8
774.324	377.727
778.904	438.15
783.482	522.396
788.058	596.002
792.631	618.434
797.201	526.111
801.769	467.002
806.334	428.215
810.897	400.727
815.457	403.1
820.014	259.147
824.569	338.984
829.122	365.629
833.671	322.074
838.219	43.2773
842.763	187.475
847.306	229.588
851.845	190.922
856.382	113.102
860.917	165.727
865.448	185.898
869.978	378.08
874.505	62.2754
879.029	148.824
883.55	148.06
888.069	124.549
892.586	28.7051
897.1	41.1445
901.611	133.566
906.12	30.4785
910.626	43.6719
915.129	5.91211
919.63	2.9082
924.129	70.9004
928.625	97.1016
933.118	4.48242
937.609	13.4902
942.097	159.863
946.582	66.0606
951.065	446.195
955.546	1003.5
960.023	1708.68
964.499	1969.22
968.971	877.736
973.441	24.9824
977.909	271.426
982.374	117.1
986.836	68.5606
991.295	191.035
995.753	239.826
1000.21	15.1289
1004.66	224.713
1009.11	146.137
1013.55	210.678
1018	369.908
1022.44	493.533
1026.88	332.848
1031.32	344.012
1035.75	227.406
1040.18	485.346
1044.61	475.955
1049.04	537.231
1053.46	762.424
1057.88	447.828
1062.3	372.09
1066.71	500.164
1071.13	401.643
1075.54	544.078
1079.94	461.465
1084.35	668.217
1088.75	397.545
1093.15	597.135
1097.55	554.08
1101.94	455.289
1106.34	723.281
1110.73	566.527
1115.11	633.348
1119.5	565.965
1123.88	700.117
1128.26	774.773
1132.63	649.484
1137.01	751.195
1141.38	543.508
1145.75	669.406
1150.12	700.914
1154.48	745.012
1158.84	797.769
1163.2	638.207
1167.55	822.836
1171.91	986.383
1176.26	782.562
1180.61	949.301
1184.95	970.188
1189.29	717.633
1193.63	538.394
1197.97	919.109
1202.31	825.648
1206.64	959.93
1210.97	848.231
1215.29	936.746
1219.62	732.227
1223.94	712.594
1228.26	646.195
1232.57	831.434
1236.89	699.793
1241.2	578.32
1245.51	484.496
1249.81	643.371
1254.12	284.047
1258.42	327.406
1262.72	167.012
1267.01	206.211
1271.3	287
1275.59	320.434
1279.88	137.367
1284.17	64.8516
1288.45	200.719
1292.73	118.887
1297.01	392.273
1301.28	245.543
1305.55	37.875
1309.82	321.106
1314.09	67.4336
1318.35	402.371
1322.61	73.5742
1326.87	159.894
1331.13	232.809
1335.38	51.9297
1339.63	14.5781
1343.88	357.082
1348.12	245.977
1352.37	106.047
1356.61	77.2109
1360.85	229.91
1365.08	349.871
1369.31	135.129
1373.54	26.4961
1377.77	25.793
1381.99	46.3086
1386.22	241.082
1390.43	95.0039
1394.65	43.1406
1398.87	198.523
1403.08	73.0938
1407.29	186.816
1411.49	199.625
1415.69	133.797
1419.89	76.7578
1424.09	205.769
1428.29	383.031
1432.48	207.734
1436.67	447.891
1440.86	64.043
1445.04	215.914
1449.23	312.891
1453.4	80.2891
1457.58	331.586
1461.76	294.141
1465.93	348.664
1470.1	244.727
1474.26	434.785
1478.43	63.0547
1482.59	124.723
1486.75	303.859
1490.9	445.062
1495.06	245.777
1499.21	637.098
1503.35	537.238
1507.5	144.758
1511.64	53.4609
1515.78	289.977
1519.92	90.082
1524.05	333.875
1528.18	227.871
1532.31	259.695
1536.44	273.473
1540.56	159.805
1544.69	282.402
1548.8	1.60938
1552.92	82.4922
1557.03	306.164
1561.14	221.625
1565.25	130.074
1569.36	0.316406
