Measurement: Raman, 514 nm, ccw, Raman Data Processed
Mineral: Fluorapophyllite-(K)
Rruff sample: R050021
Ideal chemistry: KCa_4_Si_8_O_20_F8H_2_O
Locality: Poona, Maharashtra State, India
Source: Eugene Schlepp
Description: Colorless tetragonal prisms
Measured chemistry: (K_0.98_Na_0.02_)_Σ=1_Ca_4.00_Si_8.00_O_20_(F_0.84_(OH)_0.16_)_Σ=1_·8H_2_O
Pin_id: L00208
Orientation: Laser parallel to -c* (0 0 -1). Fiducial mark perpendicular to laser is parallel to a [1 0 0]
Raman shift (cm-1)	intensity
102.428	0
106.604	9088.24
110.777	18911.8
114.949	3311.57
119.119	735.981
123.286	204.113
127.452	52.898
131.615	315.099
135.777	860.955
139.937	3724.41
144.094	3505.94
148.25	1426.77
152.403	720.492
156.555	638.546
160.705	1436.21
164.853	4937.47
168.998	9743.88
173.142	4027.73
177.284	1459.41
181.424	891.71
185.562	641.323
189.698	764.66
193.831	1190.11
197.963	1610.34
202.093	1755.42
206.221	1879.21
210.347	1238.68
214.472	729.508
218.594	549.465
222.714	683.345
226.832	1227.74
230.948	1867.35
235.063	1591.58
239.175	628.585
243.286	240.154
247.394	259.888
251.501	265.845
255.605	259.719
259.708	196.936
263.808	46.972
267.907	268.78
272.004	513.876
276.099	92.216
280.192	60.195
284.283	83.287
288.372	57.927
292.459	63.315
296.544	224.33
300.627	575.088
304.709	709.788
308.788	993.914
312.865	1437.26
316.941	1889.78
321.015	2261.55
325.086	2312.68
329.156	1833.27
333.224	1463.39
337.29	1463.08
341.354	1500.59
345.416	1184.2
349.476	815.842
353.534	467.42
357.591	258.4
361.645	137.654
365.698	146.546
369.748	105.434
373.797	114.371
377.844	173.387
381.889	462.529
385.932	661.823
389.973	1181.24
394.012	2250.81
398.049	3510.43
402.084	3910.05
406.118	3259.91
410.15	2285.97
414.179	1719.48
418.207	1340.66
422.233	1363.66
426.257	2591
430.279	5230.02
434.299	6261.87
438.318	2962
442.334	1272.31
446.349	575.875
450.361	418.426
454.372	144.095
458.381	224.548
462.388	516.873
466.394	849.157
470.397	841.402
474.398	1393.61
478.398	3185.81
482.396	8737.99
486.391	16560.2
490.385	11792.4
494.377	5314.55
498.368	3186.78
502.356	2519.04
506.342	2131.46
510.327	1734.04
514.31	1856.77
518.291	2229.67
522.27	2611.59
526.247	3574.21
530.222	5560.99
534.196	8160.43
538.167	11126.4
542.137	11036.4
546.105	9512.6
550.071	8323.78
554.035	7468.77
557.998	6847.93
561.958	6607.56
565.917	7491.38
569.874	9273.65
573.829	12915.6
577.782	18624
581.733	26920.3
585.683	33955.8
589.63	28486.4
593.576	17713.3
597.52	10016.2
601.462	6144.03
605.402	4222.9
609.341	3014.74
613.277	2149.1
617.212	1571.53
621.145	1322.65
625.076	1184.25
629.006	1205.38
632.933	886.52
636.859	837.678
640.783	848.846
644.705	850.022
648.625	1041.2
652.543	842.616
656.46	934.01
660.375	920.611
664.288	1111.83
668.199	1067.41
672.108	670.491
676.016	411.708
679.921	173.021
683.825	195.597
687.727	137.141
691.628	38.603
695.526	39.618
699.423	21.673
703.318	82.698
707.211	26.559
711.102	4.117
714.992	85.613
718.879	175.861
722.765	26.669
726.649	162.843
730.532	561.139
734.412	80.96
738.291	163.506
742.168	4.401
746.043	71.029
749.916	22.624
753.788	106.652
757.658	31.08
761.526	64.481
765.392	299.435
769.257	254.138
773.119	208.555
776.98	45.502
780.839	163.051
784.697	436.851
788.552	610.438
792.406	873.826
796.258	727.011
800.108	379.995
803.957	332.776
807.804	205.354
811.649	239.789
815.492	221.902
819.333	11.688
823.173	59.803
827.011	141.056
830.847	284.843
834.681	152.281
838.514	122.868
842.345	182.571
846.174	93.407
850.001	189.034
853.827	414.252
857.651	281.61
861.473	263.98
865.293	272.321
869.112	271.354
872.928	399.324
876.744	278.113
880.557	101.82
884.369	154.277
888.178	165.043
891.987	239.461
895.793	301.041
899.598	308.348
903.401	265.172
907.202	63.721
911.001	2.572
914.799	319.648
918.595	415.908
922.389	89.865
926.182	205.863
929.972	77.4
933.761	239.793
937.549	216.994
941.334	324.166
945.118	221.314
948.9	118.441
952.681	215.559
956.459	282.662
960.236	39.535
964.012	346.4
967.785	388.047
971.557	100.68
975.327	166.926
979.095	77.277
982.862	120.363
986.627	286.418
990.39	362.006
994.152	248.93
997.912	105.668
1001.67	292.557
1005.43	569.65
1009.18	796.941
1012.93	804.416
1016.68	522.014
1020.43	440.148
1024.18	798.453
1027.93	737.029
1031.67	735.107
1035.42	1024.28
1039.16	1303.72
1042.9	2033.46
1046.63	2903.89
1050.37	4914.18
1054.11	10076.8
1057.84	22827.6
1061.57	42343.6
1065.3	33504.8
1069.03	17376.2
1072.75	9137.68
1076.47	5729.33
1080.2	3844.82
1083.92	3260.03
1087.64	3042.12
1091.36	2824.49
1095.07	2016.84
1098.79	1339.3
1102.5	762.182
1106.21	964.832
1109.92	867.576
1113.62	828.348
1117.33	891.602
1121.04	680.096
1124.74	563.303
1128.44	263.84
1132.14	182.547
1135.83	290.564
1139.53	554.289
1143.22	638.314
1146.92	621.941
1150.61	276.527
1154.3	190.982
1157.98	85.805
1161.67	143.449
1165.35	358.705
1169.04	272.035
1172.72	397.428
1176.4	392.875
1180.07	254.689
1183.75	69.855
1187.42	115.398
1191.1	15.916
1194.77	240.314
1198.44	249.07
1202.1	479.459
1205.77	457.398
1209.43	33.428
1213.1	108.861
1216.76	264.508
1220.42	190.402
1224.07	265.986
1227.73	457.068
1231.38	633.891
1235.04	530.77
1238.69	198.201
1242.34	262.594
1245.99	7.178
1249.63	321.025
1253.28	314.691
1256.92	607.895
1260.56	591.062
1264.2	653.455
1267.84	475.402
1271.48	256.631
1275.11	78.58
1278.74	89.881
1282.38	188.543
1286.01	332.314
1289.63	310.039
1293.26	417.912
1296.89	625.859
1300.51	83.521
1304.13	11.447
1307.75	119.295
1311.37	104.654
1314.99	60.102
1318.6	120.291
1322.22	367.295
1325.83	424.342
1329.44	496.537
1333.05	272.967
1336.66	139.604
1340.26	45.838
1343.87	27.211
1347.47	19.535
1351.07	267.186
1354.67	602.473
1358.27	479.312
1361.86	784.73
1365.46	680.289
1369.05	337.93
1372.64	270.264
1376.23	54.457
1379.82	26.248
1383.41	351.881
1386.99	480.016
1390.57	591.658
1394.16	781.197
1397.74	735.832
1401.32	830.623
1404.89	319.713
1408.47	329.215
1412.04	166.645
1415.61	3.789
1419.18	5.379
1422.75	57.697
1426.32	0
