Measurement: Raman, 514 nm, ccw, Raman Data Processed
Mineral: Fluorapophyllite-(K)
Rruff sample: R050084
Ideal chemistry: KCa_4_Si_8_O_20_F8H_2_O
Locality: near Ahmednagar, Maharashtra, India
Source: Rock Currier
Description: Greenish-white prismatic single crystal associated with scolecite
Measured chemistry: (K_0.98_Na_0.02_)Ca_4.00_Si_8.00_O_20_F_1.00_Â·8H_2_O
Pin_id: L00128
Orientation: Laser parallel to c* (0 0 1). Fiducial mark perpendicular to laser is parallel to a [1 0 0]
Raman shift (cm-1)	intensity
80.327	0
84.529	33.156
88.728	578.424
92.926	829.291
97.121	691.884
101.314	471.75
105.505	1581
109.694	6657.02
113.881	1760.17
118.066	825.294
122.249	3047.43
126.43	2634.12
130.608	1329.32
134.785	3073.3
138.959	1437.48
143.131	336.051
147.301	108.856
151.469	82.933
155.635	178.689
159.799	330.487
163.961	1313.45
168.121	1359.22
172.278	329.116
176.434	129.56
180.587	123.012
184.739	943.772
188.888	1301.54
193.035	794.562
197.18	1389.79
201.324	2101.15
205.465	2878.56
209.603	7246.84
213.74	9924.78
217.875	4537.7
222.008	2166.02
226.139	2066.75
230.267	2960.52
234.394	2296.07
238.518	1163.62
242.641	818.574
246.761	372.465
250.879	55.54
254.996	3.442
259.11	201.666
263.222	106.85
267.332	8.177
271.44	237.553
275.546	269.015
279.65	125.983
283.752	46.143
287.852	608.093
291.95	1375.51
296.046	2144.03
300.14	3137.78
304.231	2849.23
308.321	1728.61
312.409	664.163
316.495	354.119
320.578	590.976
324.66	675.77
328.739	489.838
332.817	866.662
336.892	1651.85
340.966	1776.87
345.037	859.484
349.107	492.761
353.174	510.954
357.24	377.063
361.303	11.044
365.365	34.887
369.424	623.625
373.481	1221.27
377.537	1958.83
381.59	401.3
385.642	429.618
389.691	254.769
393.738	120.292
397.784	68.566
401.827	303.765
405.868	454.749
409.908	234.611
413.945	158.967
417.98	586.756
422.014	884.197
426.045	911.785
430.075	2406.3
434.102	7966.9
438.127	5020.37
442.151	1717.2
446.172	460.542
450.192	378.158
454.209	501.72
458.225	150.14
462.238	68.592
466.25	133.458
470.259	427.411
474.267	235.194
478.273	95.22
482.276	13.947
486.278	639.228
490.278	681.328
494.276	113.357
498.271	40.68
502.265	344.225
506.257	739.212
510.247	592.18
514.235	388.768
518.221	632.541
522.205	1029.63
526.187	905.348
530.167	545.589
534.145	670.285
538.122	1218.94
542.096	1543.56
546.068	1036.35
550.039	577.121
554.007	653.463
557.973	1072.88
561.938	1120.64
565.901	769.055
569.861	915.361
573.82	1736.66
577.777	2939.24
581.732	3928.18
585.685	4482.53
589.636	4457.97
593.585	3629.2
597.532	2628.43
601.477	1368.37
605.42	753.407
609.361	761.679
613.301	1068.22
617.238	970.893
621.174	516.926
625.108	498.729
629.039	848.541
632.969	1355.4
636.897	1110.71
640.823	752.289
644.747	854.968
648.669	1624.64
652.589	2336.35
656.508	2427.98
660.424	2566.35
664.339	2944.15
668.251	3692.72
672.162	3370.97
676.071	2137.51
679.978	1084.13
683.883	753.774
687.786	943.467
691.687	924.22
695.586	530.082
699.484	123.006
703.379	89.927
707.273	436.854
711.165	561.945
715.055	339.028
718.943	59.82
722.829	62.777
726.713	287.074
730.595	599.821
734.476	346.296
738.354	43.402
742.231	136.283
746.106	210.525
749.978	594.147
753.849	455.705
757.719	67.93
761.586	149.93
765.451	281.005
769.315	749.961
773.177	748.783
777.036	299.704
780.894	60.477
784.75	134.837
788.605	744.583
792.457	1291.86
796.307	1001.79
800.156	336.964
804.003	63.854
807.848	364.712
811.691	728.531
815.532	721.298
819.371	305.036
823.209	7.566
827.045	184.227
830.878	629.013
834.71	867.674
838.54	782.53
842.369	363.644
846.195	301.599
850.02	689.748
853.842	1176.31
857.663	1168.86
861.482	840.903
865.299	329.861
869.115	237.16
872.928	647.147
876.74	909.997
880.55	751.826
884.358	391.324
888.164	95.679
891.969	110.161
895.771	514.094
899.572	826.293
903.371	753.269
907.168	283.229
910.963	53.533
914.757	24.556
918.548	487.96
922.338	761.13
926.126	600.549
929.912	303.188
933.697	10.112
937.479	204.371
941.26	507.774
945.039	701.84
948.816	661.87
952.591	404.981
956.365	131.961
960.136	103.079
963.906	435.601
967.674	786.801
971.441	783.826
975.205	401.408
978.968	7.744
982.729	81.867
986.488	111.524
990.245	569.572
994	562.258
997.754	367.445
1001.51	245.951
1005.26	216.146
1009	393.709
1012.75	792.624
1016.5	1048.01
1020.24	1015.7
1023.98	794.651
1027.72	477.043
1031.46	599.509
1035.19	619.5
1038.93	1167.5
1042.66	1683.99
1046.39	1755.71
1050.12	1964.01
1053.85	2709.08
1057.57	4979.72
1061.29	9670
1065.02	9670.73
1068.74	5590.48
1072.45	2987.96
1076.17	1564.71
1079.88	647.566
1083.6	338.596
1087.31	684.434
1091.02	1038.18
1094.72	1201.87
1098.43	932.777
1102.13	557.767
1105.84	257.822
1109.54	339.861
1113.24	759.179
1116.93	1535.68
1120.63	1550.38
1124.32	1321.26
1128.01	799.248
1131.7	202.234
1135.39	73.653
1139.08	94.6
1142.76	513.854
1146.45	856.177
1150.13	993.613
1153.81	758.455
1157.48	504.161
1161.16	98.185
1164.84	55.453
1168.51	295.722
1172.18	651.847
1175.85	1020.71
1179.52	910.7
1183.18	0
