Measurement: Raman, 514 nm, ccw, Raman Data Processed
Mineral: Fluorapatite
Rruff sample: R060333
Ideal chemistry: Ca_5_(PO_4_)_3_F
Locality: Lovozero Massif, Kola Peninsula, U.S.S.R.
Source: Michael Scott
Description: Colorless fragment associated with red villiaumite
Measured chemistry: (Ca_4.29_Sr_0.47_Na_0.12_Ce_0.07_La_0.06_)_Σ=5_((P_0.99_Si_0.01_)_Σ=1_O_4_)_3_F_1.00_
Pin_id: L00852
Orientation: Laser parallel to c* (0 0 1). Fiducial mark perpendicular to laser is parallel to -a [-1 0 0]
Raman shift (cm-1)	intensity
164.221	0
169.145	151.65
174.066	73.6436
178.984	93.3823
183.9	88.8066
188.812	61.4375
193.722	45.248
198.628	107.016
203.532	46.6187
208.433	134.348
213.331	66.625
218.226	92.4189
223.118	135.852
228.007	213.907
232.893	169.156
237.777	282.197
242.657	262.361
247.535	263.91
252.41	411.365
257.281	558.257
262.15	599.408
267.017	483.039
271.88	395.266
276.74	265.143
281.598	244.75
286.453	199.197
291.304	222.188
296.153	288.994
301	228.814
305.843	266.906
310.683	285.537
315.521	113.377
320.356	143.69
325.188	107.076
330.017	73.7051
334.843	65.5122
339.666	31.333
344.487	69.8188
349.305	16.5884
354.12	85.5977
358.932	3.66699
363.741	73.5293
368.548	94.7236
373.352	81.71
378.153	218.695
382.951	134.552
387.746	21.7119
392.539	110.869
397.328	6.79883
402.115	111.863
406.899	125.197
411.681	139.044
416.459	159.009
421.235	315.953
426.008	425.771
430.779	593.876
435.546	658.867
440.311	1155.38
445.073	1486.13
449.832	1443.17
454.588	955.616
459.342	631.556
464.093	481.221
468.841	287.373
473.587	339.405
478.329	157.083
483.069	85.2266
487.806	110.801
492.541	77.5234
497.272	74.4072
502.001	33.6699
506.728	170.882
511.451	140.504
516.172	69.9219
520.89	187.796
525.605	82.5557
530.318	53.3565
535.028	53.0205
539.735	72.2031
544.44	80.4072
549.141	104.314
553.841	115.022
558.537	85.8799
563.231	225.287
567.922	359.4
572.61	978.587
577.296	1544.5
581.979	1396.41
586.659	902.334
591.336	699.771
596.011	716.93
600.683	966.225
605.353	1518.61
610.02	1118.62
614.684	818.569
619.345	433.971
624.004	201.965
628.661	112.341
633.314	274.859
637.965	119.904
642.613	324.559
647.259	258.328
651.902	452.745
656.542	350.551
661.18	609.799
665.815	549.611
670.447	362.299
675.077	170.171
679.704	190.379
684.328	146.099
688.95	102.77
693.569	33.8008
698.186	138.195
702.8	40.1621
707.411	174.842
712.02	181.092
716.626	194.85
721.23	154.428
725.83	121.279
730.429	46.0977
735.024	156.041
739.618	105.785
744.208	283.691
748.796	100.988
753.381	60.3848
757.964	158.584
762.544	15.6367
767.122	17.8711
771.697	128.227
776.269	144.74
780.839	35.8711
785.406	157.123
789.971	1.10547
794.533	109.232
799.093	219.758
803.65	212.207
808.204	377.447
812.756	104.18
817.305	248.084
821.852	295.092
826.396	164.449
830.938	158.289
835.477	201.961
840.013	290.338
844.547	192.369
849.079	191.982
853.608	80.7344
858.134	208.035
862.658	270.184
867.179	146.414
871.698	253.502
876.214	263.914
880.728	196.644
885.239	177.428
889.748	328.027
894.254	121.135
898.758	11.7578
903.259	40.3926
907.758	60.7422
912.254	72.7402
916.748	17.4629
921.239	129.941
925.728	0.791016
930.214	235.469
934.698	213.059
939.179	556.262
943.657	1244.29
948.134	2181.85
952.607	6093.48
957.079	16009.2
961.548	26749.1
966.014	19700.8
970.478	7747.65
974.939	2612.56
979.398	710.496
983.854	203.147
988.308	59.0664
992.76	49.4609
997.209	110.894
1001.65	32.5645
1006.1	152.19
1010.54	277.549
1014.98	220.072
1019.42	43.7305
1023.85	559.375
1028.28	654.955
1032.71	973.519
1037.14	573.91
1041.56	292.184
1045.99	436.562
1050.41	544.242
1054.82	613.244
1059.24	584.305
1063.65	567.769
1068.06	420.277
1072.47	535.727
1076.87	362.066
1081.28	452.383
1085.68	264.652
1090.08	36.0938
1094.47	160.199
1098.86	321.453
1103.25	137.348
1107.64	381.461
1112.03	185.156
1116.41	58.8281
1120.79	339.977
1125.17	14.6992
1129.55	349.57
1133.92	203.699
1138.29	28.5469
1142.66	61.0781
1147.03	312.828
1151.39	147.898
1155.76	89.2695
1160.12	162.113
1164.47	430.031
1168.83	280.68
1173.18	549.449
1177.53	468.371
1181.88	246.512
1186.22	526.707
1190.57	226.906
1194.91	597.125
1199.25	433.348
1203.58	230.547
1207.92	184.723
1212.25	413.883
1216.58	382.023
1220.9	439.004
1225.23	526.883
1229.55	326.859
1233.87	423.519
1238.19	123.543
1242.5	310.644
1246.81	56.7578
1251.12	24.1445
1255.43	218.328
1259.74	428.562
1264.04	532.852
1268.34	253.242
1272.64	285.504
1276.94	326.996
1281.23	432.543
1285.52	225.844
1289.81	342.344
1294.1	171.438
1298.39	402.262
1302.67	221.191
1306.95	525.234
1311.23	808.781
1315.5	450.699
1319.78	975.016
1324.05	544.121
1328.32	779.734
1332.58	759.148
1336.85	766.598
1341.11	540.094
1345.37	630.637
1349.63	617.238
1353.88	764.09
1358.13	442.723
1362.38	855.613
1366.63	550.742
1370.88	772.023
1375.12	449.457
1379.36	563.84
1383.6	747.703
1387.84	666.816
1392.08	525.082
1396.31	402.586
1400.54	282.371
1404.77	697.508
1408.99	700.996
1413.21	259.106
1417.44	573.91
1421.66	431.32
1425.87	599.988
1430.09	396.469
1434.3	506.371
1438.51	308.285
1442.72	493.152
1446.92	596.781
1451.13	436.57
1455.33	294.527
1459.53	537.648
1463.72	442.949
1467.92	212.422
1472.11	402.082
1476.3	27.9766
1480.49	802.988
1484.67	343.07
1488.86	133.156
1493.04	448.738
1497.22	438.188
1501.39	151.793
1505.57	183.688
1509.74	425.57
1513.91	63.5938
1518.08	286.992
1522.25	576.078
1526.41	243.301
1530.57	317.008
1534.73	152.16
1538.89	253.359
1543.04	58.0312
1547.2	59.0234
1551.35	312.457
1555.49	189.312
1559.64	402.144
1563.79	0
