Measurement: Raman, 514 nm, ccw, Raman Data Processed
Mineral: Fluorapophyllite-(K)
Rruff sample: R050084
Ideal chemistry: KCa_4_Si_8_O_20_F8H_2_O
Locality: near Ahmednagar, Maharashtra, India
Source: Rock Currier
Description: Greenish-white prismatic single crystal associated with scolecite
Measured chemistry: (K_0.98_Na_0.02_)Ca_4.00_Si_8.00_O_20_F_1.00_Â·8H_2_O
Pin_id: L00295
Orientation: Laser parallel to -a* (-1 0 0). Fiducial mark perpendicular to laser is parallel to -c [0 0 -1]
Raman shift (cm-1)	intensity
81.728	0
85.929	1.311
90.128	468.092
94.324	2021.47
98.519	1178.82
102.712	1367.46
106.902	5686.21
111.09	6752.96
115.277	1997.28
119.461	3245.6
123.643	2690.63
127.823	2860.28
132.001	3122.79
136.176	1778.53
140.35	306.678
144.521	28.055
148.691	39.831
152.858	132.648
157.024	1016.19
161.187	4915.35
165.348	6976.7
169.507	2175.53
173.664	156.976
177.819	146.271
181.971	1349.22
186.122	6224.47
190.271	5649.16
194.417	2243.31
198.562	1613.63
202.704	2680.81
206.844	6830.59
210.983	14474.9
215.119	11538.7
219.253	7022.8
223.385	5570.08
227.515	5580.03
231.643	5769.75
235.769	4125.29
239.893	1933.77
244.014	694.594
248.134	264.881
252.252	153.861
256.367	70.761
260.481	123.815
264.592	613.668
268.702	1667.14
272.809	1108.24
276.915	397.011
281.018	358.808
285.119	609.353
289.218	926.786
293.316	1911.05
297.411	4348.84
301.504	5158.41
305.595	2790.75
309.684	1403.2
313.771	955.881
317.856	728.618
321.939	608.979
326.02	739.035
330.099	1189.73
334.176	1755.89
338.251	2156.76
342.323	2101.59
346.394	1407.71
350.463	664.544
354.53	228.148
358.594	15.976
362.657	34.454
366.718	43.396
370.777	128.889
374.833	176.032
378.888	84.854
382.941	47.714
386.992	169.09
391.04	164.61
395.087	102.94
399.132	53.597
403.174	92.865
407.215	134.589
411.254	187.397
415.29	276.895
419.325	328.531
423.358	626.424
427.389	1711.83
431.417	5829.07
435.444	10320.1
439.469	3404.9
443.492	1303.31
447.512	779.541
451.531	501.494
455.548	444.175
459.563	619.587
463.576	1211.73
467.587	1208.62
471.596	683.246
475.603	357.831
479.608	385.298
483.611	516.508
487.612	823.466
491.611	517.177
495.608	356.645
499.603	296.875
503.596	301.917
507.587	226.748
511.577	215.347
515.564	339.09
519.549	439.531
523.533	383.125
527.514	528.774
531.493	880.952
535.471	1242
539.447	1493.14
543.42	1360.2
547.392	1203.75
551.362	1196.21
555.329	1032.45
559.295	991.547
563.259	1100.93
567.221	1531.57
571.181	2125.56
575.139	2859.33
579.095	4115.5
583.049	6237.43
587.002	8168.6
590.952	6745.03
594.9	4121.47
598.847	2482.27
602.792	1807.29
606.734	1421.11
610.675	1151
614.614	973.688
618.55	903.413
622.485	1085.07
626.418	1230.71
630.349	1275.3
634.279	1220.84
638.206	1317.16
642.131	1585.6
646.055	1981
649.976	2254.36
653.896	2641.67
657.814	3498.61
661.729	4701.45
665.643	5207.15
669.555	4577
673.465	3324.06
677.373	2417.25
681.28	1763.57
685.184	1220.07
689.087	797.686
692.987	507.321
696.886	334.987
700.783	258.813
704.677	197.082
708.57	68.358
712.462	20.925
716.351	39.666
720.238	28.774
724.124	55.376
728.007	0.631
731.889	82.073
735.769	119.933
739.647	41.284
743.523	20.904
747.397	8.75
751.269	25.307
755.139	16.863
759.008	132.868
762.875	464.847
766.739	775.197
770.602	709.082
774.463	383.729
778.323	267.854
782.18	289.758
786.035	387.638
789.889	697.804
793.741	1001.7
797.591	726.593
801.439	394.498
805.285	285.409
809.129	226.328
812.971	119.258
816.812	90.204
820.651	174.164
824.488	301.137
828.323	421.123
832.156	424.121
835.987	414.127
839.817	445.175
843.644	450.228
847.47	483.297
851.294	438.391
855.116	310.491
858.936	189.614
862.755	163.743
866.571	186.682
870.386	224.688
874.199	126.727
878.01	31.216
881.82	12.812
885.627	11.754
889.433	111.506
893.236	60.831
897.038	107.106
900.838	40.149
904.637	8.63
908.433	69.819
912.228	114.517
916.021	82.71
919.812	58.953
923.601	15.038
927.388	6.938
931.174	2.816
934.958	84.301
938.739	80.4
942.52	88.509
946.298	9.63
950.074	17.768
953.849	70.927
957.622	132.105
961.393	165.301
965.162	242.512
968.93	244.739
972.696	371.981
976.459	254.239
980.222	194.511
983.982	236.799
987.74	272.791
991.497	244.138
995.252	204.594
999.005	300.221
1002.76	529.814
1006.51	1047.29
1010.25	1267.24
1014	986.202
1017.74	599.054
1021.49	442.133
1025.23	411.663
1028.96	516.835
1032.7	644.008
1036.44	824.058
1040.17	932.401
1043.9	1263.8
1047.63	1687.58
1051.36	2920.62
1055.09	5631.18
1058.81	11113.8
1062.54	16203.3
1066.26	10111.9
1069.97	4547.76
1073.69	2307.74
1077.41	1377.1
1081.12	960.557
1084.84	777.006
1088.55	653.617
1092.25	569.75
1095.96	384.189
1099.67	234.818
1103.37	246.407
1107.07	243.444
1110.77	313.996
1114.47	425.344
1118.16	489.793
1121.86	252.299
1125.55	462.693
1129.24	34.086
1132.93	89.619
1136.62	93.968
1140.31	113.299
1143.99	97.584
1147.67	16.844
1151.35	13
1155.03	42.891
1158.71	25.251
1162.39	18.846
1166.06	90.069
1169.73	99.136
1173.4	39.246
1177.07	14.536
1180.74	11.892
1184.4	31.88
1188.07	25.398
1191.73	26.092
1195.39	138.55
1199.05	148.983
1202.7	91.385
1206.36	34.509
1210.01	8.486
1213.66	33.719
1217.31	25.084
1220.96	82.119
1224.6	132.908
1228.25	148.491
1231.89	116.334
1235.53	170.903
1239.17	79.227
1242.81	52.594
1246.44	10.651
1250.08	121.792
1253.71	150.788
1257.34	168.594
1260.97	155.566
1264.6	139.51
1268.22	94.107
1271.85	83.576
1275.47	45.138
1279.09	138.453
1282.71	137.229
1286.33	160.194
1289.94	227.679
1293.56	226.859
1297.17	91.26
1300.78	92.137
1304.39	7.635
1307.99	31.217
1311.6	50.103
1315.2	67.694
1318.8	174.438
1322.4	158.221
1326	196.935
1329.6	127.282
1333.19	68.847
1336.79	39.146
1340.38	21.184
1343.97	17.431
1347.56	74.042
1351.14	101.725
1354.73	137.211
1358.31	131.114
1361.89	165.254
1365.47	129.691
1369.05	84.646
1372.63	5.276
1376.2	73.149
1379.78	45.438
1383.35	49.785
1386.92	98.309
1390.49	182.355
1394.05	185.082
1397.62	187.72
1401.18	87.93
1404.74	52.058
1408.3	35.983
1411.86	22.258
1415.42	27.85
1418.97	102.602
1422.53	87.761
1426.08	153.158
1429.63	234.562
1433.18	355.447
1436.72	157.739
1440.27	153.275
1443.81	122.708
1447.36	64.013
1450.89	16.128
1454.43	5.074
1457.97	62.501
1461.51	103.527
1465.04	194.875
1468.57	212.733
1472.1	275.674
1475.63	234.192
1479.16	162.366
1482.68	167.789
1486.21	65.001
1489.73	28.742
1493.25	17.611
1496.77	16.527
1500.29	20.777
1503.8	76.159
1507.32	151.161
1510.83	195.023
1514.34	260.566
1517.85	0
