Measurement: Raman, 514 nm, ccw, Raman Data Processed
Mineral: Fluorapatite
Rruff sample: R050401
Ideal chemistry: Ca_5_(PO_4_)_3_F
Locality: Urbano mine, Golconda District, Minas Gerais, Brazil
Source: Bob Downs
Description: Pale purple hexagonal prism associated with albite R050402
Measured chemistry: (Ca_0.99_Mn_0.01_)_5_(P_1.00_O_4_)_3_F_1.00_
Pin_id: L00654
Orientation: Laser parallel to c* (0 0 1). Fiducial mark perpendicular to laser is parallel to a [1 0 0]
Raman shift (cm-1)	intensity
136.585	0
141.5	152.246
146.412	37.5059
151.321	261.272
156.229	30.2275
161.134	234.656
166.036	119.502
170.936	99.374
175.834	59.7056
180.729	93.3301
185.622	121.301
190.512	80.895
195.4	54.4644
200.286	78.8765
205.169	58.5376
210.049	30.8355
214.928	152.635
219.803	113.194
224.677	110.543
229.548	157.292
234.416	114.569
239.282	130.551
244.146	59.6406
249.007	94.9614
253.866	120.55
258.722	54.2749
263.576	91.6401
268.427	158.056
273.276	121.417
278.123	39.9238
282.967	122.111
287.809	13.4683
292.648	111.858
297.485	62.7251
302.319	16.9331
307.151	161.909
311.98	33.02
316.807	80.4761
321.631	22.4536
326.454	134.42
331.273	8.95557
336.09	49.1489
340.905	16.2544
345.717	136.204
350.527	2.07275
355.334	139.868
360.139	39.7363
364.941	197.44
369.741	54.9053
374.538	105.766
379.333	103.273
384.126	31.1895
388.916	4.57324
393.703	80.5205
398.488	112.727
403.271	145.309
408.051	118.355
412.828	143.173
417.603	225.766
422.376	58.7246
427.146	81.1357
431.914	91.5791
436.679	138.623
441.442	254.306
446.202	186.23
450.96	59.6582
455.715	216.545
460.467	92.084
465.218	147.215
469.965	147.706
474.711	138.825
479.454	261.562
484.194	114.052
488.932	152.045
493.667	80.126
498.4	224.487
503.13	37.0693
507.858	10.624
512.583	6.70703
517.306	217.787
522.026	77.8027
526.744	408.96
531.459	173.841
536.172	265.864
540.882	167.94
545.59	132.848
550.295	56.8086
554.998	75.583
559.698	189.205
564.396	80.0312
569.091	63.2705
573.784	4.52539
578.474	219.345
583.162	348.516
587.847	41.7949
592.529	156.38
597.209	157.078
601.887	286.772
606.562	119.697
611.235	292.022
615.905	36.3496
620.572	146.084
625.237	181.613
629.9	71.0928
634.56	244.914
639.217	123.015
643.872	183.239
648.524	288.414
653.174	313.933
657.821	226.801
662.466	104.355
667.108	397.266
671.748	172.773
676.385	394.717
681.02	202.701
685.652	237.603
690.281	216.783
694.908	22.5059
699.533	284.723
704.155	210.494
708.774	250.701
713.391	167.223
718.005	168.902
722.617	389.277
727.226	8.69727
731.833	366.279
736.437	356.943
741.039	73.8184
745.638	457.719
750.234	158.121
754.828	211.898
759.419	196.894
764.008	248.394
768.595	184.412
773.178	5.18359
777.759	327.852
782.338	183.719
786.914	334.25
791.488	140.348
796.059	224.602
800.627	378.889
805.193	164.76
809.756	176.682
814.317	265.592
818.875	237.326
823.431	273.24
827.984	24.8945
832.534	370.365
837.082	253.658
841.627	194.863
846.17	395.621
850.71	194.299
855.248	72.9043
859.783	312.945
864.316	272.68
868.846	475.297
873.373	57.3496
877.898	30.7246
882.42	551.342
886.94	167.592
891.457	219.506
895.971	155.799
900.483	92.1992
904.993	386.65
909.5	91.2246
914.004	367.666
918.505	258.301
923.004	109.387
927.501	521.586
931.995	203.736
936.486	83.7578
940.975	328.953
945.461	204.727
949.945	296.049
954.426	490.545
958.904	359.377
963.38	1134.9
967.853	702.736
972.324	271.09
976.792	561.301
981.258	249.045
985.72	48.5195
990.181	314.205
994.639	188.506
999.094	180.852
1003.55	546.889
1008	311.404
1012.44	232.522
1016.89	159.594
1021.33	304.305
1025.77	381.41
1030.21	37.9277
1034.64	572.619
1039.07	491.219
1043.5	52.3438
1047.93	351.148
1052.35	232.445
1056.78	85.0703
1061.19	686.762
1065.61	472.277
1070.02	6.32031
1074.43	697.316
1078.84	571.691
1083.25	261.109
1087.65	476.219
1092.05	251.688
1096.45	380.219
1100.85	270.828
1105.24	43.4961
1109.63	73.9922
1114.02	265.648
1118.4	70.0703
1122.78	497.332
1127.16	282.59
1131.54	374.039
1135.92	445.754
1140.29	308.215
1144.66	166.805
1149.02	447.684
1153.39	444.562
1157.75	214.606
1162.11	554.922
1166.46	440.332
1170.82	276.215
1175.17	467.074
1179.52	348.711
1183.86	234.531
1188.21	518.836
1192.55	349.414
1196.89	165.285
1201.22	281.613
1205.55	351.508
1209.88	275.84
1214.21	598.621
1218.54	778.91
1222.86	292.57
1227.18	378.711
1231.5	458.863
1235.81	81.1523
1240.12	487.586
1244.43	602.613
1248.74	163.641
1253.04	454.691
1257.34	669.106
1261.64	81.2617
1265.94	531.68
1270.23	577.148
1274.52	835.441
1278.81	411.598
1283.1	521.144
1287.38	459.254
1291.66	806.312
1295.94	531.863
1300.21	679.754
1304.48	299.969
1308.75	580.191
1313.02	3.38672
1317.29	587.633
1321.55	479.066
1325.81	899.293
1330.06	173.102
1334.32	472.852
1338.57	1044.84
1342.82	296.422
1347.06	659.91
1351.31	699.684
1355.55	298.004
1359.79	384.961
1364.02	587.672
1368.26	505.883
1372.49	210.723
1376.71	524.789
1380.94	553.859
1385.16	175.617
1389.38	370.957
1393.6	752.023
1397.81	128.055
1402.02	321.555
1406.23	709.102
1410.44	695.215
1414.64	355.129
1418.85	278.883
1423.04	315.551
1427.24	116.148
1431.43	338.84
1435.62	1022.31
1439.81	637.289
1444	312.633
1448.18	805.129
1452.36	743.793
1456.54	54.6133
1460.71	103.769
1464.89	765.289
1469.06	246.797
1473.22	24.8867
1477.39	845.609
1481.55	669.305
1485.71	220.512
1489.86	692.711
1494.02	968.586
1498.17	918.625
1502.32	54.9414
1506.46	943.785
1510.61	1007.93
1514.75	97.3438
1518.88	686.777
1523.02	514.848
1527.15	278.762
1531.28	482.949
1535.41	909.438
1539.53	794.016
1543.66	229.82
1547.78	363.176
1551.89	494.641
1556.01	804.894
1560.12	134.172
1564.23	3.89062
1568.33	400.973
