Measurement: Raman, 514 nm, ccw, Raman Data Processed
Mineral: Fluorapophyllite-(K)
Rruff sample: R050021
Ideal chemistry: KCa_4_Si_8_O_20_F8H_2_O
Locality: Poona, Maharashtra State, India
Source: Eugene Schlepp
Description: Colorless tetragonal prisms
Measured chemistry: (K_0.98_Na_0.02_)_Σ=1_Ca_4.00_Si_8.00_O_20_(F_0.84_(OH)_0.16_)_Σ=1_·8H_2_O
Pin_id: L00208
Orientation: Laser parallel to -c* (0 0 -1). Fiducial mark perpendicular to laser is parallel to a [1 0 0]
Raman shift (cm-1)	intensity
103.82	0
107.995	12997.1
112.168	9436.49
116.339	1592.43
120.508	0.55
124.675	147.477
128.84	431.302
133.003	521.533
137.164	1806.17
141.323	5803.48
145.48	3234.64
149.635	1230.06
153.788	896.566
157.939	1033.48
162.088	2292.49
166.235	5985.4
170.38	7313.72
174.523	2657.36
178.664	1233.97
182.803	687.076
186.94	1041.1
191.076	906.854
195.209	1254.17
199.34	1772.78
203.47	2382.02
207.597	2032.4
211.722	1444.01
215.846	1166.63
219.967	950.059
224.087	694.14
228.204	1288.5
232.32	2022.97
236.434	1370.72
240.545	272.445
244.655	69.311
248.763	125.739
252.869	180.078
256.973	175.426
261.075	78.579
265.175	288.404
269.273	610.983
273.369	380.248
277.463	110.141
281.556	86.334
285.646	157.462
289.734	201.881
293.821	245.666
297.905	653.233
301.988	720.734
306.069	738.029
310.147	1564.67
314.224	2040.58
318.299	2125.77
322.372	2700.3
326.443	2834.31
330.512	2117.87
334.579	1531.05
338.645	1683.69
342.708	1963.76
346.769	1310.55
350.829	756.471
354.887	452.49
358.942	327.74
362.996	41.874
367.048	14.145
371.098	150.089
375.146	193.988
379.192	348.169
383.236	82.661
387.279	537.43
391.319	1252.43
395.358	2237.66
399.394	2753.09
403.429	2868.13
407.462	2557.81
411.493	1740.52
415.522	1172.21
419.549	1050.87
423.575	1713.97
427.598	3687.23
431.619	6494.65
435.639	5632.25
439.657	2718.73
443.673	1262.34
447.687	517.404
451.699	43.881
455.709	134.479
459.717	412.738
463.724	631.228
467.728	469.786
471.731	688.38
475.732	1637.02
479.731	3915.7
483.728	9084.43
487.723	14033.2
491.716	8352.07
495.708	4020.99
499.697	2350
503.685	1959.11
507.671	1828.36
511.655	1827.84
515.637	1657.57
519.617	1837.48
523.596	2306.43
527.572	3657.15
531.547	5367.57
535.52	7546.65
539.491	9028.83
543.46	9321.11
547.427	8411.17
551.393	6581.5
555.356	5640.2
559.318	5277.71
563.278	5886.97
567.236	6939.08
571.192	8447.61
575.147	11758.5
579.099	17808.9
583.05	26725.8
586.999	28418
590.946	20133.9
594.891	12069.4
598.834	7428.11
602.776	4831.88
606.715	3107.06
610.653	2037.3
614.589	1534.91
618.523	1503.63
622.456	1304.52
626.386	882.683
630.315	710.944
634.242	908.385
638.167	965.842
642.09	953.304
646.012	800.756
649.931	658.198
653.849	875.625
657.765	1123.76
661.679	1311.31
665.592	951.076
669.502	707.083
673.411	594.998
677.318	572.486
681.223	460.433
685.126	2.055
689.028	54.309
692.927	83.1
696.825	360.5
700.721	47.285
704.616	33.683
708.508	50.256
712.399	234.52
716.288	110.636
720.175	245.59
724.06	30.895
727.944	85.154
731.825	141.584
735.705	131.499
739.584	126.841
743.46	149.063
747.334	108.954
751.207	102.597
755.078	156.464
758.947	317.236
762.815	118.818
766.68	88.766
770.544	38.47
774.406	97.92
778.267	408.646
782.125	367.553
785.982	276.219
789.837	424.664
793.69	804.539
797.542	852.545
801.391	310.332
805.239	177.896
809.085	75.244
812.93	212.348
816.772	425.672
820.613	306.561
824.452	166.906
828.29	172.809
832.125	98.479
835.959	263.904
839.791	518.828
843.621	411.225
847.45	386.166
851.277	209.488
855.102	161.938
858.925	597.225
862.746	558.814
866.566	433.678
870.384	196.973
874.2	33.018
878.015	405.988
881.828	346.715
885.639	348.795
889.448	436.623
893.256	57.771
897.061	83.967
900.865	287.129
904.668	269.277
908.468	369.064
912.267	323.744
916.064	167.27
919.86	36.152
923.653	136.979
927.445	348.756
931.236	437.525
935.024	298.705
938.811	119.746
942.596	38.428
946.379	163.309
950.161	355.012
953.94	536.688
957.719	348.338
961.495	199.242
965.27	129.145
969.043	37.834
972.814	311.207
976.583	423.83
980.351	304.613
984.117	175.303
987.882	86.541
991.644	47.748
995.405	28.803
999.165	328.211
1002.92	729.693
1006.68	741.594
1010.43	833.699
1014.18	405.986
1017.93	399.289
1021.68	711.982
1025.43	923.863
1029.18	942.439
1032.92	975.791
1036.66	710.377
1040.4	1224.13
1044.14	1945.46
1047.88	3322.5
1051.62	6097.53
1055.35	12032
1059.08	25784.1
1062.81	35449.1
1066.54	22592.9
1070.27	12278.2
1073.99	7393.51
1077.72	5108.96
1081.44	3722.99
1085.16	2678.67
1088.88	2384.46
1092.59	2398.78
1096.31	1594.93
1100.02	1401.13
1103.73	1367.36
1107.44	1243.72
1111.15	790.223
1114.86	550.42
1118.57	485.719
1122.27	559.668
1125.97	632.611
1129.67	792.059
1133.37	609.35
1137.07	606.684
1140.76	194.303
1144.45	160.812
1148.15	26.119
1151.84	295.916
1155.53	517.654
1159.21	445.729
1162.9	463.873
1166.58	281.732
1170.26	149.713
1173.94	112.178
1177.62	86.172
1181.3	174.471
1184.97	492.879
1188.65	551.848
1192.32	320.701
1195.99	14.096
1199.66	41.984
1203.33	169.957
1206.99	18.045
1210.65	317.236
1214.32	615.654
1217.98	933.402
1221.64	491.436
1225.29	179.076
1228.95	107.467
1232.6	298.65
1236.26	44.459
1239.91	244.553
1243.56	484.834
1247.2	675.314
1250.85	576.227
1254.49	467.543
1258.13	339.053
1261.78	180.75
1265.41	192.348
1269.05	283.832
1272.69	594.357
1276.32	856.189
1279.95	840.334
1283.59	515.498
1287.21	146.66
1290.84	136.246
1294.47	42.994
1298.09	52.041
1301.72	249.125
1305.34	200.521
1308.96	381.91
1312.58	563.088
1316.19	574.775
1319.81	476.402
1323.42	308.486
1327.03	164.387
1330.64	46.805
1334.25	55.129
1337.86	280.143
1341.46	504.854
1345.07	674.438
1348.67	775.252
1352.27	434.441
1355.87	229.527
1359.46	396.471
1363.06	174.184
1366.65	376.646
1370.25	178.854
1373.84	222.039
1377.43	0
