Measurement: Raman, 514 nm, ccw, Raman Data Processed
Mineral: Fluorapatite
Rruff sample: R060070
Ideal chemistry: Ca_5_(PO_4_)_3_F
Locality: Panasqueira, Portugal
Source: Dave Bunk
Description: Green hexagonal tablet
Measured chemistry: (Ca_0.99_Mn_0.01_)_5_(P_1.00_O_4_)_3_F_1.00_
Pin_id: L01695
Orientation: Laser parallel to -a* (-1 0 0). Fiducial mark perpendicular to laser is parallel to -c [0 0 -1]
Raman shift (cm-1)	intensity
118.134	0
123.058	1.80078
127.979	32.4902
132.898	95.0503
137.814	47.8999
142.728	132.838
147.639	116.235
152.549	94.8359
157.455	120.419
162.359	86.1934
167.261	109.255
172.161	164.12
177.058	153.961
181.952	180.972
186.845	23.3984
191.734	152.873
196.622	126.8
201.507	168.441
206.389	115.992
211.269	154.913
216.147	85.4341
221.022	154.973
225.895	106.537
230.765	31.0771
235.633	148.096
240.498	154.499
245.361	95.0176
250.222	75.1968
255.08	136.734
259.936	80.3599
264.789	109.08
269.64	107.503
274.488	104.295
279.334	228.727
284.178	64.6221
289.019	122.743
293.857	19.834
298.693	121.766
303.527	101.692
308.358	70.0815
313.187	6.24365
318.013	32.4815
322.837	33.6548
327.659	27.377
332.478	78.4033
337.294	79.9526
342.108	211.968
346.92	19.4678
351.729	175.535
356.535	113.807
361.34	121.139
366.141	9.44238
370.94	113.335
375.737	130.733
380.531	146.485
385.323	32.8193
390.113	103.674
394.9	140.213
399.684	105.045
404.466	137.517
409.245	42.9834
414.022	131.679
418.797	291.092
423.569	293.422
428.338	330.128
433.105	427.935
437.87	288.497
442.632	372.322
447.391	309.392
452.149	88.9326
456.903	275.653
461.655	196.978
466.405	69.4394
471.152	77.4932
475.897	0.051758
480.639	87.1543
485.378	248.17
490.116	62.3721
494.85	77.9268
499.582	91.0059
504.312	184.36
509.039	118.715
513.764	15.8027
518.486	86.3213
523.206	44.0166
527.923	233.416
532.638	26.5752
537.35	118.456
542.059	94.21
546.766	13.7832
551.471	178.16
556.173	65.833
560.873	108.417
565.57	7.77246
570.264	63.3828
574.957	129.093
579.646	186.295
584.333	114.55
589.018	317.194
593.7	281.625
598.379	185.358
603.056	31.1357
607.73	187.279
612.402	130.174
617.072	177.075
621.739	270.321
626.403	288.286
631.065	68.4863
635.724	115.123
640.381	171.688
645.035	279.09
649.687	226.481
654.336	142.221
658.983	121.445
663.627	150.822
668.268	308.023
672.907	229.258
677.544	9.41602
682.178	202.815
686.809	115.244
691.438	0.529297
696.065	111.486
700.688	3.19531
705.31	59.2539
709.929	122.627
714.545	232.906
719.158	259.891
723.77	104.125
728.378	93.1504
732.984	125.803
737.588	43.4102
742.189	21.8145
746.787	48.2598
751.383	190.008
755.976	256.365
760.567	103.025
765.155	192.723
769.741	34.9961
774.324	209.512
778.904	93.7266
783.482	118.541
788.058	107.527
792.631	145.012
797.201	146.537
801.769	475.725
806.334	125.568
810.897	181.674
815.457	121.238
820.014	141.236
824.569	260.42
829.122	16.7812
833.671	116.852
838.219	37.1875
842.763	225.49
847.306	330.566
851.845	262.068
856.382	376.523
860.917	227.994
865.448	162.422
869.978	180.305
874.505	146.549
879.029	351.346
883.55	40.9355
888.069	140.711
892.586	33.7715
897.1	54.8242
901.611	242.617
906.12	132.363
910.626	319.277
915.129	371.789
919.63	176.363
924.129	22.9375
928.625	247.941
933.118	126.189
937.609	248.406
942.097	71.832
946.582	187.498
951.065	320.967
955.546	475.35
960.023	1333.48
964.499	2543.78
968.971	1424.77
973.441	184.19
977.909	163.789
982.374	160.742
986.836	418.688
991.295	125.965
995.753	118.195
1000.21	194.492
1004.66	11.2812
1009.11	1.67188
1013.55	179.211
1018	134.594
1022.44	107.656
1026.88	493.781
1031.32	230.16
1035.75	121.785
1040.18	299.609
1044.61	400.113
1049.04	426.293
1053.46	469.523
1057.88	258.445
1062.3	10.3086
1066.71	225.266
1071.13	2.52734
1075.54	364.891
1079.94	380.387
1084.35	203.894
1088.75	255.547
1093.15	184.219
1097.55	161.953
1101.94	55.1602
1106.34	9.68359
1110.73	85.4336
1115.11	293.699
1119.5	248.742
1123.88	292.309
1128.26	115.953
1132.63	167.84
1137.01	147.523
1141.38	313.309
1145.75	162.258
1150.12	135.367
1154.48	58.8086
1158.84	129.613
1163.2	231
1167.55	252.086
1171.91	264.938
1176.26	490.414
1180.61	255.231
1184.95	556.527
1189.29	258.25
1193.63	400.945
1197.97	241.129
1202.31	351.246
1206.64	281.715
1210.97	262.644
1215.29	281.016
1219.62	297.086
1223.94	226.18
1228.26	468.223
1232.57	351.316
1236.89	387.141
1241.2	366.394
1245.51	332.168
1249.81	473.477
1254.12	265.32
1258.42	143.914
1262.72	492.219
1267.01	214.211
1271.3	370.898
1275.59	514.242
1279.88	327.184
1284.17	179.133
1288.45	122.684
1292.73	323.535
1297.01	265.602
1301.28	126.332
1305.55	70.7617
1309.82	172.738
1314.09	242.359
1318.35	489.691
1322.61	416.805
1326.87	607.602
1331.13	538.949
1335.38	473.859
1339.63	596.336
1343.88	393.375
1348.12	537.031
1352.37	429.289
1356.61	469.156
1360.85	558.641
1365.08	768.269
1369.31	694.051
1373.54	652.453
1377.77	491.523
1381.99	340.262
1386.22	452.688
1390.43	198.805
1394.65	437.621
1398.87	392.156
1403.08	499.445
1407.29	454.512
1411.49	629.418
1415.69	445.207
1419.89	662.121
1424.09	354.152
1428.29	493.769
1432.48	376.828
1436.67	334.164
1440.86	366.602
1445.04	344.805
1449.23	441.598
1453.4	449.027
1457.58	635.356
1461.76	286.586
1465.93	415.731
1470.1	411.801
1474.26	524.793
1478.43	422.688
1482.59	296.488
1486.75	534.152
1490.9	667.488
1495.06	416.969
1499.21	401.891
1503.35	466.992
1507.5	512.742
1511.64	429.426
1515.78	525.375
1519.92	300.258
1524.05	310.234
1528.18	392.496
1532.31	538.359
1536.44	383.238
1540.56	470.434
1544.69	440.762
1548.8	27.7852
1552.92	534.043
1557.03	685.133
1561.14	569.695
1565.25	323.566
1569.36	0.972656
