Measurement: Raman, 514 nm, ccw, Raman Data Processed
Mineral: Fluorophlogopite
Rruff sample: R040075
Ideal chemistry: KMg_3_(Si_3_Al)O_10_F_2_
Locality: unknown
Source: University of Arizona Mineral Museum
Description: Green hexagonal tablet
Measured chemistry: (K_0.93_[box]_0.04_Na_0.03_)(Mg_0.66_Fe_0.30_Ti_0.02_)_3_(Si_0.75_Al_0.25_)_4_O_10_(F_0.90_(OH)_0.06_Cl_0.04_)
Pin_id: L00287
Orientation: Laser parallel to c [0 0 1]. Fiducial mark perpendicular to laser is parallel to -b* (0 -1 0)
Raman shift (cm-1)	intensity
166.996	0
171.152	213.559
175.305	245.671
179.456	606.011
183.605	900.106
187.752	1149.3
191.898	1148.79
196.041	872.796
200.182	604.592
204.321	431.641
208.457	351.951
212.592	279.909
216.725	186.794
220.856	91.661
224.984	98.946
229.111	13.575
233.236	9.941
237.358	61.999
241.479	15.316
245.597	82.979
249.713	53.993
253.828	9.319
257.94	111.164
262.05	133.319
266.159	187.725
270.265	299.691
274.369	464.535
278.471	462.995
282.572	469.89
286.67	394.976
290.766	249.267
294.86	198.95
298.952	168.468
303.042	171.924
307.13	199.51
311.216	231.083
315.3	343.727
319.382	411.689
323.462	383.834
327.54	302.393
331.616	268.938
335.69	291.333
339.762	318.565
343.832	258.041
347.9	374.588
351.965	347.068
356.029	318.449
360.091	368.803
364.151	331.959
368.209	338.696
372.265	342.241
376.319	306.978
380.371	294.53
384.421	332.393
388.469	294.184
392.515	259.431
396.559	338.321
400.601	307.711
404.641	373.503
408.679	261.028
412.715	331.914
416.749	349.787
420.781	196.802
424.811	253.754
428.839	211.248
432.866	163.474
436.89	137.665
440.912	116.567
444.932	54.93
448.951	40.604
452.967	63.052
456.981	75.321
460.994	96.09
465.004	52.844
469.013	0.5
473.019	7.679
477.024	135.518
481.026	200.103
485.027	357.649
489.026	309.219
493.023	379.804
497.017	397.289
501.01	519.655
505.001	578.912
508.99	528.098
512.977	523.22
516.962	612.355
520.945	599.554
524.927	667.865
528.906	650.299
532.883	667.82
536.858	648.436
540.832	696.212
544.803	684.138
548.773	686.797
552.741	666.238
556.706	595.929
560.67	547.772
564.632	456.254
568.592	482.865
572.55	307.606
576.506	308.476
580.46	271.393
584.412	191.337
588.363	207.299
592.311	128.269
596.258	126.245
600.202	100.147
604.145	90.211
608.086	81.426
612.024	118.227
615.961	151.953
619.896	137.185
623.829	294.12
627.761	294.938
631.69	327.029
635.617	282.683
639.543	365.83
643.466	369.008
647.388	431.213
651.308	549.447
655.226	632.708
659.142	823.143
663.056	978.349
666.968	1388.16
670.879	1835.33
674.787	2261.53
678.694	2814.42
682.598	2845.27
686.501	2416.18
690.402	1883.73
694.301	1526.76
698.198	1369.67
702.093	1340.99
705.987	1405.88
709.878	1482.06
713.768	1599.55
717.656	1763.49
721.542	1775.96
725.426	1735.21
729.308	1609.42
733.188	1465.58
737.067	1394.71
740.943	1215.79
744.818	1152.83
748.691	1107.82
752.562	1032.77
756.431	1070.67
760.298	1208.54
764.163	1342.39
768.027	1361.34
771.888	1386.38
775.748	1330.53
779.606	1150.79
783.462	982.064
787.317	919.312
791.169	681.514
795.019	518.658
798.868	407.182
802.715	278.77
806.56	185.615
810.403	123.635
814.245	80.472
818.084	49.223
821.922	19.135
825.758	20.654
829.592	39.432
833.424	75.544
837.254	63.049
841.082	10.904
844.909	11.996
848.734	3.38
852.557	9.873
856.378	12.877
860.197	14.739
864.015	0.494
867.831	45.142
871.645	116.704
875.457	89.191
879.267	146.639
883.075	99.03
886.882	195.364
890.687	222.649
894.49	240.872
898.291	281.046
902.09	270.182
905.888	280.485
909.683	305.271
913.477	327.227
917.269	388.122
921.06	344.957
924.848	328.733
928.635	328.465
932.42	408.133
936.203	471.736
939.984	390.275
943.764	419.75
947.541	418.162
951.317	420.519
955.091	352.833
958.864	416.093
962.634	356.292
966.403	333.279
970.17	382.351
973.935	383.158
977.698	302.219
981.46	327.153
985.22	362.309
988.978	330.543
992.734	334.198
996.488	359.146
1000.24	365.377
1003.99	329.091
1007.74	346.091
1011.49	320.472
1015.23	374.042
1018.98	228.481
1022.72	308.968
1026.46	344.84
1030.2	387.735
1033.93	456.791
1037.67	472.7
1041.4	364.821
1045.13	400.957
1048.86	449.86
1052.59	481.016
1056.32	530.221
1060.04	468.447
1063.77	567.596
1067.49	537.764
1071.2	447.063
1074.92	505.742
1078.64	444.964
1082.35	444.211
1086.06	508.514
1089.78	538.735
1093.48	529.961
1097.19	492.195
1100.89	368.423
1104.6	332.16
1108.3	342.444
1112	210.722
1115.7	189.949
1119.39	219.372
1123.09	121.711
1126.78	112.217
1130.47	118.63
1134.16	117.91
1137.85	137.877
1141.54	106.063
1145.22	166.338
1148.9	160.547
1152.58	131.608
1156.26	24.007
1159.94	1.162
1163.62	8.167
1167.29	56.373
1170.96	27.529
1174.63	68.037
1178.3	28.638
1181.97	6.829
1185.63	42.238
1189.3	6.264
1192.96	51.909
1196.62	18.544
1200.28	31.585
1203.93	13.117
1207.59	55.033
1211.24	78.411
1214.89	54.36
1218.54	0.224
1222.19	66.008
1225.84	48.732
1229.48	70.796
1233.13	74.378
1236.77	84.972
1240.41	93.877
1244.05	12.558
1247.68	19.062
1251.32	37.281
1254.95	45.926
1258.58	83.289
1262.21	113.497
1265.84	86.682
1269.46	54.031
1273.09	36.038
1276.71	1.257
1280.33	30.958
1283.95	33.532
1287.57	34.054
1291.18	89.457
1294.8	70.745
1298.41	41.509
1302.02	16.505
1305.63	24.609
1309.24	15.862
1312.84	26.768
1316.45	26.714
1320.05	34.583
1323.65	17.97
1327.25	12.059
1330.85	9.245
1334.44	35.041
1338.04	38.84
1341.63	48.712
1345.22	46.311
1348.81	45.664
1352.4	8.959
1355.98	52.364
1359.57	6.404
1363.15	118.487
1366.73	81.41
1370.31	4.441
1373.89	72.714
1377.46	64.591
1381.04	28.411
1384.61	48.917
1388.18	47.303
1391.75	84.923
1395.32	107.387
1398.88	52.604
1402.45	52.471
1406.01	47.813
1409.57	116.195
1413.13	51.741
1416.69	4.879
1420.24	74.477
1423.8	80.099
1427.35	75.374
1430.9	21.126
1434.45	68.179
1438	137.03
1441.55	50.115
1445.09	62.711
1448.63	63.968
1452.18	98.132
1455.71	60.849
1459.25	95.281
1462.79	86.716
1466.32	131.357
1469.86	113.285
1473.39	131.054
1476.92	134.279
1480.45	147.278
1483.97	113.638
1487.5	97.282
1491.02	94.921
1494.54	94.677
1498.06	79.773
1501.58	44.401
1505.1	4.509
1508.62	76.148
1512.13	4.309
1515.64	22.065
1519.15	39.339
1522.66	54.577
