Measurement: Raman, 514 nm, ccw, Raman Data Processed
Mineral: Fluorophlogopite
Rruff sample: R040075
Ideal chemistry: KMg_3_(Si_3_Al)O_10_F_2_
Locality: unknown
Source: University of Arizona Mineral Museum
Description: Green hexagonal tablet
Measured chemistry: (K_0.93_[box]_0.04_Na_0.03_)(Mg_0.66_Fe_0.30_Ti_0.02_)_3_(Si_0.75_Al_0.25_)_4_O_10_(F_0.90_(OH)_0.06_Cl_0.04_)
Pin_id: L00309
Orientation: Laser parallel to -b* (0 -1 0). Fiducial mark perpendicular to laser is parallel to -c [0 0 -1]
Raman shift (cm-1)	intensity
130.367	0
134.532	50.298
138.695	179.941
142.856	53.817
147.014	42.709
151.171	158.202
155.325	648.174
159.478	1192.21
163.629	1976.46
167.777	3343.85
171.924	5555.07
176.068	9279.56
180.211	15626.5
184.351	23885.1
188.49	29684.9
192.626	26205.6
196.761	17717.3
200.893	10260.6
205.024	5986.35
209.152	3665.82
213.279	2315.89
217.403	1533.33
221.526	1055.69
225.646	780.643
229.765	492.939
233.881	399.557
237.996	371.485
242.108	355.713
246.219	333.396
250.328	396.176
254.434	530.29
258.539	697.194
262.641	895.354
266.742	1407.51
270.84	2060.4
274.937	3008.93
279.032	3158.69
283.125	2679.09
287.215	1985.04
291.304	1443.47
295.391	1131.71
299.476	1176.8
303.558	1437.11
307.639	1691.35
311.718	1938.96
315.795	2213.26
319.87	2210.59
323.943	1988.09
328.014	1628.87
332.083	1377.06
336.15	1046.74
340.215	812.747
344.279	718.81
348.34	562.701
352.399	494.699
356.457	445.419
360.512	356.024
364.565	333.412
368.617	335.818
372.666	146.988
376.714	159.623
380.76	118.482
384.803	97.62
388.845	86.252
392.885	45.927
396.923	14.887
400.959	3.643
404.993	32.186
409.025	3.083
413.055	39.775
417.084	45.257
421.11	34.495
425.134	37.616
429.157	4.387
433.177	18.477
437.196	25.377
441.213	71.315
445.227	38.264
449.24	24.19
453.251	33.216
457.26	44.273
461.267	27.145
465.272	18.986
469.276	28.623
473.277	44.895
477.276	57.693
481.274	94.827
485.27	168.322
489.263	205.193
493.255	203.449
497.245	260.098
501.233	298.152
505.219	278.625
509.203	302.525
513.186	268.88
517.166	426.751
521.145	353.108
525.121	401.954
529.096	333.215
533.069	342.684
537.04	346.465
541.009	390.145
544.976	295.769
548.941	368.914
552.905	339.247
556.866	362.809
560.826	320.61
564.784	359.367
568.74	359.401
572.694	397.915
576.646	395.382
580.596	377.098
584.544	398.49
588.491	463.927
592.435	539.048
596.378	692.982
600.319	853.509
604.258	1043.76
608.195	1352.02
612.131	1748.63
616.064	2152.09
619.995	2712.76
623.925	3175.12
627.853	3567.74
631.779	3657.93
635.703	3562.65
639.625	3428.44
643.546	3570.91
647.464	3635.59
651.381	4110.35
655.296	4722.44
659.209	5486.81
663.12	6804.55
667.029	8994.39
670.937	12241.7
674.842	15736.3
678.746	17579.1
682.648	15905.5
686.548	11489.4
690.447	7565.99
694.343	4804.06
698.238	3201.3
702.13	2461.11
706.021	1977.49
709.91	1695.14
713.798	1524.43
717.683	1382.27
721.567	1290.41
725.448	1238.6
729.328	1140.9
733.206	1023.15
737.083	821.554
740.957	752.056
744.83	681.645
748.701	625.259
752.57	567.929
756.437	667.409
760.302	590.688
764.166	527.813
768.027	582.107
771.887	607.547
775.745	599.139
779.602	533.871
783.456	454.767
787.309	422.78
791.16	365.854
795.009	264.967
798.856	231.109
802.702	177.275
806.545	125.462
810.387	85.667
814.227	54.885
818.065	16.108
821.902	2.67
825.737	20.535
829.569	22.473
833.401	20.561
837.23	5.689
841.057	25.906
844.883	19.236
848.707	49.669
852.529	37.25
856.35	3.022
860.168	1.828
863.985	6.729
867.8	33.648
871.613	39.379
875.425	37.41
879.234	53.48
883.042	60.572
886.848	78.697
890.653	104.843
894.455	119.998
898.256	220.194
902.055	224.397
905.852	217.608
909.648	201.83
913.442	237.066
917.233	247.301
921.024	253.534
924.812	311.762
928.599	248.99
932.384	333.202
936.167	298.403
939.948	385.596
943.728	436.775
947.506	373.941
951.282	456.088
955.056	498.212
958.829	575.314
962.6	597.392
966.369	725.283
970.136	751.851
973.902	774.075
977.666	788.279
981.428	852.332
985.188	930.896
988.947	1082.64
992.704	1184.04
996.459	1337.79
1000.21	1506.93
1003.96	1744.99
1007.71	2006.3
1011.46	2499.43
1015.21	3182.75
1018.95	4137.44
1022.7	5225.71
1026.44	6217.66
1030.18	6563.27
1033.91	5976.43
1037.65	5226.01
1041.39	4221.05
1045.12	3615.87
1048.85	3204.84
1052.58	2945.1
1056.31	2735.13
1060.03	2638.75
1063.76	2358.73
1067.48	2121.63
1071.2	1811.71
1074.92	1567.32
1078.63	1263.03
1082.35	1095.63
1086.06	928.474
1089.78	793.163
1093.49	684.793
1097.19	567.462
1100.9	441.075
1104.61	355.678
1108.31	266.194
1112.01	145.672
1115.71	208.344
1119.41	179.703
1123.11	162.092
1126.8	66.479
1130.5	68.922
1134.19	43.66
1137.88	29.788
1141.57	66.29
1145.25	35.741
1148.94	11.258
1152.62	24.805
1156.3	26.379
1159.98	15.786
1163.66	33.317
1167.34	53.064
1171.01	16.583
1174.68	8.865
1178.36	27.077
1182.02	8.659
1185.69	7.939
1189.36	27.85
1193.02	23.717
1196.69	21.537
1200.35	17.265
1204.01	56.885
1207.66	40.521
1211.32	42.888
1214.98	2.74
1218.63	66.42
1222.28	23.75
1225.93	68.491
1229.58	39.384
1233.22	89.521
1236.87	21.57
1240.51	26.58
1244.15	27.087
1247.79	35.242
1251.43	31.118
1255.07	32.959
1258.7	41.695
1262.33	50.738
1265.96	62.406
1269.59	71.029
1273.22	54.572
1276.85	51.239
1280.47	5.804
1284.1	65.237
1287.72	67.528
1291.34	73.946
1294.95	54.031
1298.57	103.704
1302.19	46.62
1305.8	52.602
1309.41	67.073
1313.02	27.643
1316.63	34.935
1320.23	47.1
1323.84	11.887
1327.44	42.115
1331.05	102.507
1334.64	52.701
1338.24	45.924
1341.84	55.93
1345.43	53.563
1349.03	44.49
1352.62	8.364
1356.21	35.662
1359.8	20.037
1363.39	56.955
1366.97	66.784
1370.56	66.649
1374.14	41.504
1377.72	70.703
1381.3	22.948
1384.87	35.907
1388.45	5.275
1392.02	45.19
1395.6	31.202
1399.17	28.008
1402.74	59.57
1406.3	74.256
1409.87	12.459
1413.43	47.026
1417	1.399
1420.56	2.867
1424.12	3.247
1427.67	35.032
1431.23	28.699
1434.79	26.874
1438.34	37.854
1441.89	45.188
1445.44	44.005
1448.99	62.099
1452.54	42.744
1456.08	46.642
1459.62	36.731
1463.17	5.695
1466.71	47.107
1470.24	46.233
1473.78	60.664
1477.32	7.079
1480.85	51.588
1484.38	61.05
1487.91	44.807
1491.44	31.604
1494.97	43.605
1498.5	6.341
1502.02	12.619
1505.54	23.791
1509.07	0.1
1512.59	31.49
