Measurement: Raman, 514 nm, ccw, Raman Data Processed
Mineral: Fluorapatite
Rruff sample: R050122
Ideal chemistry: Ca_5_(PO_4_)_3_F
Locality: Cruziero mine, San Jose, Minas Gerais, Brazil
Source: Carlos and Paulo Vasconcelos
Description: Green fragment
Measured chemistry: (Ca_4.99_Mn_0.01_)_Î£=5_(P_1.00_O_4_)_3_F_1.00_; trace amounts of Fe
Pin_id: L00505
Orientation: Laser parallel to -a* (-1 0 0). Fiducial mark perpendicular to laser is parallel to -c [0 0 -1]
Raman shift (cm-1)	intensity
116.256	0
120.447	77.941
124.636	53.823
128.822	99.923
133.006	127.305
137.188	130.732
141.368	131.99
145.545	115.264
149.72	137.117
153.893	174.292
158.064	231.552
162.233	191.586
166.399	177.167
170.563	189.199
174.725	129.775
178.885	122.008
183.043	132.702
187.198	78.962
191.351	168.701
195.502	194.521
199.651	264.273
203.797	490.847
207.942	884.304
212.084	976.711
216.224	605.103
220.362	342.521
224.497	200.945
228.631	203.476
232.762	167.805
236.891	257.76
241.018	177.552
245.143	97.531
249.265	68.097
253.386	80.898
257.504	67.675
261.62	65.207
265.734	9.862
269.845	102.339
273.955	4.472
278.062	57.505
282.167	110.31
286.27	128.525
290.371	195.76
294.47	225.344
298.567	330.164
302.661	401.152
306.753	360.263
310.843	340.462
314.931	261.9
319.017	195.533
323.101	113.615
327.182	19.908
331.261	11.665
335.339	63.208
339.414	22.624
343.487	2.993
347.557	25.586
351.626	55.1
355.693	1.027
359.757	1.558
363.819	4.105
367.879	41.204
371.937	39.666
375.993	63.818
380.047	26.78
384.099	59.671
388.148	1.097
392.196	50.667
396.241	8.47
400.284	22.404
404.325	45.848
408.364	27.345
412.401	84.497
416.435	189.182
420.468	65.639
424.498	129.963
428.527	318.174
432.553	376.273
436.577	378.267
440.599	391.159
444.619	471.957
448.637	743.671
452.653	885.292
456.667	724.805
460.678	466.201
464.688	278.739
468.695	249.111
472.701	79.226
476.704	159.659
480.705	158.913
484.704	192.862
488.701	111.212
492.696	92.068
496.689	75.741
500.68	42.098
504.668	99.243
508.655	16.09
512.639	132.085
516.622	93.944
520.602	195.553
524.581	116.619
528.557	65.111
532.531	140.661
536.503	81.902
540.473	50.245
544.441	77.039
548.407	85.731
552.371	114.594
556.333	126.671
560.293	132.342
564.251	71.743
568.206	182.898
572.16	173.616
576.112	238.354
580.061	445.535
584.009	764.463
587.954	2337.85
591.897	3789.58
595.839	1387.98
599.778	639.588
603.716	821.222
607.651	1863.7
611.584	672.747
615.515	229.292
619.444	138.76
623.372	174.59
627.297	200.139
631.22	169.043
635.141	77.015
639.06	138.332
642.977	151.988
646.892	371.582
650.805	284.301
654.716	164.016
658.625	119.502
662.532	197.46
666.437	159.464
670.34	162.559
674.241	39.439
678.139	28.284
682.036	110.039
685.931	172.11
689.824	47.111
693.715	91.13
697.604	83.233
701.491	127.219
705.376	114.525
709.259	77.523
713.139	66.528
717.018	99.857
720.895	20.707
724.77	89.36
728.643	58.497
732.514	173.435
736.383	78.638
740.25	55.896
744.115	198.979
747.978	115.552
751.839	122.187
755.698	7.896
759.555	75.968
763.41	68.205
767.263	140.914
771.114	131.336
774.964	6.686
778.811	49.014
782.656	102.567
786.499	245.679
790.341	197.691
794.18	20.117
798.017	37.775
801.853	103.863
805.686	95.004
809.518	175.778
813.347	23.975
817.175	16.491
821.001	16.675
824.824	116.471
828.646	86.1
832.466	74.352
836.284	53.402
840.1	82.457
843.914	70.838
847.726	89.649
851.536	137.536
855.344	156.945
859.15	59.941
862.954	13.729
866.756	214.601
870.557	111.402
874.355	226.961
878.152	133.052
881.946	31.353
885.739	55.624
889.53	259.449
893.318	164.245
897.105	68.889
900.89	43.876
904.673	51.815
908.454	18.269
912.234	165.928
916.011	189.947
919.786	264.35
923.56	158.525
927.331	160.547
931.101	134.262
934.868	337.557
938.634	541.094
942.398	672.965
946.16	906.148
949.92	1255.75
953.678	1954.2
957.435	6106.67
961.189	30819.5
964.941	29086
968.692	6219.02
972.441	1652.27
976.187	814.605
979.932	446.867
983.675	472.532
987.416	225.154
991.155	264.353
994.893	145.282
998.628	96.15
1002.36	22.406
1006.09	209.674
1009.82	112.339
1013.55	334.895
1017.28	266.993
1021	219.639
1024.72	212.028
1028.44	349.972
1032.16	587.91
1035.88	777.543
1039.59	1161.22
1043.31	1427.12
1047.02	4070.77
1050.73	6495.35
1054.43	2394.75
1058.14	1172.02
1061.84	934.707
1065.54	747.251
1069.24	560.141
1072.94	1321.11
1076.64	3406.74
1080.33	2189.99
1084.03	1062.38
1087.71	794.863
1091.4	547.997
1095.09	351.111
1098.78	193.858
1102.46	97.083
1106.14	180.913
1109.82	214.073
1113.5	316.615
1117.17	268.638
1120.85	301.406
1124.52	93.839
1128.19	73.746
1131.86	30.183
1135.52	263.204
1139.19	325.845
1142.85	612.401
1146.51	394.352
1150.17	254.516
1153.83	48.008
1157.48	72.373
1161.14	15.582
1164.79	325.068
1168.44	317.859
1172.09	386.014
1175.73	156.742
1179.38	37.428
1183.02	11.961
1186.66	39.223
1190.3	180.283
1193.94	440.232
1197.58	319.953
1201.21	429.264
1204.84	189.584
1208.47	240.393
1212.1	159.123
1215.72	126.854
1219.35	457.709
1222.97	610.32
1226.59	736.742
1230.21	530.645
1233.83	642.039
1237.45	368.387
1241.06	243.102
1244.67	193.662
1248.28	338.211
1251.89	641.875
1255.5	774.914
1259.1	592.555
1262.7	515.033
1266.31	596.412
1269.9	227.893
1273.5	16.73
1277.1	238.889
1280.69	279.832
1284.29	420.725
1287.88	640.066
1291.46	749.27
1295.05	567.945
1298.64	489.295
1302.22	76.184
1305.8	141.303
1309.38	65.994
1312.96	322.1
1316.54	606.934
1320.11	617.734
1323.68	680.461
1327.25	562.576
1330.82	402.582
1334.39	253.475
1337.96	63.189
1341.52	101.174
1345.08	221.129
1348.64	354.006
1352.2	731.85
1355.76	619.035
1359.31	826.967
1362.87	673.352
1366.42	368.635
1369.97	17.455
1373.52	200.217
1377.06	74.652
1380.61	249.787
1384.15	502.709
1387.69	747.133
1391.23	1108.96
1394.77	948.893
1398.3	678.658
1401.84	501.342
1405.37	508.441
1408.9	440.088
1412.43	146.422
1415.96	72.641
1419.48	477.547
1423.01	527.863
1426.53	1019.09
1430.05	941.633
1433.57	910.877
1437.08	856.627
1440.6	515.344
1444.11	442.045
1447.62	260.332
1451.13	10.627
1454.64	54.73
1458.15	424.143
1461.65	561.984
1465.16	865.859
1468.66	1197.92
1472.16	1172.64
1475.65	889.193
1479.15	765.221
1482.64	441.82
1486.14	406.562
1489.63	82.389
1493.12	120.033
1496.61	18.816
1500.09	330.891
1503.58	502.246
1507.06	863.857
