Measurement: Raman, 514 nm, ccw, Raman Data Processed
Mineral: Fluorapatite
Rruff sample: R050122
Ideal chemistry: Ca_5_(PO_4_)_3_F
Locality: Cruziero mine, San Jose, Minas Gerais, Brazil
Source: Carlos and Paulo Vasconcelos
Description: Green fragment
Measured chemistry: (Ca_4.99_Mn_0.01_)_Î£=5_(P_1.00_O_4_)_3_F_1.00_; trace amounts of Fe
Pin_id: L00501
Orientation: Laser parallel to c* (0 0 1). Fiducial mark perpendicular to laser is parallel to a [1 0 0]
Raman shift (cm-1)	intensity
148.25	0
152.403	3.211
156.555	206.723
160.705	279.971
164.853	129.072
168.998	183.793
173.142	79.567
177.284	185.098
181.424	76.679
185.562	64.37
189.698	162.003
193.831	211.613
197.963	49.692
202.093	83.185
206.221	197.552
210.347	225.338
214.472	130.038
218.594	34.24
222.714	148.431
226.832	188.462
230.948	34.268
235.063	147.707
239.175	261.594
243.286	149.568
247.394	118.539
251.501	213.622
255.605	161.253
259.708	156.868
263.808	301.061
267.907	425.811
272.004	198.15
276.099	87.227
280.192	109.759
284.283	259.757
288.372	139.711
292.459	100.089
296.544	160.923
300.627	111.107
304.709	45.634
308.788	101.655
312.865	68.012
316.941	301.196
321.015	107.151
325.086	135.792
329.156	130.642
333.224	215.676
337.29	111.533
341.354	7.725
345.416	194.685
349.476	216.83
353.534	129.976
357.591	11.087
361.645	220.909
365.698	152.117
369.748	93.903
373.797	25.665
377.844	204.488
381.889	224.038
385.932	91.516
389.973	14.88
394.012	222.04
398.049	258.078
402.084	153.667
406.118	108.743
410.15	123.164
414.179	367.049
418.207	187.609
422.233	107.431
426.257	266.911
430.279	326.569
434.299	255.488
438.318	363.421
442.334	731.137
446.349	1048.29
450.361	942.991
454.372	537.771
458.381	452.195
462.388	486.496
466.394	331.54
470.397	217.161
474.398	203.384
478.398	325.293
482.396	368.239
486.391	211.175
490.385	57.622
494.377	59.576
498.368	291.768
502.356	223.812
506.342	101.46
510.327	87.836
514.31	374.102
518.291	307.01
522.27	82.812
526.247	26.604
530.222	279.587
534.196	290.526
538.167	217.072
542.137	35.437
546.105	44.489
550.071	241.564
554.035	332.416
557.998	304.006
561.958	148.43
565.917	165.852
569.874	187.918
573.829	512.314
577.782	744.314
581.733	1249.26
585.683	1095.09
589.63	677.975
593.576	380.6
597.52	150.221
601.462	162.508
605.402	814.596
609.341	1118.75
613.277	449.43
617.212	468.678
621.145	547.598
625.076	419.166
629.006	434.949
632.933	90.283
636.859	114.596
640.783	288.381
644.705	509.242
648.625	230.5
652.543	28.295
656.46	140.59
660.375	163.094
664.288	530.225
668.199	401.977
672.108	81.352
676.016	263.016
679.921	367.564
683.825	299.922
687.727	516.119
691.628	178.008
695.526	140.191
699.423	406.701
703.318	607.08
707.211	6.943
711.102	7.758
714.992	206.859
718.879	285.133
722.765	554.66
726.649	452.398
730.532	239.818
734.412	167.668
738.291	384.531
742.168	641.252
746.043	436.369
749.916	59.648
753.788	212.973
757.658	546.266
761.526	589.094
765.392	631.844
769.257	504.18
773.119	233.072
776.98	172.674
780.839	280.146
784.697	526.865
788.552	201.764
792.406	157.455
796.258	533.426
800.108	637.41
803.957	551.686
807.804	489.305
811.649	42.994
815.492	301.586
819.333	35.158
823.173	447.523
827.011	551.205
830.847	232.609
834.681	273.934
838.514	85.377
842.345	445.023
846.174	556.021
850.001	240.516
853.827	237.564
857.651	66.928
861.473	175.574
865.293	190.471
869.112	667.105
872.928	720.488
876.744	167.324
880.557	312.045
884.369	463.6
888.178	438.518
891.987	944.049
895.793	547.686
899.598	313.539
903.401	421.6
907.202	126.697
911.001	572.727
914.799	887.088
918.595	538.518
922.389	137.453
926.182	306.594
929.972	539.797
933.761	669.236
937.549	793.547
941.334	645.812
945.118	358.496
948.9	1002.16
952.681	1107.98
956.459	2340.84
960.236	5563.73
964.012	22445.9
967.785	13709.8
971.557	2959.8
975.327	954.105
979.095	807.594
982.862	732.047
986.627	686.328
990.39	574.309
994.152	17.859
997.912	301.352
1001.67	503.863
1005.43	756.668
1009.18	750.539
1012.93	833.055
1016.68	178.762
1020.43	146.297
1024.18	247.52
1027.93	1092.65
1031.67	1636.41
1035.42	1392.48
1039.16	478.977
1042.9	545.648
1046.63	72.008
1050.37	648.246
1054.11	825.477
1057.84	1081
1061.57	1516.68
1065.3	922.84
1069.03	348.633
1072.75	57.312
1076.47	433.629
1080.2	999.836
1083.92	1006.1
1087.64	1392.7
1091.36	819.395
1095.07	387.418
1098.79	124.801
1102.5	322.723
1106.21	1019.81
1109.92	676.387
1113.62	703.949
1117.33	370.422
1121.04	3.191
1124.74	83.453
1128.44	181.219
1132.14	301.168
1135.83	619.562
1139.53	1449.86
1143.22	1447.96
1146.92	580.453
1150.61	282.605
1154.3	3.629
1157.98	401.867
1161.67	754.047
1165.35	1266.7
1169.04	1367.49
1172.72	1305.1
1176.4	492.078
1180.07	129.219
1183.75	195.156
1187.42	900.633
1191.1	547.102
1194.77	1181.96
1198.44	1307.01
1202.1	1234.89
1205.77	879.5
1209.43	525.133
1213.1	578.898
1216.76	1170.98
1220.42	1616.26
1224.07	1987.52
1227.73	1571.02
1231.38	1783.61
1235.04	1228.51
1238.69	329.137
1242.34	389.371
1245.99	445.055
1249.63	1422.55
1253.28	1730.07
1256.92	2107.68
1260.56	1815.99
1264.2	1500.33
1267.84	633.211
1271.48	348.945
1275.11	222.781
1278.74	365.445
1282.38	1095.04
1286.01	1687.12
1289.63	1163.96
1293.26	1207.11
1296.89	892.633
1300.51	104.164
1304.13	330.535
1307.75	177.164
1311.37	143.141
1314.99	613.359
1318.6	821.883
1322.22	1329.31
1325.83	1105.48
1329.44	868.27
1333.05	236.742
1336.66	77.996
1340.26	393.547
1343.87	82.211
1347.47	1077.64
1351.07	1671.25
1354.67	2074.77
1358.27	1676
1361.86	1565.74
1365.46	937.004
1369.05	397.039
1372.64	22.402
1376.23	206.957
1379.82	1067.14
1383.41	1534.48
1386.99	1770.8
1390.57	2106.93
1394.16	2402.78
1397.74	2260.33
1401.32	1817.75
1404.89	1062.87
1408.47	602.492
1412.04	71.609
1415.61	244.809
1419.18	632.547
1422.75	1705.76
1426.32	1697.69
1429.89	1936.33
1433.45	2059.12
1437.01	1978.38
1440.58	1376.09
1444.13	435.367
1447.69	147.047
1451.25	268.344
1454.81	184.578
1458.36	587.148
1461.91	1203.5
1465.46	1728.09
1469.01	2331.15
1472.56	2288.14
