Measurement: Raman, 514 nm, ccw, Raman Data Processed
Mineral: Fluorapatite
Rruff sample: R050274
Ideal chemistry: Ca_5_(PO_4_)_3_F
Locality: Minas Gerais, Brazil
Source: Marcus Origlieri
Description: Aggregate of blue crystal fragments separated by veins of quartz
Measured chemistry: Ca_5.00_((P_0.97_Si_0.02_S_0.01_)O_4_)_3_(F_0.90_Cl_0.10_)
Pin_id: L00850
Orientation: Laser parallel to c* (0 0 1). Fiducial mark perpendicular to laser is parallel to b [0 1 0]
Raman shift (cm-1)	intensity
110.744	0
114.44	54.4742
118.134	44.2794
121.827	73.9714
125.519	100.15
129.209	288.89
132.898	360.083
136.585	492.946
140.271	410.299
143.956	308.664
147.639	328.623
151.321	350.451
155.002	328.547
158.681	277.094
162.359	154.757
166.036	152.203
169.711	129.749
173.385	69.894
177.058	109.606
180.729	15.4048
184.399	38.231
188.067	10.5247
191.734	18.5767
195.4	64.3933
199.064	57.3252
202.727	51.0181
206.389	34.9685
210.049	48.1992
213.708	33.1313
217.366	62.5476
221.022	58.0002
224.677	74.1072
228.33	109.26
231.982	113.576
235.633	114.579
239.282	133.275
242.93	117.902
246.577	99.208
250.222	143.095
253.866	162.715
257.508	292.845
261.149	288.625
264.789	443.11
268.427	298.76
272.064	194.902
275.7	202.578
279.334	159.479
282.967	72.0606
286.598	103.388
290.229	165.127
293.857	155.423
297.485	129.256
301.111	121.611
304.735	178.474
308.358	196.823
311.98	76.6431
315.601	112.209
319.22	38.2693
322.837	78.3965
326.454	2.94873
330.068	38.604
333.682	25.1177
337.294	69.7754
340.905	77.2334
344.514	28.5415
348.122	111.878
351.729	17.1851
355.334	4.63379
358.938	29.4663
362.54	44.208
366.141	37.687
369.741	62.4741
373.339	2.66797
376.936	42.5034
380.531	34.8682
384.126	24.0938
387.718	153.591
391.31	5.21924
394.9	69.3198
398.488	82.0273
402.075	143.468
405.661	76.2383
409.245	72.9194
412.828	107.041
416.41	171.284
419.99	342.288
423.569	347.97
427.146	480.693
430.722	561.156
434.297	682.263
437.87	825.241
441.442	1042.26
445.012	935.52
448.581	861.075
452.149	611.538
455.715	549.33
459.28	439.247
462.843	246.032
466.405	190.189
469.965	207.497
473.525	123.763
477.082	161.942
480.639	198.259
484.194	105.251
487.747	62.4077
491.3	115.212
494.85	44.7231
498.4	36.4653
501.948	67.4028
505.494	74.2935
509.039	4.18359
512.583	55.6416
516.125	72.8594
519.666	50.437
523.206	26.0986
526.744	34.9365
530.281	5.48389
533.816	131.944
537.35	47.7353
540.882	143.777
544.413	13.2051
547.943	109.386
551.471	78.249
554.998	140.734
558.523	25.9707
562.047	62.8672
565.57	190.305
569.091	380.404
572.611	534.158
576.129	1167.81
579.646	1389.97
583.162	936.953
586.676	603.195
590.188	490.993
593.7	425.581
597.209	572.245
600.718	710.887
604.225	890.827
607.73	754.49
611.235	756.97
614.737	710.16
618.239	577.62
621.739	343.46
625.237	239.102
628.734	179.039
632.23	204.169
635.724	151.608
639.217	221.834
642.708	305.49
646.198	310.897
649.687	278.777
653.174	257.603
656.66	272.154
660.144	236.498
663.627	304.66
667.108	321.64
670.588	260.1
674.067	157.491
677.544	234.856
681.02	119.443
684.494	100.705
687.967	142.876
691.438	201.28
694.908	173.865
698.377	97.8809
701.844	169.634
705.31	236.103
708.774	209.428
712.237	354.473
715.698	278.933
719.158	334.647
722.617	238.041
726.074	149.496
729.53	286.601
732.984	264.989
736.437	276.047
739.888	359.959
743.338	336.374
746.787	346.575
750.234	320.242
753.68	322.019
757.124	244.208
760.567	304.471
764.008	394.389
767.448	286.555
770.887	256.783
774.324	315.455
777.759	235.33
781.194	144.207
784.626	253.078
788.058	332.01
791.488	351.506
794.916	261.137
798.343	427.277
801.769	171.127
805.193	315.199
808.616	216.158
812.037	187.32
815.457	287.812
818.875	150.098
822.292	132.65
825.707	315.184
829.122	291.998
832.534	88.3477
835.945	174.623
839.355	205.018
842.763	196.1
846.17	303.002
849.576	51.8926
852.98	75.7461
856.382	70.5644
859.783	162.469
863.183	129.883
866.581	269.008
869.978	34.6797
873.373	185.549
876.767	80.9277
880.159	82.2812
883.55	97.3789
886.94	40.918
890.328	79.7539
893.714	162.69
897.1	84.5391
900.483	35.834
903.866	85.1465
907.246	60.3789
910.626	139.531
914.004	31.3359
917.38	26.7695
920.755	120.436
924.129	129.932
927.501	152.055
930.872	59.0918
934.241	131.447
937.609	272.699
940.975	427.758
944.34	1034.72
947.703	1621.08
951.065	2958.63
954.426	6373.85
957.785	13273
961.142	20075
964.499	14536.5
967.853	7177.15
971.207	3434.94
974.558	1494.84
977.909	741.34
981.258	459.451
984.605	291.551
987.951	13.4531
991.295	125.459
994.639	5.00195
997.98	182.908
1001.32	183.062
1004.66	306.41
1008	359.492
1011.33	108.494
1014.67	274.434
1018	63.6797
1021.33	281.092
1024.66	596.953
1027.99	894.731
1031.32	739.191
1034.64	443.35
1037.97	317.486
1041.29	454.199
1044.61	431.381
1047.93	205.846
1051.25	530.67
1054.56	415.643
1057.88	619.494
1061.19	542.186
1064.51	207.693
1067.82	385.756
1071.13	512.709
1074.43	230.129
1077.74	172.008
1081.05	306.348
1084.35	132.246
1087.65	80.8125
1090.95	382.383
1094.25	116.234
1097.55	68.1289
1100.85	114.09
1104.14	209.66
1107.43	183.883
1110.73	44.7734
1114.02	381.594
1117.31	246.301
1120.59	409.711
1123.88	444.375
1127.16	237.457
1130.45	49.7656
1133.73	440.137
1137.01	412.848
1140.29	102.227
1143.57	247.762
1146.84	160.363
1150.12	468.727
1153.39	263.348
1156.66	317.465
1159.93	510.582
1163.2	341.559
1166.46	321.949
1169.73	210.469
1172.99	295.863
1176.26	225.356
1179.52	81.1992
1182.78	240.629
1186.04	43.2656
1189.29	166.273
