Measurement: Raman, 514 nm, ccw, Raman Data Processed
Mineral: Fluorapatite
Rruff sample: R060184
Ideal chemistry: Ca_5_(PO_4_)_3_F
Locality: Yates mine, Otter Lake, Quebec, Canada
Source: Lloyd Twaites
Description: Green colored fragment of a hexagonal prism
Measured chemistry: (Ca_0.99_Ce_0.01_)_5.00_((P_0.98_Si_0.01_S_0.01_)O_4_)_3_F_1.00_
Pin_id: M00532
Orientation: Laser parallel to -a* (-1 0 0). Fiducial mark perpendicular to laser is parallel to -c [0 0 -1]
Raman shift (cm-1)	intensity
170.559	0
175.467	98.769
180.372	42.8704
185.274	62.3
190.174	31.0764
195.072	32.583
199.967	161.094
204.859	149.967
209.749	136.791
214.637	173.601
219.521	173.83
224.404	289.761
229.284	411.549
234.161	461.837
239.036	389.903
243.908	286.989
248.777	309.195
253.645	435.881
258.509	725.72
263.371	1003.68
268.231	1065.12
273.088	884.57
277.942	534.979
282.794	445.271
287.643	407.212
292.49	441.966
297.335	464.151
302.176	586.552
307.015	669.242
311.852	602.804
316.686	483.742
321.518	338.742
326.347	248.541
331.173	217.792
335.997	89.6975
340.819	139.942
345.638	85.3696
350.454	87.4526
355.268	12.5134
360.079	51.8015
364.888	46.3291
369.694	26.314
374.498	19.8857
379.299	32.0503
384.097	5.13892
388.893	60.7632
393.686	48.1426
398.477	83.1191
403.266	183.981
408.051	158.734
412.835	243.25
417.615	384.446
422.394	486.086
427.169	830.528
431.942	1121.53
436.713	1475.06
441.481	1918.17
446.246	2182.92
451.009	1739.32
455.769	1170.35
460.527	759.04
465.282	407.209
470.035	264.849
474.785	224.453
479.532	192.795
484.277	97.9766
489.02	88.1719
493.76	120.181
498.497	6.85449
503.232	12.5981
507.964	98.4463
512.693	74.8213
517.421	0.494141
522.145	49.4727
526.867	2.41504
531.587	101.017
536.303	44.1641
541.018	80.0249
545.729	70.5381
550.439	218.543
555.145	108.455
559.849	183.204
564.551	443.536
569.25	580.13
573.946	1343.27
578.64	2629.48
583.331	2256.91
588.02	1279.44
592.706	1159.31
597.39	1214.07
602.071	1619.15
606.749	2391.87
611.425	1468.38
616.099	1065.74
620.769	526.523
625.438	341.877
630.103	503.657
634.766	610.381
639.427	759.389
644.085	880.049
648.74	1065.1
653.393	1014.87
658.044	909.312
662.691	680.882
667.336	437.432
671.979	360.091
676.619	283.183
681.257	296.135
685.892	201.555
690.524	168.326
695.154	193.892
699.781	135.974
704.406	108.615
709.028	158.92
713.647	93.1274
718.264	178.769
722.878	30.7876
727.49	5.14062
732.1	126.785
736.706	45.1943
741.31	98.6816
745.912	110.55
750.511	183.769
755.107	36.0791
759.701	90.3506
764.292	143.652
768.881	45.9238
773.467	90.3555
778.051	92.6025
782.632	30.9941
787.21	69.5244
791.786	9.52344
796.359	185.753
800.93	58.3164
805.498	89.2539
810.064	140.564
814.627	8.98047
819.187	185.793
823.745	23.3369
828.301	103.458
832.853	13.4375
837.403	78.5791
841.951	96.3018
846.496	7.8584
851.038	300.975
855.578	235.467
860.116	185.581
864.65	224.2
869.183	200.263
873.712	162.162
878.239	105.623
882.764	92.9365
887.285	92.8174
891.805	69.2139
896.322	140.12
900.836	22.918
905.347	100.966
909.856	101.029
914.363	67.3359
918.867	2.75879
923.368	34.4395
927.867	165.606
932.363	344.212
936.856	405.184
941.347	1050.22
945.836	2120.35
950.322	4245.1
954.805	11155.2
959.286	27317.9
963.764	45864
968.239	25725.3
972.712	7857.39
977.183	2687.15
981.65	829.611
986.116	414.303
990.578	267.461
995.038	258.768
999.496	206.268
1003.95	646.979
1008.4	914.911
1012.85	582.588
1017.3	639.941
1021.75	622.547
1026.19	973.057
1030.63	1248.96
1035.06	1436.54
1039.5	1001.42
1043.93	771.17
1048.36	706.135
1052.79	673.035
1057.21	979.077
1061.63	1073.7
1066.05	982.974
1070.47	1429.59
1074.88	1436.86
1079.29	1086.54
1083.7	321.788
1088.11	240.528
1092.51	153.741
1096.91	115.499
1101.31	241.847
1105.7	104.814
1110.1	44.7344
1114.49	109.844
1118.88	238.477
1123.26	327.451
1127.64	319.957
1132.02	243
1136.4	192.586
1140.78	71.2266
1145.15	0.263672
1149.52	141.986
1153.89	216.074
1158.25	180.176
1162.61	48.6348
1166.97	111.141
1171.33	126.15
1175.68	147.375
1180.04	161.334
1184.39	165.807
1188.73	88.8906
1193.08	19.5352
1197.42	92.6777
1201.76	31.5
1206.1	145.674
1210.43	121.391
1214.76	191.65
1219.09	111.231
1223.41	189.793
1227.74	310.674
1232.06	188.131
1236.38	50.0449
1240.69	0.519531
1245.01	105.939
1249.32	217.435
1253.63	23.4414
1257.93	187.959
1262.23	24.998
1266.54	232.732
1270.83	220.748
1275.13	110.084
1279.42	82.9043
1283.71	3.83203
1288	28.6074
1292.28	42.4766
1296.57	176.828
1300.85	197.853
1305.12	120.117
1309.4	238.871
1313.67	354.756
1317.94	91.5371
1322.21	220.312
1326.47	2.06055
1330.73	273.998
1334.99	211.185
1339.25	194.928
1343.5	317.059
1347.75	186.592
1352	277.523
1356.25	169.85
1360.49	13.5625
1364.73	115.711
1368.97	174.143
1373.21	188.467
1377.44	9.78516
1381.67	81.5078
1385.9	188.59
1390.13	95.0664
1394.35	49.9492
1398.57	219.738
1402.79	200.644
1407	39.8066
1411.22	403.732
1415.43	133.586
1419.63	215.893
1423.84	7.74414
1428.04	211.422
1432.24	141.715
1436.44	232.768
1440.63	137.859
1444.83	315.377
1449.02	189.94
1453.2	26.2383
1457.39	157.029
1461.57	251.295
1465.75	171.6
1469.93	101.781
1474.1	130.426
1478.27	117.525
1482.44	169.809
1486.61	21.084
1490.77	31.1641
1494.93	141.055
1499.09	134.047
1503.25	32.541
1507.4	20.7949
1511.55	211.424
1515.7	271.641
1519.85	259.869
1523.99	19.8555
1528.13	176.996
1532.27	96.7324
1536.4	257.992
1540.54	170.557
1544.67	237.162
1548.8	220.295
1552.92	197.094
1557.05	195.035
1561.16	159.258
1565.28	0
