Measurement: Raman, 514 nm, ccw, Raman Data Processed
Mineral: Fluorophlogopite
Rruff sample: R040075
Ideal chemistry: KMg_3_(Si_3_Al)O_10_F_2_
Locality: unknown
Source: University of Arizona Mineral Museum
Description: Green hexagonal tablet
Measured chemistry: (K_0.93_[box]_0.04_Na_0.03_)(Mg_0.66_Fe_0.30_Ti_0.02_)_3_(Si_0.75_Al_0.25_)_4_O_10_(F_0.90_(OH)_0.06_Cl_0.04_)
Pin_id: L00311
Orientation: Laser parallel to a [1 0 0]. Fiducial mark perpendicular to laser is parallel to b* (0 1 0)
Raman shift (cm-1)	intensity
138.413	0
142.577	188.32
146.739	104.568
150.898	261.236
155.056	199.465
159.212	612.201
163.365	311.434
167.517	617.377
171.666	935.332
175.813	1206.27
179.959	1549.79
184.102	1951.97
188.244	1912.95
192.383	1265.98
196.52	1087.25
200.656	763.769
204.789	442.858
208.92	205.854
213.049	409.901
217.176	288.728
221.302	388.463
225.425	179.215
229.546	19.252
233.665	62.415
237.782	124.364
241.898	78.388
246.011	112.465
250.122	185.578
254.231	155.869
258.338	91.969
262.443	146.582
266.546	160.588
270.647	132.084
274.747	423.445
278.844	474.566
282.939	363.777
287.032	284.176
291.123	283.336
295.212	170.418
299.3	62.723
303.385	308.615
307.468	525.193
311.549	373.773
315.629	453.02
319.706	620.975
323.781	447.777
327.855	411.887
331.926	404.092
335.995	284.471
340.063	292.988
344.128	729.674
348.192	584.623
352.253	516.912
356.313	857.164
360.37	625.666
364.426	243.125
368.479	388.43
372.531	630.754
376.581	673.271
380.629	623.904
384.674	622.666
388.718	621.654
392.76	377.064
396.8	500.174
400.838	551.209
404.874	311.268
408.908	534.176
412.94	259.107
416.97	204.795
420.999	244.789
425.025	332.648
429.049	177.744
433.072	235.432
437.092	375.064
441.111	305.811
445.127	88.191
449.142	220.244
453.155	238.459
457.166	155.064
461.175	183.213
465.181	221.027
469.186	71.449
473.19	254.291
477.191	520.055
481.19	256.531
485.187	371.729
489.183	695.705
493.176	729.701
497.168	543.643
501.157	666.619
505.145	571.592
509.131	707.217
513.115	481.943
517.097	676.836
521.077	702.197
525.055	885.703
529.031	1030.1
533.006	625.242
536.978	620.402
540.949	865.828
544.917	1061.22
548.884	616.646
552.849	781.625
556.812	637.305
560.773	763.158
564.732	638.264
568.689	384.035
572.644	459.449
576.598	136.152
580.55	409.428
584.499	535.43
588.447	140.895
592.393	184.736
596.337	479.41
600.279	514.389
604.219	166.973
608.158	85.973
612.094	15.082
616.029	89.488
619.962	574.984
623.892	470.191
627.821	203.84
631.749	218.266
635.674	634.188
639.597	699.656
643.519	593.33
647.438	1010.87
651.356	1012.06
655.272	1501.19
659.186	1842.79
663.098	2063.51
667.009	2733.32
670.917	3088.07
674.824	3805.36
678.728	3361.29
682.631	2739.03
686.532	2026.47
690.432	2258.64
694.329	1931.11
698.224	2119.72
702.118	2666.42
706.01	2422.76
709.9	2738.25
713.788	3390.02
717.674	3661.36
721.558	2786.27
725.441	2031.09
729.322	2476.55
733.201	2130.89
737.078	1975.42
740.953	2149.87
744.826	1723.91
748.698	1498.17
752.567	2082.22
756.435	2156.3
760.301	1614.04
764.165	1658
768.028	1571.32
771.888	2035.39
775.747	1439.73
779.604	1344.09
783.459	1408.42
787.312	752.74
791.164	786.945
795.013	851.039
798.861	765.027
802.707	50.34
806.551	305.373
810.394	103.793
814.234	376.016
818.073	319.6
821.91	250.289
825.745	0.908
829.578	118.795
833.41	10.996
837.24	500.627
841.068	410.129
844.894	78.391
848.718	350.168
852.54	87.332
856.361	143.941
860.18	521.951
863.997	639.867
867.812	12.277
871.626	385.41
875.438	443.029
879.248	340.619
883.056	298.156
886.862	665.594
890.667	552.963
894.469	140.262
898.27	407.484
902.07	644.631
905.867	721.719
909.663	648.744
913.457	475.777
917.249	747.824
921.039	726.828
924.827	1036.52
928.614	1033.29
932.399	779.959
936.182	696.551
939.964	813.043
943.744	619.439
947.521	615.732
951.298	761.961
955.072	1122.71
958.845	708.562
962.615	278.123
966.384	329.869
970.152	478.41
973.917	588.094
977.681	531.711
981.443	618.461
985.203	412.324
988.962	271.984
992.719	656.623
996.474	780.16
1000.23	348.725
1003.98	503.141
1007.73	470.584
1011.48	377.129
1015.22	108.262
1018.97	473.566
1022.71	540.549
1026.45	911.545
1030.19	435.002
1033.93	942.24
1037.66	550.275
1041.4	169.355
1045.13	667.289
1048.86	994.982
1052.59	982.578
1056.32	582.711
1060.04	630.824
1063.77	517.689
1067.49	420.395
1071.21	697.695
1074.93	994.305
1078.64	980.82
1082.36	698.066
1086.07	755.57
1089.78	551.789
1093.49	547.9
1097.2	456.24
1100.91	882.281
1104.61	768.096
1108.32	484.705
1112.02	0.889
1115.72	307.658
1119.41	54.234
1123.11	321.641
1126.8	338.701
1130.5	635.699
1134.19	5.488
1137.88	79.006
1141.56	366.047
1145.25	329.316
1148.93	14.471
1152.62	293.477
1156.3	694.322
1159.98	281.402
1163.65	225.41
1167.33	187.791
1171	26.848
1174.68	52.275
1178.35	242.49
1182.02	595.973
1185.68	669.064
1189.35	432.812
1193.01	702.438
1196.67	234.639
1200.33	5.693
1203.99	87.16
1207.65	597.91
1211.31	588.193
1214.96	447.896
1218.61	867.182
1222.26	917.045
1225.91	385.943
1229.56	114.273
1233.2	452.592
1236.85	660.416
1240.49	787.994
1244.13	535.572
1247.77	722.734
1251.4	1009.52
1255.04	405.947
1258.67	235.699
1262.3	381.912
1265.93	305.477
1269.56	222.783
1273.19	335.789
1276.82	677.848
1280.44	258.123
1284.06	114.568
1287.68	385.199
1291.3	3.848
1294.92	490.68
1298.53	3.527
1302.14	372.693
1305.76	459.115
1309.37	400.672
1312.98	905.273
1316.58	607.684
1320.19	236.695
1323.79	91.34
1327.39	251.822
1330.99	134.244
1334.59	34.764
1338.19	396.742
1341.79	998.256
1345.38	857.693
1348.97	707.748
1352.56	885.215
1356.15	656.855
1359.74	502.611
1363.32	193.498
1366.91	344.633
1370.49	706.961
1374.07	508.875
1377.65	737.574
1381.23	1623.12
1384.8	1179.79
1388.38	755.59
1391.95	840.793
1395.52	944.865
1399.09	381.824
1402.66	92.066
1406.22	375.004
1409.79	724.816
1413.35	319.877
1416.91	465.191
1420.47	994.621
1424.03	817.492
1427.59	759.186
1431.14	792.814
1434.69	605.953
1438.24	529.514
1441.8	70.096
1445.34	371.225
1448.89	651.133
1452.43	428.238
1455.98	524.211
1459.52	1038.38
1463.06	1169.31
1466.6	1000.64
1470.14	745.832
1473.67	969.707
1477.2	496.445
1480.74	81.625
1484.27	231.129
1487.8	624.23
1491.32	861.145
1494.85	682.43
1498.37	730.758
1501.9	1382.29
1505.42	1143.94
1508.94	926.012
1512.45	0
