Measurement: Raman, 514 nm, ccw, Raman Data Processed
Mineral: Fluorite
Rruff sample: R060548
Ideal chemistry: CaF_2_
Locality: unknown
Source: Gemological Institute of America
Description: Pale blue fragment
Measured chemistry: Ca_1.00_F_2.00_
Pin_id: L01039
Orientation: Laser parallel to -a* (-1 0 0). Fiducial mark perpendicular to laser is parallel to b [0 1 0]
Raman shift (cm-1)	intensity
177.781	0
182.692	32.1323
187.6	440.634
192.506	546.958
197.409	378.213
202.309	295.213
207.206	9.42383
212.101	38.6738
216.993	440.672
221.882	874.952
226.768	1416.25
231.652	1105.9
236.533	1121.07
241.411	1804.54
246.286	1464.76
251.159	965.121
256.028	804.685
260.895	2344.61
265.76	1587.87
270.621	765.412
275.48	23.2041
280.336	15.7832
285.189	54.2871
290.04	17.8115
294.887	20.9932
299.732	267.84
304.575	341.629
309.414	713.336
314.251	1938.49
319.085	4877.39
323.916	5679.8
328.745	2838.91
333.571	1518.36
338.394	1148.17
343.214	1167.92
348.032	1268.52
352.847	1361.04
357.659	1538.73
362.468	1442.61
367.275	1331.31
372.079	1185.05
376.88	1081.96
381.679	1000.84
386.475	883.232
391.268	760.835
396.058	526.628
400.846	343.412
405.631	437.723
410.413	180.097
415.192	130.705
419.969	114.965
424.743	72.0352
429.515	3.39551
434.283	290.144
439.049	245.025
443.813	274.022
448.573	348.853
453.331	366.299
458.086	188.61
462.838	342.006
467.588	570.596
472.335	595.519
477.08	555.4
481.821	503.272
486.56	721.959
491.296	753.474
496.03	885.625
500.761	725.789
505.489	415.54
510.214	320.78
514.937	212.512
519.657	304.545
524.375	149.864
529.089	35.044
533.801	16.6885
538.511	49.9258
543.218	14.3779
547.922	54.5645
552.623	117.636
557.321	6.4668
562.017	299.231
566.711	282.566
571.401	375.072
576.089	315.523
580.775	304.293
585.457	224.969
590.137	256.07
594.814	178.602
599.489	110.493
604.161	226.211
608.83	100.365
613.497	67.7119
618.161	90.3447
622.822	568.766
627.481	655.688
632.137	59.7353
636.79	193.827
641.441	20.2422
646.089	255.158
650.734	191.341
655.377	209.138
660.017	361.356
664.654	804.924
669.289	1330.64
673.921	828.716
678.551	682.623
683.177	1263.75
687.802	2361.5
692.423	3562.79
697.042	2799.15
701.658	2146.94
706.272	2653.73
710.883	2534.4
715.491	1881.69
720.097	1295.35
724.7	1041.21
729.301	841.093
733.898	606.249
738.494	219.704
743.086	413.179
747.676	17.9541
752.263	259.548
756.848	405.776
761.43	423.623
766.01	287.603
770.586	231.365
775.161	331.841
779.732	682.596
784.301	579.932
788.868	774.806
793.431	1066.27
797.992	1388.31
802.551	1718.55
807.107	2107.38
811.66	2450.83
816.211	2482.82
820.759	2748.39
825.304	3194.59
829.847	4502.4
834.388	9004.85
838.925	11128.9
843.46	12371.3
847.993	9780.72
852.523	8831.06
857.05	4164.87
861.575	2172.53
866.097	896.66
870.616	243.94
875.133	182.904
879.647	274.098
884.159	147.523
888.668	135.82
893.175	677.354
897.679	1634.8
902.18	1279.48
906.679	4673.79
911.175	23908.5
915.669	13600.6
920.16	16324.4
924.648	20332.6
929.134	26081.5
933.617	14463
938.098	20550.1
942.576	11180.8
947.052	38931.3
951.525	19029.6
955.995	3437.59
960.463	1551.44
964.928	1444.16
969.391	1016.45
973.851	258.945
978.309	263.469
982.764	154.307
987.216	369.418
991.666	366.81
996.114	153.785
1000.56	1021.26
1005	840.043
1009.44	1717.92
1013.88	1810.48
1018.31	2248.12
1022.74	2669.89
1027.17	3397.83
1031.6	3818.48
1036.03	3668.25
1040.45	3594.3
1044.87	3737.68
1049.28	3798.4
1053.7	3521.53
1058.11	3070.13
1062.52	2496.26
1066.92	2203.96
1071.33	2065.85
1075.73	1937.79
1080.13	1536.51
1084.53	1168.99
1088.92	840.289
1093.31	308.44
1097.7	81.4922
1102.09	144.438
1106.47	8.99414
1110.85	217.248
1115.23	313.336
1119.61	579.715
1123.98	1768.24
1128.35	1578.47
1132.72	2065.74
1137.08	2791.63
1141.45	3483.33
1145.81	4233.93
1150.17	4669.74
1154.52	4283.11
1158.88	4112.95
1163.23	4212.8
1167.58	3759.3
1171.92	3203.75
1176.27	2558.69
1180.61	1638.56
1184.94	956.754
1189.28	705.496
1193.61	315.527
1197.94	159.82
1202.27	49.6348
1206.6	138.109
1210.92	397.057
1215.24	545.184
1219.56	785.465
1223.88	982.863
1228.19	1285.35
1232.5	1899.23
1236.81	2440.67
1241.12	3186.17
1245.42	4004.69
1249.72	4945.69
1254.02	5565.59
1258.31	5868.46
1262.61	5614.5
1266.9	5590.52
1271.19	5734.39
1275.47	5685.99
1279.76	6050.65
1284.04	6884.91
1288.32	8561.1
1292.59	10178.2
1296.87	10273.5
1301.14	8894.28
1305.4	7872.94
1309.67	7147.91
1313.93	6815.43
1318.2	6475.64
1322.45	6090.36
1326.71	5708.59
1330.96	4841.19
1335.22	4522.67
1339.46	4006.92
1343.71	3987.36
1347.95	3764.54
1352.2	5397.07
1356.44	10734.2
1360.67	19812.2
1364.91	11528.9
1369.14	4486.66
1373.37	3215.18
1377.59	4415.4
1381.82	4619.96
1386.04	5560.66
1390.26	5951.05
1394.48	10870.5
1398.69	7224.43
1402.9	1593.85
1407.11	120.375
1411.32	473.272
1415.52	772.365
1419.72	312.959
1423.92	1149.14
1428.12	2433.98
1432.32	704.314
1436.51	509.09
1440.7	2050.96
1444.89	4303.15
1449.07	4485.32
1453.25	3313.18
1457.43	3399.38
1461.61	4845.57
1465.79	5024.44
1469.96	3933.98
1474.13	3948.42
1478.3	4066.28
1482.46	4275.13
1486.63	4365.75
1490.79	3609.69
1494.95	3135.89
1499.1	2789.57
1503.26	3123.1
1507.41	3401.03
1511.56	3312.62
1515.7	2719.55
1519.85	2495.61
1523.99	1614.98
1528.13	877.848
1532.26	653.178
1536.4	566.838
1540.53	185.346
1544.66	536.988
1548.79	536.445
1552.91	715.363
1557.03	391.215
1561.15	16.3047
