Measurement: Raman, 514 nm, ccw, Raman Data Processed
Mineral: Fluor-buergerite
Rruff sample: R060132
Ideal chemistry: NaFe^3+^_3_Al_6_(Si_6_O_18_)(BO_3_)_3_O_3_F
Locality: 20 km. south of San Luis Potasi, Mexico
Source: University of Arizona Mineral Museum
Description: Brown short prismatic
Measured chemistry: (Na_0.87_Ca_0.03_[box]_0.10_)(Fe^3+^_0.82_Al_0.12_Mg_0.04_Ti_0.02_)_3_Al_6_(BO_3_)_3_(Si_0.98_Al_0.02_)_6_O_18_(O_0.66_F_0.19_(OH)_0.15_)_4_
Pin_id: L01714
Orientation: Laser parallel to a* (1 0 0). Fiducial mark perpendicular to laser is parallel to -c [0 0 -1]
Raman shift (cm-1)	intensity
120.596	0
125.519	21.4917
130.439	641.31
135.356	1338.33
140.271	3575.06
145.184	7144.59
150.094	11644
155.002	9914.77
159.908	4317.94
164.811	1421.1
169.711	488.393
174.61	148.928
179.505	119.972
184.399	362.345
189.29	1189.95
194.178	2393.93
199.064	3470.98
203.948	5050.49
208.829	6738.24
213.708	11331.2
218.585	18924.8
223.459	31865.4
228.33	48246.9
233.199	50606
238.066	40558.3
242.93	29040.5
247.792	22040.6
252.651	17959.5
257.508	15301.2
262.363	11455.7
267.215	7291.34
272.064	4427.78
276.912	3174.01
281.756	2679.24
286.598	3601.9
291.438	6619.61
296.276	9642.77
301.111	8093.18
305.943	3068.02
310.773	590.463
315.601	479.353
320.426	1140.64
325.248	2190.37
330.068	3726.86
334.886	5562.03
339.701	7861.19
344.514	10945.6
349.324	13960.9
354.132	18364.6
358.938	24544
363.741	33019.1
368.541	42630.2
373.339	43653.1
378.135	33529.9
382.928	22758.4
387.718	15905.8
392.506	11890.8
397.292	9404.58
402.075	7671.03
406.856	6121.07
411.634	4725.99
416.41	3285.07
421.183	2372.55
425.954	1694.23
430.722	1024.09
435.488	588.089
440.251	85.1924
445.012	39.707
449.77	206.381
454.526	201.513
459.28	270.275
464.03	24.9346
468.779	120.827
473.525	166.607
478.268	55.1504
483.009	290.74
487.747	76.4365
492.483	180.805
497.217	615.987
501.948	1458.7
506.676	1798.64
511.402	3056.54
516.125	4517.65
520.846	5446.94
525.565	5080.24
530.281	4396.95
534.994	3793.56
539.705	3304.89
544.413	3028.18
549.119	2575.34
553.822	2415.35
558.523	2281.72
563.222	2300.42
567.917	2678.4
572.611	3078.59
577.302	3600.68
581.99	4250.34
586.676	5219.88
591.359	6078.86
596.04	7415.15
600.718	8762.81
605.394	9802.97
610.067	10460.1
614.737	11203.9
619.406	13531
624.071	18715.5
628.734	29205.4
633.395	40834.9
638.053	40496.8
642.708	32765.5
647.361	24789.9
652.012	18255.1
656.66	12996.4
661.305	9496.92
665.948	7093.92
670.588	5016.4
675.226	3733.41
679.861	2804.78
684.494	2536.03
689.124	3404.59
693.752	4908.8
698.377	7948.23
702.999	10708.2
707.619	10711.4
712.237	8161.45
716.852	4996.83
721.464	2863.14
726.074	1827.46
730.681	1545.6
735.286	1400.85
739.888	1024.99
744.488	1158.52
749.085	977.711
753.68	897.315
758.272	687.306
762.861	383.636
767.448	73.915
772.033	160.171
776.614	21.6411
781.194	39.8843
785.77	84.1436
790.345	166.482
794.916	54.5371
799.485	36.3833
804.052	44.73
808.616	71.5391
813.177	66.7705
817.736	30.291
822.292	29.4209
826.846	3.81934
831.397	139.275
835.945	58.7549
840.491	99.4648
845.035	90.4756
849.576	26.291
854.114	25.5908
858.65	21.6934
863.183	253.457
867.713	173.231
872.241	190.038
876.767	288.884
881.29	302.888
885.81	267.044
890.328	560.525
894.843	554.442
899.356	590.701
903.866	706.159
908.373	807.679
912.878	758.352
917.38	929.734
921.88	928.868
926.377	947.874
930.872	1139.83
935.364	1193.33
939.853	1504.35
944.34	1689.36
948.824	1746.45
953.306	1957.53
957.785	2047.23
962.261	2364.02
966.735	2473.53
971.207	2699.03
975.675	2713.31
980.141	2742.24
984.605	3299.77
989.066	3690.64
993.524	4355.19
997.98	5303.62
1002.43	6042.68
1006.88	6217.21
1011.33	5903.66
1015.78	4809.14
1020.22	3965.65
1024.66	3391.93
1029.1	2778.61
1033.53	2442.78
1037.97	2440.77
1042.4	2456.83
1046.82	2740.37
1051.25	3610.68
1055.67	4164.99
1060.09	4065.55
1064.51	3519.63
1068.92	2738.42
1073.33	2016.49
1077.74	1725.87
1082.15	1517.73
1086.55	1254.53
1090.95	1222.52
1095.35	1130.5
1099.75	874.863
1104.14	1066.02
1108.53	976.854
1112.92	768.423
1117.31	929.667
1121.69	837.165
1126.07	725.899
1130.45	425.924
1134.82	256.06
1139.19	165.34
1143.57	111.683
1147.93	193.078
1152.3	40.4487
1156.66	107.637
1161.02	88.6172
1165.38	95.5
1169.73	25.3613
1174.08	120.582
1178.43	42.4522
1182.78	30.2285
1187.12	42.708
1191.46	8.22852
1195.8	25.2656
1200.14	10.9863
1204.47	77.2607
1208.8	89.4268
1213.13	197.573
1217.46	250.817
1221.78	183.2
1226.1	591.7
1230.42	709.3
1234.73	797.991
1239.04	1230.76
1243.35	1175.61
1247.66	1252.52
1251.97	1561.49
1256.27	1861.51
1260.57	1855.59
1264.86	2057.72
1269.16	2040.85
1273.45	2146.59
1277.74	2775.61
1282.03	3864.12
1286.31	4680.7
1290.59	4707.2
1294.87	4141.2
1299.14	3385.98
1303.42	3254.71
1307.69	3233.18
1311.95	2907.16
1316.22	2620.62
1320.48	2243.95
1324.74	1937.11
1329	1446.15
1333.26	1420.14
1337.51	1369.59
1341.76	980.68
1346	1044.78
1350.25	932.492
1354.49	730.1
1358.73	859.891
1362.96	708.868
1367.2	536.042
1371.43	545.42
1375.66	432.995
1379.88	193.717
1384.11	374.606
1388.33	377.411
1392.54	162.347
1396.76	300.381
1400.97	449.537
1405.18	206.898
1409.39	233.449
1413.59	269.848
1417.8	104.564
1421.99	181.135
1426.19	250.309
1430.38	89.1309
1434.58	8.4082
1438.77	600.66
1442.95	52.0586
1447.13	133.799
1451.32	82.7988
1455.49	112
1459.67	11.3516
1463.84	39.3799
1468.01	190.751
1472.18	62.3213
1476.35	169.25
1480.51	226.56
1484.67	196.29
1488.83	150.481
1492.98	362.149
1497.13	242.183
1501.28	143.627
1505.43	298.349
1509.57	322.201
1513.71	189.553
1517.85	401.989
1521.99	213.441
1526.12	2.74316
1530.25	75.1279
1534.38	317.111
1538.5	21.7812
1542.62	27.5479
1546.74	263.272
1550.86	6.90039
1554.98	319.06
1559.09	262.707
1563.2	13.5986
1567.31	0.954102
