Measurement: Raman, 514 nm, ccw, Raman Data Processed
Mineral: Fluoro-richterite
Rruff sample: R040019
Ideal chemistry: Na(NaCa)Mg_5_Si_8_O_22_F_2_
Locality: Wilberforce, Ontario, Canada
Source: University of Arizona Mineral Museum
Description: Brown prismatic crystals
Measured chemistry: (Na_0.59_K_0.27_[box]_0.14_)_Σ=1_(Ca_1.30_Na_0.70_)_Σ=2_(Mg_4.67_Fe_0.17_Fe^3+^_0.10_Ti_0.03_Mn_0.02_Al_0.01_)_Σ=5_(Si_7.67_Al_0.33_)_Σ=8_(F_1.12_(OH)_0.88_)_Σ=2_; OH estimated by charge balance
Pin_id: L00205
Orientation: Laser parallel to c [0 0 1]. Fiducial mark perpendicular to laser is parallel to -b* (0 -1 0)
Raman shift (cm-1)	intensity
142.016	0
146.172	31.2119
150.327	272.109
154.48	2421.08
158.63	5159.94
162.779	5645.67
166.926	4352.09
171.07	3900.22
175.213	4419.88
179.354	4436.98
183.493	3903.59
187.63	3446.92
191.765	3253.05
195.898	3721.98
200.029	4630.65
204.158	5933.07
208.285	7144.31
212.41	8419.64
216.533	10386.2
220.654	12773.6
224.773	14715.9
228.891	15427.7
233.006	14132.5
237.119	10386.2
241.231	6845.58
245.34	4557.63
249.448	3215.43
253.553	2339.96
257.657	1990.2
261.758	1847.04
265.858	1053.38
269.956	259.181
274.052	112.606
278.146	307.022
282.237	222.085
286.327	135.863
290.416	204.591
294.502	569.231
298.586	1013.83
302.668	1802.59
306.749	2737.63
310.827	3644.93
314.903	3939.17
318.978	3306.34
323.051	2463.63
327.121	2070.02
331.19	1825.96
335.257	2096.86
339.322	2674.81
343.385	3383.56
347.446	3816.87
351.505	3815.64
355.563	3409.8
359.618	3422.28
363.672	3807.03
367.723	4340.98
371.773	4680.07
375.821	4392.95
379.866	3828.04
383.91	3319.85
387.952	3024.71
391.992	2764.55
396.031	2678.35
400.067	2470.1
404.101	2003.78
408.134	1429.37
412.165	949.082
416.193	676.104
420.22	691.484
424.245	813.52
428.268	1099.38
432.289	1055.04
436.309	831.156
440.326	451.286
444.342	121.362
448.355	53.9717
452.367	176.13
456.377	198.926
460.385	119.754
464.391	52.6313
468.395	9.12329
472.398	42.0889
476.398	24.9197
480.397	3.51245
484.394	56.3809
488.389	177.883
492.382	243.07
496.373	431.944
500.362	686.501
504.349	1029.8
508.335	1455.81
512.319	1727.55
516.3	2045.01
520.28	2384.16
524.259	2683.92
528.235	2678.34
532.209	2591.42
536.182	2419.14
540.152	1846.48
544.121	1318.35
548.088	1091.74
552.053	1031.65
556.017	916.069
559.978	855.979
563.938	645.37
567.895	483.234
571.851	400.565
575.805	425.34
579.758	542.564
583.708	646.209
587.657	703.374
591.603	486.951
595.548	181.964
599.491	47.6741
603.432	113.374
607.372	30.8977
611.309	75.501
615.245	177.443
619.179	302.834
623.111	514.108
627.041	671.549
630.97	921.123
634.896	1154.3
638.821	1448.31
642.744	1880.1
646.665	2387.18
650.584	3268.6
654.502	4521.27
658.418	6075.48
662.331	8510.24
666.244	12223.5
670.154	19621.2
674.062	33313.4
677.969	50599.6
681.874	56636.8
685.777	40136.4
689.678	22909.7
693.577	12389
697.475	7687.3
701.371	5213.89
705.265	3713.61
709.157	2869.05
713.047	2551.37
716.936	2226.59
720.823	2104.22
724.708	1992.34
728.591	1745.51
732.472	1686.11
736.352	1633.88
740.23	1467.22
744.106	1229.13
747.98	951.6
751.853	868.813
755.723	645.588
759.592	495
763.459	366.454
767.325	268.037
771.188	156.41
775.05	31.9009
778.91	33.8403
782.768	24.7495
786.625	66.9917
790.479	24.4912
794.332	7.86328
798.183	50.0156
802.033	45.9028
805.88	22.5005
809.726	0.759277
813.57	25.3828
817.413	36.0156
821.253	102.097
825.092	90.7339
828.929	61.8862
832.764	23.4648
836.598	22.4175
840.429	29.8174
844.259	86.6509
848.088	21.0801
851.914	63.541
855.739	59.8091
859.562	15.8945
863.383	32.8086
867.203	107.588
871.02	124.275
874.836	277.903
878.65	424.193
882.463	436.299
886.274	528.15
890.083	805.111
893.89	1165.19
897.695	1595.37
901.499	2007.98
905.301	2412.28
909.102	2741.19
912.9	3294.6
916.697	3921.55
920.492	4733.83
924.285	5431.24
928.077	6216.68
931.867	6535.89
935.655	6271.11
939.442	5565.18
943.226	5414.12
947.009	5426.6
950.791	5362.72
954.57	5047.01
958.348	4614.82
962.124	4150.7
965.899	4080.21
969.671	4157.33
973.442	4382.92
977.211	4449.48
980.979	4281.96
984.745	4040.23
988.509	3947.94
992.271	3869.3
996.032	3702.86
999.791	3573.74
1003.55	3721.28
1007.3	3796.21
1011.06	3914.65
1014.81	4059.64
1018.56	4100.96
1022.31	4162.09
1026.06	4170.21
1029.8	4611.33
1033.55	4975.48
1037.29	5661.73
1041.03	6455.05
1044.77	7193.17
1048.5	7736.6
1052.24	9005.07
1055.97	10321.1
1059.7	12745.2
1063.43	15620.1
1067.16	18527.5
1070.89	20076.4
1074.61	19637.6
1078.34	16698.6
1082.06	13422.8
1085.78	10259
1089.5	7727.93
1093.21	5559.5
1096.93	4157.12
1100.64	3524.81
1104.35	2864.56
1108.06	2416.34
1111.77	2335.2
1115.48	1855.57
1119.18	1677.25
1122.89	1586.1
1126.59	1509.92
1130.29	1374.82
1133.99	1175.26
1137.68	1004.14
1141.38	932.119
1145.07	841.511
1148.76	760.066
1152.45	631.341
1156.14	453.516
1159.83	380.056
1163.51	250.337
1167.19	102.876
1170.88	64.8916
1174.56	71.9619
1178.23	102.467
1181.91	49.8125
1185.59	75.5102
1189.26	36.3579
1192.93	12.7315
1196.6	28.8657
1200.27	29.4585
1203.94	28.4229
1207.6	3.79394
1211.27	9.60986
1214.93	45.9087
1218.59	23.2363
1222.25	65.9409
1225.9	21.0674
1229.56	75.6103
1233.21	64.7764
1236.86	36.271
1240.51	121.084
1244.16	30.8433
1247.81	124.26
1251.45	151.142
1255.1	222.027
1258.74	257.316
1262.38	167.808
1266.02	181.966
1269.66	223.278
1273.29	215.603
1276.93	151.898
1280.56	164.231
1284.19	235.065
1287.82	166.833
1291.45	197.465
1295.07	171.159
1298.7	157.29
1302.32	201.483
1305.94	259.976
1309.56	233.633
1313.18	151.569
1316.8	236.665
1320.41	179.899
1324.02	220.908
1327.63	162.182
1331.24	244.661
1334.85	183.162
1338.46	217.966
1342.06	174.697
1345.67	158.734
1349.27	213.512
1352.87	108.803
1356.47	49.4648
1360.07	41.3848
1363.66	61.835
1367.25	50.6777
1370.85	49.2178
1374.44	0.347656
1378.03	77.9863
1381.61	51.5107
1385.2	98.2168
1388.78	10.8271
1392.37	24.4268
1395.95	27.4785
1399.53	129.21
1403.1	105.189
1406.68	115.574
1410.26	184.663
1413.83	38.4228
1417.4	110.329
1420.97	181.305
1424.54	100.696
1428.1	100.387
1431.67	155.921
1435.23	263.803
1438.8	235.92
1442.36	227.582
1445.91	229.379
1449.47	262.41
1453.03	149.541
1456.58	166.09
1460.13	307.237
1463.68	201.985
1467.23	342.829
1470.78	197.342
1474.33	200.438
1477.87	324.11
1481.42	309.055
1484.96	154.967
1488.5	174.559
1492.04	191.027
1495.57	97.4102
1499.11	210.45
1502.64	12.3828
1506.17	109.723
1509.71	212.166
1513.23	0.158203
