Measurement: Raman, 514 nm, ccw, Raman Data Processed
Mineral: Fluorophlogopite
Rruff sample: R040039
Ideal chemistry: KMg_3_(Si_3_Al)O_10_F_2_
Locality: Franklin, Sussex County, New Jersey, USA
Source: University of Arizona Mineral Museum
Description: Brown hexagonal sheets
Measured chemistry: (K_0.92_Na_0.06_[box]_0.02_)_Σ=1_(Mg_2.94_Fe_0.04_Ti_0.02_)_Σ=3_(Si_2.98_Al_1.02_)O_10_(F_1.24_(OH)_0.76_)_Σ=2_; OH estimated by charge balance
Pin_id: M00049
Orientation: Laser parallel to a [1 0 0]. Fiducial mark perpendicular to laser is parallel to b* (0 1 0)
Raman shift (cm-1)	intensity
76.04	0
80.232	19.014
84.421	135.748
88.608	463.781
92.793	1091.71
96.976	1818.95
101.157	2972.71
105.336	3048.23
109.513	1596.06
113.688	1057.64
117.861	664.878
122.032	430.743
126.201	282.242
130.367	264.798
134.532	182.03
138.695	157.709
142.856	78.776
147.014	185.104
151.171	205.489
155.325	513.729
159.478	582.579
163.629	740.7
167.777	1056.06
171.924	1604.98
176.068	2583.63
180.211	4254.12
184.351	7703.43
188.49	16018.5
192.626	34514.6
196.761	53871.8
200.893	38780.6
205.024	17060.9
209.152	7702.35
213.279	4174.73
217.403	2539.72
221.526	1600.24
225.646	1049.32
229.765	799.845
233.881	670.744
237.996	497.956
242.108	407.794
246.219	275.426
250.328	324.082
254.434	377.353
258.539	649.351
262.641	896.723
266.742	1565.33
270.84	3207.11
274.937	6794.5
279.032	10677.6
283.125	8071.16
287.215	4047.53
291.304	2211.43
295.391	1639.81
299.476	1557.63
303.558	2079.52
307.639	3136.26
311.718	4947.72
315.795	6238.36
319.87	6534.35
323.943	6170.76
328.014	4830.23
332.083	3232.58
336.15	2052.18
340.215	1282.74
344.279	895.16
348.34	672.421
352.399	500.511
356.457	428.97
360.512	403.673
364.565	521.906
368.617	637.179
372.666	673.428
376.714	500.775
380.76	385.091
384.803	228.159
388.845	207.653
392.885	173.604
396.923	179.372
400.959	84.81
404.993	94.485
409.025	48.059
413.055	97.787
417.084	47.625
421.11	19.542
425.134	421.515
429.157	19.525
433.177	0.455
437.196	32.437
441.213	27.458
445.227	29.476
449.24	23.376
453.251	11.235
457.26	2.041
461.267	43.763
465.272	41.354
469.276	9.762
473.277	45.996
477.276	101.095
481.274	57.682
485.27	99.784
489.263	79.388
493.255	45.362
497.245	3.677
501.233	12.323
505.219	29.325
509.203	3.631
513.186	109.862
517.166	18.207
521.145	69.298
525.121	30.785
529.096	47.867
533.069	55.344
537.04	58.651
541.009	71.821
544.976	18.88
548.941	111.824
552.905	120.648
556.866	97.311
560.826	76.859
564.784	126.307
568.74	202.627
572.694	201.817
576.646	190.858
580.596	139.727
584.544	244.442
588.491	275.911
592.435	282.995
596.378	338.267
600.319	424.485
604.258	551.37
608.195	791.089
612.131	1033.64
616.064	1337.99
619.995	1833.27
623.925	2573.69
627.853	3537.46
631.779	4621.54
635.703	5564.15
639.625	5935.65
643.546	5745.48
647.464	5460.29
651.381	5296.18
655.296	5533.34
659.209	5751.6
663.12	6752.49
667.029	7978.3
670.937	9986.87
674.842	13983.1
678.746	19678.2
682.648	23282.9
686.548	21091.6
690.447	15521.2
694.343	10200.5
698.238	6511.46
702.13	4109.55
706.021	2568.53
709.91	1801.69
713.798	1485.35
717.683	1128.97
721.567	894.277
725.448	806.004
729.328	615.998
733.206	466.494
737.083	495.94
740.957	472.338
744.83	320.693
748.701	392.012
752.57	386.299
756.437	296.564
760.302	245.806
764.166	259.019
768.027	206.206
771.887	192.371
775.745	150.535
779.602	167.717
783.456	225.941
787.309	222.211
791.16	186.629
795.009	304.24
798.856	318.066
802.702	297.059
806.545	185.172
810.387	152.391
814.227	118.732
818.065	189.198
821.902	137.734
825.737	159.302
829.569	191.896
833.401	24.432
837.23	2.245
841.057	54.976
844.883	15.704
848.707	77.411
852.529	35.939
856.35	103.368
860.168	11.955
863.985	33.456
867.8	36.91
871.613	2.701
875.425	23.34
879.234	44.94
883.042	53.473
886.848	81.926
890.653	185.426
894.455	162.036
898.256	167.694
902.055	135.405
905.852	190.179
909.648	133.015
913.442	252.903
917.233	272.839
921.024	155.825
924.812	169.859
928.599	155.939
932.384	280.066
936.167	230.24
939.948	251.462
943.728	264.731
947.506	306.043
951.282	285.394
955.056	369.782
958.829	407.207
962.6	407.666
966.369	448.161
970.136	402.687
973.902	436.243
977.666	559.827
981.428	660.437
985.188	815.651
988.947	832.697
992.704	783.913
996.459	860.199
1000.21	1011.9
1003.96	1284.46
1007.71	1512.04
1011.46	1790.5
1015.21	2010.99
1018.95	2468
1022.7	3344.33
1026.44	5656.32
1030.18	9479.59
1033.91	13800.1
1037.65	12840.4
1041.39	8476.58
1045.12	5377.33
1048.85	3743.42
1052.58	2852.81
1056.31	2216.25
1060.03	1763.09
1063.76	1403.12
1067.48	1138.86
1071.2	930.592
1074.92	766.131
1078.63	674.756
1082.35	787.229
1086.06	2495.95
1089.78	1895.76
1093.49	554.317
1097.19	344.969
1100.9	372.501
1104.61	478.159
1108.31	393.825
1112.01	318.523
1115.71	244.147
1119.41	205.959
1123.11	196.377
1126.8	78.771
1130.5	83.312
1134.19	138.651
1137.88	132.425
1141.57	108.023
1145.25	54.816
1148.94	54.548
1152.62	2.216
1156.3	30.051
1159.98	0.742
1163.66	150.666
1167.34	93.531
1171.01	50.744
1174.68	16.479
1178.36	42.538
1182.02	36.293
1185.69	7.282
1189.36	16.4
1193.02	72.223
1196.69	76.682
1200.35	117.337
1204.01	58.672
1207.66	10.13
1211.32	63.96
1214.98	48.82
1218.63	84.495
1222.28	139.201
1225.93	198.846
1229.58	148.469
1233.22	193.302
1236.87	142.258
1240.51	81.44
1244.15	142.906
1247.79	120.779
1251.43	220.749
1255.07	182.669
1258.7	237.292
1262.33	223.912
1265.96	146.279
1269.59	149.502
1273.22	179.833
1276.85	139.709
1280.47	210.325
1284.1	128.538
1287.72	186.762
1291.34	201.249
1294.95	87.077
1298.57	4.385
1302.19	5.367
1305.8	17.581
1309.41	13.032
1313.02	49.669
1316.63	117.759
1320.23	108.45
1323.84	115.311
1327.44	157.063
1331.05	142.084
1334.64	41.596
1338.24	68.02
1341.84	39.323
1345.43	42.163
1349.03	102.275
1352.62	110.973
1356.21	138.917
1359.8	214.948
1363.39	126.303
1366.97	45.053
1370.56	18.851
1374.14	81.625
1377.72	12.38
1381.3	69.92
1384.87	143.069
1388.45	227.648
1392.02	175.825
1395.6	175.034
1399.17	203.833
1402.74	108.659
1406.3	112.447
1409.87	60.246
1413.43	24.761
1417	118.885
1420.56	124.521
1424.12	142.538
1427.67	145.844
1431.23	138.24
1434.79	213.276
1438.34	239.099
1441.89	168.675
1445.44	107.457
1448.99	107.629
1452.54	63.842
1456.08	140.641
1459.62	97.542
1463.17	280.224
1466.71	325.11
1470.24	265.034
1473.78	222.275
1477.32	141.08
1480.85	264.353
1484.38	126.569
1487.91	99.158
1491.44	1.555
1494.97	17.225
1498.5	1.546
1502.02	0
