Measurement: Raman, 514 nm, ccw, Raman Data Processed
Mineral: Fluorophlogopite
Rruff sample: R040075
Ideal chemistry: KMg_3_(Si_3_Al)O_10_F_2_
Locality: unknown
Source: University of Arizona Mineral Museum
Description: Green hexagonal tablet
Measured chemistry: (K_0.93_[box]_0.04_Na_0.03_)(Mg_0.66_Fe_0.30_Ti_0.02_)_3_(Si_0.75_Al_0.25_)_4_O_10_(F_0.90_(OH)_0.06_Cl_0.04_)
Pin_id: L00309
Orientation: Laser parallel to -b* (0 -1 0). Fiducial mark perpendicular to laser is parallel to -c [0 0 -1]
Raman shift (cm-1)	intensity
130.367	0
134.532	163.548
138.695	235.885
142.856	97.428
147.014	101.365
151.171	117.377
155.325	372.498
159.478	502.874
163.629	948.254
167.777	1630.33
171.924	2680.88
176.068	4405.13
180.211	7392.18
184.351	11210.3
188.49	13604.1
192.626	11902.4
196.761	8138.97
200.893	4710.68
205.024	2722.98
209.152	1597.73
213.279	969.156
217.403	603.446
221.526	342.963
225.646	320.48
229.765	196.699
233.881	5.473
237.996	6.91
242.108	26.413
246.219	10.529
250.328	36.481
254.434	47.554
258.539	142.836
262.641	255.599
266.742	470.25
270.84	797.354
274.937	1152.55
279.032	1260.52
283.125	1057.97
287.215	735.115
291.304	545.178
295.391	360.411
299.476	448.786
303.558	521.224
307.639	687.833
311.718	820.531
315.795	952.245
319.87	914.008
323.943	848.548
328.014	713.876
332.083	594.512
336.15	479.109
340.215	354.887
344.279	332.677
348.34	284.469
352.399	269.035
356.457	261.12
360.512	241.584
364.565	198.668
368.617	197.25
372.666	171.316
376.714	85.893
380.76	120.011
384.803	141.62
388.845	111.582
392.885	60.048
396.923	59.909
400.959	51.893
404.993	43.543
409.025	0.194
413.055	37.432
417.084	34.296
421.11	1.286
425.134	1.14
429.157	13.94
433.177	8.58
437.196	18.221
441.213	7.675
445.227	19.846
449.24	41.856
453.251	44.377
457.26	18.897
461.267	12.921
465.272	16.828
469.276	5.5
473.277	20.643
477.276	16.642
481.274	28.419
485.27	113.729
489.263	71.597
493.255	96.03
497.245	131.044
501.233	180.656
505.219	220.754
509.203	150.045
513.186	194.763
517.166	224.951
521.145	204.816
525.121	208.201
529.096	189.07
533.069	201.409
537.04	229.801
541.009	296.75
544.976	238.186
548.941	205.494
552.905	237.282
556.866	245.072
560.826	227.812
564.784	244.485
568.74	187.329
572.694	223.573
576.646	211.766
580.596	205.235
584.544	214.852
588.491	218.535
592.435	237.175
596.378	347.209
600.319	302.579
604.258	457.302
608.195	608.217
612.131	793.389
616.064	970.291
619.995	1218.47
623.925	1496.73
627.853	1630.83
631.779	1687.45
635.703	1659.12
639.625	1620.58
643.546	1688.78
647.464	1719.85
651.381	1948.11
655.296	2229.73
659.209	2596.92
663.12	3262.22
667.029	4300.31
670.937	5936.56
674.842	7521.5
678.746	8404.99
682.648	7534.71
686.548	5530.92
690.447	3730.77
694.343	2376.89
698.238	1739.4
702.13	1358.11
706.021	1223.96
709.91	1102.46
713.798	1117.12
717.683	1032.33
721.567	971.995
725.448	940.448
729.328	911.711
733.206	782.95
737.083	669.296
740.957	581.695
744.83	563.124
748.701	578.601
752.57	498.095
756.437	492.626
760.302	542.216
764.166	549.814
768.027	568.417
771.887	553.026
775.745	510.655
779.602	444.338
783.456	429.089
787.309	336.871
791.16	288.714
795.009	191.57
798.856	235.431
802.702	104.292
806.545	58.154
810.387	38.011
814.227	5.856
818.065	11.33
821.902	11.575
825.737	15.894
829.569	35.663
833.401	24.865
837.23	7.599
841.057	17.818
844.883	40.54
848.707	64.729
852.529	78.889
856.35	13.434
860.168	22.913
863.985	30.321
867.8	13.265
871.613	4.084
875.425	47.383
879.234	81.696
883.042	45.991
886.848	87.285
890.653	88.57
894.455	128.84
898.256	154.1
902.055	168.359
905.852	183.599
909.648	233.817
913.442	196.011
917.233	260.191
921.024	286.357
924.812	249.499
928.599	258.635
932.384	234.747
936.167	284.833
939.948	310.901
943.728	313.94
947.506	288.952
951.282	352.935
955.056	399.89
958.829	400.815
962.6	450.629
966.369	479.018
970.136	516.125
973.902	527.672
977.666	544.234
981.428	517.495
985.188	544.49
988.947	681.765
992.704	724.931
996.459	855.879
1000.21	920.28
1003.96	946.003
1007.71	1063.17
1011.46	1365.44
1015.21	1628.12
1018.95	2028.76
1022.7	2625.65
1026.44	3127.84
1030.18	3291.43
1033.91	3031.65
1037.65	2592.95
1041.39	2135.77
1045.12	1812.58
1048.85	1636.78
1052.58	1612.75
1056.31	1395.42
1060.03	1350.07
1063.76	1295.04
1067.48	1083.82
1071.2	1011.55
1074.92	825.661
1078.63	1024.17
1082.35	1066.04
1086.06	558.424
1089.78	498.989
1093.49	451.618
1097.19	393.177
1100.9	305.927
1104.61	242.424
1108.31	151.094
1112.01	130.799
1115.71	132.858
1119.41	125.335
1123.11	133.821
1126.8	24.346
1130.5	38.029
1134.19	43.336
1137.88	28.127
1141.57	57.076
1145.25	29.845
1148.94	40.644
1152.62	54.389
1156.3	38.625
1159.98	2.463
1163.66	19.622
1167.34	31.456
1171.01	61.895
1174.68	51.609
1178.36	34.136
1182.02	19.303
1185.69	20.121
1189.36	21.099
1193.02	29.178
1196.69	4.364
1200.35	69.656
1204.01	77.775
1207.66	22.663
1211.32	6.827
1214.98	5.8
1218.63	43.697
1222.28	24.635
1225.93	26.525
1229.58	37.286
1233.22	80.849
1236.87	44.531
1240.51	49.308
1244.15	3.927
1247.79	44.394
1251.43	21.745
1255.07	39.212
1258.7	14.384
1262.33	44.947
1265.96	43.229
1269.59	62.476
1273.22	31.746
1276.85	6.945
1280.47	31.948
1284.1	15.106
1287.72	19.781
1291.34	59.548
1294.95	43.344
1298.57	51.096
1302.19	6.756
1305.8	30.186
1309.41	4.378
1313.02	14.281
1316.63	15.885
1320.23	12.521
1323.84	36.697
1327.44	25.983
1331.05	103.948
1334.64	62.99
1338.24	26.175
1341.84	36.643
1345.43	43.523
1349.03	71.568
1352.62	46.188
1356.21	62.494
1359.8	50.936
1363.39	46.07
1366.97	9.615
1370.56	66.042
1374.14	10.952
1377.72	51.823
1381.3	34.958
1384.87	34.325
1388.45	16.321
1392.02	24.687
1395.6	32.68
1399.17	30.138
1402.74	37.089
1406.3	42.72
1409.87	11.112
1413.43	10.878
1417	20.51
1420.56	9.82
1424.12	7.036
1427.67	66.762
1431.23	43.043
1434.79	71.492
1438.34	48.957
1441.89	70.692
1445.44	54.919
1448.99	61.2
1452.54	37.636
1456.08	54.204
1459.62	64.264
1463.17	32.37
1466.71	8.264
1470.24	35.688
1473.78	61.257
1477.32	75.812
1480.85	75.413
1484.38	55.298
1487.91	78.793
1491.44	58.757
1494.97	70.279
1498.5	41.371
1502.02	34.501
1505.54	76.042
1509.07	3.749
1512.59	74.031
