Measurement: Raman, 514 nm, ccw, Raman Data Processed
Mineral: Fluoro-richterite
Rruff sample: R040019
Ideal chemistry: Na(NaCa)Mg_5_Si_8_O_22_F_2_
Locality: Wilberforce, Ontario, Canada
Source: University of Arizona Mineral Museum
Description: Brown prismatic crystals
Measured chemistry: (Na_0.59_K_0.27_[box]_0.14_)_Σ=1_(Ca_1.30_Na_0.70_)_Σ=2_(Mg_4.67_Fe_0.17_Fe^3+^_0.10_Ti_0.03_Mn_0.02_Al_0.01_)_Σ=5_(Si_7.67_Al_0.33_)_Σ=8_(F_1.12_(OH)_0.88_)_Σ=2_; OH estimated by charge balance
Pin_id: L00217
Orientation: Laser parallel to -b* (0 -1 0). Fiducial mark perpendicular to laser is parallel to c [0 0 1]
Raman shift (cm-1)	intensity
79.427	0
83.614	121.364
87.798	103.146
91.981	420.218
96.161	706.362
100.34	1369.08
104.516	2569.27
108.691	3851.19
112.864	4322.07
117.034	3691.64
121.203	2036.66
125.369	906.089
129.534	355.921
133.696	201.436
137.857	30.002
142.016	8.345
146.172	39.468
150.327	27.59
154.48	227.196
158.63	475.028
162.779	674.749
166.926	1008.79
171.07	1722.15
175.213	2803.99
179.354	3455
183.493	3311.61
187.63	2843.18
191.765	2443.71
195.898	2387.16
200.029	2571.73
204.158	3054.75
208.285	3788.95
212.41	4533.52
216.533	5881.94
220.654	7892.77
224.773	10126.9
228.891	12255.4
233.006	12570.1
237.119	9500.06
241.231	5864.25
245.34	3604.63
249.448	2266.47
253.553	1346.55
257.657	761.188
261.758	413.762
265.858	232.868
269.956	42.745
274.052	74.263
278.146	18.161
282.237	160.507
286.327	417.809
290.416	830.963
294.502	1314.8
298.586	1837.22
302.668	2173.15
306.749	2908.53
310.827	3590.68
314.903	3871.28
318.978	3508.17
323.051	2911.52
327.121	2538.87
331.19	2339.7
335.257	2124.12
339.322	1987.84
343.385	1812.91
347.446	1758.72
351.505	2094.74
355.563	2638.94
359.618	3813.23
363.672	5316.59
367.723	5919
371.773	5281.41
375.821	4651.78
379.866	4234.1
383.91	4255.34
387.952	4320.51
391.992	4311.59
396.031	4472.57
400.067	4576.44
404.101	4388.2
408.134	3671.87
412.165	2914.66
416.193	2193.53
420.22	1645.44
424.245	1383.35
428.268	1251.24
432.289	870.596
436.309	818.241
440.326	578.821
444.342	417.813
448.355	333.782
452.367	217.746
456.377	170.022
460.385	150.998
464.391	144.681
468.395	94.158
472.398	62.443
476.398	48.515
480.397	128.1
484.394	65.566
488.389	61.875
492.382	119.159
496.373	139.607
500.362	74.92
504.349	36.145
508.335	150.058
512.319	254.711
516.3	449.131
520.28	693.254
524.259	1096.1
528.235	1431.77
532.209	1449.24
536.182	1249.53
540.152	1090.62
544.121	956.447
548.088	892.006
552.053	852.219
556.017	882.08
559.978	817.572
563.938	771.688
567.895	748.425
571.851	838.779
575.805	755.743
579.758	703.312
583.708	700.482
587.657	577.249
591.603	344.611
595.548	93.532
599.491	26.865
603.432	25.424
607.372	100.171
611.309	159.23
615.245	372.758
619.179	415.467
623.111	629.343
627.041	763.301
630.97	1019.63
634.896	1209.43
638.821	1414.72
642.744	1753.5
646.665	2056.95
650.584	2623.66
654.502	3365.17
658.418	4584.18
662.331	6370.4
666.244	9696
670.154	16440.9
674.062	28637.3
677.969	45503.2
681.874	52102
685.777	38636.9
689.678	22189.8
693.577	11963.8
697.475	7500.07
701.371	5044.04
705.265	3680.72
709.157	2749.93
713.047	2386.06
716.936	1977.17
720.823	1839.96
724.708	1549.43
728.591	1383.58
732.472	1306.42
736.352	1215.95
740.23	1046.18
744.106	1039.11
747.98	796.651
751.853	719.25
755.723	558.878
759.592	435.154
763.459	375.912
767.325	342.768
771.188	180.925
775.05	88.789
778.91	81.412
782.768	55.781
786.625	68.898
790.479	70.814
794.332	74.759
798.183	80.737
802.033	124.816
805.88	67.042
809.726	46.522
813.57	9.814
817.413	6.166
821.253	16.84
825.092	4.065
828.929	32.533
832.764	16.981
836.598	93.977
840.429	69.477
844.259	80.403
848.088	61.825
851.914	34.644
855.739	66.248
859.562	66.915
863.383	99.449
867.203	298.865
871.02	327.22
874.836	522.536
878.65	776.898
882.463	777.341
886.274	809.821
890.083	864.27
893.89	789.722
897.695	956.237
901.499	1047.78
905.301	1077.4
909.102	1172.6
912.9	1362.86
916.697	1389.81
920.492	1610.82
924.285	2025.6
928.077	2292.55
931.867	2593.21
935.655	2632.23
939.442	2523.22
943.226	2616.98
947.009	2978.58
950.791	3073.97
954.57	2848.93
958.348	2292.65
962.124	1601.31
965.899	1158.42
969.671	899.146
973.442	811.36
977.211	676.114
980.979	610.033
984.745	571.839
988.509	621.81
992.271	649.133
996.032	781.798
999.791	756.048
1003.55	1057.67
1007.3	1214.51
1011.06	1392.47
1014.81	1733.98
1018.56	1944.65
1022.31	2084.45
1026.06	2196.7
1029.8	2532.14
1033.55	2885.23
1037.29	3266.07
1041.03	3742.73
1044.77	3975.49
1048.5	4221.35
1052.24	4761.42
1055.97	5177.1
1059.7	5971.98
1063.43	6665.81
1067.16	7476.37
1070.89	7754.86
1074.61	7370.74
1078.34	6310.55
1082.06	5373.26
1085.78	4408.26
1089.5	4033.14
1093.21	2700.03
1096.93	2057.7
1100.64	1720.91
1104.35	1410.04
1108.06	1239.01
1111.77	856.774
1115.48	832.007
1119.18	794.163
1122.89	889.337
1126.59	637.989
1130.29	550.498
1133.99	394.106
1137.68	380.55
1141.38	301.528
1145.07	241.047
1148.76	278.136
1152.45	119.5
1156.14	137.454
1159.83	150.844
1163.51	81.198
1167.19	27.775
1170.88	39.546
1174.56	49.197
1178.23	123.591
1181.91	33.572
1185.59	10.129
1189.26	68.652
1192.93	48.7
1196.6	25.567
1200.27	38.232
1203.94	93.304
1207.6	9.615
1211.27	16.246
1214.93	1.831
1218.59	103.698
1222.25	102.476
1225.9	26.721
1229.56	87.705
1233.21	33.492
1236.86	211.679
1240.51	244.689
1244.16	54.112
1247.81	110.927
1251.45	82.278
1255.1	169.247
1258.74	234.271
1262.38	211.355
1266.02	88.482
1269.66	239.833
1273.29	197.684
1276.93	163.099
1280.56	182.537
1284.19	127.889
1287.82	190.585
1291.45	180.763
1295.07	250.796
1298.7	117.929
1302.32	168.824
1305.94	59.101
1309.56	119.204
1313.18	158.597
1316.8	147.03
1320.41	70.371
1324.02	91.255
1327.63	108.841
1331.24	114.437
1334.85	108.16
1338.46	73.466
1342.06	14.507
1345.67	157.353
1349.27	85.619
1352.87	126.563
1356.47	36.394
1360.07	35.498
1363.66	54.937
1367.25	137.36
1370.85	111.852
1374.44	160.521
1378.03	24.36
1381.61	100.062
1385.2	152.272
1388.78	167.993
1392.37	103.375
1395.95	73.003
1399.53	201.186
1403.1	102.765
1406.68	153.889
1410.26	204.464
1413.83	153.919
1417.4	139.081
1420.97	194.328
1424.54	165.704
1428.1	126.572
1431.67	156.818
1435.23	77.346
1438.8	140.264
1442.36	148.725
1445.91	111.967
1449.47	174.586
1453.03	198.402
1456.58	137.217
1460.13	175.504
1463.68	164.52
1467.23	434.139
1470.78	201.936
1474.33	281.977
1477.87	102.412
1481.42	403.852
1484.96	6.051
1488.5	243.938
1492.04	47.955
1495.57	115.297
1499.11	191.967
1502.64	0.656
