Measurement: Raman, 514 nm, ccw, Raman Data Processed
Mineral: Fluorapatite
Rruff sample: R050194
Ideal chemistry: Ca_5_(PO_4_)_3_F
Locality: Siglo XX mine, Llallagua, Bolivia
Source: Dave Bunk Minerals
Description: Purple crystal fragments
Measured chemistry: Ca_5.00_(P_1.00_O_4_)_3_F_1.00_
Pin_id: L01106
Orientation: Laser parallel to -c* (0 0 -1). Fiducial mark perpendicular to laser is parallel to -a [-1 0 0]
Raman shift (cm-1)	intensity
137.814	0
142.728	110.604
147.639	82.4878
152.549	89.8149
157.455	90.8936
162.359	107.603
167.261	47.5869
172.161	192.651
177.058	28.5474
181.952	71.4243
186.845	152.286
191.734	15.9658
196.622	89.0391
201.507	115.673
206.389	82.4199
211.269	26.1289
216.147	145.239
221.022	2.10986
225.895	4.09619
230.765	133.918
235.633	139.333
240.498	158.538
245.361	33.5093
250.222	95.3525
255.08	112.428
259.936	6.04785
264.789	203.273
269.64	215.984
274.488	66.9985
279.334	133.38
284.178	57.189
289.019	119.457
293.857	79.5278
298.693	80.4888
303.527	137.118
308.358	173.596
313.187	152.818
318.013	66.6689
322.837	47.3481
327.659	182.86
332.478	113.606
337.294	22.1709
342.108	78.2686
346.92	99.1992
351.729	191.856
356.535	22.3545
361.34	24.5479
366.141	121.865
370.94	76.4102
375.737	30.2031
380.531	145.766
385.323	93.3838
390.113	120.405
394.9	88.3008
399.684	44.9629
404.466	100.232
409.245	162.855
414.022	276.33
418.797	110.938
423.569	80.791
428.338	123.141
433.105	202.012
437.87	29.085
442.632	74.0527
447.391	155.706
452.149	68.3037
456.903	216.938
461.655	135.58
466.405	195.965
471.152	71.9814
475.897	150.435
480.639	153.523
485.378	163.669
490.116	18.2539
494.85	13.1543
499.582	99.5039
504.312	128.628
509.039	193.165
513.764	16.0117
518.486	53.4355
523.206	47.9434
527.923	236.617
532.638	154.443
537.35	216.648
542.059	123.462
546.766	118.678
551.471	38.8565
556.173	109.628
560.873	68.3125
565.57	138.786
570.264	40.8535
574.957	203.549
579.646	332.398
584.333	350.332
589.018	214.167
593.7	30.1055
598.379	150.1
603.056	29.5352
607.73	212.959
612.402	257.664
617.072	178.23
621.739	197.348
626.403	8.13281
631.065	208.643
635.724	86.4316
640.381	113.027
645.035	159.836
649.687	188.758
654.336	167.662
658.983	69.2402
663.627	176.828
668.268	180.568
672.907	18.3457
677.544	163.465
682.178	43.0664
686.809	93.959
691.438	58.5586
696.065	108.098
700.688	201.043
705.31	153.295
709.929	110.971
714.545	76.8281
719.158	201.072
723.77	206.471
728.378	186.065
732.984	295.934
737.588	135.734
742.189	265.053
746.787	116.463
751.383	112.689
755.976	11.002
760.567	254.162
765.155	167.203
769.741	51.6914
774.324	80.6582
778.904	140.139
783.482	152.438
788.058	125.647
792.631	117.443
797.201	99.7207
801.769	258.799
806.334	254.578
810.897	137.525
815.457	63.7207
820.014	10.3594
824.569	107.564
829.122	87.2344
833.671	6.70312
838.219	10.6562
842.763	215.859
847.306	87.0293
851.845	70.2812
856.382	31.3887
860.917	396.512
865.448	232.678
869.978	360
874.505	306.617
879.029	328.133
883.55	138.725
888.069	263.264
892.586	49.3145
897.1	144.688
901.611	214.537
906.12	170.486
910.626	138.139
915.129	224.693
919.63	145.588
924.129	260.207
928.625	9.73633
933.118	24.2988
937.609	80.666
942.097	325
946.582	73.7988
951.065	280.576
955.546	332.275
960.023	708.227
964.499	2060.64
968.971	1000.58
973.441	358.685
977.909	203.637
982.374	282.342
986.836	277.988
991.295	149.584
995.753	159.106
1000.21	334.908
1004.66	8.14453
1009.11	67.0273
1013.55	83.0195
1018	276.09
1022.44	203.633
1026.88	240.836
1031.32	155.992
1035.75	339.227
1040.18	326.816
1044.61	69.293
1049.04	69.8086
1053.46	105.441
1057.88	206.293
1062.3	242.644
1066.71	191.738
1071.13	22.0586
1075.54	234.203
1079.94	50.4688
1084.35	370.106
1088.75	199.301
1093.15	103.809
1097.55	137.312
1101.94	190.785
1106.34	33.7109
1110.73	56.7578
1115.11	205.281
1119.5	90.8477
1123.88	63.3047
1128.26	293.352
1132.63	132.09
1137.01	211.32
1141.38	271.367
1145.75	277.211
1150.12	261.043
1154.48	406.551
1158.84	219.219
1163.2	112.664
1167.55	240.207
1171.91	205.699
1176.26	19.3516
1180.61	166.519
1184.95	0.246094
1189.29	426.473
1193.63	175.461
1197.97	210.234
1202.31	61.9766
1206.64	323.356
1210.97	43.3828
1215.29	357.887
1219.62	469.055
1223.94	331.461
1228.26	263.504
1232.57	297.266
1236.89	488.652
1241.2	221.578
1245.51	204.856
1249.81	397.527
1254.12	460.219
1258.42	96.5078
1262.72	242.004
1267.01	375.406
1271.3	74.3906
1275.59	360.816
1279.88	351.762
1284.17	44.0039
1288.45	222.133
1292.73	171.898
1297.01	103.34
1301.28	40.2891
1305.55	145.109
1309.82	47.1562
1314.09	106.531
1318.35	483.402
1322.61	419.812
1326.87	325.695
1331.13	313.012
1335.38	660.766
1339.63	335.5
1343.88	431.227
1348.12	321.406
1352.37	284.043
1356.61	252.133
1360.85	198.699
1365.08	456.734
1369.31	356.277
1373.54	204.289
1377.77	285.356
1381.99	371.773
1386.22	451.25
1390.43	345.215
1394.65	425.688
1398.87	413.695
1403.08	111.266
1407.29	432.184
1411.49	321.887
1415.69	462.176
1419.89	386.613
1424.09	480.539
1428.29	486.219
1432.48	204.352
1436.67	186.152
1440.86	126
1445.04	448.543
1449.23	305.555
1453.4	440.746
1457.58	67.6172
1461.76	177.215
1465.93	672.488
1470.1	82.4336
1474.26	545.055
1478.43	306.34
1482.59	330.289
1486.75	307.898
1490.9	527.938
1495.06	94.5977
1499.21	395.051
1503.35	363.449
1507.5	302.492
1511.64	352.023
1515.78	298.531
1519.92	298.285
1524.05	117.336
1528.18	322.781
1532.31	390.777
1536.44	488.668
1540.56	243.609
1544.69	413.09
1548.8	20.668
1552.92	19.918
1557.03	116.418
1561.14	146.809
1565.25	183.938
1569.36	0.242188
