Measurement: Raman, 514 nm, ccw, Raman Data Processed
Mineral: Fluorapatite
Rruff sample: R050401
Ideal chemistry: Ca_5_(PO_4_)_3_F
Locality: Urbano mine, Golconda District, Minas Gerais, Brazil
Source: Bob Downs
Description: Pale purple hexagonal prism associated with albite R050402
Measured chemistry: (Ca_0.99_Mn_0.01_)_5_(P_1.00_O_4_)_3_F_1.00_
Pin_id: L00654
Orientation: Laser parallel to c* (0 0 1). Fiducial mark perpendicular to laser is parallel to a [1 0 0]
Raman shift (cm-1)	intensity
136.585	0
141.5	31.5596
146.412	7.56982
151.321	115.678
156.229	23.8867
161.134	90.1157
166.036	50.7085
170.936	151.618
175.834	31.0796
180.729	70.458
185.622	73.6162
190.512	127.529
195.4	88.0606
200.286	122.877
205.169	129.086
210.049	196.827
214.928	7.08887
219.803	173.564
224.677	86.312
229.548	117.472
234.416	123.296
239.282	117.082
244.146	10.0205
249.007	5.59277
253.866	54.9477
258.722	76.4673
263.576	74.8779
268.427	65.6841
273.276	62.3857
278.123	110.491
282.967	30.4058
287.809	145.664
292.648	85.5151
297.485	106.311
302.319	101.23
307.151	47.2261
311.98	74.6977
316.807	120.665
321.631	98.0391
326.454	76.7944
331.273	20.5288
336.09	95.9912
340.905	7.01709
345.717	141.175
350.527	18.0596
355.334	114.17
360.139	68.54
364.941	71.7314
369.741	28.6689
374.538	43.7832
379.333	2.58496
384.126	75.0098
388.916	211.866
393.703	77.4648
398.488	75.9824
403.271	1.16602
408.051	200.69
412.828	98.5723
417.603	108.164
422.376	62.8633
427.146	111.638
431.914	62.5781
436.679	137.908
441.442	110.613
446.202	208.967
450.96	48.2949
455.715	162.422
460.467	98.4502
465.218	205.266
469.965	293.467
474.711	168.5
479.454	104.023
484.194	169.438
488.932	141.293
493.667	37.2353
498.4	284.709
503.13	150.09
507.858	34.4326
512.583	136.427
517.306	249.553
522.026	68.6475
526.744	67.9561
531.459	210.711
536.172	142.66
540.882	175.207
545.59	77.8769
550.295	173.912
554.998	25.9521
559.698	175.984
564.396	221.507
569.091	39.6836
573.784	111.43
578.474	89.0049
583.162	324.494
587.847	142.474
592.529	190.551
597.209	78.1231
601.887	153.222
606.562	420.867
611.235	128.171
615.905	104.576
620.572	170.692
625.237	208.416
629.9	71.2344
634.56	166.404
639.217	77.6904
643.872	233.277
648.524	335.121
653.174	208.615
657.821	239.904
662.466	152.076
667.108	327.152
671.748	147.809
676.385	68.418
681.02	193.867
685.652	137.815
690.281	209.143
694.908	65.5859
699.533	200.441
704.155	264.805
708.774	151.383
713.391	321.4
718.005	32.2754
722.617	312.525
727.226	282.135
731.833	195.268
736.437	281.978
741.039	103.986
745.638	375.424
750.234	252.475
754.828	295.414
759.419	325.31
764.008	22.1289
768.595	212.707
773.178	82.9023
777.759	116.305
782.338	251.115
786.914	95.8613
791.488	293.121
796.059	80.0781
800.627	190.717
805.193	194.553
809.756	376.799
814.317	51.2578
818.875	301.906
823.431	135.576
827.984	292.769
832.534	191.275
837.082	53.1992
841.627	106.061
846.17	285.748
850.71	256.389
855.248	84.9883
859.783	251.369
864.316	187.496
868.846	375.568
873.373	211.135
877.898	46.5723
882.42	339.014
886.94	113.59
891.457	152.357
895.971	427.209
900.483	138.875
904.993	268.973
909.5	195.736
914.004	218.912
918.505	258.752
923.004	145.625
927.501	92.0059
931.995	423.832
936.486	97.8477
940.975	602.678
945.461	409.557
949.945	197.816
954.426	382.809
958.904	364.123
963.38	1068.57
967.853	957.277
972.324	131.408
976.792	444.184
981.258	375.873
985.72	27.8574
990.181	660.016
994.639	224.584
999.094	1.62109
1003.55	227.023
1008	304.195
1012.44	183.082
1016.89	383.316
1021.33	511.859
1025.77	497.055
1030.21	254.891
1034.64	36.6836
1039.07	376.574
1043.5	101.352
1047.93	691.629
1052.35	320.805
1056.78	189.594
1061.19	568.586
1065.61	383.762
1070.02	22.6133
1074.43	390.137
1078.84	398.344
1083.25	74.1211
1087.65	576.047
1092.05	649.004
1096.45	145.012
1100.85	267.969
1105.24	486.891
1109.63	35.3906
1114.02	441.387
1118.4	217.586
1122.78	42.9648
1127.16	558.117
1131.54	244.715
1135.92	114.719
1140.29	600.625
1144.66	371.746
1149.02	219.598
1153.39	585.113
1157.75	411.621
1162.11	305.07
1166.46	471.519
1170.82	162.531
1175.17	240.781
1179.52	630.66
1183.86	111.059
1188.21	48.1836
1192.55	672.266
1196.89	155.973
1201.22	180.172
1205.55	696.086
1209.88	187.602
1214.21	115.648
1218.54	607.211
1222.86	289.18
1227.18	187.66
1231.5	565.613
1235.81	191.238
1240.12	172.992
1244.43	560.789
1248.74	259.211
1253.04	191.977
1257.34	651.887
1261.64	367.414
1265.94	472.535
1270.23	383.648
1274.52	9.16016
1278.81	418.836
1283.1	520.148
1287.38	653.172
1291.66	19.9531
1295.94	647.836
1300.21	177.461
1304.48	333.352
1308.75	544.121
1313.02	713.269
1317.29	257.352
1321.55	204.984
1325.81	968.754
1330.06	339.516
1334.32	111.75
1338.57	936.848
1342.82	187.574
1347.06	27.0586
1351.31	671.656
1355.55	768.723
1359.79	273.691
1364.02	230.512
1368.26	401.223
1372.49	538.621
1376.71	268.492
1380.94	853.039
1385.16	225.508
1389.38	181.594
1393.6	846.512
1397.81	303.289
1402.02	501.769
1406.23	710.996
1410.44	330.328
1414.64	439.613
1418.85	40.918
1423.04	655.477
1427.24	429.281
1431.43	313.602
1435.62	718.019
1439.81	364.453
1444	301.07
1448.18	522.856
1452.36	236.066
1456.54	190.566
1460.71	93.7578
1464.89	468.293
1469.06	680.613
1473.22	154.832
1477.39	514.125
1481.55	520.234
1485.71	748.731
1489.86	257.481
1494.02	483.586
1498.17	1108.7
1502.32	230.988
1506.46	959.422
1510.61	715.281
1514.75	158.918
1518.88	526.719
1523.02	645.102
1527.15	984.879
1531.28	360.414
1535.41	393.387
1539.53	654.914
1543.66	161.18
1547.78	196.121
1551.89	474.719
1556.01	404.402
1560.12	328.164
1564.23	26.1523
1568.33	566.387
