Measurement: Raman, 514 nm, ccw, Raman Data Processed
Mineral: Fluorapatite
Rruff sample: R050340
Ideal chemistry: Ca_5_(PO_4_)_3_F
Locality: Buckingham, Quebec, Canada
Source: California Institute of Technology
Description: Blue fragment
Measured chemistry: Ca_5.00_((P_0.98_Si_0.02_)O_4_)_3_F_1.00_
Pin_id: L00787
Orientation: Laser parallel to c* (0 0 1). Fiducial mark perpendicular to laser is parallel to a [1 0 0]
Raman shift (cm-1)	intensity
108.28	0
113.208	21.4274
118.134	67.8002
123.058	18.6965
127.979	26.885
132.898	244.653
137.814	727.177
142.728	1399.01
147.639	611.035
152.549	368.947
157.455	491.407
162.359	718.233
167.261	556.318
172.161	552.096
177.058	354.64
181.952	179.941
186.845	112.338
191.734	53.4834
196.622	28.4181
201.507	36.2251
206.389	116.926
211.269	163.529
216.147	205.037
221.022	130.446
225.895	134.128
230.765	274.75
235.633	472.914
240.498	368.377
245.361	220.912
250.222	148.011
255.08	157.925
259.936	407.125
264.789	790.037
269.64	1186.62
274.488	867.146
279.334	453.888
284.178	346.681
289.019	268.492
293.857	236.296
298.693	329.07
303.527	399.799
308.358	519.472
313.187	661.08
318.013	485.611
322.837	275.048
327.659	230.373
332.478	80.5767
337.294	51.6602
342.108	67.6226
346.92	3.44873
351.729	4.71289
356.535	49.4307
361.34	11.209
366.141	59.3489
370.94	31.0115
375.737	7.16504
380.531	11.53
385.323	26.3491
390.113	29.3088
394.9	12.363
399.684	19.1025
404.466	82.5754
409.245	91.3962
414.022	184.989
418.797	275.799
423.569	586.458
428.338	979.953
433.105	1203.3
437.87	1387.48
442.632	1783.53
447.391	2308.8
452.149	2031.13
456.903	1269.68
461.655	737.064
466.405	448.266
471.152	246.356
475.897	261.313
480.639	225.967
485.378	141.523
490.116	128.757
494.85	65.0918
499.582	138.734
504.312	41.1506
509.039	79.5659
513.764	35.2656
518.486	12.9575
523.206	50.6956
527.923	57.3193
532.638	22.8611
537.35	34.4255
542.059	2.65527
546.766	30.4324
551.471	9.23291
556.173	81.4326
560.873	137.07
565.57	275.634
570.264	364.076
574.957	863.814
579.646	2344.37
584.333	3011.05
589.018	1256.96
593.7	1059.9
598.379	719.263
603.056	1004.59
607.73	2233.66
612.402	1330.04
617.072	1041.29
621.739	525.169
626.403	191.59
631.065	175.811
635.724	93.6272
640.381	102.115
645.035	127.922
649.687	232.7
654.336	117.249
658.983	144.136
663.627	137.092
668.268	172.588
672.907	130.471
677.544	58.4326
682.178	76.6899
686.809	50.8897
691.438	90.0791
696.065	114.61
700.688	35.1714
705.31	81.1851
709.929	13.1968
714.545	109.127
719.158	77.0996
723.77	18.21
728.378	0.987305
732.984	23.3252
737.588	12.3262
742.189	99.0469
746.787	54.6011
751.383	79.272
755.976	12.4863
760.567	14.7886
765.155	9.43848
769.741	36.2173
774.324	104.65
778.904	43.1299
783.482	9.74951
788.058	95.1382
792.631	65.7056
797.201	107.013
801.769	59.021
806.334	14.4014
810.897	51.7026
815.457	49.0703
820.014	13.3784
824.569	64.2612
829.122	17.1587
833.671	82.147
838.219	0.35498
842.763	14.0635
847.306	89.9751
851.845	22.9453
856.382	123.04
860.917	144.411
865.448	209.899
869.978	156.859
874.505	128.346
879.029	15.9258
883.55	68.7349
888.069	16.0723
892.586	112.662
897.1	33.5342
901.611	10.0249
906.12	84.7031
910.626	93.0684
915.129	100.822
919.63	79.0298
924.129	148.288
928.625	137.525
933.118	135.951
937.609	331.816
942.097	473.897
946.582	990.361
951.065	1801.18
955.546	4285.96
960.023	14934.4
964.499	47014
968.971	35710
973.441	7791.91
977.909	2039.39
982.374	740.44
986.836	273.286
991.295	341.802
995.753	162.047
1000.21	109.249
1004.66	442.58
1009.11	733.877
1013.55	776.837
1018	257.497
1022.44	405.913
1026.88	590.148
1031.32	1300.37
1035.75	1960.85
1040.18	939.461
1044.61	749.919
1049.04	561.858
1053.46	817.851
1057.88	1322.12
1062.3	1724.73
1066.71	797.064
1071.13	645.767
1075.54	736.162
1079.94	1061.6
1084.35	795.069
1088.75	290.582
1093.15	214.214
1097.55	60.8193
1101.94	56.6641
1106.34	50.6435
1110.73	60.9238
1115.11	66.4062
1119.5	251.015
1123.88	426.469
1128.26	76.9336
1132.63	32.4365
1137.01	184.298
1141.38	21.1914
1145.75	96.4453
1150.12	153.584
1154.48	65.4102
1158.84	95.6807
1163.2	125.478
1167.55	80.0215
1171.91	138.747
1176.26	98.6963
1180.61	68.499
1184.95	74.5693
1189.29	6.23633
1193.63	151.804
1197.97	145.318
1202.31	90.7432
1206.64	132.101
1210.97	84.4023
1215.29	108.647
1219.62	235.001
1223.94	135.072
1228.26	159.3
1232.57	151.213
1236.89	52.7353
1241.2	264.79
1245.51	72.8574
1249.81	118.582
1254.12	122.144
1258.42	138.635
1262.72	77.0508
1267.01	135.456
1271.3	189.028
1275.59	134.087
1279.88	11.7852
1284.17	31.8672
1288.45	215.536
1292.73	24.0137
1297.01	95.4141
1301.28	40.4619
1305.55	42.3594
1309.82	133.377
1314.09	1.96484
1318.35	141.189
1322.61	141.24
1326.87	181.319
1331.13	103.986
1335.38	114.912
1339.63	106.817
1343.88	101.583
1348.12	279.411
1352.37	80.9463
1356.61	114.518
1360.85	189.78
1365.08	120.107
1369.31	140.375
1373.54	84.668
1377.77	188.94
1381.99	78.1055
1386.22	184.062
1390.43	138.936
1394.65	82.7783
1398.87	65.1719
1403.08	265.836
1407.29	226.585
1411.49	113.945
1415.69	132.577
1419.89	250.709
1424.09	97.6162
1428.29	191.415
1432.48	168.065
1436.67	56.9775
1440.86	67.3291
1445.04	90.7139
1449.23	174.31
1453.4	188.171
1457.58	160.958
1461.76	204.472
1465.93	109.869
1470.1	187.392
1474.26	145.691
1478.43	266.119
1482.59	119.471
1486.75	182.376
1490.9	193.383
1495.06	193.894
1499.21	172.065
1503.35	299.946
1507.5	140.109
1511.64	151.94
1515.78	141.78
1519.92	118.471
1524.05	28.9482
1528.18	198.667
1532.31	131.718
1536.44	202.335
1540.56	100.659
1544.69	243.423
1548.8	57.1367
1552.92	141.647
1557.03	129.577
1561.14	27.2783
1565.25	74.6055
1569.36	70.6221
