Measurement: Raman, 514 nm, ccw, Raman Data Processed
Mineral: Fluoro-richterite
Rruff sample: R040019
Ideal chemistry: Na(NaCa)Mg_5_Si_8_O_22_F_2_
Locality: Wilberforce, Ontario, Canada
Source: University of Arizona Mineral Museum
Description: Brown prismatic crystals
Measured chemistry: (Na_0.59_K_0.27_[box]_0.14_)_Σ=1_(Ca_1.30_Na_0.70_)_Σ=2_(Mg_4.67_Fe_0.17_Fe^3+^_0.10_Ti_0.03_Mn_0.02_Al_0.01_)_Σ=5_(Si_7.67_Al_0.33_)_Σ=8_(F_1.12_(OH)_0.88_)_Σ=2_; OH estimated by charge balance
Pin_id: L00205
Orientation: Laser parallel to c [0 0 1]. Fiducial mark perpendicular to laser is parallel to -b* (0 -1 0)
Raman shift (cm-1)	intensity
150.327	0
154.48	911.169
158.63	3372.78
162.779	3820.7
166.926	3307.23
171.07	3518.43
175.213	4334
179.354	4578.05
183.493	4072.57
187.63	3472.6
191.765	3357.19
195.898	3682.12
200.029	4681.74
204.158	5744.77
208.285	7042.99
212.41	9191.59
216.533	11807.6
220.654	13898
224.773	14054
228.891	12335.4
233.006	9854.89
237.119	6803.9
241.231	4088.44
245.34	2328.55
249.448	1283.77
253.553	576.594
257.657	200.588
261.758	106.587
265.858	273.532
269.956	408.886
274.052	414.712
278.146	343.001
282.237	186.754
286.327	78.5527
290.416	470.039
294.502	994.948
298.586	1609.95
302.668	2396.87
306.749	3546.82
310.827	4582.42
314.903	4576.61
318.978	3763.89
323.051	2783.09
327.121	1996.55
331.19	1468.11
335.257	1183.37
339.322	1017.59
343.385	944.729
347.446	878.547
351.505	945.377
355.563	922.497
359.618	1056.17
363.672	1293.58
367.723	1371.85
371.773	1583.74
375.821	1810.69
379.866	1932
383.91	2041.26
387.952	2101.34
391.992	2085.17
396.031	2076.71
400.067	1951.96
404.101	1691.89
408.134	1293.39
412.165	902.612
416.193	525.346
420.22	353.617
424.245	316.041
428.268	212.949
432.289	113.751
436.309	71.8115
440.326	1.06103
444.342	30.8906
448.355	24.8428
452.367	24.8596
456.377	24.4468
460.385	53.7117
464.391	125.018
468.395	158.741
472.398	165.18
476.398	111.444
480.397	85.3911
484.394	61.7698
488.389	48.4412
492.382	169.344
496.373	240.52
500.362	330.024
504.349	415.884
508.335	526.125
512.319	512.762
516.3	556.774
520.28	650.177
524.259	854.976
528.235	1052.18
532.209	1177.81
536.182	1144.92
540.152	1013.61
544.121	878.91
548.088	826.822
552.053	809.353
556.017	761.537
559.978	741.446
563.938	598.117
567.895	471.517
571.851	356.6
575.805	388.075
579.758	465.701
583.708	524.041
587.657	456.334
591.603	323.743
595.548	51.9675
599.491	40.1597
603.432	68.6511
607.372	19.7898
611.309	4.66602
615.245	107.69
619.179	272.306
623.111	463.365
627.041	570.387
630.97	775.824
634.896	967.387
638.821	1191.09
642.744	1620.27
646.665	2143.33
650.584	2746.34
654.502	3810.97
658.418	5307.24
662.331	7608.09
666.244	11626.5
670.154	19700
674.062	34230.3
677.969	52457.8
681.874	57013.2
685.777	39993.5
689.678	22192.7
693.577	11753.8
697.475	7115.06
701.371	4629.6
705.265	3161.11
709.157	2384.63
713.047	1957.15
716.936	1570.53
720.823	1372.11
724.708	1102.31
728.591	984.981
732.472	937.938
736.352	836.787
740.23	705.579
744.106	607.349
747.98	495.165
751.853	423.84
755.723	340.31
759.592	253.813
763.459	173.896
767.325	140.696
771.188	63.221
775.05	9.51855
778.91	36.439
782.768	36.6018
786.625	14.8992
790.479	28.1706
794.332	22.6855
798.183	9.66821
802.033	17.259
805.88	3.8916
809.726	30.168
813.57	12.6492
817.413	26.3328
821.253	4.2063
825.092	18.6304
828.929	15.595
832.764	63.0486
836.598	8.60181
840.429	33.0625
844.259	16.4358
848.088	39.7188
851.914	43.906
855.739	67.0049
859.562	14.885
863.383	21.0557
867.203	74.3259
871.02	68.9292
874.836	71.835
878.65	31.0334
882.463	108.826
886.274	225.61
890.083	359.414
893.89	535.295
897.695	682.207
901.499	816.168
905.301	1048.21
909.102	1372.3
912.9	1723.53
916.697	2281.94
920.492	2901.4
924.285	3884.54
928.077	4658.51
931.867	5107.95
935.655	4743.63
939.442	4296.37
943.226	4006.94
947.009	4001.85
950.791	3820.95
954.57	3478.01
958.348	2839.23
962.124	2059.68
965.899	1638.6
969.671	1585.33
973.442	1495.12
977.211	1458.95
980.979	1357.29
984.745	1236.28
988.509	1242.82
992.271	1228.54
996.032	1285.08
999.791	1244.53
1003.55	1312.55
1007.3	1359.16
1011.06	1492.26
1014.81	1598.16
1018.56	1734.45
1022.31	1883.36
1026.06	2068.71
1029.8	2504.59
1033.55	2839.19
1037.29	3414.45
1041.03	4178.2
1044.77	4927.51
1048.5	5689.92
1052.24	7126.45
1055.97	8774.24
1059.7	11274.8
1063.43	14389.9
1067.16	17692.6
1070.89	19458.8
1074.61	18841.5
1078.34	16181.2
1082.06	12715.2
1085.78	9241.01
1089.5	6636.47
1093.21	4709.91
1096.93	3576.07
1100.64	2925.7
1104.35	2350.89
1108.06	2093.85
1111.77	1765.28
1115.48	1610.68
1119.18	1500.88
1122.89	1451.85
1126.59	1265.21
1130.29	1177.37
1133.99	1078.44
1137.68	979.098
1141.38	853.568
1145.07	796.505
1148.76	726
1152.45	622.539
1156.14	525.046
1159.83	463.817
1163.51	282.722
1167.19	125.614
1170.88	103.926
1174.56	26.6306
1178.23	6.18604
1181.91	8.76733
1185.59	8.13452
1189.26	50.7981
1192.93	11.6418
1196.6	77.9639
1200.27	24.8606
1203.94	26.1091
1207.6	8.22632
1211.27	0.772705
1214.93	0.654297
1218.59	15.8088
1222.25	4.96851
1225.9	11.7546
1229.56	29.0122
1233.21	23.4055
1236.86	28.7649
1240.51	19.845
1244.16	22.8296
1247.81	13.1257
1251.45	66.6538
1255.1	29.0064
1258.74	95.6543
1262.38	25.4985
1266.02	115.589
1269.66	75.8926
1273.29	55.6377
1276.93	118.024
1280.56	100.265
1284.19	100.446
1287.82	108.96
1291.45	117.481
1295.07	126.545
1298.7	187.164
1302.32	76.9097
1305.94	81.8247
1309.56	30.6191
1313.18	150.645
1316.8	109.333
1320.41	141.569
1324.02	146.231
1327.63	101.386
1331.24	77.9482
1334.85	185.206
1338.46	128.28
1342.06	134.969
1345.67	173.377
1349.27	140.944
1352.87	125.852
1356.47	46.5488
1360.07	148.466
1363.66	209.624
1367.25	84.5991
1370.85	4.65479
1374.44	71.4473
1378.03	44.2837
1381.61	27.1172
1385.2	90.3433
1388.78	101.184
1392.37	24.6006
1395.95	20.2354
1399.53	57.625
1403.1	95.0034
1406.68	117.429
1410.26	74.1558
1413.83	97.0488
1417.4	111.84
1420.97	30.1582
1424.54	76.8652
1428.1	83.4888
1431.67	12.0117
1435.23	116.101
1438.8	177.295
1442.36	137.567
1445.91	168.672
1449.47	172.252
1453.03	225.687
1456.58	109.034
1460.13	215.519
1463.68	202.511
1467.23	314.893
1470.78	147.6
1474.33	197.643
1477.87	137.139
1481.42	200.483
1484.96	57.6846
1488.5	313.698
1492.04	113.677
1495.57	213.213
1499.11	174.86
1502.64	83.7978
1506.17	176.06
1509.71	36.7676
1513.23	151.299
1516.76	121.763
1520.29	42.1836
