Measurement: Raman, 514 nm, ccw, Raman Data Processed
Mineral: Fluorapatite
Rruff sample: R050274
Ideal chemistry: Ca_5_(PO_4_)_3_F
Locality: Minas Gerais, Brazil
Source: Marcus Origlieri
Description: Aggregate of blue crystal fragments separated by veins of quartz
Measured chemistry: Ca_5.00_((P_0.97_Si_0.02_S_0.01_)O_4_)_3_(F_0.90_Cl_0.10_)
Pin_id: L00850
Orientation: Laser parallel to c* (0 0 1). Fiducial mark perpendicular to laser is parallel to b [0 1 0]
Raman shift (cm-1)	intensity
107.047	0
110.744	29.7297
114.44	89.5051
118.134	77.3464
121.827	69.4766
125.519	218.11
129.209	309.217
132.898	442.069
136.585	626.365
140.271	569.939
143.956	525.425
147.639	356.529
151.321	353.143
155.002	432.08
158.681	340.329
162.359	279.962
166.036	173.74
169.711	99.7715
173.385	139.972
177.058	115.269
180.729	100.322
184.399	78.7446
188.067	98.9619
191.734	68.001
195.4	64.4795
199.064	106.155
202.727	152.304
206.389	59.1824
210.049	111.23
213.708	15.9023
217.366	154.732
221.022	144.382
224.677	149.774
228.33	72.7363
231.982	125.548
235.633	167.244
239.282	159.404
242.93	169.035
246.577	171.48
250.222	153.92
253.866	132.094
257.508	256.94
261.149	341.94
264.789	398.612
268.427	330.998
272.064	316.129
275.7	188.292
279.334	152.834
282.967	148.134
286.598	134.898
290.229	138.168
293.857	106.918
297.485	232.124
301.111	233.776
304.735	290.86
308.358	238.358
311.98	179.243
315.601	113.788
319.22	57.4873
322.837	7.06006
326.454	0.177246
330.068	25.6582
333.682	36.147
337.294	93.6196
340.905	104.571
344.514	4.92529
348.122	16.2788
351.729	33.1499
355.334	46.5503
358.938	14.8442
362.54	13.7695
366.141	112.198
369.741	18.5288
373.339	29.3355
376.936	21.7393
380.531	78.9404
384.126	106.616
387.718	49.5161
391.31	74.1665
394.9	136.494
398.488	166.28
402.075	21.5376
405.661	43.9893
409.245	131.553
412.828	206.87
416.41	245.28
419.99	378.097
423.569	471.79
427.146	550.174
430.722	700.645
434.297	830.096
437.87	1038.16
441.442	1157.93
445.012	1074.71
448.581	974.974
452.149	823.661
455.715	587.992
459.28	534.392
462.843	359.076
466.405	233.827
469.965	169.642
473.525	160.747
477.082	61.8272
480.639	112.609
484.194	81.5356
487.747	167.034
491.3	14.6118
494.85	67.2549
498.4	18.6934
501.948	55.8828
505.494	153.608
509.039	14.1943
512.583	5.44336
516.125	17.1094
519.666	92.6826
523.206	26.877
526.744	0.450195
530.281	56.5459
533.816	21.5518
537.35	5.23242
540.882	62.1816
544.413	53.6562
547.943	67.0615
551.471	6.41309
554.998	99.4639
558.523	188.416
562.047	161.586
565.57	329.772
569.091	516.492
572.611	756.244
576.129	1228.63
579.646	1472.76
583.162	873.719
586.676	675.096
590.188	555.145
593.7	485.888
597.209	533.289
600.718	518.713
604.225	878.779
607.73	892.625
611.235	740.933
614.737	748.352
618.239	395.077
621.739	436.827
625.237	365.202
628.734	171.093
632.23	311.303
635.724	251.41
639.217	181.44
642.708	222.062
646.198	187.427
649.687	366.097
653.174	331.894
656.66	266.942
660.144	267.572
663.627	328.07
667.108	60.4004
670.588	203.233
674.067	196.422
677.544	155.282
681.02	261.531
684.494	369.737
687.967	371.998
691.438	304.69
694.908	216.802
698.377	229.014
701.844	227.392
705.31	322.444
708.774	1.98535
712.237	425.727
715.698	397.954
719.158	398.66
722.617	388.582
726.074	219.881
729.53	323.227
732.984	352.31
736.437	276.438
739.888	334.82
743.338	274.668
746.787	359.434
750.234	417.279
753.68	427.514
757.124	381.519
760.567	401.568
764.008	453.619
767.448	242.707
770.887	218.154
774.324	335.557
777.759	508.154
781.194	364.51
784.626	239.338
788.058	339.637
791.488	174.565
794.916	360.123
798.343	333.152
801.769	262.738
805.193	368.475
808.616	269.775
812.037	539.338
815.457	354.459
818.875	209.004
822.292	200.481
825.707	293.738
829.122	173.744
832.534	109.428
835.945	125.57
839.355	204.789
842.763	88.7988
846.17	117.314
849.576	219.518
852.98	94.7969
856.382	49.1543
859.783	18.9336
863.183	92.2363
866.581	125.219
869.978	181.762
873.373	70.2949
876.767	107.945
880.159	121.783
883.55	110.106
886.94	118.936
890.328	166.193
893.714	138.041
897.1	53.2012
900.483	127.502
903.866	150.012
907.246	237.914
910.626	82.4473
914.004	65.9453
917.38	57.3867
920.755	79.5312
924.129	12.334
927.501	59.7012
930.872	208.203
934.241	59.3125
937.609	330.334
940.975	514.723
944.34	1007.99
947.703	1418.58
951.065	2924.16
954.426	6430.93
957.785	13279.4
961.142	19092
964.499	15468.6
967.853	8226.91
971.207	3603.32
974.558	1618.47
977.909	820.373
981.258	226.217
984.605	285.99
987.951	104.529
991.295	157.219
994.639	9.08398
997.98	168.916
1001.32	427.721
1004.66	175.424
1008	422.998
1011.33	368.129
1014.67	250.455
1018	1.37695
1021.33	290.738
1024.66	746.801
1027.99	755.57
1031.32	837.836
1034.64	395.883
1037.97	452.738
1041.29	375.461
1044.61	417.519
1047.93	371.481
1051.25	476.078
1054.56	607.004
1057.88	799.949
1061.19	493.703
1064.51	232.941
1067.82	301.012
1071.13	389.305
1074.43	417.875
1077.74	269.481
1081.05	205.891
1084.35	445.543
1087.65	45.1367
1090.95	377.91
1094.25	52.1719
1097.55	101.973
1100.85	75.7812
1104.14	204.781
1107.43	202.305
1110.73	239.613
1114.02	259.809
1117.31	9.98438
1120.59	181.438
1123.88	399.703
1127.16	184.16
1130.45	111.078
1133.73	78.4727
1137.01	358.414
1140.29	135.996
1143.57	321.715
1146.84	305.277
1150.12	363.859
1153.39	195.457
1156.66	143.094
1159.93	310.269
1163.2	479.703
1166.46	393.824
1169.73	426.125
1172.99	321.41
1176.26	206.16
1179.52	11.1836
1182.78	201.348
1186.04	282.621
1189.29	238.008
