Measurement: Raman, 514 nm, ccw, Raman Data Processed
Mineral: Fluorophlogopite
Rruff sample: R040039
Ideal chemistry: KMg_3_(Si_3_Al)O_10_F_2_
Locality: Franklin, Sussex County, New Jersey, USA
Source: University of Arizona Mineral Museum
Description: Brown hexagonal sheets
Measured chemistry: (K_0.92_Na_0.06_[box]_0.02_)_Σ=1_(Mg_2.94_Fe_0.04_Ti_0.02_)_Σ=3_(Si_2.98_Al_1.02_)O_10_(F_1.24_(OH)_0.76_)_Σ=2_; OH estimated by charge balance
Pin_id: M00025
Orientation: Laser parallel to b* (0 1 0). Fiducial mark perpendicular to laser is parallel to c [0 0 1]
Raman shift (cm-1)	intensity
76.04	0
80.232	20.624
84.421	955.144
88.608	2531.89
92.793	4625.52
96.976	6752.49
101.157	10458.6
105.336	13867.1
109.513	9822.04
113.688	5756.51
117.861	4316.02
122.032	3056.86
126.201	2059.82
130.367	1319.31
134.532	957.182
138.695	676.545
142.856	349.992
147.014	183.576
151.171	64.966
155.325	60.978
159.478	33.208
163.629	386.149
167.777	707.467
171.924	951.229
176.068	1501.83
180.211	2112.66
184.351	3673.2
188.49	7597.97
192.626	16692.6
196.761	26567
200.893	20751.7
205.024	9806.42
209.152	4490.36
213.279	2380.16
217.403	1278.83
221.526	651.397
225.646	300.892
229.765	97.396
233.881	68.905
237.996	3.842
242.108	123.038
246.219	141.28
250.328	230.807
254.434	139.624
258.539	14.177
262.641	175.773
266.742	744.939
270.84	1898.91
274.937	4382.48
279.032	7199.37
283.125	5993.77
287.215	3435.33
291.304	2371.99
295.391	2256.66
299.476	2701.37
303.558	3692.22
307.639	5676.92
311.718	8166.74
315.795	9789.39
319.87	10057.7
323.943	8951.06
328.014	7257.93
332.083	5270.08
336.15	3604.84
340.215	2432.85
344.279	1888.23
348.34	1529.02
352.399	1432.22
356.457	1352.84
360.512	1540.85
364.565	1990.27
368.617	2763.09
372.666	3125.27
376.714	2414.41
380.76	1768.96
384.803	1423.93
388.845	1131.1
392.885	1044.29
396.923	1074.44
400.959	963.908
404.993	816.239
409.025	659.342
413.055	585.602
417.084	418.544
421.11	258.845
425.134	79.098
429.157	167.686
433.177	185.275
437.196	205.812
441.213	135.712
445.227	175.769
449.24	285.748
453.251	298.044
457.26	349.693
461.267	622.744
465.272	805.182
469.276	647.196
473.277	106.626
477.276	125.548
481.274	74.687
485.27	45.835
489.263	20.964
493.255	10.71
497.245	328.081
501.233	461.49
505.219	714.561
509.203	1136.31
513.186	1435.75
517.166	1144.89
521.145	667.76
525.121	384.357
529.096	196.761
533.069	196.938
537.04	215.903
541.009	94.724
544.976	111.397
548.941	203.992
552.905	193.643
556.866	247.478
560.826	75.611
564.784	53.061
568.74	236.865
572.694	236.524
576.646	224.62
580.596	75.284
584.544	119.468
588.491	52.741
592.435	123.893
596.378	69.918
600.319	46.665
604.258	200.93
608.195	486.952
612.131	522.722
616.064	700.088
619.995	1091.32
623.925	1526.49
627.853	2307.6
631.779	3034.99
635.703	3662.07
639.625	4211.26
643.546	4413.6
647.464	4514.68
651.381	5007.81
655.296	5063.42
659.209	5810.49
663.12	7288.43
667.029	9436.39
670.937	12134.6
674.842	17524.8
678.746	25713.2
682.648	31594.2
686.548	30679.7
690.447	23773.8
694.343	16609.5
698.238	11016.6
702.13	7361.2
706.021	4851.01
709.91	3513.91
713.798	2501.08
717.683	2151.69
721.567	1882.14
725.448	1871.06
729.328	1594.02
733.206	1491.87
737.083	1495.23
740.957	1607.36
744.83	1632.61
748.701	1587.67
752.57	1403.31
756.437	1214.96
760.302	1129.04
764.166	1144.23
768.027	995.273
771.887	840.445
775.745	942.385
779.602	1104.66
783.456	1214.54
787.309	1219.3
791.16	1154.1
795.009	1154.21
798.856	1118.62
802.702	978.247
806.545	789.876
810.387	591.479
814.227	291.024
818.065	243.945
821.902	128.886
825.737	260.197
829.569	207.379
833.401	63.449
837.23	94.626
841.057	10.008
844.883	39.416
848.707	51.584
852.529	33.645
856.35	144.215
860.168	127.209
863.985	116.577
867.8	28.364
871.613	56.421
875.425	73.134
879.234	66.005
883.042	29.067
886.848	66.708
890.653	244.42
894.455	296.053
898.256	226.653
902.055	190.279
905.852	135.858
909.648	206.358
913.442	434.794
917.233	409.16
921.024	255.434
924.812	167.605
928.599	69.674
932.384	339.64
936.167	435.497
939.948	380.252
943.728	154.902
947.506	236.44
951.282	168.697
955.056	224.223
958.829	358.442
962.6	346.543
966.369	421.525
970.136	341.396
973.902	484.169
977.666	614.58
981.428	810.905
985.188	1092.64
988.947	956.964
992.704	942.183
996.459	1031.73
1000.21	1186.9
1003.96	1535.64
1007.71	1618.76
1011.46	1737.03
1015.21	1612.66
1018.95	1253.73
1022.7	1045.78
1026.44	1178.99
1030.18	1949.93
1033.91	2947.75
1037.65	3001.01
1041.39	2235.51
1045.12	1633.79
1048.85	1411.84
1052.58	1448.35
1056.31	1488.92
1060.03	1600.45
1063.76	1632.17
1067.48	1611.45
1071.2	1696.06
1074.92	2026.31
1078.63	2346.49
1082.35	2935.97
1086.06	3475.78
1089.78	3975.67
1093.49	3965.1
1097.19	3914.35
1100.9	3886.45
1104.61	3926.24
1108.31	3325.82
1112.01	2645.05
1115.71	1984.3
1119.41	1225.9
1123.11	1001.87
1126.8	390.684
1130.5	307.535
1134.19	422.215
1137.88	286.434
1141.57	414.086
1145.25	200.139
1148.94	39.872
1152.62	38.43
1156.3	3.934
1159.98	76.935
1163.66	191.438
1167.34	241.147
1171.01	877.021
1174.68	26.562
1178.36	15.705
1182.02	52.062
1185.69	54.76
1189.36	22.233
1193.02	146.392
1196.69	107.643
1200.35	188.959
1204.01	173.871
1207.66	22.111
1211.32	20.214
1214.98	17.709
1218.63	107.707
1222.28	188.815
1225.93	286.468
1229.58	282.689
1233.22	276.762
1236.87	270.178
1240.51	193.884
1244.15	20.135
1247.79	160.595
1251.43	283.706
1255.07	368.557
1258.7	289.576
1262.33	499.354
1265.96	223.104
1269.59	243.361
1273.22	153.79
1276.85	186.674
1280.47	184.087
1284.1	247.875
1287.72	297.776
1291.34	372.867
1294.95	208.248
1298.57	278.328
1302.19	59.398
1305.8	12.296
1309.41	31.349
1313.02	198.957
1316.63	227.326
1320.23	355.909
1323.84	503.796
1327.44	318.139
1331.05	212.284
1334.64	68.968
1338.24	81.604
1341.84	55.493
1345.43	0.752
1349.03	84.389
1352.62	376.934
1356.21	270.64
1359.8	425.93
1363.39	301.35
1366.97	199.017
1370.56	24.289
1374.14	80.089
1377.72	74.325
1381.3	150.068
1384.87	216.57
1388.45	284.306
1392.02	392.206
1395.6	506.914
1399.17	354.042
1402.74	260.138
1406.3	150.929
1409.87	96.625
1413.43	31.632
1417	127.416
1420.56	211.672
1424.12	226.527
1427.67	362.58
1431.23	435.74
1434.79	550.849
1438.34	387.551
1441.89	419.086
1445.44	261.006
1448.99	252.27
1452.54	92.695
1456.08	349.61
1459.62	377.83
1463.17	536.25
1466.71	403.798
1470.24	530.209
1473.78	546.524
1477.32	575.092
1480.85	499.136
1484.38	396.732
1487.91	244.33
1491.44	143.125
1494.97	82.16
1498.5	121.596
1502.02	182.804
1505.54	256.383
1509.07	380.066
1512.59	398.516
1516.1	435.236
1519.62	0
