Measurement: Raman, 514 nm, ccw, Raman Data Processed
Mineral: Fluorapatite
Rruff sample: R060333
Ideal chemistry: Ca_5_(PO_4_)_3_F
Locality: Lovozero Massif, Kola Peninsula, U.S.S.R.
Source: Michael Scott
Description: Colorless fragment associated with red villiaumite
Measured chemistry: (Ca_4.29_Sr_0.47_Na_0.12_Ce_0.07_La_0.06_)_Σ=5_((P_0.99_Si_0.01_)_Σ=1_O_4_)_3_F_1.00_
Pin_id: L00852
Orientation: Laser parallel to c* (0 0 1). Fiducial mark perpendicular to laser is parallel to -a [-1 0 0]
Raman shift (cm-1)	intensity
164.221	0
169.145	1.01172
174.066	33.8486
178.984	28.5645
183.9	54.898
188.812	79.5083
193.722	37.0688
198.628	88.4482
203.532	67.7114
208.433	50.7769
213.331	75.0112
218.226	69.5913
223.118	164.758
228.007	303.75
232.893	334.031
237.777	372.057
242.657	184.63
247.535	327.236
252.41	451.206
257.281	408.467
262.15	546.805
267.017	505.744
271.88	309.15
276.74	313.822
281.598	238.872
286.453	125.028
291.304	271.187
296.153	261.537
301	375.171
305.843	289.574
310.683	216.581
315.521	214.77
320.356	168.24
325.188	140.79
330.017	26.7202
334.843	47.5483
339.666	54.3975
344.487	25.5
349.305	82.3584
354.12	88.0166
358.932	29.6963
363.741	3.37988
368.548	48.873
373.352	208.295
378.153	74.6621
382.951	6.95019
387.746	1.58691
392.539	7.15625
397.328	10.2842
402.115	173.811
406.899	84.001
411.681	189.773
416.459	211.699
421.235	253.651
426.008	438.238
430.779	439.326
435.546	866.845
440.311	1300.66
445.073	1568.65
449.832	1516.82
454.588	1108.08
459.342	836.344
464.093	453.93
468.841	341.376
473.587	318.245
478.329	124.115
483.069	48.206
487.806	92.2314
492.541	192.776
497.272	99.6963
502.001	15.7754
506.728	103.513
511.451	86.4981
516.172	134.473
520.89	149.965
525.605	142.648
530.318	88.5147
535.028	39.749
539.735	19.0254
544.44	22.6826
549.141	146.751
553.841	228.529
558.537	144.82
563.231	300.937
567.922	395.638
572.61	862.403
577.296	1575.14
581.979	1855.37
586.659	706.992
591.336	663.726
596.011	803.871
600.683	1159.2
605.353	1611.84
610.02	1255.58
614.684	925.035
619.345	460.663
624.004	60.2344
628.661	84.8477
633.314	233.637
637.965	240.806
642.613	281.423
647.259	534.572
651.902	440.203
656.542	493.58
661.18	512.324
665.815	262.086
670.447	236.738
675.077	173.9
679.704	232.26
684.328	288.438
688.95	58.6738
693.569	173.902
698.186	140.404
702.8	71.6699
707.411	130.943
712.02	96.2227
716.626	167.678
721.23	153.154
725.83	113.981
730.429	96.7734
735.024	84.0332
739.618	3.83984
744.208	178.164
748.796	22.6641
753.381	3.10938
757.964	142.777
762.544	7.77539
767.122	236.44
771.697	134.359
776.269	266.662
780.839	218.096
785.406	141.723
789.971	343.986
794.533	275.818
799.093	169.775
803.65	68.0117
808.204	244.147
812.756	70.7988
817.305	176.305
821.852	311.147
826.396	217.033
830.938	134.863
835.477	7.39844
840.013	239.057
844.547	323.18
849.079	284.49
853.608	361.184
858.134	87.0762
862.658	228.475
867.179	330.924
871.698	158.527
876.214	312.824
880.728	440.59
885.239	212.193
889.748	251.166
894.254	89.0742
898.758	16.9004
903.259	134.482
907.758	263.369
912.254	164.65
916.748	252.551
921.239	296.873
925.728	210.525
930.214	315.982
934.698	361.984
939.179	570.93
943.657	1220.59
948.134	2337.26
952.607	6504.85
957.079	17919.5
961.548	29552.7
966.014	21241.1
970.478	8750.28
974.939	2938.27
979.398	1074.79
983.854	140.418
988.308	370.207
992.76	162.217
997.209	110.871
1001.65	73.5938
1006.1	85.1445
1010.54	155.875
1014.98	184.719
1019.42	323.832
1023.85	657.453
1028.28	585.867
1032.71	1006.72
1037.14	718.695
1041.56	483.734
1045.99	387.453
1050.41	546.277
1054.82	715.578
1059.24	840.988
1063.65	376.797
1068.06	197.863
1072.47	459.91
1076.87	601.945
1081.28	356.914
1085.68	17.1797
1090.08	222.531
1094.47	180.066
1098.86	45.5508
1103.25	225.039
1107.64	127.492
1112.03	6.84375
1116.41	14.8477
1120.79	394.031
1125.17	447.691
1129.55	153.039
1133.92	314.191
1138.29	186.781
1142.66	105.859
1147.03	39.3164
1151.39	205.004
1155.76	317.898
1160.12	180.141
1164.47	185.383
1168.83	331.199
1173.18	154.211
1177.53	313.465
1181.88	201.059
1186.22	298.797
1190.57	305.691
1194.91	321.812
1199.25	420.074
1203.58	371.5
1207.92	569.098
1212.25	224.863
1216.58	485.027
1220.9	270.914
1225.23	561.594
1229.55	282.102
1233.87	471.875
1238.19	508.184
1242.5	272.863
1246.81	35.9219
1251.12	5.60938
1255.43	130.586
1259.74	75.8945
1264.04	152.488
1268.34	311.5
1272.64	77.3086
1276.94	311.102
1281.23	163.723
1285.52	85.9062
1289.81	113.18
1294.1	235.676
1298.39	179.742
1302.67	168.309
1306.95	387.32
1311.23	631.797
1315.5	431.664
1319.78	478.832
1324.05	561.305
1328.32	580.106
1332.58	589.223
1336.85	781.672
1341.11	603.461
1345.37	742.617
1349.63	511.195
1353.88	735.203
1358.13	621.594
1362.38	153.367
1366.63	276.594
1370.88	162.316
1375.12	532.106
1379.36	278.094
1383.6	248.234
1387.84	474.859
1392.08	433.008
1396.31	603.699
1400.54	623.035
1404.77	404.141
1408.99	244.121
1413.21	434.711
1417.44	464.867
1421.66	695.215
1425.87	442.5
1430.09	428.469
1434.3	659.133
1438.51	581.473
1442.72	539.016
1446.92	520.285
1451.13	629.168
1455.33	610.684
1459.53	357.832
1463.72	755.625
1467.92	798.07
1472.11	680.195
1476.3	192.043
1480.49	610.508
1484.67	312.664
1488.86	432.977
1493.04	407.465
1497.22	407.867
1501.39	253.496
1505.57	585.777
1509.74	318.531
1513.91	331.906
1518.08	354.086
1522.25	446.285
1526.41	532.152
1530.57	171.949
1534.73	368.012
1538.89	153.426
1543.04	231.539
1547.2	579.113
1551.35	252.621
1555.49	198.262
1559.64	0.863281
1563.79	0
