Measurement: Raman, 514 nm, ccw, Raman Data Processed
Mineral: Fluorapatite
Rruff sample: R060070
Ideal chemistry: Ca_5_(PO_4_)_3_F
Locality: Panasqueira, Portugal
Source: Dave Bunk
Description: Green hexagonal tablet
Measured chemistry: (Ca_0.99_Mn_0.01_)_5_(P_1.00_O_4_)_3_F_1.00_
Pin_id: L01695
Orientation: Laser parallel to -a* (-1 0 0). Fiducial mark perpendicular to laser is parallel to -c [0 0 -1]
Raman shift (cm-1)	intensity
118.134	0
123.058	128.379
127.979	44.8293
132.898	70.2856
137.814	2.91138
142.728	50.8291
147.639	36.9453
152.549	95.3984
157.455	98.1492
162.359	23.3875
167.261	116.15
172.161	99.3555
177.058	88.8188
181.952	19.8328
186.845	103.704
191.734	88.655
196.622	159.546
201.507	369.255
206.389	455.139
211.269	697.74
216.147	534.352
221.022	273.745
225.895	144.81
230.765	75.9604
235.633	156.308
240.498	61.5859
245.361	15.6548
250.222	9.8706
255.08	1.8501
259.936	68.3865
264.789	67.0352
269.64	11.0784
274.488	43.8499
279.334	68.5159
284.178	125.77
289.019	136.648
293.857	140.003
298.693	180.507
303.527	270.178
308.358	131.94
313.187	190.983
318.013	85.1372
322.837	66.7693
327.659	43.7107
332.478	109.723
337.294	131.656
342.108	13.1431
346.92	89.0249
351.729	216.865
356.535	151.9
361.34	155.129
366.141	111.461
370.94	98.792
375.737	74.728
380.531	63.6196
385.323	41.7153
390.113	121.078
394.9	78.6802
399.684	21.2568
404.466	17.8691
409.245	154.335
414.022	133.756
418.797	130.875
423.569	193.693
428.338	281.057
433.105	316.751
437.87	368.275
442.632	370.254
447.391	560.441
452.149	587.277
456.903	520.474
461.655	345.865
466.405	134.202
471.152	97.9477
475.897	73.1733
480.639	147.201
485.378	143.122
490.116	229.698
494.85	192.14
499.582	115.084
504.312	213.99
509.039	112.976
513.764	54.4019
518.486	17.2432
523.206	20.6948
527.923	76.271
532.638	117.1
537.35	133.917
542.059	96.4551
546.766	11.8813
551.471	27.2564
556.173	28.686
560.873	31.7275
565.57	34.4365
570.264	56.8394
574.957	185.948
579.646	388.506
584.333	984.871
589.018	1786.66
593.7	1601.69
598.379	893.686
603.056	840.387
607.73	1024.07
612.402	357.269
617.072	181.808
621.739	161.787
626.403	93.0078
631.065	35.6836
635.724	158.976
640.381	163.965
645.035	134.394
649.687	10.9209
654.336	90.7754
658.983	233.763
663.627	75.499
668.268	93.3711
672.907	218.882
677.544	120.677
682.178	111.625
686.809	60.3701
691.438	23.0713
696.065	13.4834
700.688	153.353
705.31	86.7285
709.929	83.9707
714.545	63.8857
719.158	21.8232
723.77	180.296
728.378	78.8955
732.984	165.862
737.588	28.7744
742.189	69.8184
746.787	4.15137
751.383	102.762
755.976	123.789
760.567	72.5986
765.155	88.208
769.741	0.541016
774.324	148.902
778.904	280.49
783.482	49.543
788.058	83.1367
792.631	157.928
797.201	101.921
801.769	86.0293
806.334	258.803
810.897	90.7451
815.457	109.262
820.014	154.694
824.569	234.799
829.122	90.5469
833.671	168.425
838.219	71.4766
842.763	154.035
847.306	215.823
851.845	283.795
856.382	469.414
860.917	304.635
865.448	209.562
869.978	252.383
874.505	173.059
879.029	242.316
883.55	37.0645
888.069	59.791
892.586	57.9297
897.1	26.0762
901.611	114.688
906.12	119.219
910.626	63.8535
915.129	10.8027
919.63	5.43359
924.129	113.131
928.625	154.254
933.118	132.283
937.609	148.049
942.097	311.449
946.582	690.059
951.065	1331.42
955.546	2842.19
960.023	10900.5
964.499	20424
968.971	10050.9
973.441	1768.73
977.909	642.248
982.374	354.006
986.836	299.447
991.295	62.2832
995.753	176.935
1000.21	52.627
1004.66	218.635
1009.11	94.9414
1013.55	254.43
1018	6.91016
1022.44	75.2246
1026.88	86.8652
1031.32	90.8672
1035.75	180.068
1040.18	468.193
1044.61	780.172
1049.04	2156.41
1053.46	4332.75
1057.88	1777.14
1062.3	623.894
1066.71	588.457
1071.13	413.289
1075.54	1066.51
1079.94	1879.78
1084.35	1587.7
1088.75	384.357
1093.15	188.066
1097.55	290.129
1101.94	113.301
1106.34	157.445
1110.73	189.992
1115.11	53.5801
1119.5	288.853
1123.88	344.113
1128.26	219.473
1132.63	91.5606
1137.01	247.832
1141.38	190.842
1145.75	166.766
1150.12	374.551
1154.48	301.637
1158.84	84.5898
1163.2	192.461
1167.55	404.199
1171.91	245.031
1176.26	318.477
1180.61	275.582
1184.95	256.328
1189.29	47.207
1193.63	47.2812
1197.97	98.4766
1202.31	199.941
1206.64	75.9258
1210.97	104.496
1215.29	368.738
1219.62	199.332
1223.94	154.598
1228.26	336.641
1232.57	126.324
1236.89	239.109
1241.2	271.43
1245.51	404.891
1249.81	408.234
1254.12	73.5742
1258.42	240.863
1262.72	403.031
1267.01	418.859
1271.3	41.4961
1275.59	378.508
1279.88	404.633
1284.17	328.031
1288.45	129.644
1292.73	90.7109
1297.01	65.5859
1301.28	43.0547
1305.55	218.254
1309.82	279.527
1314.09	90.7617
1318.35	445.176
1322.61	301.449
1326.87	141.894
1331.13	416.297
1335.38	406.762
1339.63	224.215
1343.88	523.621
1348.12	157.035
1352.37	466.488
1356.61	492.164
1360.85	583.648
1365.08	321.938
1369.31	703.981
1373.54	210.164
1377.77	275.527
1381.99	305.738
1386.22	109.91
1390.43	336.941
1394.65	353.703
1398.87	578.672
1403.08	279.578
1407.29	436.824
1411.49	240.246
1415.69	245.644
1419.89	538.199
1424.09	481.285
1428.29	722.773
1432.48	269.633
1436.67	623.465
1440.86	490.254
1445.04	554.973
1449.23	610.356
1453.4	666.609
1457.58	398.191
1461.76	581.129
1465.93	810.449
1470.1	451.164
1474.26	430.023
1478.43	503.449
1482.59	518.805
1486.75	609.691
1490.9	564.152
1495.06	571.191
1499.21	215.027
1503.35	511.465
1507.5	363.41
1511.64	429.609
1515.78	235.789
1519.92	558.172
1524.05	591.035
1528.18	285.34
1532.31	391.906
1536.44	502.336
1540.56	374.234
1544.69	193.16
1548.8	53.9258
1552.92	460.527
1557.03	712.57
1561.14	219.586
1565.25	470.387
1569.36	207.848
