Measurement: Raman, 514 nm, ccw, Raman Data Processed
Mineral: Fluorapatite
Rruff sample: R050274
Ideal chemistry: Ca_5_(PO_4_)_3_F
Locality: Minas Gerais, Brazil
Source: Marcus Origlieri
Description: Aggregate of blue crystal fragments separated by veins of quartz
Measured chemistry: Ca_5.00_((P_0.97_Si_0.02_S_0.01_)O_4_)_3_(F_0.90_Cl_0.10_)
Pin_id: L01565
Orientation: Laser parallel to -a* (-1 0 0). Fiducial mark perpendicular to laser is parallel to -c [0 0 -1]
Raman shift (cm-1)	intensity
118.134	0
121.827	6.55469
125.519	54.2119
129.209	91.7852
132.898	343.031
136.585	270.78
140.271	323.56
143.956	296.738
147.639	335.531
151.321	269.706
155.002	266.982
158.681	450.935
162.359	343.03
166.036	448.933
169.711	318.518
173.385	419.228
177.058	353.794
180.729	293.069
184.399	399.324
188.067	244.926
191.734	385.934
195.4	386.599
199.064	597.831
202.727	645.743
206.389	599.39
210.049	464.796
213.708	434.966
217.366	390.918
221.022	299.643
224.677	352.653
228.33	334.947
231.982	326.457
235.633	299.81
239.282	280.01
242.93	327.974
246.577	311.492
250.222	246.465
253.866	204.744
257.508	296.434
261.149	247.959
264.789	441.54
268.427	302.083
272.064	329.772
275.7	297.961
279.334	375.456
282.967	336.112
286.598	366.832
290.229	352.537
293.857	369.368
297.485	347.68
301.111	326.035
304.735	286.201
308.358	364.148
311.98	229.382
315.601	214.692
319.22	59.2129
322.837	90.4883
326.454	168.416
330.068	62.8359
333.682	60.1133
337.294	9.35449
340.905	6.96484
344.514	146.255
348.122	54.3398
351.729	40.3418
355.334	164.352
358.938	84.4228
362.54	74.5186
366.141	11.3057
369.741	95.1348
373.339	74.207
376.936	46.1113
380.531	56.6904
384.126	158.722
387.718	83.251
391.31	32.7695
394.9	45.375
398.488	14.0166
402.075	188.153
405.661	176.113
409.245	126.103
412.828	452.687
416.41	612.955
419.99	937.404
423.569	1244.62
427.146	1388.66
430.722	1349.82
434.297	1125.3
437.87	745.851
441.442	772.824
445.012	687.221
448.581	476.031
452.149	507.256
455.715	323.888
459.28	261.907
462.843	269.969
466.405	139.435
469.965	168.343
473.525	111.025
477.082	62.4277
480.639	66.6562
484.194	66.1797
487.747	11.3955
491.3	51.1943
494.85	141.792
498.4	77.3438
501.948	71.2471
505.494	72.2676
509.039	118.834
512.583	94.1387
516.125	96.3672
519.666	27.4062
523.206	135.316
526.744	40.0566
530.281	22.6641
533.816	97.5137
537.35	24.5508
540.882	38.832
544.413	80.457
547.943	181.926
551.471	51.1113
554.998	256.387
558.523	216.334
562.047	7.77148
565.57	147.744
569.091	283.199
572.611	604.174
576.129	464.697
579.646	1119.8
583.162	1204.71
586.676	1570.98
590.188	1249
593.7	987.475
597.209	676.291
600.718	476.424
604.225	675.756
607.73	627.723
611.235	454.166
614.737	359.193
618.239	494.113
621.739	562.664
625.237	369.828
628.734	482.543
632.23	415.475
635.724	366.459
639.217	352.516
642.708	214.506
646.198	379.139
649.687	391.789
653.174	250.559
656.66	364.228
660.144	306.9
663.627	263.373
667.108	240.117
670.588	291.863
674.067	301.809
677.544	395.758
681.02	427.447
684.494	405.537
687.967	347.742
691.438	329.121
694.908	483.99
698.377	321.416
701.844	291.914
705.31	206.783
708.774	269.492
712.237	351.734
715.698	236.738
719.158	557.156
722.617	470.977
726.074	390.394
729.53	368.856
732.984	377.795
736.437	351.775
739.888	343.301
743.338	336.469
746.787	206.83
750.234	467.75
753.68	366.072
757.124	357.148
760.567	215.723
764.008	415.264
767.448	391.67
770.887	425.357
774.324	339.607
777.759	319.992
781.194	353.615
784.626	203.166
788.058	374.205
791.488	308.459
794.916	239.576
798.343	248.652
801.769	204.123
805.193	236.703
808.616	272.199
812.037	268.428
815.457	160.369
818.875	340.057
822.292	168.422
825.707	316.428
829.122	418.027
832.534	246.352
835.945	302.287
839.355	217.836
842.763	103.9
846.17	146.621
849.576	186.754
852.98	241.426
856.382	175.721
859.783	103.625
863.183	96.6309
866.581	131.84
869.978	206.32
873.373	230.836
876.767	315.928
880.159	42.6738
883.55	65.9609
886.94	27.9688
890.328	172.205
893.714	162.572
897.1	168.82
900.483	51.0117
903.866	118.006
907.246	39.666
910.626	96.1191
914.004	121.639
917.38	196.863
920.755	3.45508
924.129	147.68
927.501	210.455
930.872	127.295
934.241	109.869
937.609	264.084
940.975	575.676
944.34	635.219
947.703	1504.09
951.065	3621.45
954.426	7480.27
957.785	14274.6
961.142	17223.8
964.499	12828.3
967.853	6767.24
971.207	2771.48
974.558	1156.65
977.909	581.676
981.258	333.914
984.605	287.57
987.951	211.43
991.295	55.418
994.639	30.332
997.98	166.285
1001.32	245.746
1004.66	267.356
1008	475.023
1011.33	373.789
1014.67	357.68
1018	235.445
1021.33	245.531
1024.66	464.484
1027.99	472.223
1031.32	595.93
1034.64	672.398
1037.97	1063.91
1041.29	1233.64
1044.61	1811.04
1047.93	2009.21
1051.25	1566
1054.56	1149.01
1057.88	613.465
1061.19	483.383
1064.51	170.144
1067.82	399.281
1071.13	651.812
1074.43	720.734
1077.74	715.102
1081.05	385.492
1084.35	203.535
1087.65	303.594
1090.95	276.582
1094.25	65.3594
1097.55	176.148
1100.85	228.031
1104.14	80.1562
1107.43	13.3047
1110.73	169.023
1114.02	95.9805
1117.31	359.688
1120.59	345.004
1123.88	182.648
1127.16	376.613
1130.45	299.238
1133.73	302.484
1137.01	72.2734
1140.29	271.414
1143.57	246.367
1146.84	177.16
1150.12	20.1797
1153.39	8.65625
1156.66	58.5312
1159.93	67.3281
1163.2	84.0469
1166.46	249.824
1169.73	2.04297
1172.99	129.109
