Measurement: Raman, 514 nm, ccw, Raman Data Processed
Mineral: Fluorapophyllite-(K)
Rruff sample: R060554
Ideal chemistry: KCa_4_Si_8_O_20_F8H_2_O
Locality: unknown
Source: Gemological Institute of America
Description: Colorless polished fragment
Measured chemistry: (K_0.88_Na_0.12_)Ca_4.00_Si_8.00_O_20_F_1.00_Â·8H2O
Pin_id: L01258
Orientation: Laser parallel to c* (0 0 1). Fiducial mark perpendicular to laser is parallel to a [1 0 0]
Raman shift (cm-1)	intensity
53.91	0
58.864	446.012
63.817	51.027
68.767	199.112
73.714	2691.79
78.659	13268.8
83.602	34384
88.542	39287.8
93.48	27250.8
98.416	18809.3
103.349	25399.3
108.28	30708.2
113.208	13491.9
118.134	11499.7
123.058	16546.7
127.979	16706.7
132.898	22086.8
137.814	10885.4
142.728	3594.88
147.639	3057.22
152.549	5607.56
157.455	10677.1
162.359	17815.2
167.261	9529.32
172.161	3941.52
177.058	5405.77
181.952	11931.9
186.845	19325.8
191.734	15571.4
196.622	19196.3
201.507	30044
206.389	46913.8
211.269	47157.8
216.147	29843.6
221.022	22433.9
225.895	21360.1
230.765	16900.9
235.633	8693.86
240.498	3323.8
245.361	1130.86
250.222	435.013
255.08	543.049
259.936	1351.85
264.789	2465.28
269.64	2821.34
274.488	1680.88
279.334	1877.7
284.178	4287.75
289.019	9453.96
293.857	16279.2
298.693	16980.2
303.527	10420.5
308.358	5200.88
313.187	3015.32
318.013	2522.75
322.837	3188.09
327.659	4975.2
332.478	7088.97
337.294	7317.8
342.108	4753.97
346.92	1705.69
351.729	76.1787
356.535	222.418
361.34	841.322
366.141	3332.58
370.94	6803.13
375.737	5446.78
380.531	820.368
385.323	943.95
390.113	1061.08
394.9	813.863
399.684	155.218
404.466	546.715
409.245	1449.87
414.022	2361.24
418.797	4942.75
423.569	13482.3
428.338	29579
433.105	32765.6
437.87	14725.4
442.632	5167.69
447.391	1765.65
452.149	581.531
456.903	532.458
461.655	1036.48
466.405	823.485
471.152	23.1519
475.897	113.611
480.639	931.538
485.378	1252.91
490.116	627.532
494.85	429.921
499.582	739.951
504.312	1643.82
509.039	2455.85
513.764	3238.05
518.486	3573.36
523.206	3550.75
527.923	4003.3
532.638	4735.43
537.35	5089.11
542.059	5003.28
546.766	4423.47
551.471	4675.62
556.173	5249.19
560.873	6292.16
565.57	8746.49
570.264	12615.8
574.957	18475.3
579.646	24227.3
584.333	24743.3
589.018	18718.3
593.7	12261.9
598.379	7987.01
603.056	5801.51
607.73	4727.86
612.402	4169.49
617.072	4210.1
621.739	4418.22
626.403	4891.78
631.065	5228.93
635.724	6011.64
640.381	7002.13
645.035	8976.43
649.687	11681.2
654.336	15454.6
658.983	18547.4
663.627	19217.7
668.268	15973.4
672.907	11483.8
677.544	7675.57
682.178	5040.83
686.809	3374.08
691.438	2208.71
696.065	1312.69
700.688	675.009
705.31	364.641
709.929	224.977
714.545	79.6445
719.158	85.7778
723.77	156.261
728.378	113.447
732.984	223.739
737.588	212.506
742.189	182.537
746.787	105.593
751.383	106.915
755.976	542.697
760.567	1067.05
765.155	1673.67
769.741	1545.6
774.324	1227.83
778.904	1436.38
783.482	2420.26
788.058	3827.98
792.631	3860
797.201	2111.25
801.769	1079.99
806.334	624.838
810.897	658.883
815.457	764.22
820.014	964.808
824.569	1423.64
829.122	1756.73
833.671	2234.09
838.219	2738.75
842.763	3241.72
847.306	3682.72
851.845	3739.56
856.382	3241.95
860.917	2703.11
865.448	2140.28
869.978	1758.42
874.505	1382.7
879.029	1064.66
883.55	924.982
888.069	845.951
892.586	777.31
897.1	614.096
901.611	672.651
906.12	399.835
910.626	171.539
915.129	92.4868
919.63	56.4175
924.129	68.8315
928.625	41.8389
933.118	3.68408
937.609	44.7393
942.097	11.98
946.582	161.382
951.065	285.027
955.546	191.914
960.023	328.053
964.499	563.464
968.971	933.168
973.441	819.181
977.909	485.517
982.374	440.203
986.836	750.318
991.295	1101.31
995.753	1671.35
1000.21	2335.82
1004.66	3320.91
1009.11	3091.74
1013.55	2085.01
1018	1592.47
1022.44	1679.34
1026.88	2254.7
1031.32	3250.05
1035.75	4576.67
1040.18	6281.3
1044.61	9885.29
1049.04	17994.7
1053.46	35609.4
1057.88	55908.5
1062.3	46202.9
1066.71	22742.3
1071.13	11027.7
1075.54	5655.69
1079.94	3053.31
1084.35	2042.57
1088.75	1397.31
1093.15	1187.4
1097.55	1323.82
1101.94	1811.37
1106.34	3082.3
1110.73	5358.18
1115.11	5887.77
1119.5	3151.01
1123.88	1460.78
1128.26	751.623
1132.63	428.406
1137.01	243.57
1141.38	50.8101
1145.75	3.72315
1150.12	56.8701
1154.48	18.0059
1158.84	104.8
1163.2	58.647
1167.55	42.5518
1171.91	30.2105
1176.26	17.0806
1180.61	16.2451
1184.95	11.9512
1189.29	13.1768
1193.63	56.8066
1197.97	23.4907
1202.31	74.3984
1206.64	131.8
1210.97	74.1553
1215.29	181.272
1219.62	152.383
1223.94	155.58
1228.26	153.768
1232.57	134.47
1236.89	220.864
1241.2	150.744
1245.51	250.909
1249.81	237.394
1254.12	280.158
1258.42	260.447
1262.72	270.19
1267.01	193.977
1271.3	340.838
1275.59	263.758
1279.88	272.795
1284.17	242.74
1288.45	225.617
1292.73	338.144
1297.01	226.971
1301.28	160.078
1305.55	233.83
1309.82	224.531
1314.09	138.841
1318.35	108.404
1322.61	226.474
1326.87	88.7441
1331.13	188.243
1335.38	94.7353
1339.63	123.015
1343.88	127.966
1348.12	52.3208
1352.37	155.97
1356.61	147.659
1360.85	104.494
1365.08	196.673
1369.31	111.516
1373.54	197.502
1377.77	144.641
1381.99	75.6543
1386.22	12.0781
1390.43	27.6186
1394.65	19.0654
1398.87	28.9145
1403.08	3.19727
1407.29	26.5552
1411.49	31.7607
1415.69	40.8286
1419.89	28.0669
1424.09	59.6416
1428.29	17.8823
1432.48	69.2725
1436.67	149.99
1440.86	119.036
1445.04	85.355
1449.23	117.266
1453.4	207.347
1457.58	132.157
1461.76	214.231
1465.93	279.309
1470.1	277.824
1474.26	302.908
1478.43	389.438
1482.59	350.641
1486.75	472.535
1490.9	512.227
1495.06	1124.28
1499.21	982.278
1503.35	483.809
1507.5	682.979
1511.64	676.74
1515.78	564.995
1519.92	471.875
1524.05	459.441
1528.18	423.173
1532.31	421.472
1536.44	246.487
1540.56	225.808
1544.69	176.49
1548.8	50.9375
1552.92	178.424
1557.03	149.762
1561.14	74.6758
1565.25	3.83545
1569.36	132.649
