Measurement: Raman, 514 nm, ccw, Raman Data Processed
Mineral: Fluorophlogopite
Rruff sample: R040075
Ideal chemistry: KMg_3_(Si_3_Al)O_10_F_2_
Locality: unknown
Source: University of Arizona Mineral Museum
Description: Green hexagonal tablet
Measured chemistry: (K_0.93_[box]_0.04_Na_0.03_)(Mg_0.66_Fe_0.30_Ti_0.02_)_3_(Si_0.75_Al_0.25_)_4_O_10_(F_0.90_(OH)_0.06_Cl_0.04_)
Pin_id: L00287
Orientation: Laser parallel to c [0 0 1]. Fiducial mark perpendicular to laser is parallel to -b* (0 -1 0)
Raman shift (cm-1)	intensity
165.611	0
169.767	120.488
173.921	351.117
178.073	512.415
182.222	815.562
186.37	1143.1
190.516	1182.83
194.66	1012.08
198.801	756.207
202.941	633.965
207.079	359.259
211.214	378.215
215.348	268.1
219.479	136.326
223.608	76.521
227.736	163.496
231.861	64.73
235.984	24.189
240.105	26.892
244.224	12.393
248.342	42.29
252.457	7.257
256.57	87.72
260.681	72.278
264.79	105.079
268.896	182.834
273.001	240.274
277.104	315.169
281.205	445.392
285.304	241.818
289.401	298.104
293.495	293.396
297.588	216.168
301.679	311.777
305.767	366.704
309.854	389.287
313.939	452.35
318.021	521.71
322.102	548.008
326.181	461.931
330.257	395.992
334.332	371.595
338.405	362.596
342.475	426.352
346.544	427.665
350.61	497.454
354.675	433.625
358.738	521.124
362.798	480.055
366.857	510.454
370.913	491.8
374.968	473.673
379.021	427.657
383.071	434.731
387.12	533.915
391.166	445.923
395.211	420.159
399.254	505.541
403.294	453.529
407.333	494.246
411.37	431.768
415.405	427.391
419.437	333.158
423.468	248.733
427.497	185.094
431.524	191.939
435.549	122.396
439.572	110.565
443.593	58.39
447.611	24.477
451.628	29.626
455.644	31.033
459.657	24.778
463.668	23.477
467.677	51.152
471.684	53.108
475.689	26.072
479.692	166.788
483.694	208.426
487.693	389.115
491.691	405.838
495.686	422.424
499.68	495.852
503.671	531.761
507.661	505.315
511.648	489.661
515.634	619.576
519.618	608.803
523.6	706.1
527.58	674.544
531.558	677.104
535.534	770.836
539.508	749.816
543.48	790.045
547.45	828.452
551.418	777.98
555.385	705.639
559.349	683.446
563.312	743.42
567.272	471.605
571.231	451.07
575.187	295.746
579.142	232.555
583.095	167.507
587.046	118.563
590.995	137.685
594.942	184.682
598.888	152.052
602.831	119.101
606.772	100.494
610.712	158.201
614.649	200.94
618.585	170.767
622.519	88.334
626.45	242.145
630.38	317.937
634.308	344.207
638.235	424.865
642.159	467.577
646.081	512.341
650.002	639.157
653.92	807.023
657.837	793.942
661.752	1008.38
665.664	1367.91
669.575	1659.46
673.484	2306.8
677.392	2733.11
681.297	3008.99
685.2	2565.27
689.102	2252.29
693.002	1830.88
696.899	1726.5
700.795	1730.53
704.689	1870.96
708.581	2131.44
712.472	2427.11
716.36	2611.61
720.247	2811.81
724.131	2641.99
728.014	2469.13
731.895	2187.24
735.774	2217.31
739.651	1740.34
743.526	1664.32
747.4	1611.26
751.271	1527.15
755.141	1595
759.009	1644.81
762.875	1698.58
766.739	1772.33
770.601	1680.17
774.462	1682.12
778.32	1524.14
782.177	1231.23
786.032	1076.32
789.885	870.381
793.736	679.382
797.585	499.32
801.433	318.192
805.279	224.997
809.122	140.733
812.964	70.399
816.804	5.018
820.643	60.447
824.479	39.671
828.314	80.387
832.147	1.15
835.977	101.605
839.807	3.207
843.634	51.267
847.459	57.175
851.283	54.558
855.105	13.666
858.925	1.723
862.743	96.656
866.559	68.492
870.373	115.234
874.186	100.9
877.997	188.493
881.806	280.015
885.613	204.466
889.419	272.851
893.222	288.17
897.024	315.426
900.824	321.624
904.622	347.758
908.418	390.848
912.213	446.878
916.005	492.856
919.796	483.799
923.585	614.684
927.373	596.508
931.158	540.273
934.942	545.976
938.724	519.619
942.504	551.202
946.282	534.728
950.059	514.197
953.833	518.613
957.606	359.976
961.377	378.286
965.147	410.487
968.914	420.003
972.68	489.835
976.444	302.389
980.206	398.293
983.967	419.271
987.725	363.151
991.482	464.684
995.237	489.664
998.99	441.031
1002.74	363.221
1006.49	251.313
1010.24	302.747
1013.99	202.433
1017.73	295.203
1021.47	396.413
1025.21	343.894
1028.95	358.428
1032.69	428.414
1036.42	474.647
1040.16	470.373
1043.89	460.371
1047.62	451.956
1051.35	488.778
1055.08	485.037
1058.8	571.05
1062.53	502.093
1066.25	534.301
1069.97	586.772
1073.68	597.986
1077.4	624.259
1081.11	564.573
1084.83	525.934
1088.54	552.348
1092.25	559.874
1095.95	609.418
1099.66	502.075
1103.36	510.836
1107.07	352.497
1110.77	265.193
1114.47	258.934
1118.16	162.734
1121.86	225.588
1125.55	132.603
1129.24	200.777
1132.93	88.115
1136.62	55.095
1140.31	13.722
1143.99	28.77
1147.68	64.584
1151.36	129.451
1155.04	89.308
1158.71	10.332
1162.39	1.426
1166.07	48.302
1169.74	18.202
1173.41	14.251
1177.08	31.413
1180.75	120.671
1184.41	15.857
1188.08	53.56
1191.74	19.502
1195.4	17.519
1199.06	2.963
1202.71	2.632
1206.37	66.044
1210.02	27.214
1213.68	91.501
1217.33	47.911
1220.98	75.658
1224.62	37.18
1228.27	52.411
1231.91	42.938
1235.55	123.6
1239.19	108.763
1242.83	201.04
1246.47	91.121
1250.1	118.404
1253.74	105.252
1257.37	56.194
1261	92.055
1264.63	124.022
1268.25	90.904
1271.88	99.639
1275.5	128.941
1279.12	74.166
1282.74	21.218
1286.36	9.217
1289.98	56.664
1293.59	32.16
1297.21	70.536
1300.82	11.161
1304.43	18.866
1308.04	56.386
1311.64	86.244
1315.25	84.526
1318.85	46.634
1322.45	73.63
1326.05	8.354
1329.65	98.603
1333.24	29.974
1336.84	63.159
1340.43	26.341
1344.03	88.074
1347.61	70.334
1351.2	67.673
1354.79	66.782
1358.37	42.411
1361.96	39.737
1365.54	68.935
1369.12	116.495
1372.69	66.975
1376.27	85.277
1379.85	25.843
1383.42	89.036
1386.99	118.896
1390.56	60.84
1394.13	307.629
1397.7	127.264
1401.26	77.754
1404.82	86.489
1408.38	187.098
1411.94	185.976
1415.5	182.803
1419.06	169.854
1422.62	134.727
1426.17	129.244
1429.72	47.822
1433.27	43.058
1436.82	42.326
1440.37	147.807
1443.91	150.621
1447.45	170.358
1450.99	162.618
1454.54	160.787
1458.07	120.062
1461.61	170.08
1465.15	193.253
1468.68	56.905
1472.21	90.291
1475.74	164.229
1479.27	67.826
1482.8	134.116
1486.32	72.667
1489.85	187.753
1493.37	216.791
1496.89	175.214
1500.41	99.042
1503.93	140.295
1507.44	116.242
1510.96	174.677
1514.47	125.782
1517.98	2.337
