Measurement: Raman, 514 nm, ccw, Raman Data Processed
Mineral: Fluorapatite
Rruff sample: R050274
Ideal chemistry: Ca_5_(PO_4_)_3_F
Locality: Minas Gerais, Brazil
Source: Marcus Origlieri
Description: Aggregate of blue crystal fragments separated by veins of quartz
Measured chemistry: Ca_5.00_((P_0.97_Si_0.02_S_0.01_)O_4_)_3_(F_0.90_Cl_0.10_)
Pin_id: L01565
Orientation: Laser parallel to -a* (-1 0 0). Fiducial mark perpendicular to laser is parallel to -c [0 0 -1]
Raman shift (cm-1)	intensity
118.134	0
121.827	2.64307
125.519	117.453
129.209	269.342
132.898	385.888
136.585	341.778
140.271	268.772
143.956	296.334
147.639	321.586
151.321	297.294
155.002	280.876
158.681	251.9
162.359	274.858
166.036	256.436
169.711	223.605
173.385	326.759
177.058	285.418
180.729	338.16
184.399	2.69238
188.067	85.3428
191.734	254.356
195.4	244.822
199.064	347.791
202.727	398.371
206.389	421.616
210.049	215.545
213.708	361.164
217.366	88.5908
221.022	223.781
224.677	193.398
228.33	275.688
231.982	264.377
235.633	276.443
239.282	242.269
242.93	116.855
246.577	160.652
250.222	140.747
253.866	210.221
257.508	184.84
261.149	321.482
264.789	249.132
268.427	395.719
272.064	383.464
275.7	381.237
279.334	330.176
282.967	231.726
286.598	347.908
290.229	349.705
293.857	157.017
297.485	215.151
301.111	271.068
304.735	151.741
308.358	201.144
311.98	222.538
315.601	7.65527
319.22	82.8125
322.837	9.07129
326.454	60.8252
330.068	27.6885
333.682	92.3916
337.294	31.3271
340.905	68.8633
344.514	16.9482
348.122	6.64551
351.729	62.6094
355.334	74.8594
358.938	121.688
362.54	238.71
366.141	50.9258
369.741	0.000977
373.339	110.043
376.936	124.837
380.531	75.1865
384.126	68.1445
387.718	79.0527
391.31	110.511
394.9	25.0527
398.488	219.174
402.075	239.435
405.661	165.67
409.245	364.224
412.828	537.02
416.41	755.496
419.99	1186.07
423.569	1497.46
427.146	1622.47
430.722	1643.39
434.297	1414.71
437.87	1042.43
441.442	947.544
445.012	842.041
448.581	776.919
452.149	548.18
455.715	472.301
459.28	546.31
462.843	383.017
466.405	187.19
469.965	208.81
473.525	252.439
477.082	230.438
480.639	198.883
484.194	29.8867
487.747	136.084
491.3	183.417
494.85	148.842
498.4	246.043
501.948	21.9805
505.494	233.458
509.039	124.679
512.583	71.876
516.125	25.1475
519.666	38.6338
523.206	68.2012
526.744	212.047
530.281	200.705
533.816	192.659
537.35	83.1494
540.882	124.616
544.413	239.053
547.943	71.1328
551.471	3.97168
554.998	243.298
558.523	136.652
562.047	278.525
565.57	343.094
569.091	442.727
572.611	711.879
576.129	1081.57
579.646	1158.32
583.162	1346.83
586.676	1260.9
590.188	1051.54
593.7	655.943
597.209	445.594
600.718	534.092
604.225	502.555
607.73	465.4
611.235	439.307
614.737	380.81
618.239	369.096
621.739	367.506
625.237	305.545
628.734	262.236
632.23	292.549
635.724	221.391
639.217	180.115
642.708	172.062
646.198	469.947
649.687	307.83
653.174	124.904
656.66	472.606
660.144	322.928
663.627	268.096
667.108	323.988
670.588	297.812
674.067	231.16
677.544	321.115
681.02	331.117
684.494	165.904
687.967	129.09
691.438	231.853
694.908	280.891
698.377	292.012
701.844	233.562
705.31	444.049
708.774	381.031
712.237	313.025
715.698	340.832
719.158	333.619
722.617	463.598
726.074	464.512
729.53	183.461
732.984	242.582
736.437	289.969
739.888	449.324
743.338	202.91
746.787	468.625
750.234	367.244
753.68	290.998
757.124	211.115
760.567	213.193
764.008	297.016
767.448	274.234
770.887	316.857
774.324	301.781
777.759	244.611
781.194	278.963
784.626	304.232
788.058	117.725
791.488	267.301
794.916	379.174
798.343	196.844
801.769	226.602
805.193	416.315
808.616	195.555
812.037	156.51
815.457	101.662
818.875	329.611
822.292	78.1172
825.707	37.8613
829.122	66.8242
832.534	191.699
835.945	219.912
839.355	199.066
842.763	95.2148
846.17	230.191
849.576	44.209
852.98	270.342
856.382	146.07
859.783	174.43
863.183	301.32
866.581	318.422
869.978	245.15
873.373	68.9766
876.767	35.8164
880.159	1.2793
883.55	96.5957
886.94	149.242
890.328	51.7422
893.714	97.6133
897.1	41.6543
900.483	58.4082
903.866	0.642578
907.246	74.3008
910.626	176.924
914.004	105.924
917.38	231.279
920.755	116.293
924.129	5.34375
927.501	59.002
930.872	369.416
934.241	130.656
937.609	144.07
940.975	522.955
944.34	594.188
947.703	1200.25
951.065	2660.59
954.426	6041.71
957.785	11258
961.142	12617.6
964.499	9149.89
967.853	4584.91
971.207	2335.23
974.558	805.924
977.909	392.607
981.258	473.682
984.605	234.902
987.951	2.20312
991.295	95.7734
994.639	115.769
997.98	74.0742
1001.32	432.191
1004.66	239.461
1008	315.231
1011.33	144.68
1014.67	33.1562
1018	261.551
1021.33	341.941
1024.66	612.836
1027.99	733.918
1031.32	748.238
1034.64	823.703
1037.97	1034.98
1041.29	939.918
1044.61	1138.66
1047.93	1030.76
1051.25	1121.18
1054.56	735.027
1057.88	819.305
1061.19	468.098
1064.51	212.394
1067.82	212.277
1071.13	203.055
1074.43	456.016
1077.74	409.293
1081.05	255.285
1084.35	342.832
1087.65	226.328
1090.95	125.438
1094.25	315.039
1097.55	76.8828
1100.85	487.488
1104.14	241.477
1107.43	17.4805
1110.73	86.7148
1114.02	298.992
1117.31	242.137
1120.59	607.848
1123.88	370.711
1127.16	477.731
1130.45	86.0898
1133.73	298.523
1137.01	309.457
1140.29	339.059
1143.57	377.805
1146.84	3.01562
1150.12	305.602
1153.39	0.6875
