Measurement: Raman, 514 nm, ccw, Raman Data Processed
Mineral: Fluorapatite
Rruff sample: R050192
Ideal chemistry: Ca_5_(PO_4_)_3_F
Locality: Fulford, Eagle County, Colorado, USA
Source: Dave Bunk Minerals
Description: Pale green hexagonal prism
Measured chemistry: Ca_5.00_(P_1.00_O_4_)_3_(F_0.86_Cl_0.13_)
Pin_id: L00262
Orientation: Laser parallel to c* (0 0 1). Fiducial mark perpendicular to laser is parallel to b [0 1 0]
Raman shift (cm-1)	intensity
131.668	0
135.356	99.0327
139.043	128.451
142.728	115.142
146.412	86.9783
150.094	132.348
153.775	95.6272
157.455	98.3809
161.134	66.5833
164.811	10.8313
168.486	65.9927
172.161	16.6623
175.834	5.26929
179.505	25.6289
183.176	59.4001
186.845	62.1633
190.512	23.7544
194.178	36.0261
197.843	74.9917
201.507	12.6792
205.169	25.8997
208.829	6.93237
212.489	34.7065
216.147	8.46851
219.803	78.9675
223.459	74.9282
227.112	34.9956
230.765	65.1367
234.416	99.188
238.066	72.6245
241.714	144.252
245.361	122.224
249.007	110.813
252.651	88.6594
256.294	138.833
259.936	254.024
263.576	331.423
267.215	246.704
270.852	229.505
274.488	155.346
278.123	190.966
281.756	139.909
285.388	136.374
289.019	85.0122
292.648	173.108
296.276	144.675
299.902	122.549
303.527	113.867
307.151	83.7981
310.773	47.9246
314.394	70.7607
318.013	120.57
321.631	54.9636
325.248	117.641
328.864	110.701
332.478	64.1638
336.09	136.922
339.701	30.6802
343.311	44.029
346.92	84.4204
350.527	50.7529
354.132	1.21143
357.737	91.4062
361.34	25.4426
364.941	58.0757
368.541	44.5183
372.14	5.23975
375.737	92.6619
379.333	61.3767
382.928	76.9336
386.521	85.4102
390.113	29.3311
393.703	26.6533
397.292	138.078
400.88	22.0083
404.466	157.364
408.051	166.424
411.634	35.6895
415.216	21.8442
418.797	214.372
422.376	211.624
425.954	155.212
429.53	279.796
433.105	415.231
436.679	480.586
440.251	617.576
443.822	767.115
447.391	652.261
450.96	444.045
454.526	432.841
458.091	310.701
461.655	189.129
465.218	99.6572
468.779	98.145
472.338	124.573
475.897	148.497
479.454	147.87
483.009	92.666
486.563	62.2451
490.116	86.1768
493.667	26.8828
497.217	107.78
500.765	102.899
504.312	22.6636
507.858	11.8159
511.402	18.6099
514.945	2.26758
518.486	46.019
522.026	58.9839
525.565	68.7881
529.102	37.6509
532.638	57.8506
536.172	34.4624
539.705	67.5396
543.236	95.0513
546.766	69.8379
550.295	169.841
553.822	68.9663
557.348	82.9639
560.873	154.658
564.396	43.9541
567.917	301.724
571.438	445.302
574.957	671.985
578.474	810.685
581.99	661.936
585.504	385.152
589.018	337.726
592.529	237.61
596.04	202.132
599.549	327.506
603.056	536.139
606.562	567.532
610.067	553.186
613.57	353.5
617.072	340.751
620.572	207.736
624.071	135.811
627.569	190.749
631.065	121.474
634.56	75.3481
638.053	154.604
641.545	180.949
645.035	197.002
648.524	154.258
652.012	216.715
655.498	266.803
658.983	227.587
662.466	214.125
665.948	41.0039
669.428	198.635
672.907	74.8574
676.385	31.1523
679.861	0.774414
683.336	173.883
686.809	63.9648
690.281	13.2783
693.752	40.8291
697.221	119.518
700.688	15.9404
704.155	29.5459
707.619	75.5723
711.083	104.91
714.545	66.6025
718.005	17.8613
721.464	72.5986
724.922	19.6494
728.378	49.3965
731.833	89.3174
735.286	55.5352
738.738	95.1123
742.189	10.7217
745.638	142.555
749.085	15.4521
752.531	75.5332
755.976	143.393
759.419	189.116
762.861	82.8135
766.302	4.50977
769.741	23.1123
773.178	9.82617
776.614	91.7246
780.049	10.5596
783.482	176.538
786.914	154.845
790.345	168.153
793.773	145.822
797.201	100.918
800.627	212.874
804.052	155.958
807.475	188.298
810.897	2.17481
814.317	145.92
817.736	145.014
821.153	146.503
824.569	174.083
827.984	102.709
831.397	93.1016
834.808	56.9668
838.219	183.959
841.627	211.385
845.035	105.894
848.441	4.09082
851.845	58.9678
855.248	192.299
858.65	127.777
862.05	62.6211
865.448	166.433
868.846	74.7783
872.241	100.439
875.636	109.864
879.029	72.2383
882.42	16.1826
885.81	102.341
889.199	109.616
892.586	97.6299
895.971	117.871
899.356	37.583
902.738	44.9951
906.12	216.075
909.5	113.443
912.878	17.3867
916.255	161.92
919.63	51.7402
923.004	24.4736
926.377	82.4834
929.748	99.3174
933.118	139.692
936.486	324.76
939.853	338.078
943.218	501.565
946.582	789.146
949.945	1205.17
953.306	2623.01
956.665	6693.19
960.023	11789.6
963.38	11951.7
966.735	7077.31
970.089	3260.75
973.441	1682.59
976.792	679.215
980.141	442.037
983.489	108.221
986.836	126.564
990.181	188.592
993.524	145.379
996.866	174.357
1000.21	107.981
1003.55	309.418
1006.88	164.853
1010.22	201.941
1013.55	263.453
1016.89	176.043
1020.22	399.264
1023.55	383.613
1026.88	467.978
1030.21	348.856
1033.53	397.713
1036.86	262.75
1040.18	58.1152
1043.5	322.428
1046.82	259.574
1050.14	117.988
1053.46	382.978
1056.78	414.981
1060.09	406.498
1063.4	266.32
1066.71	212.746
1070.02	173.215
1073.33	373.42
1076.64	337.045
1079.94	248.693
1083.25	199.289
1086.55	80.6992
1089.85	130.799
1093.15	79.1543
1096.45	137.699
1099.75	59.416
1103.04	139.758
1106.34	41.6113
1109.63	33.9492
1112.92	191.883
1116.21	63.6641
1119.5	258.963
1122.78	199.281
1126.07	194.824
1129.35	232.617
1132.63	50.5
1135.92	252.404
1139.19	154.93
1142.47	161
1145.75	165
1149.02	215.568
1152.3	45.0332
1155.57	22.2969
1158.84	142.565
1162.11	178.617
1165.38	127.098
1168.64	124.791
1171.91	295.109
1175.17	128.408
1178.43	273.836
1181.69	372.863
1184.95	298.164
1188.21	118.359
1191.46	166.815
1194.72	64.3496
1197.97	163.488
1201.22	192.787
1204.47	215.527
1207.72	94.9297
1210.97	358.699
1214.21	7.92188
1217.46	487.34
1220.7	279.059
1223.94	375.643
1227.18	203.824
1230.42	247.211
1233.65	374.566
1236.89	331.949
1240.12	146.018
1243.35	384.703
1246.59	297.508
1249.81	320.219
1253.04	181.879
1256.27	25.375
1259.49	168.391
1262.72	449.555
1265.94	509.848
1269.16	230.039
1272.38	200.242
1275.59	209.598
1278.81	263.961
1282.03	246.375
1285.24	548.914
1288.45	452.023
