Measurement: Raman, 514 nm, ccw, Raman Data Processed
Mineral: Fluorite
Rruff sample: R050115
Ideal chemistry: CaF_2_
Locality: Isthak Valley Iskardu, N.A. Gilgit, Pakistan
Source: Syed Shah
Description: Colorless fragment
Measured chemistry: CaF_2_
Pin_id: L00441
Orientation: Laser parallel to -a* (-1 0 0). Fiducial mark perpendicular to laser is parallel to b [0 1 0]
Raman shift (cm-1)	intensity
97.628	0
101.812	3.218
105.994	129.604
110.174	132.016
114.351	184.284
118.527	159.094
122.701	148.044
126.873	189.569
131.042	331.557
135.21	805.447
139.376	1861.07
143.539	2920.27
147.701	2817.55
151.861	999.715
156.018	372.412
160.174	292.343
164.327	433.608
168.479	182.131
172.628	51.907
176.776	3.95
180.922	5.386
185.065	1.484
189.207	40.9
193.346	25.008
197.484	16.835
201.619	15.466
205.753	63.03
209.884	111.595
214.014	227.274
218.141	559.104
222.267	1174.9
226.391	1199.56
230.512	990.097
234.632	1047.54
238.749	1463.23
242.865	1619.16
246.979	1049.31
251.09	936.634
255.2	862.735
259.308	1503.51
263.414	1714.16
267.517	1017.2
271.619	861.333
275.719	804.199
279.817	906.459
283.913	982.697
288.007	949.629
292.099	897.167
296.189	795.933
300.277	751.702
304.363	731.167
308.447	659.777
312.529	720.076
316.609	1035.34
320.687	1269.06
324.764	1062.27
328.838	871.847
332.91	764.688
336.981	719.458
341.049	797.018
345.116	802.691
349.18	844.502
353.243	803.697
357.304	766.067
361.362	788.1
365.419	752.217
369.474	689.127
373.527	572.206
377.578	478.578
381.627	429.571
385.674	410.796
389.719	302.735
393.762	230.936
397.804	210.871
401.843	148.515
405.881	28.574
409.916	22.629
413.95	40.803
417.981	64.693
422.011	28.318
426.039	96.001
430.065	14.112
434.089	5.214
438.111	64.451
442.131	30.121
446.149	118.636
450.166	109.484
454.18	46.985
458.193	53.749
462.203	93.297
466.212	157.605
470.219	193.755
474.224	204.437
478.227	272.663
482.228	361.203
486.227	496.631
490.224	607.934
494.22	643.392
498.213	571.902
502.205	524.227
506.194	361.776
510.182	327.052
514.168	406.911
518.152	392.388
522.134	284.751
526.114	251.455
530.093	207.699
534.069	205.453
538.044	149.702
542.017	236.428
545.987	147.64
549.956	192.317
553.923	261.455
557.889	204.056
561.852	144.112
565.813	177.492
569.773	266.265
573.731	292.463
577.686	152.67
581.64	196.631
585.593	252.749
589.543	284.671
593.491	296.835
597.438	190.391
601.382	109.263
605.325	205.043
609.266	103.763
613.205	83.331
617.142	67.568
621.078	112.141
625.011	185.821
628.943	154.981
632.872	10.771
636.8	148.828
640.726	118.478
644.651	24.644
648.573	2.947
652.494	64.417
656.412	67.877
660.329	174.452
664.244	727.405
668.157	938.294
672.069	567.415
675.978	369.84
679.886	559.302
683.792	1042.08
687.696	1707.23
691.598	1798.26
695.498	1164.43
699.397	781.143
703.293	885.12
707.188	883.165
711.081	842.271
714.972	625.328
718.862	484.875
722.749	510.598
726.635	385.746
730.519	216.678
734.401	144.325
738.281	48.753
742.16	80.781
746.036	1.554
749.911	30.159
753.784	32.105
757.655	210.951
761.525	433.63
765.392	229.325
769.258	337.104
773.122	348.804
776.984	631.616
780.844	807.978
784.703	969.667
788.56	1133.9
792.415	1301.33
796.268	1518.2
800.119	1974.34
803.969	2314.62
807.816	2447.74
811.662	2336.51
815.506	2107.68
819.349	2146.35
823.189	2478.89
827.028	3132.18
830.865	4333.57
834.7	6930.92
838.534	4517.09
842.365	3937.3
846.195	4854.27
850.023	6404.55
853.85	6990.56
857.674	7633.05
861.497	9555.13
865.318	12146.8
869.137	15278.1
872.955	17179
876.77	16759.6
880.584	14919.5
884.396	12747.2
888.207	10652.6
892.015	8986.14
895.822	7437.12
899.627	6242.79
903.43	5504.52
907.232	8284.27
911.032	25421.1
914.83	10849.4
918.626	8594.74
922.42	14681.1
926.213	20138.5
930.004	14316.9
933.793	10145.3
937.581	16093.8
941.366	8182.47
945.15	21671.5
948.932	34341.1
952.713	7421.15
956.491	2571.5
960.268	2152.16
964.044	583.087
967.817	14.224
971.589	265.062
975.359	445.661
979.127	438.003
982.893	222.072
986.658	187.45
990.421	6.194
994.183	29.44
997.942	222.788
1001.7	636.474
1005.46	770.54
1009.21	1175.01
1012.96	1439.92
1016.71	1555.3
1020.46	1701.19
1024.21	1807.58
1027.96	1834.51
1031.7	2182
1035.44	2520.09
1039.18	2768.84
1042.92	2948.28
1046.66	2858.57
1050.39	3129.94
1054.13	3042.51
1057.86	3236.13
1061.59	3240.58
1065.32	3035.81
1069.05	2771.86
1072.77	2468.78
1076.49	2216.55
1080.22	2345.17
1083.94	2274.68
1087.65	2465.08
1091.37	2496.4
1095.09	2228.65
1098.8	2271.85
1102.51	2396.01
1106.22	2461.15
1109.93	2287.28
1113.63	2704.41
1117.34	2715.94
1121.04	2447.2
1124.74	2074.64
1128.44	1980.42
1132.14	2040.69
1135.84	2325.62
1139.53	2381.02
1143.22	2364.08
1146.91	2151.59
1150.61	2231.79
1154.29	2033.39
1157.98	1666.39
1161.66	1710.82
1165.35	1669.35
1169.03	1917.31
1172.71	1746.11
1176.38	1526.39
1180.06	1038.17
1183.73	751.456
1187.41	526.235
1191.08	482.521
1194.75	420.318
1198.41	559.682
1202.08	590.675
1205.74	543.215
1209.41	487.288
1213.07	262.955
1216.73	260.212
1220.38	209.032
1224.04	199.409
1227.69	451.341
1231.35	824.821
1235	659.854
1238.65	646.422
1242.3	444.424
1245.94	463.865
1249.59	594.766
1253.23	727.142
1256.87	991.005
1260.51	1286.36
1264.15	1113.25
1267.78	1085.27
1271.42	916.654
1275.05	782.514
1278.68	771.569
1282.31	450.131
1285.94	480.635
1289.56	712.964
1293.19	636.894
1296.81	522.369
1300.43	379.394
1304.05	167.967
1307.67	191.907
1311.29	70.266
1314.9	22.936
1318.52	377.724
1322.13	844.118
1325.74	1021.98
1329.34	1019.92
1332.95	1208.64
1336.56	1148.84
1340.16	1230.52
1343.76	1474.49
1347.36	1781.4
1350.96	2877.4
1354.56	4474.76
1358.15	9239.38
1361.74	13952
1365.34	10692.1
1368.93	4854.02
1372.52	2536.32
1376.1	2519.7
1379.69	2854.43
1383.27	2352.1
1386.85	2289.66
1390.43	3219.57
1394.01	6761.83
1397.59	10036.3
1401.17	4661.58
1404.74	1708.42
1408.31	217.21
1411.88	222.089
1415.45	419.513
1419.02	339.592
1422.59	6.456
1426.15	1744.24
1429.71	2203.83
1433.28	895.161
1436.84	417.808
1440.39	942.026
1443.95	1787.64
1447.5	2094.87
1451.06	1573.83
1454.61	554.87
1458.16	298.757
1461.71	785.433
1465.26	1865.01
1468.8	1376.47
1472.34	741.44
1475.89	575.579
1479.43	491.091
1482.97	437.238
1486.5	393.576
1490.04	399.338
1493.57	132.975
1497.11	27.743
1500.64	88.703
1504.17	205.885
1507.69	341.358
1511.22	350.164
1514.74	463.909
1518.27	447.88
1521.79	0
