Measurement: Raman, 514 nm, ccw, Raman Data Processed
Mineral: Fluorapophyllite-(K)
Rruff sample: R060554
Ideal chemistry: KCa_4_Si_8_O_20_F8H_2_O
Locality: unknown
Source: Gemological Institute of America
Description: Colorless polished fragment
Measured chemistry: (K_0.88_Na_0.12_)Ca_4.00_Si_8.00_O_20_F_1.00_Â·8H2O
Pin_id: L00812
Orientation: Laser parallel to -a* (-1 0 0). Fiducial mark perpendicular to laser is parallel to -c [0 0 -1]
Raman shift (cm-1)	intensity
53.91	0
58.864	213.358
63.817	3.22284
68.767	74.8979
73.714	169.566
78.659	1164.66
83.602	3552.45
88.542	5848.35
93.48	7024.29
98.416	10614.6
103.349	24209.1
108.28	31654.2
113.208	9662.46
118.134	5846.26
123.058	6949.4
127.979	7652.92
132.898	8897.64
137.814	17439.7
142.728	12697.5
147.639	7030.08
152.549	7255.32
157.455	9423.87
162.359	14645.2
167.261	14141.2
172.161	7451.11
177.058	5263.87
181.952	6213.52
186.845	7262.03
191.734	5726.45
196.622	7058.79
201.507	10958.6
206.389	14170.2
211.269	14078
216.147	9190.55
221.022	7057.99
225.895	7263.11
230.765	6456.89
235.633	3423.7
240.498	1251.24
245.361	191.338
250.222	155.948
255.08	144.887
259.936	1011.68
264.789	1913.67
269.64	2266.44
274.488	1316.98
279.334	744.259
284.178	1027.27
289.019	2108.83
293.857	3911.76
298.693	5079.93
303.527	4709.06
308.358	5402.53
313.187	6039.35
318.013	6959.56
322.837	7514.15
327.659	5842.13
332.478	5141.49
337.294	5603.24
342.108	4495.37
346.92	2088.9
351.729	849.347
356.535	208.917
361.34	501.888
366.141	506.217
370.94	419.938
375.737	397.468
380.531	260.506
385.323	318.336
390.113	1542.09
394.9	2894.76
399.684	3431.1
404.466	2721.96
409.245	1742.39
414.022	1776.41
418.797	3144.01
423.569	7576.35
428.338	16751.9
433.105	18898.7
437.87	8257.99
442.632	3181.54
447.391	1255.55
452.149	691.983
456.903	1031.9
461.655	1767.32
466.405	1682.03
471.152	2776.84
475.897	6558.37
480.639	13991.4
485.378	17897.9
490.116	9898.7
494.85	5111.84
499.582	3761.28
504.312	3215.09
509.039	2423.97
513.764	2148.81
518.486	2870.38
523.206	4157.15
527.923	6566
532.638	10087.3
537.35	12286.1
542.059	12268.7
546.766	10973.6
551.471	10118
556.173	10304.6
560.873	11417
565.57	14453.9
570.264	19708.9
574.957	27958.9
579.646	37870.1
584.333	39785
589.018	29684.4
593.7	17936.8
598.379	10792.9
603.056	6903.33
607.73	4654.43
612.402	3483.57
617.072	2765.96
621.739	2372
626.403	2123.85
631.065	2098.55
635.724	2138.94
640.381	2326.34
645.035	2676.32
649.687	3211.21
654.336	4105.02
658.983	4920.39
663.627	5028.09
668.268	4068.25
672.907	2798.03
677.544	1673.4
682.178	1015.52
686.809	569.542
691.438	337.118
696.065	45.5098
700.688	28.8086
705.31	96.375
709.929	156.106
714.545	177.291
719.158	120.937
723.77	119.042
728.378	90.9363
732.984	179.544
737.588	73.0693
742.189	77.5828
746.787	44.6414
751.383	107.564
755.976	257.052
760.567	558.335
765.155	814.372
769.741	653.348
774.324	567.436
778.904	638.214
783.482	1008.6
788.058	1605.7
792.631	1840.35
797.201	1087.61
801.769	591.596
806.334	390.324
810.897	358.766
815.457	374.9
820.014	373.735
824.569	471.296
829.122	583.618
833.671	583.32
838.219	707.903
842.763	660.841
847.306	644.229
851.845	544.064
856.382	468.548
860.917	474.009
865.448	358.542
869.978	141.592
874.505	141.273
879.029	99.4477
883.55	24.1914
888.069	20.939
892.586	7.42285
897.1	26.5889
901.611	54.4409
906.12	91.8818
910.626	107.936
915.129	30.6182
919.63	67.8769
924.129	4.81641
928.625	40.5679
933.118	141.216
937.609	151.516
942.097	244.166
946.582	413.772
951.065	580.45
955.546	759.818
960.023	669.85
964.499	594.232
968.971	1090.62
973.441	1399.15
977.909	1265.24
982.374	992.793
986.836	976.532
991.295	988.178
995.753	957.835
1000.21	1276.64
1004.66	1860.49
1009.11	2089.63
1013.55	1342.98
1018	977.294
1022.44	1120.92
1026.88	1296.24
1031.32	1812.73
1035.75	2860.86
1040.18	4200.31
1044.61	7257.41
1049.04	13707.4
1053.46	30274.4
1057.88	55397.4
1062.3	54015.6
1066.71	30211.3
1071.13	15562.4
1075.54	8983.66
1079.94	6055.46
1084.35	4933.17
1088.75	4448.7
1093.15	3203.28
1097.55	2062.26
1101.94	1395.07
1106.34	1212.09
1110.73	1266.09
1115.11	1249.45
1119.5	788.162
1123.88	580.336
1128.26	368.778
1132.63	320.252
1137.01	260.062
1141.38	165.095
1145.75	169.205
1150.12	69.3862
1154.48	124.688
1158.84	35.1279
1163.2	40.689
1167.55	51.375
1171.91	37.2559
1176.26	20.0186
1180.61	49.0303
1184.95	52.8496
1189.29	51.269
1193.63	46.1982
1197.97	25.5151
1202.31	17.9067
1206.64	5.14844
1210.97	19.667
1215.29	8.30273
1219.62	53.1572
1223.94	49.3037
1228.26	5.40332
1232.57	54.1768
1236.89	48.6636
1241.2	49.0654
1245.51	91.9238
1249.81	33.3086
1254.12	141.987
1258.42	48.4019
1262.72	101.462
1267.01	123.926
1271.3	90.0337
1275.59	82.3296
1279.88	158.666
1284.17	117.96
1288.45	194.392
1292.73	161.044
1297.01	97.5005
1301.28	106.628
1305.55	89.0708
1309.82	238.801
1314.09	179.771
1318.35	164.923
1322.61	100.597
1326.87	74.8794
1331.13	60.7129
1335.38	80.6294
1339.63	54.7773
1343.88	40.3506
1348.12	28.6636
1352.37	25.1582
1356.61	113.945
1360.85	24.668
1365.08	84.1724
1369.31	41.1431
1373.54	13.7251
1377.77	88.7974
1381.99	4.09375
1386.22	52.9858
1390.43	61.8193
1394.65	84.4048
1398.87	67.2446
1403.08	44.8687
1407.29	63.3804
1411.49	34.5898
1415.69	67.4966
1419.89	57.1313
1424.09	29.4014
1428.29	75.4038
1432.48	85.3452
1436.67	59.1128
1440.86	175.157
1445.04	208.693
1449.23	241.605
1453.4	228.409
1457.58	303.065
1461.76	152.438
1465.93	288.293
1470.1	109.809
1474.26	124.55
1478.43	239.975
1482.59	162.669
1486.75	137.971
1490.9	121.804
1495.06	20.0786
1499.21	136.507
1503.35	118.014
1507.5	92.772
1511.64	195.394
1515.78	157.411
1519.92	184.788
1524.05	188.028
1528.18	106.623
1532.31	168.202
1536.44	102.207
1540.56	140.998
1544.69	127.522
1548.8	171.602
1552.92	69.6567
1557.03	92.2188
1561.14	25.6773
1565.25	147.311
1569.36	87.0464
