Measurement: Raman, 514 nm, ccw, Raman Data Processed
Mineral: Fluorophlogopite
Rruff sample: R040039
Ideal chemistry: KMg_3_(Si_3_Al)O_10_F_2_
Locality: Franklin, Sussex County, New Jersey, USA
Source: University of Arizona Mineral Museum
Description: Brown hexagonal sheets
Measured chemistry: (K_0.92_Na_0.06_[box]_0.02_)_Σ=1_(Mg_2.94_Fe_0.04_Ti_0.02_)_Σ=3_(Si_2.98_Al_1.02_)O_10_(F_1.24_(OH)_0.76_)_Σ=2_; OH estimated by charge balance
Pin_id: M00049
Orientation: Laser parallel to a [1 0 0]. Fiducial mark perpendicular to laser is parallel to b* (0 1 0)
Raman shift (cm-1)	intensity
91.398	0
95.582	1695.73
99.764	4380.27
103.943	6400.95
108.121	4758.27
112.297	2922.59
116.47	1687.31
120.642	1195.82
124.811	862.958
128.979	645.872
133.144	362.416
137.307	365.99
141.469	186.433
145.628	165.547
149.786	9.23
153.941	64.267
158.094	315.918
162.245	181.073
166.395	71.055
170.542	358.489
174.687	345.07
178.83	925.965
182.972	1683.92
187.111	3485.5
191.248	8338.52
195.383	16562.5
199.516	15907.1
203.647	7502.02
207.777	3217.63
211.904	1752.35
216.029	1167.34
220.152	492.359
224.273	37.386
228.392	322.512
232.509	72.224
236.625	13.177
240.738	58.789
244.849	94.188
248.958	240.831
253.065	86.698
257.171	144.167
261.274	245.449
265.375	54.648
269.475	424.624
273.572	2943.81
277.667	7172.29
281.76	6289.99
285.852	3566.6
289.941	2291.25
294.029	1522.84
298.114	1393.8
302.198	1904.39
306.279	2715.38
310.359	4018.64
314.436	5370.96
318.512	6390.8
322.586	6942.56
326.657	5785.87
330.727	4046.16
334.795	3040.95
338.861	2155.66
342.924	1220.11
346.986	994.352
351.046	1138.48
355.104	1062.49
359.16	1101.35
363.214	1335.85
367.267	1571.28
371.317	2259.38
375.365	1674.9
379.411	1071.07
383.456	852.889
387.498	716.01
391.539	583.447
395.577	473.529
399.614	625.387
403.649	692.242
407.681	324.203
411.712	168.484
415.741	188.67
419.768	224.057
423.793	42.082
427.816	67.533
431.837	342.926
435.857	330.244
439.874	427.266
443.889	580.984
447.903	769.926
451.914	1208.12
455.924	915.822
459.932	453.207
463.938	250.271
467.941	147.012
471.943	353.439
475.944	110.422
479.942	84.943
483.938	260.129
487.932	245.27
491.925	499.984
495.915	594.311
499.904	638.375
503.891	602.188
507.876	765.74
511.859	469.043
515.84	212.094
519.819	434.848
523.796	547.285
527.771	119.473
531.745	21.359
535.716	122.947
539.686	474.285
543.654	305.498
547.62	166.445
551.584	197.332
555.546	278.188
559.506	398.779
563.465	469.295
567.421	30.006
571.376	240.666
575.329	311.865
579.279	292.877
583.228	329.43
587.175	98.037
591.121	177.646
595.064	276.609
599.006	315.131
602.945	293.273
606.883	361.154
610.819	438.82
614.753	836.275
618.685	793.533
622.615	930.463
626.544	1716.16
630.471	2236.85
634.395	2674.32
638.318	3885.47
642.239	3050.92
646.158	3464.65
650.076	3625.32
653.991	4140.22
657.905	4555.75
661.817	5141.14
665.726	6626.37
669.635	9051.53
673.541	12026.9
677.445	16747.3
681.348	21547.4
685.248	21869.1
689.147	18825.1
693.044	13819.6
696.94	8908.93
700.833	5569.2
704.724	4039.28
708.614	3360.07
712.502	2564.49
716.388	1655.52
720.272	1428.77
724.155	1507.66
728.035	1686.18
731.914	1454.56
735.791	796.797
739.666	829.93
743.539	1038.19
747.41	1321.55
751.28	917.176
755.148	731.764
759.014	649.164
762.878	731.176
766.74	543.17
770.601	895.24
774.46	1067.42
778.316	521.793
782.172	553.664
786.025	965.477
789.876	817.33
793.726	459.336
797.574	651.377
801.42	463.387
805.264	485.553
809.107	327.664
812.947	739.721
816.786	321.727
820.623	144.059
824.459	55.965
828.292	787.812
832.124	419.662
835.954	411.426
839.782	116.848
843.608	15.291
847.433	63.609
851.255	197.754
855.076	608.859
858.895	339.945
862.713	99.293
866.528	51.184
870.342	81.729
874.154	302.309
877.965	232.393
881.773	232.447
885.58	142.346
889.385	192.201
893.188	92.252
896.989	662.574
900.789	543.059
904.587	453.748
908.383	534.637
912.177	65.637
915.97	276.701
919.76	577.768
923.55	758.832
927.337	489.885
931.122	160.873
934.906	301.812
938.688	662.73
942.468	633.615
946.247	854.461
950.023	715.258
953.798	186
957.572	456.715
961.343	1587.32
965.113	497.928
968.881	828.451
972.647	888.865
976.411	468.926
980.174	399.551
983.935	729.848
987.694	1099.3
991.452	1332.13
995.207	1315.43
998.961	1162.06
1002.71	709.725
1006.46	976.979
1010.21	1217.34
1013.96	1724.4
1017.71	1508.19
1021.45	1319.64
1025.19	1300.21
1028.93	1720.33
1032.67	2176.02
1036.41	2362.41
1040.14	2433.92
1043.87	1835.35
1047.61	1634.29
1051.34	1496.98
1055.06	1410.45
1058.79	1452.28
1062.52	1100.81
1066.24	2041.68
1069.96	1792.4
1073.68	1302.77
1077.4	1761.99
1081.11	2118.77
1084.83	3667.46
1088.54	4205.69
1092.25	3863.2
1095.96	3780.11
1099.67	2786.61
1103.37	2612.88
1107.08	2212.19
1110.78	1917.84
1114.48	1722.3
1118.18	1796.46
1121.88	1488.36
1125.57	830.715
1129.27	233.215
1132.96	44.234
1136.65	168.789
1140.34	132.07
1144.02	585.723
1147.71	569.715
1151.39	453.996
1155.07	328.5
1158.76	212.891
1162.43	87.316
1166.11	151.637
1169.79	476.109
1173.46	960.938
1177.13	766.254
1180.8	482.129
1184.47	408.742
1188.14	336.078
1191.8	4.535
1195.46	213.895
1199.13	793.043
1202.79	1211.83
1206.45	917.789
1210.1	877.219
1213.76	864.875
1217.41	367.398
1221.06	240.438
1224.71	325.605
1228.36	961.566
1232.01	297.34
1235.65	889.375
1239.3	948.293
1242.94	502.223
1246.58	39.059
1250.22	53.355
1253.85	167.891
1257.49	312.293
1261.12	788.789
