Measurement: Raman, 514 nm, ccw, Raman Data Processed
Mineral: Fluorapatite
Rruff sample: R050617
Ideal chemistry: Ca_5_(PO_4_)_3_F
Locality: Santa Cruz, Sonora, Mexico
Source: University of Arizona Mineral Museum
Description: Tan colored hexagonal prism
Measured chemistry: Ca_5.00_(P_1.00_O_4_)_3_(F_0.99_Cl_0.01_)
Pin_id: L00921
Orientation: Laser parallel to -a* (-1 0 0). Fiducial mark perpendicular to laser is parallel to c [0 0 1]
Raman shift (cm-1)	intensity
105.815	0
110.744	4.80151
115.671	70.73
120.596	187.77
125.519	509.561
130.439	1387.35
135.356	3363.43
140.271	5229.91
145.184	2467.78
150.094	1011.48
155.002	567.909
159.908	274.079
164.811	128.2
169.711	78.4253
174.61	52.2969
179.505	113.315
184.399	76.1831
189.29	99.5054
194.178	106.515
199.064	29.3818
203.948	86.4631
208.829	16.5686
213.708	8.08301
218.585	9.0708
223.459	27.0981
228.33	46.8206
233.199	157.969
238.066	39.2058
242.93	52.0915
247.792	5.78442
252.651	67.665
257.508	100.255
262.363	190.013
267.215	247.492
272.064	355.125
276.912	334.343
281.756	238.026
286.598	225.354
291.438	104.793
296.276	72.5727
301.111	79.9688
305.943	162.02
310.773	87.8496
315.601	118.05
320.426	1.59619
325.248	9.06104
330.068	6.76807
334.886	57.5737
339.701	33.918
344.514	4.26953
349.324	28.7451
354.132	50.8223
358.938	76.8965
363.741	142.453
368.541	27.3169
373.339	61.4385
378.135	198.161
382.928	179.057
387.718	276.324
392.506	436.531
397.292	279.262
402.075	236.519
406.856	270.368
411.634	201.254
416.41	276.772
421.183	402.25
425.954	764.343
430.722	799.505
435.488	579.918
440.251	585.949
445.012	738.16
449.77	531.21
454.526	312.293
459.28	183.676
464.03	159.782
468.779	172.676
473.525	74.1064
478.268	76.2339
483.009	29.6118
487.747	21.687
492.483	64.6001
497.217	21.4834
501.948	50.5303
506.676	100.017
511.402	135.999
516.125	228.682
520.846	16.2134
525.565	100.884
530.281	90.2769
534.994	45.9902
539.705	13.4893
544.413	14.498
549.119	5.97705
553.822	94.8882
558.523	1.58691
563.222	8.60791
567.917	102.918
572.611	328.811
577.302	708.55
581.99	783.944
586.676	682.226
591.359	508.062
596.04	430.21
600.718	376.214
605.394	531.606
610.067	439.266
614.737	383.248
619.406	377.96
624.071	357.077
628.734	456.075
633.395	614.165
638.053	539.984
642.708	390.779
647.361	364.217
652.012	294.988
656.66	307.626
661.305	151.422
665.948	216.219
670.588	86.9531
675.226	150.043
679.861	204.633
684.494	75.4941
689.124	77.6162
693.752	8.05078
698.377	130.014
702.999	75.04
707.619	210.347
712.237	131.858
716.852	121.403
721.464	246.294
726.074	56.7315
730.681	89.1807
735.286	21.7764
739.888	21.3535
744.488	201.439
749.085	144.875
753.68	149.246
758.272	23.4717
762.861	223.118
767.448	70.9805
772.033	141.472
776.614	149.272
781.194	299.007
785.77	242.412
790.345	248.612
794.916	137.697
799.485	56.7441
804.052	172.835
808.616	450.255
813.177	258.035
817.736	47.8711
822.292	208.009
826.846	158.67
831.397	113.647
835.945	144.439
840.491	70.2295
845.035	235.519
849.576	291.271
854.114	193.62
858.65	212.822
863.183	113.56
867.713	7.83594
872.241	81.2656
876.767	75.2344
881.29	87.8603
885.81	209.581
890.328	2.57617
894.843	218.154
899.356	1.79688
903.866	76.9062
908.373	35.2383
912.878	94.5488
917.38	121.744
921.88	9.41211
926.377	205.428
930.872	197.004
935.364	183.326
939.853	256.217
944.34	320.158
948.824	605.557
953.306	1223.24
957.785	5834.21
962.261	13594.2
966.735	8905.71
971.207	2420.99
975.675	608.496
980.141	437.164
984.605	224.978
989.066	8.2793
993.524	292.543
997.98	139.455
1002.43	186.742
1006.88	258.029
1011.33	213.701
1015.78	132.359
1020.22	62.1934
1024.66	288.74
1029.1	538.611
1033.53	738.881
1037.97	512.389
1042.4	448.06
1046.82	641.812
1051.25	670.113
1055.67	428.236
1060.09	551.182
1064.51	192.041
1068.92	266.486
1073.33	312.795
1077.74	644.467
1082.15	1100.67
1086.55	1059.56
1090.95	179.81
1095.35	199.086
1099.75	52.2363
1104.14	68.9824
1108.53	134.781
1112.92	125.668
1117.31	132.559
1121.69	312.9
1126.07	220.768
1130.45	15.2539
1134.82	106.65
1139.19	138.334
1143.57	39.668
1147.93	47.5703
1152.3	74.8438
1156.66	249.834
1161.02	90.707
1165.38	73.1953
1169.73	216.572
1174.08	91.8047
1178.43	105.644
1182.78	211.394
1187.12	84.4766
1191.46	76.4453
1195.8	93.5762
1200.14	350.098
1204.47	44.9785
1208.8	351.918
1213.13	318.178
1217.46	262.56
1221.78	248.008
1226.1	116.043
1230.42	376.277
1234.73	461.481
1239.04	327.34
1243.35	403.113
1247.66	178.106
1251.97	75.4727
1256.27	17.3984
1260.57	125.184
1264.86	313.137
1269.16	253.883
1273.45	31.8047
1277.74	171.848
1282.03	33.0312
1286.31	289.477
1290.59	167.492
1294.87	82.582
1299.14	114.168
1303.42	110.481
1307.69	277.562
1311.95	110.598
1316.22	154.758
1320.48	231.633
1324.74	164.586
1329	413.582
1333.26	183.269
1337.51	299.606
1341.76	284.117
1346	120.461
1350.25	369.57
1354.49	204.344
1358.73	303.336
1362.96	208.465
1367.2	313.055
1371.43	162.09
1375.66	156.945
1379.88	61.6641
1384.11	116.535
1388.33	98.5586
1392.54	39.4297
1396.76	85.2227
1400.97	155.348
1405.18	216.137
1409.39	346.742
1413.59	70.1719
1417.8	231.492
1421.99	216.758
1426.19	335.707
1430.38	202.242
1434.58	236.559
1438.77	479.508
1442.95	213.981
1447.13	168.676
1451.32	325.488
1455.49	188.191
1459.67	282.785
1463.84	156.438
1468.01	271.188
1472.18	25.1562
1476.35	471.754
1480.51	613.656
1484.67	289.789
1488.83	473.227
1492.98	417.492
1497.13	414.844
1501.28	153.875
1505.43	336.523
1509.57	161.656
1513.71	318.793
1517.85	165.805
1521.99	363.281
1526.12	471.688
1530.25	566.055
1534.38	72.8164
1538.5	576.828
1542.62	409.359
1546.74	264.856
1550.86	541.074
1554.98	419.621
1559.09	349.184
1563.2	219.652
1567.31	76.8711
1571.41	0
