Measurement: Raman, 514 nm, ccw, Raman Data Processed
Mineral: Fluorophlogopite
Rruff sample: R040075
Ideal chemistry: KMg_3_(Si_3_Al)O_10_F_2_
Locality: unknown
Source: University of Arizona Mineral Museum
Description: Green hexagonal tablet
Measured chemistry: (K_0.93_[box]_0.04_Na_0.03_)(Mg_0.66_Fe_0.30_Ti_0.02_)_3_(Si_0.75_Al_0.25_)_4_O_10_(F_0.90_(OH)_0.06_Cl_0.04_)
Pin_id: L00287
Orientation: Laser parallel to c [0 0 1]. Fiducial mark perpendicular to laser is parallel to -b* (0 -1 0)
Raman shift (cm-1)	intensity
166.996	0
171.152	29.003
175.305	152.783
179.456	442.614
183.605	753.98
187.752	979.884
191.898	894.927
196.041	820.186
200.182	450.726
204.321	349.553
208.457	223.572
212.592	219.475
216.725	99.967
220.856	77.449
224.984	55.245
229.111	27.869
233.236	35.572
237.358	26.469
241.479	16.235
245.597	19.308
249.713	21.664
253.828	12.607
257.94	109.454
262.05	149.34
266.159	236.244
270.265	367.978
274.369	445.415
278.471	547.484
282.572	524.892
286.67	401.534
290.766	258.685
294.86	205.371
298.952	147.9
303.042	198.365
307.13	214.099
311.216	308.093
315.3	253.364
319.382	399.318
323.462	354.91
327.54	325.608
331.616	311.531
335.69	265.611
339.762	256.324
343.832	256.285
347.9	248.366
351.965	312.443
356.029	272.534
360.091	320.732
364.151	329.654
368.209	327.282
372.265	323.146
376.319	302.193
380.371	315.267
384.421	322.308
388.469	271.298
392.515	276.915
396.559	366.31
400.601	399.689
404.641	388.621
408.679	299.215
412.715	333.216
416.749	366.413
420.781	284.463
424.811	229.391
428.839	289.977
432.866	171.606
436.89	182.659
440.912	83.221
444.932	18.199
448.951	5.546
452.967	8.888
456.981	59.849
460.994	73.092
465.004	46.316
469.013	5.825
473.019	70.599
477.024	76.744
481.026	236.533
485.027	240.213
489.026	361.876
493.023	376.519
497.017	444.037
501.01	509.417
505.001	565.666
508.99	543.703
512.977	528.782
516.962	537.89
520.945	593.045
524.927	519.257
528.906	540.549
532.883	594.878
536.858	611.228
540.832	603.641
544.803	607.161
548.773	600.771
552.741	580.458
556.706	615.211
560.67	529.051
564.632	403.959
568.592	319.412
572.55	258.85
576.506	241.868
580.46	190.883
584.412	115.875
588.363	135.836
592.311	118.759
596.258	82.633
600.202	34.798
604.145	21.378
608.086	65.475
612.024	98.591
615.961	105.719
619.896	76.129
623.829	220.85
627.761	198.74
631.69	203.434
635.617	127.083
639.543	299.469
643.466	281.941
647.388	328.398
651.308	423.841
655.226	439.27
659.142	596.819
663.056	812.221
666.968	1134.86
670.879	1503.19
674.787	1981.84
678.694	2398.31
682.598	2419.79
686.501	2013.53
690.402	1622.6
694.301	1175.3
698.198	1025.08
702.093	960.406
705.987	1006.8
709.878	1045.51
713.768	1181.9
717.656	1328.97
721.542	1347.06
725.426	1363.8
729.308	1243.48
733.188	1095.09
737.067	1051.64
740.943	986.109
744.818	924.432
748.691	916.742
752.562	802.494
756.431	891.778
760.298	1027.35
764.163	1110.34
768.027	1132.28
771.888	1129.25
775.748	1079.46
779.606	1026.76
783.462	958.883
787.317	738.437
791.169	601.708
795.019	424.913
798.868	417.05
802.715	322.118
806.56	195.117
810.403	135.512
814.245	88.904
818.084	201.691
821.922	73.596
825.758	55.16
829.592	4.937
833.424	69.249
837.254	20.818
841.082	14.094
844.909	0.726
848.734	9.031
852.557	45.477
856.378	9.69
860.197	3.683
864.015	27.574
867.831	50.391
871.645	136.146
875.457	156.841
879.267	115.474
883.075	101.054
886.882	182.621
890.687	168.059
894.49	266.488
898.291	177.873
902.09	254.215
905.888	324.532
909.683	267.837
913.477	367.135
917.269	361.407
921.06	395.661
924.848	329.882
928.635	328.068
932.42	349.219
936.203	408.335
939.984	445.416
943.764	431.464
947.541	388.481
951.317	423.47
955.091	393.431
958.864	444.365
962.634	407.275
966.403	351.232
970.17	330.898
973.935	344.931
977.698	343.965
981.46	343.268
985.22	325.327
988.978	315.045
992.734	328.885
996.488	379.792
1000.24	296.74
1003.99	343.755
1007.74	343.852
1011.49	344.366
1015.23	326.042
1018.98	308.094
1022.72	319.438
1026.46	353.461
1030.2	393.838
1033.93	472.295
1037.67	459.012
1041.4	461.451
1045.13	429.196
1048.86	369.008
1052.59	490.215
1056.32	471.355
1060.04	463.6
1063.77	499.738
1067.49	554.462
1071.2	483.734
1074.92	492.057
1078.64	521.431
1082.35	502.86
1086.06	576.356
1089.78	571.923
1093.48	477.567
1097.19	495.28
1100.89	380.092
1104.6	386.913
1108.3	342.789
1112	253.757
1115.7	223.805
1119.39	184.877
1123.09	159.015
1126.78	142.325
1130.47	79.819
1134.16	84.631
1137.85	60.678
1141.54	67.73
1145.22	75.829
1148.9	75.177
1152.58	85.919
1156.26	33.772
1159.94	52.475
1163.62	46.407
1167.29	75.297
1170.96	56.712
1174.63	68.555
1178.3	61.696
1181.97	42.68
1185.63	44.337
1189.3	22.713
1192.96	41.837
1196.62	2.028
1200.28	33.456
1203.93	58.924
1207.59	88.122
1211.24	3.958
1214.89	43.239
1218.54	47.314
1222.19	60.015
1225.84	83.642
1229.48	80.395
1233.13	66.332
1236.77	73.26
1240.41	81.135
1244.05	3.594
1247.68	42.057
1251.32	72.11
1254.95	39.53
1258.58	47.906
1262.21	40.642
1265.84	38.031
1269.46	94.835
1273.09	39.349
1276.71	28.666
1280.33	21.881
1283.95	10.109
1287.57	80.846
1291.18	68.962
1294.8	21.418
1298.41	37.761
1302.02	5.943
1305.63	33.156
1309.24	37.903
1312.84	13.425
1316.45	5.078
1320.05	23.649
1323.65	60.576
1327.25	22.629
1330.85	26.49
1334.44	30.156
1338.04	18.619
1341.63	21.92
1345.22	23.26
1348.81	20.242
1352.4	34.163
1355.98	62.773
1359.57	17.815
1363.15	83.206
1366.73	77.493
1370.31	10.71
1373.89	42.867
1377.46	2.733
1381.04	18.847
1384.61	3.092
1388.18	60.428
1391.75	59.236
1395.32	128.072
1398.88	119.844
1402.45	108.313
1406.01	92.344
1409.57	52.525
1413.13	51.31
1416.69	122.464
1420.24	68.199
1423.8	118.854
1427.35	93.903
1430.9	18.567
1434.45	118.739
1438	90.931
1441.55	87.487
1445.09	151.491
1448.63	138.933
1452.18	69.825
1455.71	55.706
1459.25	74.431
1462.79	89.329
1466.32	76.938
1469.86	137.884
1473.39	132.518
1476.92	100.211
1480.45	62.372
1483.97	84.737
1487.5	77.973
1491.02	88.621
1494.54	86.239
1498.06	101.349
1501.58	41.943
1505.1	41.135
1508.62	37.065
1512.13	8.107
1515.64	104.793
1519.15	84.162
1522.66	0
