Measurement: Raman, 514 nm, ccw, Raman Data Processed
Mineral: Fluorapatite
Rruff sample: R060333
Ideal chemistry: Ca_5_(PO_4_)_3_F
Locality: Lovozero Massif, Kola Peninsula, U.S.S.R.
Source: Michael Scott
Description: Colorless fragment associated with red villiaumite
Measured chemistry: (Ca_4.29_Sr_0.47_Na_0.12_Ce_0.07_La_0.06_)_Σ=5_((P_0.99_Si_0.01_)_Σ=1_O_4_)_3_F_1.00_
Pin_id: L01212
Orientation: Laser parallel to a* (1 0 0). Fiducial mark perpendicular to laser is parallel to -c [0 0 -1]
Raman shift (cm-1)	intensity
164.221	0
169.145	73.2339
174.066	29.8275
178.984	62.0217
183.9	115.456
188.812	231.458
193.722	537.45
198.628	906.259
203.532	1448.6
208.433	1506.61
213.331	1032.22
218.226	533.215
223.118	435.367
228.007	380.594
232.893	388.306
237.777	285.716
242.657	201.47
247.535	126.872
252.41	85.1686
257.281	73.855
262.15	138.267
267.017	145.847
271.88	202.738
276.74	310.036
281.598	364.228
286.453	448.846
291.304	546.561
296.153	613.991
301	550.214
305.843	457.989
310.683	252.396
315.521	168.532
320.356	113.349
325.188	68.8469
330.017	62.3403
334.843	0.715088
339.666	41.0986
344.487	16.7848
349.305	31.541
354.12	24.2734
358.932	5.81262
363.741	25.0088
368.548	12.9885
373.352	50.6449
378.153	55.9614
382.951	11.8424
387.746	18.351
392.539	21.3926
397.328	71.2969
402.115	85.5523
406.899	164.512
411.681	297.335
416.459	592.249
421.235	866.356
426.008	1405.61
430.779	1551.65
435.546	1281.54
440.311	1149.26
445.073	1395.83
449.832	1696.27
454.588	1627.56
459.342	1225.66
464.093	756.476
468.841	476.839
473.587	395.709
478.329	195.186
483.069	219.612
487.806	190.806
492.541	108.274
497.272	87.3411
502.001	68.7537
506.728	54.9226
511.451	37.6731
516.172	25.2688
520.89	49.8943
525.605	4.20068
530.318	46.5083
535.028	60.1155
539.735	3.2356
544.44	114.07
549.141	62.4602
553.841	18.2532
558.537	78.1294
563.231	210.302
567.922	346.675
572.61	561.429
577.296	888.31
581.979	1556.59
586.659	3700.28
591.336	5498.54
596.011	3073.01
600.683	2128.53
605.353	3233.59
610.02	1719.59
614.684	848.515
619.345	482.416
624.004	325.349
628.661	133.005
633.314	41.4192
637.965	54.0891
642.613	97.9155
647.259	133.237
651.902	188.465
656.542	255.765
661.18	248.733
665.815	182.651
670.447	86.2769
675.077	113.68
679.704	90.6641
684.328	57.8188
688.95	26.4199
693.569	92.6406
698.186	3.80298
702.8	93.2239
707.411	37.3887
712.02	85.8496
716.626	28.75
721.23	72.7678
725.83	82.6819
730.429	13.8989
735.024	69.7546
739.618	19.7598
744.208	5.02295
748.796	109.465
753.381	78.8203
757.964	47.0625
762.544	69.3818
767.122	2.35034
771.697	32.7129
776.269	9.11401
780.839	68.905
785.406	10.4221
789.971	32.7495
794.533	89.3203
799.093	53.2178
803.65	58.4316
808.204	11.5591
812.756	35.8384
817.305	44.5454
821.852	63.3467
826.396	57.9683
830.938	97.8227
835.477	61.541
840.013	15.1182
844.547	96.2046
849.079	124.709
853.608	123.036
858.134	166.778
862.658	137.365
867.179	122.476
871.698	41.3599
876.214	109.269
880.728	102.225
885.239	35.2666
889.748	31.1963
894.254	9.39502
898.758	28.334
903.259	6.55469
907.758	147.43
912.254	84.1084
916.748	85.8916
921.239	88.6812
925.728	110.076
930.214	229.458
934.698	367.54
939.179	641.486
943.657	1520.09
948.134	3221.28
952.607	8370.74
957.079	25249.9
961.548	53430.9
966.014	40160.2
970.478	18244.1
974.939	6754.33
979.398	1981.82
983.854	774.289
988.308	374.703
992.76	320.497
997.209	399.142
1001.65	650.452
1006.1	897.954
1010.54	888.215
1014.98	692.902
1019.42	604.518
1023.85	868.136
1028.28	979.575
1032.71	1238.19
1037.14	1768.65
1041.56	2389.05
1045.99	3581.96
1050.41	5296.91
1054.82	5265.19
1059.24	3720.54
1063.65	2637.05
1068.06	2036.24
1072.47	2215.05
1076.87	3384.51
1081.28	3044.52
1085.68	2219.65
1090.08	1415.78
1094.47	940.949
1098.86	580.159
1103.25	244.013
1107.64	176.155
1112.03	234.413
1116.41	243.955
1120.79	93.4365
1125.17	52.479
1129.55	22.5459
1133.92	32.4497
1138.29	81.7061
1142.66	34.3726
1147.03	10.0127
1151.39	53.8916
1155.76	168.496
1160.12	58.1309
1164.47	61.749
1168.83	109.704
1173.18	6.80566
1177.53	33.3623
1181.88	125.309
1186.22	129.238
1190.57	55.7793
1194.91	159.251
1199.25	79.8838
1203.58	62.8076
1207.92	43.0254
1212.25	178.137
1216.58	158.983
1220.9	129.923
1225.23	83.3438
1229.55	55.7109
1233.87	162.078
1238.19	77.0566
1242.5	28.0459
1246.81	69.4775
1251.12	35.4736
1255.43	121.406
1259.74	67.8164
1264.04	72.3564
1268.34	15.2588
1272.64	109.083
1276.94	108.347
1281.23	39.251
1285.52	63.2568
1289.81	6.38086
1294.1	65.5244
1298.39	106.061
1302.67	55.1221
1306.95	33.8594
1311.23	77.1738
1315.5	146.515
1319.78	194.909
1324.05	160.738
1328.32	44.6875
1332.58	157.05
1336.85	217.112
1341.11	140.388
1345.37	2.26465
1349.63	124.84
1353.88	160.581
1358.13	111.486
1362.38	175.852
1366.63	173.608
1370.88	58.8887
1375.12	202.976
1379.36	159.274
1383.6	48.9648
1387.84	125.656
1392.08	154.835
1396.31	213.317
1400.54	185.905
1404.77	108.141
1408.99	151.689
1413.21	86.0606
1417.44	201.606
1421.66	71.1084
1425.87	82.7832
1430.09	184.242
1434.3	166.906
1438.51	12.1562
1442.72	92.3477
1446.92	221.532
1451.13	142.777
1455.33	49.0342
1459.53	208.446
1463.72	18.2715
1467.92	110.421
1472.11	164.803
1476.3	40.4658
1480.49	52.5566
1484.67	77.9219
1488.86	20.9922
1493.04	124.668
1497.22	164.24
1501.39	24.2432
1505.57	119.473
1509.74	117.508
1513.91	123.23
1518.08	216.208
1522.25	210.254
1526.41	228.281
1530.57	162.019
1534.73	104.576
1538.89	193.101
1543.04	291.274
1547.2	204.001
1551.35	194.833
1555.49	263.029
1559.64	84.1445
1563.79	0
