Measurement: Raman, 514 nm, ccw, Raman Data Processed
Mineral: Fluor-uvite
Rruff sample: R050172
Ideal chemistry: CaMg_3_(Al_5_Mg)(Si_6_O_18_)(BO_3_)_3_(OH)_3_F
Locality: Pierrepont, New York, USA
Source: Marcus Origlieri
Description: Black prismatic crystal
Measured chemistry: (Ca_0.64_Na_0.36_)(Mg_0.56_Fe^2+^_0.34_Al_0.08_Ti_0.02_)_3_(Mg_1.00_Al_5.00_)(BO_3_)_3_Si_6.00_O_18_((OH)_3.45_F_0.55_)
Pin_id: M00231
Orientation: Laser parallel to c* (0 0 1). Fiducial mark perpendicular to laser is parallel to -a [-1 0 0]
Raman shift (cm-1)	intensity
166.18	0
171.102	217.848
176.021	86.7578
180.937	371.57
185.85	453.19
190.76	940.307
195.668	1243.07
200.572	2142.94
205.474	2196.65
210.374	2059.09
215.27	2065.31
220.163	1761.25
225.054	1502.22
229.942	1737.61
234.827	1766.05
239.709	1674.28
244.589	1225.56
249.465	670.661
254.339	581.628
259.21	638.421
264.079	544.394
268.944	233.567
273.807	227.294
278.667	73.166
283.524	34.6621
288.378	48.5996
293.23	129.529
298.079	165.465
302.925	0.328125
307.768	55.335
312.609	262.797
317.446	623.724
322.281	1152.6
327.113	1355.26
331.943	1780.25
336.769	1865.87
341.593	2181.24
346.414	2463.49
351.233	2815.13
356.048	3234.95
360.861	3670.08
365.671	4512.69
370.478	4844.95
375.283	4600
380.084	3871.59
384.883	3428.88
389.68	2800.05
394.473	2484.37
399.264	1914.44
404.052	1790.82
408.837	1568.98
413.62	1521.08
418.4	1247.83
423.177	950.59
427.951	690.227
432.722	536.932
437.491	379.919
442.257	164.144
447.021	157.65
451.781	32.2637
456.539	143.484
461.294	86.6211
466.047	218.305
470.797	337.114
475.544	459.231
480.288	523.5
485.03	784.074
489.768	777.104
494.504	894.753
499.238	890.247
503.969	845.923
508.697	780.405
513.422	830.559
518.144	1062.05
522.864	1162.61
527.582	1391.92
532.296	1562.11
537.008	1802.34
541.717	1655.79
546.423	1714.53
551.127	1694.24
555.828	1311.39
560.526	1283.88
565.222	1433.66
569.915	1334.66
574.605	1282.49
579.292	1101.65
583.977	1286.01
588.659	1054.47
593.339	814.995
598.016	783.332
602.69	808.683
607.361	715.472
612.03	570.635
616.696	571.008
621.359	417.046
626.02	317.128
630.678	102.139
635.333	178.931
639.986	78.3291
644.636	25.1406
649.284	401.679
653.928	473.31
658.57	676.804
663.21	507.135
667.846	380.279
672.481	449.207
677.112	420.887
681.741	665.284
686.367	976.361
690.99	973.807
695.611	1463.97
700.229	1748.77
704.845	2454.34
709.458	3473.15
714.068	4823.07
718.676	6551.54
723.281	8356.06
727.883	8672.96
732.483	8973.69
737.08	8944.77
741.674	8842.67
746.266	8886.08
750.855	8911
755.442	8945.6
760.025	9000.09
764.607	9358.56
769.185	9473.32
773.761	9264.17
778.335	7865.04
782.906	6692.57
787.474	5886.15
792.039	5186.57
796.602	4172.06
801.162	3231.49
805.72	2199.19
810.275	1587.14
814.828	1215.31
819.378	692.663
823.925	286.176
828.47	95.7861
833.012	95.0703
837.551	77.9414
842.088	117.066
846.622	28.4922
851.154	186.422
855.683	203.898
860.209	26.9258
864.733	78.0537
869.254	164.009
873.773	23.9707
878.289	333.461
882.803	320.688
887.314	411.829
891.822	456.889
896.328	699.971
900.831	645.045
905.332	610.211
909.83	844.435
914.325	863.861
918.818	935.593
923.308	1031.72
927.796	1156.23
932.281	1256.02
936.764	1444.03
941.244	1631.17
945.721	1809.42
950.196	1909.78
954.668	2223.29
959.138	2181.57
963.605	2665.72
968.07	2642.34
972.532	2729.32
976.991	2665.63
981.448	2571.87
985.903	2313.29
990.355	2454.23
994.804	2168.44
999.251	2012.71
1003.7	1953.61
1008.14	1906.44
1012.58	1924.95
1017.01	1956
1021.45	2136.91
1025.88	2048.02
1030.31	2168.91
1034.73	2278.7
1039.16	2271.47
1043.58	2240.69
1048	2421.82
1052.41	2256.03
1056.83	2319.72
1061.24	2215.8
1065.65	2441.88
1070.05	2288.05
1074.46	2070.99
1078.86	1949.94
1083.26	1747.92
1087.65	1761.97
1092.05	1596.09
1096.44	1404.33
1100.83	1302.96
1105.21	1084.64
1109.6	889.564
1113.98	737.713
1118.36	575.793
1122.73	593.828
1127.1	428.879
1131.47	217.55
1135.84	200.697
1140.21	341.199
1144.57	121.446
1148.93	187.605
1153.29	76.2803
1157.65	118.335
1162	80.6943
1166.35	75.6748
1170.7	53.1416
1175.05	104.246
1179.39	59.4932
1183.73	53.7783
1188.07	193.703
1192.41	100.788
1196.74	29.4453
1201.07	51.6338
1205.4	152.202
1209.72	128.605
1214.05	333.003
1218.37	310.435
1222.69	483.386
1227.01	554.61
1231.32	680.102
1235.63	704.45
1239.94	745.803
1244.24	856.967
1248.55	611.315
1252.85	593.833
1257.15	543.504
1261.44	476.312
1265.74	468.832
1270.03	498.724
1274.32	379.613
1278.61	482.511
1282.89	307.871
1287.17	324.204
1291.45	287.301
1295.73	291.416
1300	398.437
1304.27	188.33
1308.54	313.319
1312.81	207.3
1317.08	263.353
1321.34	325.08
1325.6	131.496
1329.85	122.878
1334.11	175.637
1338.36	218.542
1342.61	8.40918
1346.86	143.756
1351.1	113.936
1355.35	144.068
1359.59	138.92
1363.82	106.571
1368.06	37.2305
1372.29	197.961
1376.52	240.752
1380.75	146.172
1384.97	235.46
1389.2	70.3398
1393.42	108.246
1397.64	26.7686
1401.85	4.72266
1406.07	23.5449
1410.28	42.7852
1414.49	123.657
1418.69	134.17
1422.9	116.882
1427.1	236.374
1431.3	61.876
1435.49	177.434
1439.69	194.98
1443.88	208.829
1448.07	297.887
1452.26	268.989
1456.44	345.278
1460.62	277.828
1464.8	330.614
1468.98	254.727
1473.15	199.218
1477.33	296.051
1481.5	272.537
1485.66	195.064
1489.83	253.898
1493.99	171.461
1498.15	189.676
1502.31	14.4385
1506.47	298.442
1510.62	172.359
1514.77	299.307
1518.92	168.024
1523.07	313.795
1527.21	116.779
1531.35	18.9424
1535.49	161.415
1539.63	64.3232
1543.76	56.4375
1547.9	0
