Measurement: Raman, 514 nm, ccw, Raman Data Processed
Mineral: Fluorapophyllite-(K)
Rruff sample: R060554
Ideal chemistry: KCa_4_Si_8_O_20_F8H_2_O
Locality: unknown
Source: Gemological Institute of America
Description: Colorless polished fragment
Measured chemistry: (K_0.88_Na_0.12_)Ca_4.00_Si_8.00_O_20_F_1.00_Â·8H2O
Pin_id: L01258
Orientation: Laser parallel to c* (0 0 1). Fiducial mark perpendicular to laser is parallel to a [1 0 0]
Raman shift (cm-1)	intensity
53.91	0
58.864	277.807
63.817	100.81
68.767	91.472
73.714	394.422
78.659	3063.65
83.602	9545.69
88.542	17553.6
93.48	17860.8
98.416	14523.1
103.349	21252.4
108.28	32611.9
113.208	15342.2
118.134	12686
123.058	15037.8
127.979	14952.5
132.898	11712.5
137.814	5353.76
142.728	3554.62
147.639	4917.64
152.549	10054.2
157.455	19516.7
162.359	26220
167.261	14170.3
172.161	7210.69
177.058	10742.1
181.952	22013.5
186.845	26890.8
191.734	16810.7
196.622	16420.2
201.507	27007.4
206.389	45659.7
211.269	54452.4
216.147	39518.9
221.022	30039
225.895	27543
230.765	22044.2
235.633	12492.6
240.498	6158.04
245.361	3373.94
250.222	2468.56
255.08	2664.22
259.936	4729.18
264.789	6789.9
269.64	6403.08
274.488	4118.45
279.334	3452.88
284.178	5173.35
289.019	9324.79
293.857	15258
298.693	17766.7
303.527	11771.6
308.358	6580.43
313.187	4371.28
318.013	3835.1
322.837	4567.83
327.659	5970.44
332.478	8087.86
337.294	8850.06
342.108	6653.98
346.92	3394.96
351.729	1135.93
356.535	270.135
361.34	72.7583
366.141	130.559
370.94	204.148
375.737	241.198
380.531	669.004
385.323	777.815
390.113	615.469
394.9	236.688
399.684	60.9673
404.466	160.297
409.245	426.053
414.022	1095.34
418.797	3228.13
423.569	9876.38
428.338	22631.1
433.105	29318.2
437.87	12359.7
442.632	4380.92
447.391	2242.18
452.149	1935.67
456.903	2760.68
461.655	3845.17
466.405	3240.9
471.152	1761.39
475.897	1210.17
480.639	1838.17
485.378	2073.39
490.116	1173.8
494.85	478.383
499.582	255.104
504.312	379.922
509.039	382.946
513.764	560.908
518.486	1016.98
523.206	1637.45
527.923	2557.82
532.638	3758.7
537.35	4672.15
542.059	4822.19
546.766	4515.98
551.471	4810.64
556.173	5410.88
560.873	6344.67
565.57	8491
570.264	12247.9
574.957	17919.5
579.646	24031.8
584.333	25326.2
589.018	20263.6
593.7	13239.8
598.379	8842.86
603.056	6332.24
607.73	4912.45
612.402	4499.51
617.072	4518.71
621.739	4609.01
626.403	5014.4
631.065	5185.89
635.724	5854.45
640.381	6800.09
645.035	8537.89
649.687	11231
654.336	14554.3
658.983	17755.9
663.627	18663.3
668.268	15896.7
672.907	11468.4
677.544	7609.39
682.178	4968.51
686.809	3165.98
691.438	2057.43
696.065	1083.82
700.688	748.134
705.31	425.357
709.929	180.469
714.545	19.4331
719.158	68.9663
723.77	146.452
728.378	155.62
732.984	241.949
737.588	230.956
742.189	167.521
746.787	13.9424
751.383	395.494
755.976	900.777
760.567	1955.84
765.155	2712.68
769.741	2350.3
774.324	1595.71
778.904	1503.03
783.482	2169.52
788.058	3587.69
792.631	3612.43
797.201	2148.71
801.769	1194.59
806.334	724.203
810.897	723.481
815.457	729.328
820.014	1053.72
824.569	1217.63
829.122	1547.08
833.671	1776.05
838.219	1897.56
842.763	1837.59
847.306	1683.17
851.845	1491.97
856.382	1297.95
860.917	1136.87
865.448	845.117
869.978	621.833
874.505	504.964
879.029	421.18
883.55	214.098
888.069	299.168
892.586	431.262
897.1	215.48
901.611	345.877
906.12	300.446
910.626	123.056
915.129	43.6313
919.63	26.2036
924.129	68.6709
928.625	3.70117
933.118	71.2925
937.609	25.4844
942.097	87.2168
946.582	223.91
951.065	315.605
955.546	495.32
960.023	617.053
964.499	915.808
968.971	1505.6
973.441	1186.42
977.909	735.692
982.374	761.218
986.836	1043.22
991.295	1314.46
995.753	1961.34
1000.21	3065.09
1004.66	4293
1009.11	3916.25
1013.55	2557.66
1018	1881.41
1022.44	1901.91
1026.88	2207.79
1031.32	3128.49
1035.75	4344.92
1040.18	5979.93
1044.61	8996.69
1049.04	15980.3
1053.46	30985
1057.88	50366
1062.3	44632.8
1066.71	22038.4
1071.13	10695.5
1075.54	5362.57
1079.94	3101.53
1084.35	1885.77
1088.75	1315.55
1093.15	1003.2
1097.55	799.825
1101.94	932.14
1106.34	1217.55
1110.73	1967.78
1115.11	2381.7
1119.5	1799.67
1123.88	1213.55
1128.26	510.372
1132.63	159.304
1137.01	84.98
1141.38	41.4424
1145.75	412.053
1150.12	23.9307
1154.48	4.15967
1158.84	35.8433
1163.2	35.998
1167.55	30.0859
1171.91	18.4033
1176.26	45.4258
1180.61	15.2583
1184.95	31.8057
1189.29	15.9395
1193.63	30.5176
1197.97	35.7602
1202.31	52.7685
1206.64	147.504
1210.97	157.832
1215.29	111.875
1219.62	90.9634
1223.94	129.855
1228.26	150.324
1232.57	123.296
1236.89	165.546
1241.2	171.402
1245.51	224.939
1249.81	258.269
1254.12	258.172
1258.42	160.564
1262.72	250.681
1267.01	228.491
1271.3	237.998
1275.59	234.778
1279.88	315.233
1284.17	191.202
1288.45	277.292
1292.73	212.822
1297.01	117.137
1301.28	120.05
1305.55	195.146
1309.82	141.798
1314.09	116.533
1318.35	100.313
1322.61	167.401
1326.87	178.168
1331.13	114.881
1335.38	26.2148
1339.63	88.2398
1343.88	137.278
1348.12	81.46
1352.37	100.569
1356.61	45.147
1360.85	78.4019
1365.08	91.1553
1369.31	56.4106
1373.54	7.74854
1377.77	145.362
1381.99	30.9629
1386.22	84.0234
1390.43	48.6895
1394.65	0.030762
1398.87	57.1128
1403.08	61.1792
1407.29	36.0928
1411.49	36.7046
1415.69	28.9492
1419.89	0.874023
1424.09	12.6655
1428.29	44.3608
1432.48	15.1221
1436.67	53.2524
1440.86	106.932
1445.04	32.1084
1449.23	76.8594
1453.4	192.706
1457.58	116.903
1461.76	150.096
1465.93	150.627
1470.1	179.597
1474.26	214.428
1478.43	203.51
1482.59	291.234
1486.75	205.532
1490.9	319.209
1495.06	309.513
1499.21	318.024
1503.35	354.295
1507.5	375.196
1511.64	434.197
1515.78	471.49
1519.92	385.537
1524.05	294.809
1528.18	338.38
1532.31	292.006
1536.44	170.946
1540.56	229.048
1544.69	129.336
1548.8	54.0352
1552.92	164.064
1557.03	41.6606
1561.14	114.419
1565.25	12.7002
1569.36	102.945
