Measurement: Raman, 514 nm, ccw, Raman Data Processed
Mineral: Fluorite
Rruff sample: R050046
Ideal chemistry: CaF_2_
Locality: Shangbao, Lei Yang, Hunan Province, China
Source: Eugene Schlepp
Description: Pale purple crystal
Measured chemistry: Ca_1.000_ F_2.000_
Pin_id: L01404
Orientation: Laser parallel to c* (0 0 1). Fiducial mark perpendicular to laser is parallel to b [0 1 0]
Raman shift (cm-1)	intensity
168.104	0
173.013	61.0928
177.92	52.874
182.823	182.095
187.725	8.57715
192.623	106.17
197.52	376.396
202.413	575.054
207.305	134.269
212.193	88.4697
217.079	206.246
221.963	265.738
226.844	340.25
231.723	171.758
236.599	392.519
241.472	383.363
246.343	466.639
251.211	410.164
256.077	286.119
260.94	682.547
265.801	71.4512
270.66	48.8477
275.515	223.717
280.368	47.9629
285.219	263.018
290.067	276.699
294.913	431.457
299.756	355.504
304.596	622.555
309.434	1350.14
314.27	2562.22
319.102	4658.35
323.933	3711.33
328.76	1691.36
333.586	1052.11
338.408	683.418
343.229	754.201
348.046	478.377
352.861	835.891
357.674	452.709
362.484	638.797
367.291	587.564
372.096	433.065
376.898	345.1
381.698	323.465
386.495	125.867
391.29	134.231
396.082	339.256
400.872	164.625
405.659	177.297
410.443	34.252
415.225	392.852
420.005	73.3828
424.782	10.8203
429.556	238.572
434.328	767.426
439.097	283.412
443.864	460.721
448.628	501.731
453.389	566.248
458.148	571.031
462.905	304.363
467.659	220.932
472.41	400.223
477.159	511.451
481.905	630.695
486.649	769.006
491.39	1019.17
496.129	678.516
500.865	630.877
505.598	298.629
510.329	353.014
515.057	400.721
519.783	101.932
524.506	210.769
529.227	28.5977
533.945	34.8262
538.661	73.1445
543.374	127.033
548.084	15.5215
552.792	59.9902
557.498	89.8574
562.2	124.574
566.901	212.197
571.598	77.8828
576.293	74.1758
580.986	125.059
585.676	141.312
590.363	113.295
595.048	83.0352
599.731	49.1309
604.41	273.029
609.088	95.7754
613.762	190.769
618.434	423.836
623.104	709.078
627.771	587.248
632.435	507.738
637.097	267.037
641.756	355.219
646.413	180.883
651.067	236.576
655.719	299.068
660.368	490.795
665.014	469.275
669.658	419.031
674.299	520.254
678.938	442.68
683.574	579.822
688.208	655.822
692.839	954.832
697.468	1022.49
702.094	1194.65
706.717	1344.61
711.338	1213.62
715.956	957.242
720.572	732.953
725.185	553.166
729.795	454.098
734.403	366.065
739.009	232.397
743.611	165.34
748.212	67.1367
752.809	211.975
757.405	113.703
761.997	121.051
766.587	351.336
771.174	253.473
775.759	346.613
780.342	342.121
784.921	342.139
789.498	266.801
794.073	573.023
798.645	153.086
803.215	657.91
807.781	474.816
812.346	307.551
816.907	753.5
821.467	500.293
826.023	591.016
830.577	984.555
835.129	1447.03
839.678	741.305
844.224	496.383
848.768	285.32
853.309	181.133
857.847	69.1797
862.383	47.9883
866.917	233.25
871.448	872.602
875.976	1769.95
880.502	2778.12
885.025	1501.66
889.545	455.258
894.063	46.9766
898.579	104.809
903.092	328.41
907.602	1914.83
912.11	3738.98
916.615	2848.53
921.118	5120.34
925.618	7219.42
930.115	5975.97
934.61	3960.54
939.102	3499.95
943.592	4121.79
948.079	6601.1
952.564	2197.89
957.046	445.16
961.525	499.926
966.002	663.223
970.476	447.074
974.948	168.133
979.417	134.559
983.883	140.164
988.347	36.1992
992.809	5.60547
997.268	31.1133
1001.72	259.363
1006.18	582.703
1010.63	376.891
1015.08	616.945
1019.52	1180.94
1023.97	2230.95
1028.41	3263.05
1032.85	2721.62
1037.28	1763.44
1041.71	1485.41
1046.14	1330.05
1050.57	1072.99
1055	1269.23
1059.42	1435.78
1063.84	1126.8
1068.26	1303.26
1072.67	1688.81
1077.09	2239.76
1081.5	1046.48
1085.9	896.465
1090.31	292.652
1094.71	413.25
1099.11	206.262
1103.51	245.707
1107.9	638.582
1112.29	1108.9
1116.68	3226.64
1121.07	5554.79
1125.45	6285.17
1129.84	4225.82
1134.21	3185.17
1138.59	2569.99
1142.96	2373.27
1147.34	2479.01
1151.7	2159.61
1156.07	1999.01
1160.43	1912.34
1164.79	1718.29
1169.15	1680.66
1173.51	1135.98
1177.86	853.801
1182.21	381.148
1186.56	321.152
1190.91	156.555
1195.25	154.828
1199.59	182.769
1203.93	112.481
1208.26	76.8164
1212.6	77.7656
1216.92	203.711
1221.25	456.269
1225.58	416.891
1229.9	415.551
1234.22	575.215
1238.54	564.828
1242.85	451.269
1247.16	772.516
1251.47	884.598
1255.78	1097.37
1260.08	1177.85
1264.38	1492.97
1268.68	1422.56
1272.98	1135.56
1277.28	1658.35
1281.57	1818.57
1285.86	2020.94
1290.14	2371.77
1294.42	2641.79
1298.71	2760.25
1302.98	2610.03
1307.26	2280.85
1311.53	2637.15
1315.8	2612.61
1320.07	2279.18
1324.34	2147.87
1328.6	1523.7
1332.86	1384.66
1337.12	1210.75
1341.38	703.258
1345.63	777.258
1349.88	1050.19
1354.13	1206.04
1358.37	2854.78
1362.61	3136.69
1366.85	1422.23
1371.09	848.785
1375.33	885.965
1379.56	1002.23
1383.79	1607.21
1388.01	1885.98
1392.24	2092.38
1396.46	2036.15
1400.68	938.008
1404.9	64.6641
1409.11	210.609
1413.32	187.391
1417.53	100.824
1421.74	130.141
1425.94	196.531
1430.14	390.219
1434.34	405.492
1438.54	410.914
1442.73	866.516
1446.92	1752.32
1451.11	1855.63
1455.3	2212.07
1459.48	2478.33
1463.66	2546.07
1467.84	2356.77
1472.01	2269.38
1476.19	2287.43
1480.36	2069.12
1484.53	1953.67
1488.69	1569.06
1492.85	1455.23
1497.01	1482.85
1501.17	1367.28
1505.33	1811.29
1509.48	1492.28
1513.63	1702.96
1517.78	1693.11
1521.92	1080.02
1526.06	947.656
1530.2	469.316
1534.34	213.863
1538.47	263.363
1542.6	45.5977
1546.73	219.379
1550.86	263.934
1554.98	308.371
1559.11	165.68
1563.22	1.95703
