Measurement: Raman, 514 nm, ccw, Raman Data Processed
Mineral: Fluorapophyllite-(K)
Rruff sample: R050021
Ideal chemistry: KCa_4_Si_8_O_20_F8H_2_O
Locality: Poona, Maharashtra State, India
Source: Eugene Schlepp
Description: Colorless tetragonal prisms
Measured chemistry: (K_0.98_Na_0.02_)_Σ=1_Ca_4.00_Si_8.00_O_20_(F_0.84_(OH)_0.16_)_Σ=1_·8H_2_O
Pin_id: L00290
Orientation: Laser parallel to a* (1 0 0). Fiducial mark perpendicular to laser is parallel to -c [0 0 -1]
Raman shift (cm-1)	intensity
121.897	0
126.063	336.281
130.228	310.646
134.39	1198.81
138.55	4616.86
142.709	4347.72
146.865	1390.55
151.019	723.336
155.171	575.229
159.322	1404.75
163.47	3672.8
167.617	3895.08
171.761	1104.38
175.904	404.042
180.044	326.312
184.183	1513.93
188.319	1950.08
192.454	1369.7
196.586	1423.35
200.717	2302.43
204.846	3605.01
208.972	5038.09
213.097	4371.83
217.22	2547.08
221.341	1903.59
225.46	2111.03
229.577	2139.13
233.692	1387.68
237.805	646.462
241.916	167.495
246.025	373.519
250.132	315.388
254.237	205.632
258.34	122.312
262.442	377.387
266.541	791.535
270.639	1112.03
274.734	559.905
278.828	87.846
282.919	56.069
287.009	220.618
291.097	628.272
295.183	1239.27
299.266	1881.18
303.348	1733.23
307.428	1784.95
311.507	2286.04
315.583	2666.44
319.657	3265.95
323.729	3194.04
327.8	2770.87
331.868	2406.63
335.935	2461.52
339.999	2575.67
344.062	1819.18
348.123	1280.8
352.182	797.846
356.239	381.829
360.294	215.67
364.347	10.041
368.398	32.902
372.448	16.176
376.495	80.617
380.54	22.459
384.584	105.491
388.626	248.598
392.666	601.91
396.704	1165.38
400.74	1168.94
404.774	1111.9
408.806	603.514
412.836	556.211
416.865	681.126
420.891	1232.65
424.916	2836.78
428.939	7010.35
432.959	9084.09
436.978	4098.02
440.996	1579.28
445.011	798.088
449.024	407.625
453.036	351.402
457.045	365.533
461.053	799.477
465.059	803.229
469.063	666.79
473.065	550.16
477.065	1203.35
481.063	3516.36
485.06	6729.2
489.054	4931.9
493.047	2434.47
497.038	1616.93
501.027	1629.31
505.014	1331.64
508.999	853.884
512.982	756.085
516.964	838.15
520.944	1028.67
524.921	1274.95
528.897	1717.42
532.871	3014.32
536.844	3926.47
540.814	3902.03
544.783	3395.9
548.749	2913.19
552.714	2554.06
556.677	2467.45
560.638	2437.42
564.597	2644.73
568.555	3792.08
572.511	5226.56
576.464	7371.2
580.416	10929.8
584.366	13605.8
588.315	11719.3
592.261	7506.24
596.206	4392.42
600.148	2928.64
604.089	1746
608.028	1471.22
611.965	1046.36
615.901	691.425
619.834	576.43
623.766	741.641
627.696	966.717
631.624	761.406
635.551	685.989
639.475	690.469
643.398	954.842
647.318	1209.26
651.237	1285.06
655.155	1219.16
659.07	1679.68
662.984	1873.57
666.895	1777.92
670.805	1361.65
674.713	715.092
678.62	488.426
682.524	351.686
686.427	214.961
690.328	88.26
694.227	88.225
698.124	154.961
702.02	52.076
705.913	10.363
709.805	17.895
713.695	55.344
717.584	65.855
721.47	63.455
725.355	116.262
729.238	74.695
733.119	29.035
736.998	12.752
740.876	65.059
744.752	262.455
748.626	329.498
752.498	86.123
756.368	52.434
760.237	208.504
764.104	364.342
767.969	539.982
771.832	290.68
775.693	115.914
779.553	120.943
783.411	315.902
787.267	710.531
791.122	915.252
794.974	499.498
798.825	183.547
802.674	337.404
806.522	301.053
810.367	164.484
814.211	147.768
818.053	60.652
821.893	133.342
825.732	435.846
829.568	468.293
833.403	330.451
837.236	282.527
841.068	216.078
844.898	363.404
848.726	387.971
852.552	507.617
856.376	368.551
860.199	356.047
864.02	266.564
867.839	283.762
871.656	225.99
875.472	431.584
879.286	273.15
883.098	93.688
886.909	102.365
890.717	376.932
894.524	389.195
898.33	231.748
902.133	200.469
905.935	260.311
909.735	68.486
913.533	237.125
917.33	257.277
921.124	347.426
924.918	227.477
928.709	117.17
932.499	2.984
936.286	207.146
940.073	517.297
943.857	467.467
947.64	287.662
951.421	147.889
955.2	147.994
958.978	426.641
962.753	436.895
966.527	450.656
970.3	480.654
974.071	140.846
977.84	51.363
981.607	141.988
985.372	172.68
989.136	233.441
992.898	64.244
996.659	197.887
1000.42	258.348
1004.17	729.154
1007.93	1210.24
1011.68	1011.61
1015.43	923.379
1019.18	530.16
1022.93	542.424
1026.68	352.932
1030.42	535.865
1034.17	753.951
1037.91	1177.5
1041.65	1414.97
1045.39	1609.44
1049.12	2685.6
1052.86	5110.08
1056.59	12044.8
1060.33	21099.7
1064.06	16624.8
1067.78	8690.01
1071.51	4725.42
1075.23	2885.75
1078.96	2100.07
1082.68	1975.83
1086.4	2291.93
1090.12	2288.14
1093.83	1934.81
1097.55	1081.39
1101.26	608.074
1104.97	504.494
1108.68	691.014
1112.39	669.611
1116.1	486.234
1119.8	492.912
1123.5	459.594
1127.2	236.381
1130.9	53.154
1134.6	150.748
1138.3	277.939
1141.99	434.287
1145.69	735.986
1149.38	524.428
1153.07	332.602
1156.76	111.129
1160.44	209.58
1164.13	168.285
1167.81	427.328
1171.49	556.805
1175.17	486.537
1178.85	436.135
1182.52	235.789
1186.2	84.285
1189.87	3.99
1193.54	116.484
1197.21	607.143
1200.88	538.078
1204.55	649.303
1208.21	400.838
1211.88	232.652
1215.54	114.85
1219.2	157.451
1222.86	390.518
1226.51	739.02
1230.17	863.512
1233.82	868.58
1237.47	903.627
1241.12	609.312
1244.77	336.281
1248.42	181.414
1252.06	195.189
1255.71	668.062
1259.35	870.947
1262.99	683.689
1266.63	851.719
1270.26	610.547
1273.9	385.24
1277.53	55.182
1281.16	133.334
1284.8	337.092
1288.42	346.812
1292.05	912.904
1295.68	1081.84
1299.3	891.248
