Measurement: Raman, 514 nm, ccw, Raman Data Processed
Mineral: Fluorapophyllite-(K)
Rruff sample: R050021
Ideal chemistry: KCa_4_Si_8_O_20_F8H_2_O
Locality: Poona, Maharashtra State, India
Source: Eugene Schlepp
Description: Colorless tetragonal prisms
Measured chemistry: (K_0.98_Na_0.02_)_Σ=1_Ca_4.00_Si_8.00_O_20_(F_0.84_(OH)_0.16_)_Σ=1_·8H_2_O
Pin_id: L00290
Orientation: Laser parallel to a* (1 0 0). Fiducial mark perpendicular to laser is parallel to -c [0 0 -1]
Raman shift (cm-1)	intensity
121.897	0
126.063	233.792
130.228	10.797
134.39	211.037
138.55	357.36
142.709	272.766
146.865	105.767
151.019	326.641
155.171	320.499
159.322	1398.24
163.47	5050.9
167.617	9423.64
171.761	4124.34
175.904	1421.69
180.044	793.548
184.183	529.42
188.319	535.615
192.454	985.677
196.586	1167.39
200.717	753.819
204.846	437.871
208.972	531.899
213.097	352.249
217.22	342.959
221.341	381.639
225.46	1014.1
229.577	1575.08
233.692	1150.98
237.805	759.667
241.916	504.408
246.025	192.359
250.132	85.539
254.237	146.455
258.34	199.327
262.442	22.805
266.541	22.919
270.639	83.942
274.734	96.626
278.828	153.935
282.919	35.745
287.009	64.064
291.097	114.08
295.183	14.9
299.266	76.097
303.348	155.124
307.428	60.901
311.507	43.54
315.583	51.566
319.657	266.627
323.729	121.423
327.8	14.068
331.868	110.056
335.935	243.814
339.999	117.272
344.062	59.514
348.123	263.436
352.182	306.147
356.239	98.392
360.294	0.258
364.347	241.573
368.398	342.219
372.448	152.12
376.495	161.826
380.54	511.255
384.584	880.835
388.626	1130.6
392.666	1920.73
396.704	2861.13
400.74	3301.78
404.774	2702.59
408.806	1662.75
412.836	1312.26
416.865	1191.64
420.891	930.467
424.916	749.552
428.939	1976.33
432.959	3436.15
436.978	1512.33
440.996	376.345
445.011	158.142
449.024	320.968
453.036	339.612
457.045	146.578
461.053	186.132
465.059	451.727
469.063	955.846
473.065	1085
477.065	2487.95
481.063	7229.21
485.06	13752.9
489.054	9255.17
493.047	3846.72
497.038	2090.71
501.027	1744.31
505.014	1494.92
508.999	1189.29
512.982	1203.9
516.964	1818.76
520.944	2773.43
524.921	3131.38
528.897	4426.57
532.871	6814.23
536.844	8989.86
540.814	9145.68
544.783	7809.64
548.749	6675.4
552.714	6340.38
556.677	5817.5
560.638	5583.83
564.597	5957.05
568.555	7794.97
572.511	10432.1
576.464	14610.1
580.416	20797.4
584.366	25576.5
588.315	21893.7
592.261	13621.5
596.206	7597.23
600.148	4535.58
604.089	3199.83
608.028	2698.12
611.965	1917.28
615.901	1235.02
619.834	894.521
623.766	1204.68
627.696	1474.52
631.624	1094.44
635.551	634.446
639.475	574.532
643.398	834.695
647.318	1314.9
651.237	1014.28
655.155	624.594
659.07	602.879
662.984	753.266
666.895	915.543
670.805	636.009
674.713	96.51
678.62	137.221
682.524	317.803
686.427	538.527
690.328	270.104
694.227	10.869
698.124	208.391
702.02	321.932
705.913	491.994
709.805	261.367
713.695	139.64
717.584	48.964
721.47	107.474
725.355	446.529
729.238	354.541
733.119	116.303
736.998	3.931
740.876	231.455
744.752	538.835
748.626	475.99
752.498	82.956
756.368	58.627
760.237	27.987
764.104	414.432
767.969	470.648
771.832	169.356
775.693	45.432
779.553	101.408
783.411	647.6
787.267	1053.41
791.122	939.143
794.974	467.621
798.825	243.184
802.674	448.662
806.522	693.975
810.367	609.041
814.211	143.883
818.053	18.568
821.893	223.117
825.732	489.771
829.568	796.217
833.403	460.523
837.236	74.754
841.068	47.355
844.898	419.516
848.726	573.439
852.552	903.746
856.376	474.211
860.199	348.322
864.02	283.338
867.839	556.51
871.656	780.141
875.472	757.191
879.286	419.635
883.098	56.982
886.909	125.496
890.717	827.453
894.524	920.766
898.33	744.732
902.133	368.547
905.935	25.316
909.735	182.576
913.533	555.732
917.33	760.668
921.124	684.398
924.918	127.82
928.709	50.969
932.499	84.756
936.286	558.596
940.073	982.479
943.857	746.426
947.64	240.385
951.421	14.387
955.2	178.459
958.978	603.516
962.753	927.756
966.527	834.15
970.3	556.732
974.071	58.742
977.84	54.172
981.607	300.449
985.372	556.57
989.136	741.371
992.898	285.352
996.659	80.133
1000.42	54.941
1004.17	269.939
1007.93	685.223
1011.68	1004.63
1015.43	1030.69
1019.18	597.08
1022.93	323.707
1026.68	290.547
1030.42	866.922
1034.17	1300.32
1037.91	1938.02
1041.65	2038.9
1045.39	2125.54
1049.12	3372.8
1052.86	7081.35
1056.59	17468.6
1060.33	31337.6
1064.06	25136.9
1067.78	13236.4
1071.51	7086.04
1075.23	4303.34
1078.96	3099.04
1082.68	2769.25
1086.4	2989.36
1090.12	2479.94
1093.83	2000.72
1097.55	1338.86
1101.26	810.154
1104.97	821.5
1108.68	1073.14
1112.39	1305.07
1116.1	1097.22
1119.8	959.617
1123.5	620.062
1127.2	310.912
1130.9	46.445
1134.6	629.592
1138.3	812.387
1141.99	1229.57
1145.69	1312.28
1149.38	805.584
1153.07	179.441
1156.76	106.799
1160.44	237.111
1164.13	371.611
1167.81	866.131
1171.49	1221.47
1175.17	910.475
1178.85	556.199
1182.52	171.277
1186.2	82.262
1189.87	55.439
1193.54	521.076
1197.21	1086.58
1200.88	952.949
1204.55	999.201
1208.21	488.488
1211.88	147.689
1215.54	23.396
1219.2	259.639
1222.86	756.094
1226.51	1222.87
1230.17	1500.04
1233.82	1237.53
1237.47	995.332
1241.12	543.473
1244.77	59.996
1248.42	208.807
1252.06	748.418
1255.71	1198.55
1259.35	1443.38
1262.99	1314.12
1266.63	1055.22
1270.26	756.613
1273.9	289.789
1277.53	75.895
1281.16	223.979
1284.8	704.156
1288.42	974.807
1292.05	1592.92
1295.68	1453.51
1299.3	954.311
1302.92	614.959
1306.55	156.139
1310.16	217.365
1313.78	188.705
1317.4	879.877
1321.01	1365.65
1324.62	1500.73
1328.24	1580.92
1331.85	1147
1335.45	822.922
1339.06	354.143
1342.66	138.998
1346.27	163.117
1349.87	570.371
1353.47	706.732
