Measurement: Raman, 514 nm, ccw, Raman Data Processed
Mineral: Fluorapatite
Rruff sample: R050401
Ideal chemistry: Ca_5_(PO_4_)_3_F
Locality: Urbano mine, Golconda District, Minas Gerais, Brazil
Source: Bob Downs
Description: Pale purple hexagonal prism associated with albite R050402
Measured chemistry: (Ca_0.99_Mn_0.01_)_5_(P_1.00_O_4_)_3_F_1.00_
Pin_id: L01966
Orientation: Laser parallel to a* (1 0 0). Fiducial mark perpendicular to laser is parallel to c [0 0 1]
Raman shift (cm-1)	intensity
140.271	0
145.184	62.2446
150.094	3.67847
155.002	159.811
159.908	81.0669
164.811	118.478
169.711	59.9714
174.61	34.3748
179.505	22.6538
184.399	44.7776
189.29	97.5569
194.178	309.345
199.064	438.258
203.948	836.091
208.829	1169.33
213.708	1112.05
218.585	525.697
223.459	248.487
228.33	207.028
233.199	283.638
238.066	212.141
242.93	99.28
247.792	74.4204
252.651	2
257.508	82.4058
262.363	121.62
267.215	36.7808
272.064	115.847
276.912	164.127
281.756	195.962
286.598	211.657
291.438	389.795
296.276	429.522
301.111	506.944
305.943	451.836
310.773	244.145
315.601	142.84
320.426	103.859
325.248	14.5234
330.068	68.2185
334.886	69.0642
339.701	115.28
344.514	18.6033
349.324	61.9815
354.132	11.7588
358.938	32.0408
363.741	66.4312
368.541	26.3057
373.339	19.395
378.135	16.0361
382.928	6.77246
387.718	10.4326
392.506	93.4717
397.292	110.443
402.075	112.012
406.856	30.8584
411.634	152.075
416.41	158.405
421.183	310.048
425.954	522.162
430.722	596.643
435.488	513.176
440.251	667.814
445.012	874.712
449.77	1057.72
454.526	968.027
459.28	566.948
464.03	321.104
468.779	172.027
473.525	235.667
478.268	119.134
483.009	129.13
487.747	150.188
492.483	101.317
497.217	46.3379
501.948	40.5308
506.676	17.5088
511.402	118.62
516.125	3.43066
520.846	2.01953
525.565	52.916
530.281	9.61572
534.994	26.3701
539.705	21.4727
544.413	5.15283
549.119	23.7275
553.822	162.801
558.523	151.068
563.222	161.861
567.917	184.676
572.611	295.78
577.302	479.249
581.99	1137.19
586.676	2923.71
591.359	3439.17
596.04	1606.71
600.718	1359.14
605.394	1842.79
610.067	934.487
614.737	326.739
619.406	170.243
624.071	281.149
628.734	259.602
633.395	131.364
638.053	187.315
642.708	65.417
647.361	175.453
652.012	122.468
656.66	216.928
661.305	84.4912
665.948	171.561
670.588	132.818
675.226	143.243
679.861	145.948
684.494	199.486
689.124	69.7939
693.752	18.6133
698.377	15.4658
702.999	137.986
707.619	109.781
712.237	221.863
716.852	165.356
721.464	70.5478
726.074	22.4971
730.681	222.998
735.286	36.3672
739.888	107.509
744.488	102.306
749.085	101.793
753.68	124.167
758.272	161.976
762.861	146.736
767.448	40.4658
772.033	126.252
776.614	211.996
781.194	288.952
785.77	139.488
790.345	151.884
794.916	168.289
799.485	7.73926
804.052	94.4297
808.616	210.82
813.177	122.269
817.736	184.367
822.292	174.427
826.846	13.3467
831.397	88.2578
835.945	33.1201
840.491	50.5059
845.035	71.8867
849.576	65.9834
854.114	160.525
858.65	72.0625
863.183	6.23144
867.713	67.7939
872.241	117.469
876.767	261.853
881.29	39.8301
885.81	166.24
890.328	115.76
894.843	69.1602
899.356	106.117
903.866	198.174
908.373	63.3086
912.878	95.8613
917.38	93.5137
921.88	4.17969
926.377	28.373
930.872	235.357
935.364	166.272
939.853	260.539
944.34	742.303
948.824	1343.14
953.306	2406.44
957.785	9348.96
962.261	34855.7
966.735	30161.3
971.207	5158.08
975.675	1155.27
980.141	501.315
984.605	276.225
989.066	338.49
993.524	26.793
997.98	59.6719
1002.43	25.1094
1006.88	217.123
1011.33	44.5098
1015.78	177.82
1020.22	101.125
1024.66	51.6602
1029.1	104.402
1033.53	266.699
1037.97	668.695
1042.4	959.246
1046.82	2472.52
1051.25	7320.17
1055.67	5764.37
1060.09	1511.22
1064.51	477.318
1068.92	428.557
1073.33	566.773
1077.74	2671.33
1082.15	3522.76
1086.55	1043.85
1090.95	437.139
1095.35	78.8926
1099.75	95.4746
1104.14	54.5605
1108.53	78.6387
1112.92	186.162
1117.31	91.4688
1121.69	130.935
1126.07	136.016
1130.45	49.0215
1134.82	225.992
1139.19	273.754
1143.57	185.647
1147.93	19.5234
1152.3	85.7539
1156.66	199.041
1161.02	155.234
1165.38	159.758
1169.73	155.215
1174.08	366.102
1178.43	418.547
1182.78	74.332
1187.12	302.82
1191.46	499.75
1195.8	399.465
1200.14	379.383
1204.47	191.332
1208.8	306.562
1213.13	409.106
1217.46	219.992
1221.78	362.199
1226.1	655.098
1230.42	257.039
1234.73	246.648
1239.04	204.441
1243.35	443.562
1247.66	253.258
1251.97	191.184
1256.27	53.0078
1260.57	56.1758
1264.86	383.93
1269.16	327.793
1273.45	111.762
1277.74	41.125
1282.03	178.816
1286.31	108.727
1290.59	27.0625
1294.87	119.668
1299.14	275.328
1303.42	139.84
1307.69	144.887
1311.95	462.754
1316.22	434.644
1320.48	163.555
1324.74	658.469
1329	263.891
1333.26	659.078
1337.51	492.922
1341.76	333.371
1346	226.496
1350.25	389.039
1354.49	505.598
1358.73	443.238
1362.96	540.133
1367.2	408.098
1371.43	562.734
1375.66	669.898
1379.88	230.019
1384.11	489.832
1388.33	319.238
1392.54	488.688
1396.76	542.824
1400.97	388.285
1405.18	265.016
1409.39	551.777
1413.59	553.578
1417.8	453.125
1421.99	421.375
1426.19	651.66
1430.38	370.617
1434.58	406.449
1438.77	393.934
1442.95	350.41
1447.13	515.777
1451.32	158.035
1455.49	324.586
1459.67	607.008
1463.84	266.312
1468.01	593.336
1472.18	454.352
1476.35	243.231
1480.51	385.168
1484.67	189.312
1488.83	386.281
1492.98	587.859
1497.13	247.793
1501.28	215.965
1505.43	498.191
1509.57	465.461
1513.71	414.418
1517.85	275.879
1521.99	402.922
1526.12	535.832
1530.25	364.172
1534.38	442.715
1538.5	141.41
1542.62	295.367
1546.74	94.8867
1550.86	209.379
1554.98	151.894
1559.09	588.672
1563.2	75.6641
1567.31	15.0352
1571.41	0
