Measurement: Raman, 514 nm, ccw, Raman Data Processed
Mineral: Fluor-uvite
Rruff sample: R050172
Ideal chemistry: CaMg_3_(Al_5_Mg)(Si_6_O_18_)(BO_3_)_3_(OH)_3_F
Locality: Pierrepont, New York, USA
Source: Marcus Origlieri
Description: Black prismatic crystal
Measured chemistry: (Ca_0.64_Na_0.36_)(Mg_0.56_Fe^2+^_0.34_Al_0.08_Ti_0.02_)_3_(Mg_1.00_Al_5.00_)(BO_3_)_3_Si_6.00_O_18_((OH)_3.45_F_0.55_)
Pin_id: M00231
Orientation: Laser parallel to c* (0 0 1). Fiducial mark perpendicular to laser is parallel to -a [-1 0 0]
Raman shift (cm-1)	intensity
163.718	0
168.641	163.148
173.562	16.7773
178.479	123.42
183.394	389.934
188.305	865.492
193.214	1175.29
198.12	1573.3
203.024	2758.41
207.924	2383.95
212.822	2733.56
217.717	2287.08
222.609	1858.66
227.498	1884.7
232.385	1984.85
237.269	1893.03
242.149	1611.34
247.027	986.431
251.903	782.041
256.775	616.457
261.645	914.422
266.512	430.218
271.376	343.361
276.237	275.249
281.096	19.6943
285.952	11.1055
290.805	289.767
295.655	289.836
300.502	65.9072
305.347	26.46
310.189	436.339
315.028	554.013
319.864	991.273
324.698	1477.02
329.528	1865.03
334.356	2100.54
339.182	2322.28
344.004	2515.08
348.824	2896.38
353.641	3202.46
358.455	3733.52
363.266	4538.94
368.075	5031.12
372.881	5310.54
377.684	4829.73
382.484	3964.2
387.282	3509.88
392.077	2875.59
396.869	2404.59
401.658	2080.18
406.445	1791.68
411.229	1760.34
416.01	1393.06
420.788	1387.56
425.564	932.49
430.337	757.79
435.107	423.655
439.875	276.009
444.639	105.43
449.401	203.519
454.161	186.532
458.917	171.14
463.671	263.475
468.422	446.07
473.17	611.038
477.916	638.423
482.659	679.938
487.399	950.749
492.137	1187.58
496.872	1037.61
501.604	1050.88
506.333	757.813
511.06	891.447
515.784	1033.56
520.505	1101.2
525.223	1432.57
529.939	1600.8
534.652	1459.03
539.363	1714.49
544.07	1696.38
548.775	1907.63
553.478	1690.32
558.177	1508.04
562.874	1448.69
567.568	1345.19
572.26	1528.97
576.949	1198.06
581.635	1065.27
586.319	1219.04
590.999	992.531
595.677	792.249
600.353	613.437
605.026	680.337
609.696	658.546
614.363	707.885
619.028	622.339
623.69	482.846
628.349	130.395
633.006	1.02051
637.66	247.455
642.311	65.916
646.96	49.2539
651.606	367.628
656.25	517.477
660.89	643.293
665.528	471.053
670.164	431.724
674.797	370.278
679.427	570.681
684.054	808.891
688.679	1089.21
693.301	1376.46
697.921	1838.87
702.537	2292.85
707.152	3191.84
711.763	4632.85
716.372	6040.85
720.978	8567.93
725.582	9624.05
730.183	9390.82
734.781	9356
739.377	9400.39
743.97	9319.72
748.561	9655.58
753.149	9763.73
757.734	9927.05
762.316	9958.54
766.896	10524.4
771.474	10483.8
776.048	9597.92
780.62	7954.88
785.19	6907.59
789.757	6167.39
794.321	5237.77
798.883	4576.48
803.442	3027.48
807.998	2056.73
812.552	1364.2
817.103	897.87
821.652	434.701
826.198	222.658
830.741	45.4297
835.282	125.013
839.82	109.43
844.355	237.91
848.888	17.1699
853.419	112.682
857.946	67.6397
862.472	0.237305
866.994	35.835
871.514	45.0195
876.032	96.5166
880.546	197.658
885.059	238.492
889.568	303.111
894.075	471.555
898.58	514.937
903.082	547.279
907.581	617.612
912.078	833.017
916.572	937.656
921.063	805.428
925.552	1083.44
930.039	1102.72
934.523	1465.35
939.004	1450.14
943.483	1625.11
947.959	1944.19
952.432	2215.35
956.903	2241.6
961.372	2629.07
965.838	2699.49
970.301	2709.65
974.762	2618.08
979.22	2775.31
983.676	2642.35
988.129	2511.05
992.58	2307.34
997.028	2140.68
1001.47	2136.77
1005.92	2058.41
1010.36	1986.5
1014.79	2044.61
1019.23	1965.75
1023.66	2132.99
1028.09	2267.24
1032.52	2292
1036.94	2505.35
1041.37	2424.52
1045.79	2491.85
1050.2	2556.43
1054.62	2464.13
1059.03	2447.31
1063.44	2699.95
1067.85	2496.6
1072.26	2373.45
1076.66	2207.74
1081.06	2105.11
1085.45	1873.51
1089.85	1709.97
1094.24	1736.52
1098.63	1394.32
1103.02	1250.42
1107.4	1183.95
1111.79	891.972
1116.17	651.867
1120.54	690.297
1124.92	641.734
1129.29	433.075
1133.66	320.269
1138.03	247.066
1142.39	326.353
1146.75	201.029
1151.11	125.09
1155.47	311.7
1159.83	51.7998
1164.18	78.9336
1168.53	142.19
1172.87	36.2607
1177.22	15.6299
1181.56	39.1025
1185.9	87.2686
1190.24	69.7988
1194.57	120.565
1198.9	110.373
1203.23	108.359
1207.56	125.395
1211.89	265.667
1216.21	303.221
1220.53	340.059
1224.85	488.173
1229.16	589.553
1233.47	590.177
1237.78	766.03
1242.09	597.005
1246.4	552.246
1250.7	659.663
1255	696.239
1259.3	559.959
1263.59	486.799
1267.88	474.749
1272.17	457.801
1276.46	434.068
1280.75	446.657
1285.03	329.445
1289.31	253.171
1293.59	344.756
1297.87	465.11
1302.14	424.211
1306.41	311.16
1310.68	377.866
1314.94	187.941
1319.21	350.236
1323.47	317.223
1327.72	327.125
1331.98	87.25
1336.23	188.405
1340.49	290.965
1344.73	70.6543
1348.98	223.402
1353.22	201.53
1357.47	184.175
1361.7	110.769
1365.94	0.614258
1370.17	199.864
1374.41	174.233
1378.64	180.164
1382.86	373.379
1387.09	363.1
1391.31	402.576
1395.53	127.949
1399.75	102.324
1403.96	95.7109
1408.17	27.4297
1412.38	22.7578
1416.59	56.5234
1420.8	5.91211
1425	104.849
1429.2	111.277
1433.4	203.653
1437.59	140.959
1441.78	324.672
1445.97	256.462
1450.16	286.379
1454.35	229.18
1458.53	313.496
1462.71	417.108
1466.89	393.08
1471.07	311.055
1475.24	250.496
1479.41	138.677
1483.58	247.35
1487.75	165.847
1491.91	194.809
1496.07	257.998
1500.23	249.807
1504.39	310.541
1508.55	187.76
1512.7	211.166
1516.85	216.867
1520.99	250.269
1525.14	251.144
1529.28	12.7393
1533.42	131.417
1537.56	30.373
