Measurement: Raman, 514 nm, ccw, Raman Data Processed
Mineral: Fluorite
Rruff sample: R040099
Ideal chemistry: CaF_2_
Locality: Rock Candy mine, Grand Forks, British Columbia, Canada
Source: Bob Downs
Description: Pale purple fragment
Measured chemistry: Ca_0.99_F_2.00_
Pin_id: L01716
Orientation: Laser parallel to a* (1 0 0). Fiducial mark perpendicular to laser is parallel to -c [0 0 -1]
Raman shift (cm-1)	intensity
83.388	0
88.338	52.228
93.286	200.202
98.231	261.207
103.174	447.706
108.114	581.937
113.052	544.092
117.987	699.942
122.919	480.478
127.849	354.82
132.777	386.891
137.702	571.962
142.624	1339.95
147.544	2208.72
152.461	868.313
157.375	220.856
162.287	123.263
167.197	236.918
172.104	90.9814
177.008	40.1926
181.91	37.7434
186.809	9.24463
191.706	294.798
196.6	268.787
201.491	243.169
206.38	205.712
211.267	107.899
216.151	91.3987
221.032	247.242
225.911	659.483
230.787	476.916
235.66	462.082
240.531	582.74
245.4	832.659
250.266	299.334
255.129	291.531
259.99	281.979
264.848	783.604
269.703	13.5886
274.556	158.675
279.407	137.235
284.255	56.0107
289.1	34.9314
293.942	274.185
298.783	593.01
303.62	1176.02
308.455	2162.22
313.288	5419.61
318.117	16477.2
322.945	36562.6
327.769	20762.5
332.591	8011.73
337.411	4276.92
342.228	2861.36
347.042	2310.06
351.854	2166.09
356.663	2182.74
361.47	2030.29
366.274	1946.5
371.075	1705.33
375.874	1440.57
380.67	1177.11
385.464	988.858
390.255	774.791
395.043	558.44
399.829	406.174
404.613	387.688
409.393	189.094
414.172	118.254
418.947	12.5317
423.72	72.5142
428.49	8.99316
433.258	44.4404
438.024	12.6138
442.786	46.7876
447.546	192.106
452.304	131.564
457.059	160.371
461.811	170.601
466.56	346.179
471.308	361.688
476.052	472.246
480.794	469.624
485.533	468.472
490.27	624.545
495.004	636.914
499.736	609.793
504.465	389.666
509.191	237.622
513.915	236.391
518.636	168.683
523.354	163.065
528.07	55.3335
532.784	83.5947
537.494	20.1841
542.203	134.972
546.908	250.075
551.611	216.108
556.311	326.062
561.009	362.062
565.704	457.2
570.397	583.765
575.087	467.836
579.774	383.812
584.459	417.306
589.141	194.096
593.821	198.815
598.498	145.21
603.172	31.9307
607.844	63.8198
612.513	46.5151
617.18	60.438
621.844	139.512
626.505	176.416
631.164	18.9004
635.82	108.218
640.473	109.603
645.124	45.7495
649.773	10.9805
654.418	152.923
659.062	314.96
663.702	574.317
668.34	1147.01
672.975	1124.03
677.608	1239.29
682.238	1752.85
686.866	2352.66
691.49	2912.68
696.113	3202.9
700.732	3549.28
705.349	4227.83
709.964	4327.56
714.576	3747.48
719.185	2890.6
723.792	2110.92
728.396	1726.1
732.997	1415.92
737.596	1368.46
742.192	1253.75
746.785	1154.69
751.376	1267.02
755.965	1509.49
760.551	1440.31
765.134	1393.15
769.714	1332.62
774.292	1539.04
778.867	1772.29
783.44	1878.07
788.01	2094.9
792.578	2241.94
797.142	2414.61
801.705	2479.93
806.264	2697.8
810.821	2936.2
815.376	3012.18
819.927	3222.72
824.476	3523.83
829.023	3709.52
833.567	5091.95
838.108	7387.28
842.647	7857.68
847.183	6028.19
851.716	5396.65
856.247	3011.47
860.776	1079.43
865.301	370.772
869.824	35.6914
874.345	136.717
878.862	37.2388
883.377	119.624
887.89	307.583
892.4	126.172
896.907	315.696
901.412	153.387
905.914	392.863
910.413	5299.51
914.91	9504.93
919.404	5928.2
923.896	10719.2
928.385	15072.8
932.871	7773.05
937.355	8328.79
941.836	5036.11
946.315	9111.09
950.79	18651.8
955.264	3157.27
959.734	1756.62
964.202	2423.42
968.668	2307.16
973.131	1290.82
977.591	673.487
982.048	180.904
986.503	2.79394
990.955	52.2568
995.405	133.816
999.852	340.919
1004.3	659.163
1008.74	1068.64
1013.18	1569.82
1017.61	2095.38
1022.05	2694.77
1026.48	3212.85
1030.91	4034.47
1035.33	3968.04
1039.76	3913.89
1044.18	4085.46
1048.6	4341.02
1053.01	4293.63
1057.42	3828.38
1061.84	3223.32
1066.24	2744.53
1070.65	2256.04
1075.05	1877.93
1079.45	1431.24
1083.85	835.019
1088.24	495.325
1092.63	157.2
1097.02	42.3525
1101.41	239.6
1105.8	372.827
1110.18	171.337
1114.56	4.17481
1118.93	245.07
1123.31	1207.3
1127.68	1644.65
1132.04	2313.26
1136.41	3493.16
1140.77	4945.27
1145.13	6132.87
1149.49	6904.64
1153.85	6842.48
1158.2	6029.7
1162.55	5780.72
1166.9	5325.19
1171.24	4702.1
1175.58	3966.69
1179.92	2640.76
1184.26	1849.14
1188.6	1153.18
1192.93	772.009
1197.26	530.374
1201.58	372.255
1205.9	405.701
1210.23	483.619
1214.55	498.915
1218.86	792.543
1223.17	1195.46
1227.48	1296.53
1231.79	1539.7
1236.1	1800.82
1240.4	2141.45
1244.7	2939.05
1249	3940.91
1253.29	4506.94
1257.59	5370.98
1261.88	5415.77
1266.16	5212.14
1270.45	5220.9
1274.73	5493.85
1279.01	5768.36
1283.28	6258.28
1287.56	6920.14
1291.83	7677.2
1296.1	7831.54
1300.36	7430.59
1304.63	6807.85
1308.89	6141.6
1313.15	6299.55
1317.4	6752.66
1321.65	6381.74
1325.9	5640.88
1330.15	4872.93
1334.4	4019.7
1338.64	3523.5
1342.88	3177.1
1347.12	2947.49
1351.35	3044.49
1355.58	4350.15
1359.81	8874.11
1364.04	8901.4
1368.26	3886.37
1372.48	2368.48
1376.7	2760.09
1380.92	3675.05
1385.13	5906.58
1389.34	6514.34
1393.55	5215.73
1397.76	6140
1401.96	1726.26
1406.16	314.25
1410.36	261.526
1414.55	484.227
1418.75	640.718
1422.94	224.963
1427.12	1086.34
1431.31	511.913
1435.49	217.265
1439.67	796.777
1443.85	2597.87
1448.02	4224.43
1452.19	2812.13
1456.36	2248.2
1460.53	2863.27
1464.69	4000.44
1468.85	4145.96
1473.01	4404.72
1477.17	4751.16
1481.32	4598.74
1485.47	4126.39
1489.62	4143.27
1493.76	4037.33
1497.91	4190.2
1502.05	4372.78
1506.18	4683.38
1510.32	4975.98
1514.45	4825.94
1518.58	3925.48
1522.71	2659.03
1526.83	1579.39
1530.95	825.114
1535.07	364.175
1539.19	28.2119
1543.3	33.2158
