Measurement: Raman, 514 nm, ccw, Raman Data Processed
Mineral: Fluorophlogopite
Rruff sample: R040075
Ideal chemistry: KMg_3_(Si_3_Al)O_10_F_2_
Locality: unknown
Source: University of Arizona Mineral Museum
Description: Green hexagonal tablet
Measured chemistry: (K_0.93_[box]_0.04_Na_0.03_)(Mg_0.66_Fe_0.30_Ti_0.02_)_3_(Si_0.75_Al_0.25_)_4_O_10_(F_0.90_(OH)_0.06_Cl_0.04_)
Pin_id: L00311
Orientation: Laser parallel to a [1 0 0]. Fiducial mark perpendicular to laser is parallel to b* (0 1 0)
Raman shift (cm-1)	intensity
124.519	0
128.69	218.908
132.858	86.396
137.025	280.527
141.189	125.897
145.352	368.43
149.512	533.57
153.67	766.783
157.827	1144.35
161.981	1998.98
166.133	3141.59
170.283	5372.9
174.431	8803.44
178.577	13715.9
182.721	18448.2
186.863	18286.7
191.003	14021
195.141	8453.97
199.277	4908.49
203.411	2854.04
207.543	1579.57
211.673	975.518
215.801	672.209
219.927	399.633
224.051	476.834
228.173	86.517
232.292	80.496
236.41	14.808
240.526	59.307
244.64	72.979
248.752	118.324
252.861	306.162
256.969	354.287
261.075	678.857
265.179	1106.82
269.281	1750.02
273.38	2264.19
277.478	1996.78
281.574	1461.04
285.668	1007.91
289.76	827.403
293.85	868.65
297.937	739.539
302.023	1188.16
306.107	1317.17
310.189	1495.85
314.269	1654.6
318.347	1446.82
322.423	1318.43
326.497	1058.24
330.569	894.782
334.639	756.154
338.707	663.943
342.773	1039.97
346.837	604.607
350.899	588.839
354.96	543.493
359.018	484.708
363.074	486.961
367.128	337.043
371.181	277.313
375.231	238.214
379.28	187.882
383.326	89.651
387.37	140.895
391.413	93.906
395.454	155.747
399.492	76.355
403.529	35.875
407.564	41.762
411.596	142.964
415.627	119.604
419.656	25.424
423.683	195.129
427.708	111.639
431.731	31.218
435.752	29.949
439.772	64.978
443.789	2.536
447.804	65.32
451.817	90.561
455.829	10.943
459.838	21.787
463.846	20.612
467.852	57.321
471.855	52.205
475.857	31.116
479.857	161.88
483.855	185.121
487.851	133.851
491.845	173.086
495.837	210.896
499.828	232.262
503.816	345.234
507.802	175.833
511.787	290.129
515.77	378.09
519.75	435.823
523.729	289.3
527.706	341.161
531.681	381.692
535.654	458.646
539.625	454.297
543.595	339.828
547.562	294.182
551.527	369.714
555.491	393.471
559.453	286.298
563.412	265.06
567.37	362.437
571.326	314.55
575.28	175.562
579.233	349.339
583.183	356.598
587.131	355.951
591.078	506.119
595.022	465.808
598.965	621.664
602.906	850.894
606.845	1171.22
610.782	1443.4
614.718	1724.74
618.651	1997.35
622.582	2602
626.512	2781
630.44	2575.26
634.366	2412.33
638.29	2502.28
642.212	2551.52
646.132	2751.66
650.05	3135.81
653.967	3437.29
657.882	4430.83
661.794	5795.47
665.705	7776.13
669.614	10340.9
673.522	12684.4
677.427	12832.6
681.331	10719.7
685.232	7040.77
689.132	4598.62
693.03	3149.75
696.926	2430.18
700.82	2170.89
704.713	2077.44
708.603	1899.21
712.492	1883.81
716.379	1824.89
720.264	1885.81
724.147	1896.45
728.028	1537.03
731.908	1337.44
735.785	1287.92
739.661	1098.19
743.535	1098.4
747.407	968.553
751.278	878.663
755.146	948.73
759.013	1058.79
762.878	1018.79
766.741	1108.81
770.602	968.869
774.461	838.98
778.319	759.248
782.174	639.554
786.028	550.023
789.88	370.508
793.73	310.929
797.579	151.292
801.425	121.583
805.27	121.764
809.113	181.782
812.954	28.343
816.794	28.664
820.631	90.777
824.467	14.18
828.301	58.833
832.133	27.342
835.963	94.519
839.792	13.183
843.618	86.503
847.443	133.283
851.266	176.401
855.088	69.26
858.907	26.574
862.725	12.333
866.541	147.994
870.355	93.586
874.167	99.098
877.978	94.559
881.787	69.938
885.594	515.234
889.399	360.456
893.202	345.671
897.004	470.828
900.803	365.92
904.601	250.954
908.398	425.918
912.192	420.804
915.985	575.613
919.776	460.363
923.565	435.045
927.352	529.646
931.138	424.163
934.922	528.601
938.704	612.949
942.484	807.204
946.262	651.368
950.039	715.367
953.814	769.15
957.587	1049.1
961.359	842.158
965.128	830.445
968.896	861.099
972.662	726.893
976.427	935.595
980.189	1148.57
983.95	1046.94
987.709	1241.88
991.467	1638.74
995.222	1275.54
998.976	1540.86
1002.73	1612.41
1006.48	2022.89
1010.23	2269.94
1013.97	2826.62
1017.72	3492.06
1021.46	4427.44
1025.2	5023.37
1028.94	5147.27
1032.68	4630.91
1036.42	4094.94
1040.15	3181.89
1043.89	2769.64
1047.62	2473.54
1051.35	2259.46
1055.07	2143.65
1058.8	2217.38
1062.52	1950.99
1066.25	1704.6
1069.97	1440.28
1073.69	1278.14
1077.4	1113.88
1081.12	931.022
1084.83	1034.61
1088.55	977.521
1092.26	590.327
1095.96	523.439
1099.67	466.493
1103.38	349.785
1107.08	245.191
1110.78	307.634
1114.48	329.935
1118.18	172.544
1121.88	94.968
1125.57	50.065
1129.27	14.354
1132.96	97.621
1136.65	91.261
1140.34	65.556
1144.02	19.309
1147.71	5.686
1151.39	100.138
1155.07	76.244
1158.75	24.052
1162.43	86.318
1166.11	25.475
1169.78	76.734
1173.45	90.456
1177.12	115.919
1180.79	57.875
1184.46	31.119
1188.13	44.614
1191.79	106.624
1195.45	227.082
1199.11	247.111
1202.77	167.009
1206.43	166.582
1210.09	126.128
1213.74	14.824
1217.39	44.267
1221.05	92.662
1224.69	181.332
1228.34	103.259
1231.99	158.384
1235.63	266.021
1239.27	73.535
1242.91	61.094
1246.55	78.222
1250.19	14.825
1253.83	221.876
1257.46	388.583
1261.09	364.816
1264.72	320.808
1268.35	196.133
1271.98	231.006
1275.61	155.142
1279.23	97.479
1282.85	118.269
1286.47	130.833
1290.09	113.629
1293.71	135.644
1297.33	167.627
1300.94	65.375
1304.55	164.59
1308.16	46.458
1311.77	327.62
1315.38	117.357
1318.99	84.902
1322.59	254.426
1326.19	283.424
1329.79	242.203
1333.39	134.541
1336.99	102.729
1340.59	133.209
1344.18	109.157
1347.77	136.506
1351.37	164.086
1354.95	361.584
1358.54	306.819
1362.13	603.408
1365.71	260.197
1369.3	388.477
1372.88	153.038
1376.46	274.711
1380.04	195.284
1383.61	302.69
1387.19	243.636
1390.76	323.959
1394.33	520.78
1397.9	436.441
1401.47	511.994
1405.04	310.984
1408.6	200.949
1412.16	246.68
1415.72	220.229
1419.29	107.032
1422.84	147.161
1426.4	194.017
1429.96	267.562
1433.51	381.358
1437.06	424.798
1440.61	277.921
1444.16	398.721
1447.71	200.824
1451.25	292.242
1454.8	217.004
1458.34	233.174
1461.88	193.477
1465.42	245.986
1468.96	379.246
1472.49	299.783
1476.03	561.107
1479.56	412.555
1483.09	414.6
1486.62	375.973
1490.15	238.373
1493.67	32.342
1497.2	29.035
1500.72	57.707
1504.24	130.783
1507.76	62.178
1511.28	281.031
