Measurement: Raman, 514 nm, ccw, Raman Data Processed
Mineral: Fluorapatite
Rruff sample: R050369
Ideal chemistry: Ca_5_(PO_4_)_3_F
Locality: Russia
Source: Eugene Schlepp
Description: Blueish-green hexagonal prismatic crystal
Measured chemistry: (Ca_0.99_Na_0.01_)_5_((P_0.98_S_0.02_)O_4_)_3_F_1.00_
Pin_id: L01224
Orientation: Laser parallel to a* (1 0 0). Fiducial mark perpendicular to laser is parallel to c [0 0 1]
Raman shift (cm-1)	intensity
53.91	0
58.864	12.5336
63.817	42.6077
68.767	25.3636
73.714	73.1665
78.659	138.644
83.602	247.294
88.542	312.209
93.48	400.752
98.416	421.289
103.349	481.468
108.28	728.146
113.208	674.142
118.134	631.298
123.058	492.492
127.979	481.612
132.898	533.122
137.814	498.755
142.728	507.87
147.639	496.871
152.549	575.633
157.455	692.034
162.359	658.921
167.261	584.227
172.161	532.938
177.058	542.045
181.952	571.534
186.845	559.391
191.734	744.602
196.622	885.152
201.507	1300.86
206.389	1910.38
211.269	2173.69
216.147	1539.6
221.022	963.68
225.895	765.634
230.765	747.367
235.633	720.125
240.498	554.278
245.361	472.114
250.222	425.037
255.08	366.191
259.936	427.171
264.789	410.62
269.64	380.013
274.488	446.643
279.334	489.498
284.178	568.579
289.019	645.877
293.857	806.383
298.693	893.078
303.527	906.953
308.358	760.996
313.187	518.201
318.013	457.56
322.837	328.067
327.659	222.713
332.478	139.493
337.294	68.4004
342.108	93.4285
346.92	29.5773
351.729	40.0112
356.535	5.54565
361.34	7.10803
366.141	11.4308
370.94	42.9082
375.737	9.44409
380.531	48.4617
385.323	19.2786
390.113	2.09937
394.9	9.98377
399.684	14.1075
404.466	70.0167
409.245	69.2249
414.022	122.491
418.797	275.83
423.569	510.238
428.338	752.713
433.105	764.247
437.87	795.841
442.632	1092.49
447.391	1509.19
452.149	1569.93
456.903	1151.71
461.655	743.546
466.405	480.42
471.152	285.325
475.897	202.256
480.639	64.2181
485.378	92.2116
490.116	48.2297
494.85	86.2524
499.582	28.2783
504.312	15.1587
509.039	15.7306
513.764	25.7281
518.486	45.7756
523.206	7.11462
527.923	24.1908
532.638	14.2623
537.35	7.68189
542.059	17.2596
546.766	66.3855
551.471	101.737
556.173	53.3442
560.873	87.9756
565.57	225.804
570.264	299.468
574.957	556.292
579.646	1164.03
584.333	2878.01
589.018	5938.61
593.7	3515.11
598.379	1717.67
603.056	2424.32
607.73	2351.94
612.402	738.482
617.072	357.05
621.739	196.972
626.403	203.198
631.065	150.214
635.724	120.046
640.381	93.4216
645.035	79.1956
649.687	139.266
654.336	77.9385
658.983	6.7334
663.627	69.1472
668.268	15.8586
672.907	80.9665
677.544	60.6648
682.178	33.3765
686.809	16.3191
691.438	25.6555
696.065	61.158
700.688	34.5066
705.31	55.2839
709.929	65.3833
714.545	46.6633
719.158	99.7087
723.77	57.3516
728.378	61.8076
732.984	31.0832
737.588	1.82983
742.189	82.1245
746.787	29.6775
751.383	63.3665
755.976	28.8953
760.567	105.299
765.155	99.8845
769.741	149.945
774.324	45.3606
778.904	19.5613
783.482	52.553
788.058	59.387
792.631	19.0249
797.201	11.1587
801.769	26.291
806.334	24.2117
810.897	9.04102
815.457	27.4963
820.014	4.76269
824.569	10.6191
829.122	16.8377
833.671	17.375
838.219	13.1794
842.763	13.3381
847.306	82.9841
851.845	19.8975
856.382	80.7673
860.917	101.131
865.448	150.668
869.978	87.9492
874.505	41.2827
879.029	10.8618
883.55	89.5957
888.069	55.6941
892.586	50.7786
897.1	18.9724
901.611	40.0496
906.12	23.0498
910.626	39.7993
915.129	29.7153
919.63	112.35
924.129	49.6951
928.625	83.3398
933.118	221.14
937.609	318.168
942.097	886.617
946.582	1674.27
951.065	3105.54
955.546	9934.22
960.023	34145
964.499	59076.5
968.971	17864.9
973.441	4025.64
977.909	1186.52
982.374	562.57
986.836	289.9
991.295	210.638
995.753	186.629
1000.21	211.724
1004.66	534.958
1009.11	1050.33
1013.55	693.877
1018	702.561
1022.44	401.619
1026.88	448.77
1031.32	645.706
1035.75	942.374
1040.18	1752.43
1044.61	3057.13
1049.04	7662.99
1053.46	9547.12
1057.88	3523.33
1062.3	1464.91
1066.71	1022.5
1071.13	1382.68
1075.54	2853.62
1079.94	4383.15
1084.35	2197.5
1088.75	1103.08
1093.15	587.838
1097.55	316.133
1101.94	125.183
1106.34	32.7463
1110.73	2.53345
1115.11	129.493
1119.5	74.1948
1123.88	4.68945
1128.26	115.521
1132.63	13.7986
1137.01	6.61743
1141.38	10.53
1145.75	113.976
1150.12	55.7383
1154.48	35.5906
1158.84	185.745
1163.2	150.916
1167.55	162.683
1171.91	113.255
1176.26	135.932
1180.61	148.396
1184.95	59.0234
1189.29	55.6128
1193.63	84.2729
1197.97	15.9607
1202.31	78.2737
1206.64	81.1201
1210.97	99.4744
1215.29	86.4243
1219.62	129.422
1223.94	179.464
1228.26	137.779
1232.57	146.891
1236.89	84.0532
1241.2	71.2012
1245.51	64.6748
1249.81	37.3848
1254.12	24.8613
1258.42	12.7002
1262.72	56.9668
1267.01	61.9522
1271.3	9.39648
1275.59	50.3682
1279.88	55.7485
1284.17	20.9365
1288.45	11.8145
1292.73	39.2168
1297.01	52.2373
1301.28	6.12061
1305.55	45.8208
1309.82	16.3726
1314.09	49.811
1318.35	70.2148
1322.61	32.3687
1326.87	147.512
1331.13	105.702
1335.38	16.2148
1339.63	163.91
1343.88	107.895
1348.12	61.9019
1352.37	26.8706
1356.61	102.704
1360.85	60.229
1365.08	103.608
1369.31	115.912
1373.54	22.4468
1377.77	5.9751
1381.99	86.6504
1386.22	107.436
1390.43	133.284
1394.65	225.102
1398.87	27.7891
1403.08	123.69
1407.29	73.3984
1411.49	192.947
1415.69	85.9756
1419.89	119.931
1424.09	4.99365
1428.29	167.568
1432.48	19.8706
1436.67	50.3652
1440.86	78.3096
1445.04	87.3535
1449.23	105.177
1453.4	108.106
1457.58	90.8418
1461.76	79.8804
1465.93	194.469
1470.1	52.0996
1474.26	124.019
1478.43	24.7183
1482.59	55.9014
1486.75	66.4507
1490.9	90.6094
1495.06	33.9639
1499.21	54.4453
1503.35	92.4546
1507.5	31.6553
1511.64	86.959
1515.78	135.247
1519.92	107.924
1524.05	112.965
1528.18	125.393
1532.31	141.977
1536.44	128.391
1540.56	77.4639
1544.69	98.5503
1548.8	114.812
1552.92	100.264
1557.03	43.002
1561.14	113.077
1565.25	17.9736
1569.36	34.7642
