Measurement: Raman, 514 nm, ccw, Raman Data Processed
Mineral: Fluorite
Rruff sample: R060548
Ideal chemistry: CaF_2_
Locality: unknown
Source: Gemological Institute of America
Description: Pale blue fragment
Measured chemistry: Ca_1.00_F_2.00_
Pin_id: L01039
Orientation: Laser parallel to -a* (-1 0 0). Fiducial mark perpendicular to laser is parallel to b [0 1 0]
Raman shift (cm-1)	intensity
177.781	0
182.692	106.394
187.6	150.355
192.506	217.397
197.409	385.044
202.309	447.873
207.206	119.438
212.101	144.609
216.993	290.793
221.882	698.473
226.768	1247.36
231.652	893.954
236.533	1009.12
241.411	1168.81
246.286	1022.57
251.159	854.061
256.028	740.805
260.895	1764.1
265.76	1224.04
270.621	326.649
275.48	184.059
280.336	87.2998
285.189	31.6689
290.04	117.03
294.887	141.702
299.732	224.545
304.575	650.287
309.414	1621.09
314.251	4011.94
319.085	10250.4
323.916	12913.7
328.745	5674.34
333.571	2801.16
338.394	1679.26
343.214	1469.38
348.032	1343.56
352.847	1352.35
357.659	1322.31
362.468	1272.63
367.275	1005.73
372.079	942.655
376.88	790.158
381.679	697.381
386.475	795.474
391.268	674.637
396.058	600.494
400.846	411.565
405.631	436.195
410.413	215.574
415.192	143.11
419.969	82.7188
424.743	56.2217
429.515	78.6514
434.283	74.6904
439.049	101.653
443.813	25.084
448.573	268.273
453.331	391.992
458.086	290.771
462.838	372.957
467.588	522.847
472.335	534.84
477.08	619.233
481.821	562.034
486.56	540.336
491.296	727.442
496.03	558.24
500.761	335.488
505.489	472.076
510.214	268.976
514.937	404.158
519.657	214.624
524.375	270.474
529.089	85.4961
533.801	38.2695
538.511	35.6641
543.218	168.898
547.922	132.268
552.623	43.6035
557.321	223.801
562.017	238.93
566.711	393.174
571.401	236.519
576.089	515.631
580.775	272.662
585.457	267.424
590.137	323.221
594.814	314.512
599.489	495.76
604.161	374.394
608.83	227.219
613.497	662.578
618.161	1054.5
622.822	1719.01
627.481	1717.68
632.137	939.137
636.79	600.432
641.441	1117.22
646.089	1322.68
650.734	1157.97
655.377	963.238
660.017	348.891
664.654	431.125
669.289	723.279
673.921	350.565
678.551	302.996
683.177	733.715
687.802	1572.3
692.423	1990.57
697.042	1443.8
701.658	1463.63
706.272	1494.41
710.883	1741.65
715.491	1244.39
720.097	883.412
724.7	503.269
729.301	481.82
733.898	372.262
738.494	222.441
743.086	133.377
747.676	61.8359
752.263	25.1348
756.848	225.844
761.43	55.2871
766.01	112.164
770.586	186.842
775.161	190.81
779.732	350.111
784.301	587.857
788.868	774.061
793.431	938.736
797.992	1367.63
802.551	1676.42
807.107	1950.63
811.66	2336.36
816.211	2252.17
820.759	2078.78
825.304	2529.32
829.847	3048.71
834.388	6130.88
838.925	7047.47
843.46	7946.93
847.993	6596.19
852.523	6602.92
857.05	4415.86
861.575	3041.06
866.097	1673.44
870.616	939.125
875.133	2730.47
879.647	745.574
884.159	270.932
888.668	132.672
893.175	896.434
897.679	1078.87
902.18	1049.82
906.679	4453.12
911.175	15927.6
915.669	9569.57
920.16	10702.3
924.648	13607.7
929.134	17172
933.617	8898.02
938.098	12735.9
942.576	7234.77
947.052	26200.6
951.525	14578.5
955.995	2623.3
960.463	1141.14
964.928	1129.99
969.391	542.898
973.851	26.832
978.309	271.195
982.764	218.305
987.216	179.947
991.666	362.287
996.114	348.326
1000.56	1478.06
1005	1066.18
1009.44	915.738
1013.88	1204.97
1018.31	2039.23
1022.74	2427.44
1027.17	2915.93
1031.6	3043.59
1036.03	3000.42
1040.45	2540.73
1044.87	2721.33
1049.28	2919.07
1053.7	2664.98
1058.11	2395.11
1062.52	2199.51
1066.92	1793.5
1071.33	1801.95
1075.73	1670.34
1080.13	1787.46
1084.53	1570.08
1088.92	1136.72
1093.31	498.836
1097.7	634.465
1102.09	181.635
1106.47	152.658
1110.85	358.965
1115.23	394.342
1119.61	1050.47
1123.98	1688.39
1128.35	1600.34
1132.72	1381.08
1137.08	2167.84
1141.45	2863.62
1145.81	3168.44
1150.17	3488.37
1154.52	3205.54
1158.88	3164.02
1163.23	3344.33
1167.58	2665.97
1171.92	2340.02
1176.27	2288.08
1180.61	830.295
1184.94	1141.6
1189.28	302.269
1193.61	212.643
1197.94	26.6934
1202.27	50.6738
1206.6	108.353
1210.92	149.856
1215.24	457.152
1219.56	625.803
1223.88	807.078
1228.19	972.949
1232.5	1515.39
1236.81	2102.42
1241.12	2527.55
1245.42	3026.49
1249.72	3699.64
1254.02	4389.2
1258.31	4746.43
1262.61	4793.41
1266.9	4804.03
1271.19	5023.19
1275.47	4928.97
1279.76	5012.19
1284.04	4952.73
1288.32	6475.57
1292.59	7514.24
1296.87	8046.94
1301.14	6742.42
1305.4	6372.89
1309.67	6238.03
1313.93	6200.26
1318.2	5956.27
1322.45	5756.44
1326.71	4760.23
1330.96	4176.5
1335.22	3770.84
1339.46	3330.28
1343.71	2846.06
1347.95	3286.29
1352.2	4178.31
1356.44	6997.11
1360.67	12164.7
1364.91	8273.42
1369.14	3465.67
1373.37	2672.02
1377.59	3595.51
1381.82	3945.56
1386.04	4466.12
1390.26	4592.78
1394.48	7611.1
1398.69	4981.47
1402.9	1281.37
1407.11	38.4746
1411.32	397.035
1415.52	771.162
1419.72	385.033
1423.92	708.646
1428.12	1734.12
1432.32	939.336
1436.51	1370.15
1440.7	2698.76
1444.89	4872.05
1449.07	5305.44
1453.25	4385.94
1457.43	4131.25
1461.61	5164.84
1465.79	4947.47
1469.96	3797.01
1474.13	3759.51
1478.3	3867.33
1482.46	3855.95
1486.63	3619.33
1490.79	2661.7
1494.95	2297.22
1499.1	1627.61
1503.26	2261.34
1507.41	2454.58
1511.56	2446.52
1515.7	2315.73
1519.85	1634.27
1523.99	1189.24
1528.13	707.168
1532.26	335.586
1536.4	331.242
1540.53	136.211
1544.66	154.363
1548.79	230.418
1552.91	217.801
1557.03	121.231
1561.15	79.1602
