Measurement: Raman, 514 nm, ccw, Raman Data Processed
Mineral: Fluorophlogopite
Rruff sample: R040039
Ideal chemistry: KMg_3_(Si_3_Al)O_10_F_2_
Locality: Franklin, Sussex County, New Jersey, USA
Source: University of Arizona Mineral Museum
Description: Brown hexagonal sheets
Measured chemistry: (K_0.92_Na_0.06_[box]_0.02_)_Σ=1_(Mg_2.94_Fe_0.04_Ti_0.02_)_Σ=3_(Si_2.98_Al_1.02_)O_10_(F_1.24_(OH)_0.76_)_Σ=2_; OH estimated by charge balance
Pin_id: M00049
Orientation: Laser parallel to a [1 0 0]. Fiducial mark perpendicular to laser is parallel to b* (0 1 0)
Raman shift (cm-1)	intensity
87.213	0
91.398	2310.55
95.582	10818
99.764	27055.6
103.943	39214.6
108.121	23256.1
112.297	10173.3
116.47	3626.71
120.642	2009.86
124.811	1086.64
128.979	524.709
133.144	228.042
137.307	108.677
141.469	222.439
145.628	454.908
149.786	238.805
153.941	63.86
158.094	82.463
162.245	57.496
166.395	367.929
170.542	861.607
174.687	1338.84
178.83	2418.17
182.972	4931.42
187.111	10356.8
191.248	22723.3
195.383	39830.3
199.516	38366.5
203.647	18190.2
207.777	7663.98
211.904	4207.98
216.029	2542.1
220.152	1586.21
224.273	800.291
228.392	504.477
232.509	148.995
236.625	103.705
240.738	48.984
244.849	14.105
248.958	270.192
253.065	108.364
257.171	45.202
261.274	203.929
265.375	651.824
269.475	2108.26
273.572	5572.39
277.667	10700.3
281.76	9932.91
285.852	5478.02
289.941	3260.43
294.029	2211.81
298.114	1912.75
302.198	2303.2
306.279	3271.32
310.359	4883.53
314.436	6686.55
318.512	7724.53
322.586	8244.51
326.657	6801.15
330.727	4624.49
334.795	3129.3
338.861	2190.77
342.924	1211.86
346.986	1213.53
351.046	1144.63
355.104	1275.62
359.16	1438.13
363.214	1599.33
367.267	2291.13
371.317	2540.31
375.365	2039.32
379.411	1122.49
383.456	813.57
387.498	712.702
391.539	382.378
395.577	389.919
399.614	501.698
403.649	496.22
407.681	333.932
411.712	241.354
415.741	7.227
419.768	38.188
423.793	82.193
427.816	88.139
431.837	184.932
435.857	219.186
439.874	288.49
443.889	336.721
447.903	674.383
451.914	1091.53
455.924	1125.54
459.932	784.379
463.938	510.076
467.941	375.477
471.943	190.906
475.944	33.449
479.942	138.266
483.938	56.125
487.932	190.154
491.925	173.611
495.915	326.557
499.904	389.113
503.891	571.293
507.876	443.086
511.859	344.486
515.84	175.496
519.819	256.203
523.796	366.498
527.771	256.201
531.745	145.43
535.716	124.428
539.686	343.043
543.654	201.277
547.62	69.322
551.584	116.672
555.546	353.914
559.506	411.131
563.465	307.074
567.421	36.52
571.376	448.559
575.329	149.547
579.279	193.023
583.228	127.725
587.175	115.867
591.121	198.311
595.064	460.627
599.006	356.789
602.945	453.193
606.883	849.688
610.819	855.945
614.753	1451.98
618.685	1657.78
622.615	2083.36
626.544	3128.72
630.471	4219.3
634.395	5109.6
638.318	5858.44
642.239	6024.27
646.158	5814.56
650.076	5772.61
653.991	6113.56
657.905	6537.23
661.817	7461.05
665.726	9093.51
669.635	11976.2
673.541	15966.2
677.445	22147.1
681.348	27589.8
685.248	27420.9
689.147	22839.9
693.044	16321.1
696.94	10332.3
700.833	6480.95
704.724	4633.52
708.614	3524.79
712.502	3085.38
716.388	1898.16
720.272	1576.88
724.155	1601.45
728.035	1612.36
731.914	1425.96
735.791	756.77
739.666	807.303
743.539	1266.92
747.41	1224.99
751.28	850.92
755.148	630.348
759.014	630.17
762.878	870.111
766.74	780.127
770.601	1019.14
774.46	847.957
778.316	657.432
782.172	496.238
786.025	1024.51
789.876	842.594
793.726	680.766
797.574	568.943
801.42	587.002
805.264	464.998
809.107	532.82
812.947	500.441
816.786	277.863
820.623	245.102
824.459	162.154
828.292	498.947
832.124	285.43
835.954	351.805
839.782	211.811
843.608	285.924
847.433	50.613
851.255	294.398
855.076	319.051
858.895	343.031
862.713	103.561
866.528	20.676
870.342	122.092
874.154	214.732
877.965	116.787
881.773	88.217
885.58	119.227
889.385	120.027
893.188	280.752
896.989	501.467
900.789	382.08
904.587	302.584
908.383	223.031
912.177	143.324
915.97	353.461
919.76	533.445
923.55	573.275
927.337	542.959
931.122	162.484
934.906	471.848
938.688	851.062
942.468	910.129
946.247	739.045
950.023	767.807
953.798	606.41
957.572	524.855
961.343	812.518
965.113	710.627
968.881	1138.18
972.647	1315.81
976.411	1112.93
980.174	1042.41
983.935	1389.22
987.694	1595.19
991.452	2026.32
995.207	2021.08
998.961	1982.9
1002.71	2114.23
1006.46	2736.66
1010.21	3029.99
1013.96	3385.25
1017.71	3258.43
1021.45	3611.63
1025.19	4342.16
1028.93	7121.64
1032.67	10607.3
1036.41	11809.4
1040.14	9004.77
1043.87	5813.89
1047.61	4449.18
1051.34	3245.93
1055.06	2648.08
1058.79	2314.8
1062.52	2011.66
1066.24	2338.63
1069.96	2104.7
1073.68	1471.38
1077.4	1677.66
1081.11	1942.69
1084.83	4418.59
1088.54	5663.97
1092.25	2859.34
1095.96	2604.52
1099.67	1939.4
1103.37	1653.96
1107.08	1328.4
1110.78	1392.73
1114.48	1336.97
1118.18	1461.16
1121.88	1125.34
1125.57	629.611
1129.27	144.145
1132.96	180.957
1136.65	25.15
1140.34	261.061
1144.02	302.328
1147.71	516.846
1151.39	314.652
1155.07	313.393
1158.76	92.217
1162.43	8.23
1166.11	152.074
1169.79	292.469
1173.46	752.863
1177.13	573.254
1180.8	313.84
1184.47	84.668
1188.14	44.199
1191.8	132.719
1195.46	179.188
1199.13	561.602
1202.79	954.617
1206.45	898.312
1210.1	682.789
1213.76	708.668
1217.41	544.48
1221.06	659.777
1224.71	559.539
1228.36	994.77
1232.01	576.07
1235.65	936.098
1239.3	753.383
1242.94	624.648
1246.58	649.504
1250.22	357.652
1253.85	455.191
1257.49	653.785
1261.12	1213.5
1264.75	1028.13
1268.38	996.215
1272.01	832.094
1275.64	375.836
1279.27	7.996
1282.89	177.844
1286.51	82.828
1290.13	0
