Measurement: Raman, 514 nm, ccw, Raman Data Processed
Mineral: Fluorapatite
Rruff sample: R060421
Ideal chemistry: Ca_5_(PO_4_)_3_F
Locality: Levant mine, St. Just, Cornwall, England
Source: Michael Scott
Description: Brown hexagonal prisms
Measured chemistry: (Ca_4.93_[box]_0.07_)_Σ=5_((PO_4_)_2.86_(CO_3_)_0.14_)_Σ=3_F_1.00_ : C not measured but estimated by difference and charge balance
Pin_id: M00175
Orientation: Laser parallel to c* (0 0 1). Fiducial mark perpendicular to laser is parallel to a [1 0 0]
Raman shift (cm-1)	intensity
124.288	0
129.209	71.3037
134.127	264.263
139.043	425.035
143.956	205.24
148.867	80.8042
153.775	121.603
158.681	185.368
163.585	227.194
168.486	262.505
173.385	99.2485
178.282	127.24
183.176	68.9404
188.067	79.416
192.956	64.1611
197.843	19.3149
202.727	62.8447
207.609	55.2129
212.489	28.1074
217.366	33.9053
222.24	88.8472
227.112	62.895
231.982	197.239
236.849	156.034
241.714	80.7451
246.577	97.2412
251.437	57.7544
256.294	123.624
261.149	352.578
266.002	462.203
270.852	417.534
275.7	320.893
280.545	199.215
285.388	144.696
290.229	163.061
295.067	132.116
299.902	226.009
304.735	313.467
309.566	330.489
314.394	233.644
319.22	143.765
324.043	42.4497
328.864	36.5098
333.682	42.4438
338.498	11.6977
343.311	64.1514
348.122	32.9736
352.931	59.939
357.737	43.7637
362.54	16.7803
367.341	73.6768
372.14	90.1636
376.936	26.0064
381.73	118.118
386.521	74.1523
391.31	157.641
396.096	179.954
400.88	169.4
405.661	162.219
410.44	114.506
415.216	254.634
419.99	292.334
424.761	334.329
429.53	515.707
434.297	495.286
439.061	769.781
443.822	813.476
448.581	820.161
453.337	652.472
458.091	398.763
462.843	302.915
467.592	209.044
472.338	170.445
477.082	107.456
481.824	28.5342
486.563	105.503
491.3	27.5244
496.034	4.62598
500.765	125.334
505.494	23.0117
510.221	96.1133
514.945	129.105
519.666	107.025
524.385	23.4863
529.102	54.4062
533.816	57.46
538.527	46.6475
543.236	27.1572
547.943	99.3623
552.647	130.07
557.348	66.0644
562.047	7.30078
566.744	85.1631
571.438	285.801
576.129	987.618
580.818	1207.66
585.504	552.824
590.188	456.783
594.87	283.777
599.549	370.878
604.225	752.415
608.899	747.846
613.57	582.227
618.239	409.789
622.905	389.66
627.569	284.912
632.23	223.032
636.889	229.428
641.545	178.233
646.198	319.027
650.849	327.297
655.498	310.102
660.144	372.352
664.787	216.102
669.428	279.028
674.067	289.503
678.703	196.539
683.336	391.67
687.967	413.553
692.595	322.537
697.221	262.092
701.844	390.652
706.465	327.047
711.083	487.644
715.698	467.027
720.311	493.357
724.922	611.1
729.53	320.269
734.135	312.527
738.738	479.68
743.338	438.812
747.936	362.955
752.531	297.906
757.124	463.943
761.714	537.904
766.302	367.109
770.887	498.213
775.469	614.074
780.049	516.832
784.626	449.824
789.201	578.041
793.773	447.356
798.343	476.42
802.91	594.832
807.475	221.793
812.037	498.037
816.596	318.182
821.153	380.363
825.707	415.039
830.259	402.127
834.808	341.871
839.355	543.144
843.899	372.971
848.441	306.359
852.98	318.76
857.516	390.26
862.05	291.576
866.581	271.529
871.11	213.951
875.636	296.568
880.159	329.221
884.68	191.769
889.199	105.373
893.714	114.709
898.228	202.234
902.738	2.44727
907.246	148.238
911.752	183.766
916.255	73.4375
920.755	181.606
925.253	104.062
929.748	19.8594
934.241	120.252
938.731	253.014
943.218	248.324
947.703	452.147
952.186	1281.72
956.665	4113.36
961.142	13578.9
965.617	17648
970.089	4901.82
974.558	1015.43
979.025	158.084
983.489	291.82
987.951	156.285
992.41	94.4297
996.866	56.9023
1001.32	4.00781
1005.77	105.266
1010.22	28.9883
1014.67	143.637
1019.11	176.992
1023.55	243.367
1027.99	103.957
1032.42	366.844
1036.86	615.703
1041.29	141.742
1045.72	119.754
1050.14	104.965
1054.56	286.797
1058.98	324.324
1063.4	420.117
1067.82	352.668
1072.23	593.312
1076.64	615.348
1081.05	339.316
1085.45	331.668
1089.85	24.4805
1094.25	362.816
1098.65	418.773
1103.04	429.406
1107.43	86.7969
1111.82	545.988
1116.21	579.051
1120.59	560.641
1124.97	817.481
1129.35	848.934
1133.73	591.242
1138.1	889.359
1142.47	749.504
1146.84	504.262
1151.21	766.375
1155.57	1240.61
1159.93	1183.74
1164.29	1276.95
1168.64	1134.14
1172.99	1316.53
1177.34	1338.69
1181.69	1264.7
1186.04	1386.56
1190.38	1403.96
1194.72	1335.64
1199.05	1425.48
1203.39	1493.32
1207.72	1298.07
1212.05	1168.02
1216.37	1183.31
1220.7	1264.73
1225.02	1201.44
1229.34	1258.46
1233.65	1039.8
1237.97	1251.51
1242.28	1203.27
1246.59	1181.82
1250.89	711.875
1255.19	597.664
1259.49	854.644
1263.79	878.438
1268.09	868.652
1272.38	522.629
1276.67	650.684
1280.95	324.363
1285.24	340.656
1289.52	549.641
1293.8	531.277
1298.08	747.176
1302.35	259.992
1306.62	61.957
1310.89	311.023
1315.15	414.492
1319.42	439.926
1323.68	514.727
1327.94	494.816
1332.19	374.359
1336.44	78.9375
1340.69	147.785
1344.94	250.781
1349.19	110.176
1353.43	143.859
1357.67	345.793
1361.9	69.0195
1366.14	161.078
1370.37	133.047
1374.6	14.082
1378.83	349.398
1383.05	212.973
1387.27	160.219
1391.49	17.9688
1395.7	108.227
1399.92	71.3125
1404.13	0.917969
1408.34	118.106
1412.54	46.1875
1416.74	137.461
1420.94	162.148
1425.14	92.1875
1429.34	131.059
1433.53	82.7539
1437.72	217.445
1441.9	437.289
1446.09	419.609
1450.27	133.875
1454.45	247.894
1458.63	451.074
1462.8	439.504
1466.97	462.273
1471.14	186.922
1475.31	147.516
1479.47	592.34
1483.63	122.066
1487.79	154.07
1491.94	11.5977
1496.09	396
1500.24	353.242
1504.39	227.449
1508.54	88.2188
1512.68	223.891
1516.82	209.703
1520.95	8.47656
1525.09	37.5234
1529.22	418.742
1533.35	95.7812
1537.47	189.004
1541.6	445.34
1545.72	260.801
1549.83	253.047
1553.95	227.527
1558.06	372.941
1562.17	181.191
1566.28	397.352
1570.38	0.613281
