Measurement: Raman, 514 nm, ccw, Raman Data Processed
Mineral: Fluorapatite
Rruff sample: R060421
Ideal chemistry: Ca_5_(PO_4_)_3_F
Locality: Levant mine, St. Just, Cornwall, England
Source: Michael Scott
Description: Brown hexagonal prisms
Measured chemistry: (Ca_4.93_[box]_0.07_)_Σ=5_((PO_4_)_2.86_(CO_3_)_0.14_)_Σ=3_F_1.00_ : C not measured but estimated by difference and charge balance
Pin_id: M00175
Orientation: Laser parallel to c* (0 0 1). Fiducial mark perpendicular to laser is parallel to a [1 0 0]
Raman shift (cm-1)	intensity
124.288	0
129.209	96.2024
134.127	233.326
139.043	428.575
143.956	252.934
148.867	78.1148
153.775	142.928
158.681	137.146
163.585	198.156
168.486	110.676
173.385	72.2883
178.282	45.1362
183.176	78.0237
188.067	49.8086
192.956	74.7754
197.843	42.0855
202.727	27.7295
207.609	11.7476
212.489	89.2085
217.366	54.0454
222.24	160.265
227.112	77.5752
231.982	69.0718
236.849	111.456
241.714	94.3916
246.577	75.6934
251.437	116.835
256.294	58.7075
261.149	270.07
266.002	277.503
270.852	268.281
275.7	193.063
280.545	118.087
285.388	116.549
290.229	58.0234
295.067	54.625
299.902	146.964
304.735	227.703
309.566	325.957
314.394	195.069
319.22	117.917
324.043	143.385
328.864	18.5459
333.682	91.7251
338.498	51.3872
343.311	3.1665
348.122	8.88965
352.931	39.6743
357.737	10.6719
362.54	40.0523
367.341	20.0083
372.14	38.1484
376.936	70.5894
381.73	32.3779
386.521	99.6421
391.31	83.2715
396.096	32.876
400.88	43.9321
405.661	90.1138
410.44	187.578
415.216	129.255
419.99	181.46
424.761	294.464
429.53	380.453
434.297	607.037
439.061	744.023
443.822	788.822
448.581	806.481
453.337	562.901
458.091	299.226
462.843	244.673
467.592	242.391
472.338	104.507
477.082	61.7227
481.824	12.1875
486.563	93.8213
491.3	131.182
496.034	92.543
500.765	8.78027
505.494	25.9805
510.221	42.6357
514.945	147.555
519.666	5.42676
524.385	90.249
529.102	8.38281
533.816	35.1201
538.527	142.834
543.236	44.4199
547.943	2.69922
552.647	27.3145
557.348	24.2295
562.047	27.166
566.744	130.299
571.438	280.388
576.129	958.225
580.818	1224.44
585.504	528.241
590.188	475.369
594.87	338.823
599.549	420.568
604.225	624.585
608.899	623.643
613.57	540.674
618.239	351.85
622.905	307.146
627.569	179.555
632.23	258.112
636.889	214.751
641.545	322.607
646.198	306.558
650.849	291.538
655.498	435.637
660.144	337.662
664.787	244.675
669.428	275.955
674.067	193.283
678.703	204.834
683.336	288.197
687.967	439.297
692.595	297.67
697.221	275.676
701.844	399.531
706.465	396.669
711.083	495.539
715.698	433.578
720.311	394.129
724.922	327.887
729.53	530.701
734.135	405.481
738.738	327.613
743.338	479.775
747.936	612.271
752.531	577.277
757.124	509.926
761.714	377.385
766.302	543.479
770.887	645.519
775.469	416.109
780.049	519.736
784.626	527.699
789.201	435.522
793.773	396.481
798.343	545.068
802.91	632.486
807.475	317.365
812.037	383.859
816.596	556.094
821.153	462.549
825.707	415.307
830.259	260.031
834.808	425.84
839.355	136.289
843.899	457.291
848.441	577.002
852.98	201.084
857.516	482.084
862.05	291.906
866.581	327.277
871.11	267.916
875.636	272.227
880.159	262.172
884.68	371.852
889.199	82.6699
893.714	202.035
898.228	275.768
902.738	122.115
907.246	116.672
911.752	97.3008
916.255	160.981
920.755	202.635
925.253	22.1895
929.748	393.787
934.241	27.7656
938.731	181.078
943.218	284.805
947.703	353.482
952.186	1025.19
956.665	2935.51
961.142	10062.5
965.617	11722.9
970.089	3345.27
974.558	669.953
979.025	222.43
983.489	114.242
987.951	68.8828
992.41	152.188
996.866	164.586
1001.32	83.707
1005.77	224.398
1010.22	10.9297
1014.67	41.6719
1019.11	164.938
1023.55	95.8359
1027.99	251.594
1032.42	593.812
1036.86	507.223
1041.29	34.0273
1045.72	114.758
1050.14	229.934
1054.56	213.336
1058.98	348.887
1063.4	473.348
1067.82	208.074
1072.23	666.125
1076.64	459.109
1081.05	30.9922
1085.45	214.996
1089.85	356.356
1094.25	379.156
1098.65	309.488
1103.04	337.41
1107.43	252.012
1111.82	296.379
1116.21	654.176
1120.59	514.617
1124.97	771.394
1129.35	525.152
1133.73	752.867
1138.1	647.965
1142.47	931.09
1146.84	874.918
1151.21	1107.92
1155.57	1030.57
1159.93	813.57
1164.29	1137.53
1168.64	1095.58
1172.99	1053.81
1177.34	1194.32
1181.69	1360.82
1186.04	1072.57
1190.38	1180.69
1194.72	1182.18
1199.05	1266.1
1203.39	1398.65
1207.72	1633.48
1212.05	1117.57
1216.37	1175.94
1220.7	1349.62
1225.02	1270.67
1229.34	1179.11
1233.65	1452.96
1237.97	1163.27
1242.28	1531.07
1246.59	1135.43
1250.89	1239.52
1255.19	724.441
1259.49	897.719
1263.79	1036.25
1268.09	946.894
1272.38	757.664
1276.67	296.559
1280.95	223.391
1285.24	668.832
1289.52	536.543
1293.8	408.352
1298.08	1139.36
1302.35	767.039
1306.62	506.398
1310.89	859.656
1315.15	540.609
1319.42	434.289
1323.68	340.609
1327.94	608.32
1332.19	422.394
1336.44	238.852
1340.69	471.703
1344.94	318.965
1349.19	422.648
1353.43	152.789
1357.67	509.344
1361.9	163.324
1366.14	96.043
1370.37	102.172
1374.6	212.477
1378.83	290.887
1383.05	287.641
1387.27	184.305
1391.49	219.562
1395.7	78.2422
1399.92	169.953
1404.13	203.508
1408.34	291.465
1412.54	349.731
1416.74	224.422
1420.94	151.527
1425.14	136.543
1429.34	5.17188
1433.53	312.141
1437.72	403.348
1441.9	514.016
1446.09	275.816
1450.27	281.574
1454.45	266.723
1458.63	462.031
1462.8	397.445
1466.97	322.898
1471.14	720.352
1475.31	52.2773
1479.47	203.988
1483.63	287.023
1487.79	48.375
1491.94	352.016
1496.09	6.33203
1500.24	181.422
1504.39	26.4102
1508.54	294.281
1512.68	412.234
1516.82	342.152
1520.95	228.102
1525.09	112.32
1529.22	258.926
1533.35	246.941
1537.47	79.5664
1541.6	216.332
1545.72	230.16
1549.83	14.6484
1553.95	437.879
1558.06	546.019
1562.17	300.016
1566.28	21.7148
1570.38	203.316
