Measurement: Raman, 514 nm, ccw, Raman Data Processed
Mineral: Fluorapatite
Rruff sample: R050617
Ideal chemistry: Ca_5_(PO_4_)_3_F
Locality: Santa Cruz, Sonora, Mexico
Source: University of Arizona Mineral Museum
Description: Tan colored hexagonal prism
Measured chemistry: Ca_5.00_(P_1.00_O_4_)_3_(F_0.99_Cl_0.01_)
Pin_id: L01712
Orientation: Laser parallel to c* (0 0 1). Fiducial mark perpendicular to laser is parallel to -b [0 -1 0]
Raman shift (cm-1)	intensity
105.815	0
110.744	79.1027
115.671	40.0102
120.596	56.3337
125.519	82.7216
130.439	216.04
135.356	317.628
140.271	353.236
145.184	290.978
150.094	223.761
155.002	306.219
159.908	248.401
164.811	186.006
169.711	105.76
174.61	79.9392
179.505	106.326
184.399	54.3888
189.29	65.2017
194.178	37.9744
199.064	34.1123
203.948	40.6243
208.829	43.7588
213.708	85.8259
218.585	27.5789
223.459	26.3328
228.33	150.963
233.199	134.291
238.066	147.317
242.93	69.3425
247.792	66.3843
252.651	136.453
257.508	156.916
262.363	263.288
267.215	278.994
272.064	179.691
276.912	163.378
281.756	136.899
286.598	76.9548
291.438	89.6377
296.276	116.925
301.111	111.806
305.943	120.283
310.773	128.3
315.601	184.86
320.426	14.9876
325.248	9.99634
330.068	82.7263
334.886	23.2659
339.701	15.041
344.514	3.58032
349.324	91.4402
354.132	85.6721
358.938	24.3894
363.741	62.3928
368.541	39.6438
373.339	15.8623
378.135	7.0022
382.928	53.0422
387.718	55.4138
392.506	57.9419
397.292	6.09082
402.075	76.272
406.856	73.0684
411.634	167.384
416.41	111.749
421.183	172.104
425.954	213.879
430.722	291.98
435.488	499.899
440.251	654.152
445.012	745.596
449.77	692.54
454.526	399.527
459.28	316.341
464.03	158.171
468.779	185.904
473.525	52.0073
478.268	45.0591
483.009	63.0757
487.747	64.9663
492.483	84.8096
497.217	6.11035
501.948	136.619
506.676	56.126
511.402	76.272
516.125	28.2485
520.846	42.3667
525.565	31.6958
530.281	35.6973
534.994	10.4224
539.705	53.3755
544.413	49.6987
549.119	26.981
553.822	41.4722
558.523	126.636
563.222	116.253
567.917	130.359
572.611	461.388
577.302	793.511
581.99	868.063
586.676	391.385
591.359	310.012
596.04	232.958
600.718	415.315
605.394	510.378
610.067	575.704
614.737	359.421
619.406	235.045
624.071	160.239
628.734	184.379
633.395	22.9331
638.053	130.61
642.708	121.49
647.361	87.6055
652.012	72.0581
656.66	97.1675
661.305	103.445
665.948	154.427
670.588	85.7334
675.226	98.4717
679.861	64.7334
684.494	122.359
689.124	32.0654
693.752	133.818
698.377	13.7085
702.999	111.269
707.619	77.2188
712.237	85.291
716.852	34.1523
721.464	162.307
726.074	172.674
730.681	21.9932
735.286	90.5088
739.888	189.395
744.488	129.388
749.085	104.575
753.68	55.2383
758.272	19.4678
762.861	201.205
767.448	60.875
772.033	234.233
776.614	65.8691
781.194	138.141
785.77	227.216
790.345	56.5869
794.916	254.213
799.485	61.2549
804.052	261.014
808.616	251.787
813.177	123.554
817.736	100.497
822.292	104.823
826.846	168.61
831.397	148.5
835.945	98.8994
840.491	175.837
845.035	50.8272
849.576	86.8926
854.114	74.376
858.65	136.363
863.183	149.467
867.713	57.1846
872.241	3.62598
876.767	132.951
881.29	96.708
885.81	40.7647
890.328	90.626
894.843	32.707
899.356	83.0459
903.866	93.6328
908.373	32.9902
912.878	85.6943
917.38	56.0088
921.88	8.93359
926.377	99.0156
930.872	147.263
935.364	107.916
939.853	293.69
944.34	411.973
948.824	617.064
953.306	1524.97
957.785	7312.6
962.261	14165.7
966.735	11132.5
971.207	2892.1
975.675	937.822
980.141	495.488
984.605	252.207
989.066	64.5762
993.524	65.7578
997.98	61.9785
1002.43	97.668
1006.88	79.4258
1011.33	186.588
1015.78	7.55859
1020.22	131.047
1024.66	285.049
1029.1	588.748
1033.53	654.348
1037.97	169.793
1042.4	413.33
1046.82	297.85
1051.25	284.176
1055.67	564.9
1060.09	491.094
1064.51	333.332
1068.92	241.529
1073.33	141.746
1077.74	429.471
1082.15	218.74
1086.55	115.365
1090.95	182.609
1095.35	91.1211
1099.75	182.217
1104.14	50.9434
1108.53	262.215
1112.92	91.7754
1117.31	157.482
1121.69	80.9316
1126.07	196.834
1130.45	299.6
1134.82	237.283
1139.19	196.019
1143.57	251.359
1147.93	171.6
1152.3	313.928
1156.66	146.43
1161.02	151.904
1165.38	261.957
1169.73	224.695
1174.08	315.055
1178.43	198.641
1182.78	242.772
1187.12	42.2695
1191.46	375.033
1195.8	94.3887
1200.14	360.748
1204.47	287.533
1208.8	472.572
1213.13	336.562
1217.46	248.471
1221.78	234.24
1226.1	265.951
1230.42	363.312
1234.73	583.92
1239.04	278.014
1243.35	256.703
1247.66	385.269
1251.97	166.359
1256.27	91.8125
1260.57	336.812
1264.86	204.613
1269.16	26.1953
1273.45	242.723
1277.74	197.68
1282.03	125.324
1286.31	241.703
1290.59	339.715
1294.87	172.969
1299.14	61.2773
1303.42	3.51562
1307.69	142.918
1311.95	202.34
1316.22	238.856
1320.48	225.539
1324.74	467.469
1329	580.402
1333.26	352.844
1337.51	412.199
1341.76	86.9258
1346	33.4258
1350.25	562.797
1354.49	492.809
1358.73	247.141
1362.96	424.699
1367.2	330.598
1371.43	102.191
1375.66	363.594
1379.88	328.227
1384.11	162.519
1388.33	127.133
1392.54	201.035
1396.76	259.414
1400.97	219.695
1405.18	184.363
1409.39	347.391
1413.59	161.531
1417.8	181.484
1421.99	339.629
1426.19	212.781
1430.38	46.0469
1434.58	182.539
1438.77	298.148
1442.95	372.055
1447.13	326.887
1451.32	224.828
1455.49	290.551
1459.67	119.324
1463.84	339.981
1468.01	545.969
1472.18	543.641
1476.35	576.363
1480.51	308.512
1484.67	188.836
1488.83	233.465
1492.98	437.195
1497.13	549.309
1501.28	307.644
1505.43	286.035
1509.57	586.309
1513.71	554.352
1517.85	251.766
1521.99	473.762
1526.12	25.1094
1530.25	214.844
1534.38	361.231
1538.5	118.617
1542.62	406.238
1546.74	116.637
1550.86	83.5508
1554.98	318.441
1559.09	164.441
1563.2	200.289
1567.31	333.484
1571.41	0
