Measurement: Raman, 514 nm, ccw, Raman Data Processed
Mineral: Fluorapatite
Rruff sample: R050192
Ideal chemistry: Ca_5_(PO_4_)_3_F
Locality: Fulford, Eagle County, Colorado, USA
Source: Dave Bunk Minerals
Description: Pale green hexagonal prism
Measured chemistry: Ca_5.00_(P_1.00_O_4_)_3_(F_0.86_Cl_0.13_)
Pin_id: L00262
Orientation: Laser parallel to c* (0 0 1). Fiducial mark perpendicular to laser is parallel to b [0 1 0]
Raman shift (cm-1)	intensity
136.585	0
140.271	77.1992
143.956	84.4507
147.639	51.3127
151.321	33.0632
155.002	120.015
158.681	64.9211
162.359	16.2749
166.036	3.19556
169.711	88.5686
173.385	25.4165
177.058	44.4121
180.729	2.91479
184.399	6.37402
188.067	36.2937
191.734	33.3389
195.4	26.1443
199.064	119.558
202.727	84.0486
206.389	78.5559
210.049	50.6116
213.708	53.468
217.366	42.821
221.022	19.9619
224.677	37.1558
228.33	90.0039
231.982	74.6428
235.633	95.5493
239.282	107
242.93	54.6951
246.577	91.2781
250.222	143.665
253.866	137.16
257.508	253.749
261.149	253.286
264.789	257.468
268.427	220.972
272.064	236.573
275.7	115.205
279.334	144.291
282.967	159.081
286.598	74.0767
290.229	142.215
293.857	172.649
297.485	166.319
301.111	71.2583
304.735	177.569
308.358	155.986
311.98	92.8057
315.601	106.159
319.22	127.832
322.837	62.4949
326.454	15.6885
330.068	46.25
333.682	55.6323
337.294	27.5005
340.905	73.1597
344.514	35.9861
348.122	37.7986
351.729	58.0798
355.334	113.66
358.938	24.1782
362.54	93.6533
366.141	61.0928
369.741	45.9092
373.339	9.93286
376.936	1.01807
380.531	107.168
384.126	85.124
387.718	15.0845
391.31	14.9094
394.9	71.6411
398.488	69.6074
402.075	36.2036
405.661	100.3
409.245	118.862
412.828	75.3101
416.41	216.908
419.99	145.013
423.569	294.644
427.146	178.891
430.722	263.279
434.297	404.666
437.87	459.878
441.442	682.701
445.012	760.602
448.581	634.66
452.149	513.21
455.715	355.066
459.28	289.791
462.843	221.461
466.405	179.386
469.965	122.301
473.525	132.898
477.082	116.697
480.639	46.3862
484.194	69.9468
487.747	84.8677
491.3	41.3135
494.85	77.1968
498.4	51.8379
501.948	92.0117
505.494	109.193
509.039	70.1406
512.583	80.7837
516.125	38.9956
519.666	103.367
523.206	92.9224
526.744	10.9194
530.281	63.5068
533.816	117.893
537.35	34.6816
540.882	38.5234
544.413	24.5459
547.943	79.4702
551.471	85.4297
554.998	66.7398
558.523	87.5684
562.047	205.918
565.57	143.753
569.091	182.007
572.611	415.207
576.129	751.607
579.646	813.219
583.162	568.819
586.676	410.223
590.188	357.136
593.7	230.117
597.209	305.369
600.718	393.407
604.225	689.546
607.73	564.633
611.235	399.738
614.737	372.727
618.239	254.516
621.739	230.581
625.237	181.65
628.734	119.621
632.23	121.748
635.724	98.6943
639.217	108.568
642.708	117.737
646.198	163.71
649.687	263.117
653.174	133.358
656.66	51.8935
660.144	145.973
663.627	129.207
667.108	30.0855
670.588	251.973
674.067	173.401
677.544	9.34863
681.02	76.2295
684.494	109.546
687.967	153.777
691.438	173.774
694.908	47.7031
698.377	14.4639
701.844	34.6895
705.31	82.3945
708.774	66.3428
712.237	115.093
715.698	118.481
719.158	49.1895
722.617	37.8691
726.074	30.0742
729.53	33.2012
732.984	11.5762
736.437	93.6475
739.888	27.0986
743.338	97.665
746.787	99.6885
750.234	85.043
753.68	116.358
757.124	121.536
760.567	71.833
764.008	135.959
767.448	175.809
770.887	138.449
774.324	140.963
777.759	129.142
781.194	203.883
784.626	135.861
788.058	177.311
791.488	157.698
794.916	159.389
798.343	200.341
801.769	278.875
805.193	201.809
808.616	158.019
812.037	246.537
815.457	113.777
818.875	233.171
822.292	171.31
825.707	99.8184
829.122	190.376
832.534	134.603
835.945	109.599
839.355	181.243
842.763	121.634
846.17	81.4795
849.576	87.5664
852.98	100.559
856.382	297.309
859.783	146.571
863.183	232.619
866.581	233.977
869.978	295.834
873.373	211.925
876.767	144.124
880.159	186.622
883.55	12.5088
886.94	32.6465
890.328	47.0605
893.714	140.359
897.1	14.7734
900.483	62.4941
903.866	99.9805
907.246	140.367
910.626	79.2588
914.004	37.415
917.38	4.05469
920.755	75.3779
924.129	81.417
927.501	217.31
930.872	350.168
934.241	225.549
937.609	269.496
940.975	341.613
944.34	625.019
947.703	851.082
951.065	1519.99
954.426	3604.23
957.785	8341.38
961.142	12762.8
964.499	10840.2
967.853	5926.93
971.207	2802.05
974.558	1267.85
977.909	593.811
981.258	288.426
984.605	115.814
987.951	140.416
991.295	214.658
994.639	179.098
997.98	103.981
1001.32	109.539
1004.66	180.047
1008	137.496
1011.33	177.486
1014.67	343.029
1018	72.7871
1021.33	371.383
1024.66	459.748
1027.99	590.889
1031.32	506.195
1034.64	340.797
1037.97	225.262
1041.29	204.434
1044.61	330.873
1047.93	22.3691
1051.25	295.394
1054.56	303.82
1057.88	406.978
1061.19	251.07
1064.51	260.469
1067.82	244.004
1071.13	334.695
1074.43	102.139
1077.74	161.111
1081.05	89.5312
1084.35	145.367
1087.65	291.266
1090.95	26.748
1094.25	26.9062
1097.55	133.688
1100.85	7.7168
1104.14	198.66
1107.43	123.123
1110.73	4.52344
1114.02	201.447
1117.31	37.0391
1120.59	126.322
1123.88	177.074
1127.16	67.5312
1130.45	158.072
1133.73	189.035
1137.01	194.978
1140.29	291.719
1143.57	105.977
1146.84	292.381
1150.12	310.121
1153.39	164.705
1156.66	63.4258
1159.93	58.1855
1163.2	84.7324
1166.46	95.3223
1169.73	99.666
1172.99	202.824
1176.26	103.228
1179.52	56.1699
1182.78	251.443
1186.04	364.404
1189.29	378.713
1192.55	213.156
1195.8	277.049
1199.05	251.072
1202.31	362.699
1205.55	421.781
1208.8	420.873
1212.05	226.01
1215.29	373.58
1218.54	313.34
1221.78	184.221
1225.02	105.238
1228.26	214.397
1231.5	166.445
1234.73	302.072
1237.97	85.3594
1241.2	245.062
1244.43	319.457
1247.66	446.098
1250.89	87.2734
1254.12	64.1094
1257.34	254.988
1260.57	419.961
1263.79	262.441
1267.01	242.758
1270.23	361.731
1273.45	373.93
1276.67	100.16
1279.88	325.352
1283.1	363.106
1286.31	185.133
1289.52	356.168
