Measurement: Raman, 514 nm, ccw, Raman Data Processed
Mineral: Fluorite
Rruff sample: R050045
Ideal chemistry: CaF_2_
Locality: Hunan Province, China
Source: Eugene Schlepp
Description: Pale green colored cubes
Measured chemistry: Ca_1.000_ F_2.000_
Pin_id: L00437
Orientation: Laser parallel to a* (1 0 0). Fiducial mark perpendicular to laser is parallel to -b [0 -1 0]
Raman shift (cm-1)	intensity
131.042	0
135.21	158.751
139.376	191.451
143.539	226.251
147.701	138.182
151.861	114.047
156.018	233.117
160.174	264.441
164.327	157.449
168.479	170.353
172.628	223.233
176.776	85.793
180.922	76.448
185.065	258.126
189.207	217.589
193.346	147.169
197.484	114.643
201.619	128.313
205.753	68.642
209.884	97.835
214.014	206.486
218.141	185.196
222.267	33.95
226.391	47.166
230.512	61.978
234.632	181.151
238.749	150.337
242.865	59.511
246.979	248.659
251.09	87.778
255.2	73.091
259.308	76.015
263.414	69.16
267.517	203.836
271.619	123.001
275.719	159.074
279.817	250.967
283.913	206.887
288.007	25.072
292.099	153.107
296.189	346.125
300.277	193.566
304.363	352.906
308.447	692.557
312.529	1283.22
316.609	2753.05
320.687	4744.69
324.764	3497.88
328.838	1767.81
332.91	877.521
336.981	627.219
341.049	406.791
345.116	546.189
349.18	385.4
353.243	324.777
357.304	423.596
361.362	282.744
365.419	211.695
369.474	250.576
373.527	260.939
377.578	339.912
381.627	138.846
385.674	97.504
389.719	331.352
393.762	406.059
397.804	108.738
401.843	103.867
405.881	143.223
409.916	212.729
413.95	12.008
417.981	72.334
422.011	196.545
426.039	285.527
430.065	40.637
434.089	71.828
438.111	75.572
442.131	244.113
446.149	142.604
450.166	110.658
454.18	41.09
458.193	297.064
462.203	155.221
466.212	103.326
470.219	171.365
474.224	369.336
478.227	337.221
482.228	34.994
486.227	32.617
490.224	70.164
494.22	267.66
498.213	125.088
502.205	52.443
506.194	269.852
510.182	163.105
514.168	234.465
518.152	83.396
522.134	90.535
526.114	377.635
530.093	524.639
534.069	64.969
538.044	251.783
542.017	198.758
545.987	190.135
549.956	306.777
553.923	108.674
557.889	271.193
561.852	343.082
565.813	314.07
569.773	100.125
573.731	105.361
577.686	295.752
581.64	283.023
585.593	557.652
589.543	152.396
593.491	142.68
597.438	198.178
601.382	443.469
605.325	405.244
609.266	160.504
613.205	182.281
617.142	303.201
621.078	628.219
625.011	793.158
628.943	448.016
632.872	231.895
636.8	486.602
640.726	576.312
644.651	420.473
648.573	497.357
652.494	341.783
656.412	546.08
660.329	169.518
664.244	163.748
668.157	127.916
672.069	171.898
675.978	335.932
679.886	259.734
683.792	123.506
687.696	22.75
691.598	159.135
695.498	272.717
699.397	346.139
703.293	189.336
707.188	217.594
711.081	215.043
714.972	407.555
718.862	273.025
722.749	294.789
726.635	126.582
730.519	268.629
734.401	380.061
738.281	372.137
742.16	274.098
746.036	65.148
749.911	157.354
753.784	409.613
757.655	551.881
761.525	353.824
765.392	145.951
769.258	258.113
773.122	270.254
776.984	462.342
780.844	404.457
784.703	256.607
788.56	118.803
792.415	131.047
796.268	743.371
800.119	645.777
803.969	378.191
807.816	100.639
811.662	143.148
815.506	545.713
819.349	518.242
823.189	876.422
827.028	269.141
830.865	102.729
834.7	595.959
838.534	701.404
842.365	1173.62
846.195	777.336
850.023	682.479
853.85	623.701
857.674	842.502
861.497	940.822
865.318	784.594
869.137	422.477
872.955	321.041
876.77	310.385
880.584	504.799
884.396	899.361
888.207	574.109
892.015	507.4
895.822	441.111
899.627	466.631
903.43	762.447
907.232	688.459
911.032	574.635
914.83	684.553
918.626	431.078
922.42	267.777
926.213	708.836
930.004	725.904
933.793	773.176
937.581	250.641
941.366	318.301
945.15	266.162
948.932	764.217
952.713	822.475
956.491	658.525
960.268	187.18
964.044	236.035
967.817	4.016
971.589	15.148
975.359	357.551
979.127	357.039
982.893	23.219
986.658	93.258
990.421	73.164
994.183	127.109
997.942	547.613
1001.7	1068.31
1005.46	523.305
1009.21	194.629
1012.96	108.523
1016.71	30.441
1020.46	602.633
1024.21	1005.1
1027.96	987.832
1031.7	571.25
1035.44	86.531
1039.18	3.895
1042.92	384.281
1046.66	1055.54
1050.39	1148.71
1054.13	1039.82
1057.86	364.398
1061.59	249.398
1065.32	394.77
1069.05	319.969
1072.77	805.277
1076.49	940.969
1080.22	868.719
1083.94	705.129
1087.65	631.98
1091.37	99.02
1095.09	486.129
1098.8	533.512
1102.51	410.754
1106.22	878.332
1109.93	325.723
1113.63	166.824
1117.34	49.484
1121.04	17.887
1124.74	649.691
1128.44	657.031
1132.14	602.488
1135.84	297.367
1139.53	345.012
1143.22	164.289
1146.91	302.418
1150.61	480.254
1154.29	298.516
1157.98	721.766
1161.66	429.879
1165.35	418.406
1169.03	286.48
1172.71	105.309
1176.38	5.199
1180.06	222.43
1183.73	180.344
1187.41	642.012
1191.08	470.215
1194.75	296.051
1198.41	84.453
1202.08	201.578
1205.74	341.324
1209.41	531.066
1213.07	932.723
1216.73	1246.11
1220.38	1011.24
1224.04	798.223
1227.69	635.094
1231.35	478.773
1235	630.371
1238.65	482.883
1242.3	706.414
1245.94	1348.87
1249.59	1541.74
1253.23	1092.9
1256.87	926.445
1260.51	769.582
1264.15	840.27
1267.78	862.527
1271.42	1009.53
1275.05	770.176
1278.68	1091.25
1282.31	1105.98
1285.94	945.711
1289.56	194.602
1293.19	372.359
1296.81	309.406
1300.43	11.934
1304.05	597.285
1307.67	1148.91
1311.29	1192
1314.9	734.605
1318.52	656.676
1322.13	447.746
1325.74	178.574
1329.34	26.672
1332.95	111.977
1336.56	333.73
1340.16	374.578
1343.76	765.965
1347.36	962.465
1350.96	868.441
1354.56	653.652
1358.15	1328.3
1361.74	122.922
1365.34	292.648
1368.93	74.242
1372.52	48.598
1376.1	441.141
1379.69	886.609
1383.27	1471.19
1386.85	1094.83
1390.43	868.457
1394.01	871.82
1397.59	104.82
1401.17	406.23
1404.74	272.449
1408.31	601.535
1411.88	823.656
1415.45	890.441
1419.02	1315.29
1422.59	1379
1426.15	1178.34
1429.71	616.016
1433.28	463.664
1436.84	501.43
1440.39	804.699
1443.95	934.004
1447.5	1324.21
1451.06	1618.31
1454.61	2107.36
1458.16	2076.92
1461.71	1999.86
1465.26	1792.04
1468.8	1551.2
1472.34	978.957
1475.89	740.504
1479.43	135.766
1482.97	610.062
1486.5	803.766
1490.04	909.07
1493.57	924.508
1497.11	1312.57
1500.64	1024.32
1504.17	1356.11
1507.69	676.289
1511.22	470.938
1514.74	214.609
1518.27	1.684
