Measurement: Raman, 514 nm, ccw, Raman Data Processed
Mineral: Fluorophlogopite
Rruff sample: R040039
Ideal chemistry: KMg_3_(Si_3_Al)O_10_F_2_
Locality: Franklin, Sussex County, New Jersey, USA
Source: University of Arizona Mineral Museum
Description: Brown hexagonal sheets
Measured chemistry: (K_0.92_Na_0.06_[box]_0.02_)_Σ=1_(Mg_2.94_Fe_0.04_Ti_0.02_)_Σ=3_(Si_2.98_Al_1.02_)O_10_(F_1.24_(OH)_0.76_)_Σ=2_; OH estimated by charge balance
Pin_id: L00415
Orientation: Laser parallel to [-1 0 -1]. Fiducial mark perpendicular to laser is parallel to b* (0 1 0)
Raman shift (cm-1)	intensity
96.233	0
100.418	536.284
104.6	1339.36
108.781	1778.93
112.959	1630.16
117.136	1794.8
121.31	1393.27
125.482	1100.66
129.653	758.272
133.821	518.188
137.987	416.711
142.152	225.894
146.314	126.579
150.474	52.386
154.633	71.239
158.789	69.498
162.943	13.186
167.095	56.177
171.246	289.706
175.394	528.706
179.54	1065.14
183.684	2143.02
187.826	4991.8
191.967	10284.5
196.105	14116.2
200.241	10618.5
204.375	5243.41
208.507	2411.51
212.638	1165.85
216.766	609.586
220.892	255.512
225.016	126.57
229.139	83.75
233.259	12.952
237.377	20.547
241.493	77.105
245.608	67.46
249.72	57.914
253.83	2.975
257.939	224.047
262.045	563.301
266.15	1392.56
270.252	3139.83
274.353	6379.97
278.451	8390.1
282.548	6000.62
286.642	3024.35
290.735	1488.98
294.826	968.863
298.914	1006.67
303.001	1365.46
307.086	2218.21
311.168	3651.95
315.249	5063.24
319.328	6431.59
323.405	6779.5
327.48	5650.15
331.553	4033.39
335.624	2728.01
339.693	1957.59
343.76	1389.01
347.826	1170.48
351.889	1046.01
355.95	922.564
360.01	1030.14
364.067	1161.72
368.123	1462.29
372.176	1654.85
376.228	1282.4
380.277	1004.87
384.325	777.275
388.371	663.228
392.415	550.527
396.457	503.247
400.497	373.697
404.535	389.015
408.571	251.263
412.605	189.707
416.638	182.083
420.668	150.242
424.697	186.221
428.723	295.423
432.748	377.617
436.77	398.271
440.791	464.007
444.81	435.303
448.827	550.232
452.842	610.478
456.855	535.333
460.867	491.032
464.876	569.569
468.883	360.945
472.889	40.156
476.892	99.991
480.894	53.833
484.894	43.77
488.892	150.043
492.888	315.105
496.882	492.001
500.874	681.743
504.865	855.337
508.853	970.78
512.84	1142.07
516.824	934.204
520.807	690.179
524.788	480.996
528.767	337.653
532.744	240.173
536.719	224.563
540.693	233.829
544.664	196.993
548.634	164.082
552.601	210.069
556.567	174.958
560.531	192.795
564.493	151.685
568.453	146.791
572.412	149.073
576.368	116.452
580.323	18.667
584.275	65.437
588.226	33.096
592.175	17.381
596.122	37.316
600.068	1.807
604.011	36.355
607.952	162.267
611.892	335.989
615.83	532.533
619.766	682.901
623.7	1112.09
627.632	1688.11
631.563	2174.67
635.491	2660.81
639.418	3016.18
643.343	3134.19
647.266	3203.28
651.187	3386.25
655.106	3728.19
659.024	4279.99
662.939	5193.66
666.853	6706.19
670.765	9391.59
674.675	12766.9
678.583	18522
682.49	21617.1
686.394	20172.6
690.297	15949.7
694.198	11296.9
698.097	7295.34
701.995	4899.98
705.89	3481.52
709.784	2546.33
713.675	2039.04
717.565	1674.18
721.453	1524.56
725.34	1434.78
729.224	1475
733.107	1502.46
736.988	1570.18
740.867	1494.41
744.744	1551.93
748.62	1439.2
752.493	1267.51
756.365	1187.96
760.235	1098.34
764.103	1010.2
767.969	1022.33
771.834	1086.4
775.697	1139.38
779.558	1313.28
783.417	1482.1
787.274	1621.84
791.13	1781.68
794.983	1586.75
798.835	1458.16
802.686	1187.13
806.534	935.273
810.38	745.347
814.225	593.353
818.068	499.293
821.909	283.169
825.749	234.983
829.586	123.737
833.422	95.918
837.256	52.07
841.088	25.36
844.919	30.907
848.748	28.546
852.575	29.331
856.4	43.305
860.223	0.483
864.045	67.127
867.864	11.371
871.682	37.027
875.499	116.136
879.313	4.936
883.126	40.226
886.937	58.354
890.746	33.369
894.553	40.682
898.359	35.614
902.163	103.761
905.965	55.166
909.765	80.708
913.564	158.307
917.361	137.921
921.156	158.534
924.949	117.145
928.74	120.753
932.53	55.363
936.318	100.999
940.104	120.636
943.889	163.28
947.672	84.926
951.453	158.572
955.232	132.218
959.01	153.862
962.785	283.514
966.559	317.17
970.332	304.83
974.102	275.495
977.871	307.166
981.638	347.842
985.404	350.526
989.167	482.027
992.929	561.358
996.689	609.89
1000.45	702.144
1004.2	737.009
1007.96	850.159
1011.71	822.554
1015.46	824.035
1019.21	759.649
1022.96	636.846
1026.71	759.345
1030.45	1190.71
1034.19	1701.65
1037.94	1878.81
1041.68	1355.49
1045.41	1133.71
1049.15	967.073
1052.88	933.509
1056.62	1085.29
1060.35	1140.04
1064.08	1269.72
1067.8	1346.61
1071.53	1436.51
1075.25	1573.37
1078.97	1807.61
1082.7	2114.2
1086.41	2513.15
1090.13	2840.31
1093.85	3047.57
1097.56	3059.56
1101.27	2901.72
1104.98	2695.85
1108.69	2233.59
1112.4	1701.05
1116.1	1234.21
1119.81	1024.49
1123.51	1504.72
1127.21	515.15
1130.91	251.182
1134.61	114.421
1138.3	20.566
1141.99	132.123
1145.68	232.618
1149.38	104.833
1153.06	104.723
1156.75	17.104
1160.43	7.323
1164.12	36.719
1167.8	429.347
1171.48	28.351
1175.16	91.349
1178.83	23.562
1182.51	45.961
1186.18	13.401
1189.85	87.27
1193.52	7.276
1197.19	7.264
1200.86	39.933
1204.52	61.088
1208.19	84.889
1211.85	54.384
1215.51	13.47
1219.17	8.015
1222.82	33.871
1226.48	134.438
1230.13	114.83
1233.78	233.975
1237.43	270.298
1241.08	213.272
1244.73	94.731
1248.37	103.745
1252.01	127.271
1255.66	152.364
1259.3	268.369
1262.93	234.965
1266.57	390.08
1270.21	289.79
1273.84	231.021
1277.47	132.85
1281.1	158.624
1284.73	161.104
1288.36	159.545
1291.98	271.581
1295.6	413.727
1299.23	316.477
1302.85	321.367
1306.46	230.229
1310.08	175.243
1313.7	184.472
1317.31	196.961
1320.92	150.018
1324.53	232.566
1328.14	306.94
1331.75	285.917
1335.35	242.355
1338.96	111.98
1342.56	111.37
1346.16	70.57
1349.76	41.845
1353.36	154.26
1356.95	187.95
1360.55	154.079
1364.14	128.204
1367.73	79.121
1371.32	194.766
1374.91	112.555
1378.49	6.884
1382.08	34.798
1385.66	4.98
1389.24	57.145
1392.82	165.174
1396.4	266.833
1399.97	185.812
1403.55	323.823
1407.12	190.751
1410.69	239.211
1414.26	154.854
1417.83	152.746
1421.4	11.644
1424.96	147.597
1428.53	153.537
1432.09	273.915
1435.65	405.764
1439.21	504.462
1442.76	715.326
1446.32	574.451
1449.87	574.447
1453.43	514.649
1456.98	410.583
1460.53	507.919
1464.07	409.556
1467.62	340.038
1471.16	456.633
1474.71	448.708
1478.25	565.747
1481.79	506.352
1485.32	387.12
1488.86	488.266
1492.39	301.297
1495.93	234.698
1499.46	102.855
1502.99	15.741
1506.52	45.134
1510.05	39.205
1513.57	83.944
1517.09	179.751
