Measurement: Raman, 514 nm, ccw, Raman Data Processed
Mineral: Fluor-uvite
Rruff sample: R050172
Ideal chemistry: CaMg_3_(Al_5_Mg)(Si_6_O_18_)(BO_3_)_3_(OH)_3_F
Locality: Pierrepont, New York, USA
Source: Marcus Origlieri
Description: Black prismatic crystal
Measured chemistry: (Ca_0.64_Na_0.36_)(Mg_0.56_Fe^2+^_0.34_Al_0.08_Ti_0.02_)_3_(Mg_1.00_Al_5.00_)(BO_3_)_3_Si_6.00_O_18_((OH)_3.45_F_0.55_)
Pin_id: L00240
Orientation: Laser parallel to -a* (-1 0 0). Fiducial mark perpendicular to laser is parallel to c [0 0 1]
Raman shift (cm-1)	intensity
168.01	0
172.151	49.806
176.29	28.399
180.427	40.134
184.562	102.798
188.696	227.351
192.827	242.8
196.956	481.451
201.084	767.62
205.209	1138.74
209.333	1317.87
213.454	1196.77
217.574	937.251
221.692	583.245
225.808	628.568
229.922	964.745
234.034	1557.84
238.144	2088.63
242.252	1948.38
246.359	1371.54
250.463	807.759
254.566	413.319
258.666	255.4
262.765	216.11
266.862	155.223
270.957	129.528
275.05	93.859
279.141	32.076
283.23	3.01
287.317	44.499
291.403	57.117
295.486	0.487
299.568	13.432
303.647	19.473
307.725	100.725
311.801	201.302
315.875	257.645
319.947	224.542
324.018	239.259
328.086	320.653
332.153	348.317
336.217	405.177
340.28	552.71
344.341	689.942
348.4	812.402
352.457	1161.96
356.512	1626.6
360.566	2354.32
364.617	2802.01
368.667	2763.61
372.715	2229.27
376.761	1663.07
380.805	1215.92
384.847	901.837
388.887	678.641
392.926	588.757
396.962	502.239
400.997	406.75
405.03	437.934
409.061	378.951
413.09	280.739
417.117	269.177
421.143	202.531
425.166	144.445
429.188	82.396
433.208	67.016
437.226	32.893
441.242	58.949
445.256	54.209
449.269	12.368
453.28	36.732
457.288	32.927
461.295	45.14
465.3	78.953
469.304	146.943
473.305	122.624
477.305	237.281
481.303	351.872
485.298	365.583
489.293	386.983
493.285	460.24
497.275	396.854
501.264	301.414
505.251	243.757
509.236	225.898
513.219	198.854
517.2	193.666
521.18	202.37
525.157	179.005
529.133	234.611
533.107	250.14
537.079	147.571
541.05	190.997
545.018	153.408
548.985	166.805
552.95	64.199
556.913	106.556
560.875	97.885
564.834	58.943
568.792	56.487
572.748	52.264
576.702	45.22
580.654	57.363
584.605	58.051
588.553	29.048
592.5	16.645
596.445	2.895
600.389	9.389
604.33	59.498
608.27	53.995
612.208	46.998
616.144	75.914
620.078	109.041
624.011	200.117
627.941	289.5
631.87	326.072
635.798	345.792
639.723	458.515
643.647	606.246
647.568	565.976
651.488	621.698
655.407	667.406
659.323	726.613
663.238	953.32
667.151	920.249
671.062	805.832
674.971	607.397
678.879	531.485
682.785	552.934
686.689	575.132
690.591	657.132
694.491	854.175
698.39	1161.79
702.287	1177.74
706.182	926.803
710.076	655.575
713.968	388.183
717.857	389.641
721.746	390.058
725.632	383.49
729.517	410.276
733.4	378.177
737.281	405.094
741.16	483.689
745.038	411.794
748.913	524.47
752.788	538.469
756.66	545.762
760.531	501.417
764.399	516.872
768.267	500.515
772.132	495.193
775.996	416.826
779.857	501.404
783.718	383.896
787.576	350.292
791.433	322.59
795.288	262.788
799.141	249.884
802.992	147.875
806.842	170.761
810.69	64.54
814.536	48.202
818.381	25.509
822.223	5.124
826.065	6.34
829.904	5.315
833.741	6.009
837.577	8.639
841.412	24.364
845.244	0.843
849.075	30.296
852.904	19.12
856.731	63.22
860.556	4.645
864.38	33.709
868.202	13.924
872.023	34.004
875.842	11.927
879.658	64.688
883.474	83.499
887.287	75.817
891.099	84.193
894.909	93.449
898.718	98.599
902.524	128.677
906.329	126.686
910.133	115.59
913.934	158.375
917.734	160.043
921.532	190.591
925.329	181.017
929.124	222.32
932.917	271.5
936.708	305.29
940.498	323.497
944.286	300.315
948.072	426.014
951.857	405.594
955.64	492.056
959.421	556.401
963.201	531.408
966.979	530.934
970.755	517.803
974.529	586.259
978.302	548.11
982.073	587.775
985.843	569.865
989.611	526.589
993.377	496.461
997.141	483.691
1000.9	514.549
1004.66	601.367
1008.42	611.422
1012.18	670.765
1015.94	727.193
1019.69	868.017
1023.45	973.997
1027.2	1008.17
1030.95	1147.98
1034.69	1116.28
1038.44	1194.33
1042.18	1150.44
1045.93	1106.41
1049.67	1024.48
1053.41	1008.74
1057.14	969.626
1060.88	905.92
1064.62	847.419
1068.35	838.93
1072.08	746.876
1075.81	729.041
1079.54	622.164
1083.26	590.247
1086.99	455.293
1090.71	451.302
1094.43	393.275
1098.15	363.214
1101.87	337.12
1105.59	268.268
1109.3	242.845
1113.01	260.668
1116.72	203.472
1120.43	197.264
1124.14	151.056
1127.85	84.868
1131.55	109.742
1135.26	83.691
1138.96	113.753
1142.66	56.902
1146.36	56.065
1150.05	1.308
1153.75	11.702
1157.44	20.119
1161.13	8.663
1164.82	3.219
1168.51	45.968
1172.2	12.554
1175.88	33.944
1179.57	4.409
1183.25	50.864
1186.93	52.312
1190.61	17.935
1194.28	11.392
1197.96	40.305
1201.63	20.138
1205.31	38.963
1208.98	5.125
1212.64	45.202
1216.31	80.267
1219.98	87.32
1223.64	120.362
1227.31	111.39
1230.97	127.706
1234.62	139.458
1238.28	129.446
1241.94	163.422
1245.59	70.399
1249.25	94.376
1252.9	106.466
1256.55	78.615
1260.2	94.683
1263.84	92.702
1267.49	51.678
1271.13	130.477
1274.77	76.5
1278.41	133.191
1282.05	128.306
1285.69	96.243
1289.32	74.295
1292.96	91.228
1296.59	76.026
1300.22	55.787
1303.85	40.563
1307.48	35.414
1311.1	21.458
1314.72	43.871
1318.35	33.924
1321.97	75.713
1325.59	57.549
1329.21	51.946
1332.82	45.807
1336.44	13.551
1340.05	63.658
1343.66	47.019
1347.27	51.943
1350.88	51.469
1354.49	60.727
1358.09	33.96
1361.7	61.186
1365.3	61.307
1368.9	80.6
1372.5	29.199
1376.1	65.116
1379.69	63.946
1383.29	69.591
1386.88	124.444
1390.47	82.28
1394.06	41.091
1397.65	15.938
1401.23	23.618
1404.82	24.308
1408.4	35.938
1411.98	8.47
1415.56	42.011
1419.14	65.261
1422.72	40.072
1426.3	17.482
1429.87	48.862
1433.44	30.818
1437.01	32.47
1440.58	2.861
1444.15	17.95
1447.71	16.199
1451.28	82.616
1454.84	7.387
1458.4	85.657
1461.96	66.283
1465.52	83.767
1469.08	54.9
1472.64	68.481
1476.19	41.705
1479.74	0.282
1483.29	50.756
1486.84	20.887
1490.39	1.887
1493.94	51.485
1497.48	47.143
1501.02	56.151
1504.57	11.681
1508.11	54.625
1511.64	77.051
1515.18	58.146
1518.72	19.674
1522.25	0.268
