Measurement: Raman, 514 nm, ccw, Raman Data Processed
Mineral: Fluoro-richterite
Rruff sample: R040019
Ideal chemistry: Na(NaCa)Mg_5_Si_8_O_22_F_2_
Locality: Wilberforce, Ontario, Canada
Source: University of Arizona Mineral Museum
Description: Brown prismatic crystals
Measured chemistry: (Na_0.59_K_0.27_[box]_0.14_)_Σ=1_(Ca_1.30_Na_0.70_)_Σ=2_(Mg_4.67_Fe_0.17_Fe^3+^_0.10_Ti_0.03_Mn_0.02_Al_0.01_)_Σ=5_(Si_7.67_Al_0.33_)_Σ=8_(F_1.12_(OH)_0.88_)_Σ=2_; OH estimated by charge balance
Pin_id: L00117
Orientation: Laser parallel to [-1 0 -1]. Fiducial mark perpendicular to laser is parallel to -b* (0 -1 0)
Raman shift (cm-1)	intensity
86.404	0
90.587	126.964
94.768	170.815
98.947	347.652
103.124	760.334
107.3	2091.35
111.473	2735.84
115.644	3168.42
119.813	1809.46
123.981	478.56
128.146	68.36
132.309	25.662
136.47	22.36
140.63	52.972
144.787	73.351
148.942	673.631
153.096	2629.73
157.247	6339.36
161.396	9103.29
165.544	5957.3
169.689	3624.15
173.833	3585.5
177.974	4260.3
182.114	4797.85
186.251	3889.28
190.387	2655.55
194.52	2273.43
198.652	2400.5
202.782	3018.69
206.909	3876.21
211.035	4543.72
215.159	5213.11
219.281	7271.28
223.4	10979.2
227.518	16284.8
231.634	19917.2
235.748	17168.1
239.86	11838.7
243.97	7981.84
248.079	5490.51
252.185	3509.46
256.289	2166.91
260.391	1156.6
264.492	545.371
268.59	224.683
272.687	157.273
276.781	0.259
280.874	1.71
284.964	130.356
289.053	422.353
293.14	760.033
297.225	1198.09
301.308	1795.05
305.389	2396.55
309.468	3196.22
313.545	3571.82
317.62	3239.72
321.693	2690.88
325.765	2082.28
329.834	1917.64
333.902	2089.54
337.967	2554.49
342.031	3103.84
346.093	3513.5
350.153	3298.44
354.21	3248.65
358.267	3523.11
362.321	4339.8
366.373	4867.69
370.423	4445.75
374.471	3814.96
378.518	3999.3
382.563	4086.74
386.605	4111.29
390.646	4351.92
394.685	4534.62
398.722	4584.38
402.757	4281.18
406.79	3499
410.821	2768.84
414.851	2106.72
418.878	1821.79
422.904	1936.04
426.927	2245.42
430.949	2283.91
434.969	1940.47
438.987	1385.13
443.003	580.111
447.018	272.051
451.03	4.791
455.041	142.412
459.049	12.768
463.056	72.595
467.061	277.297
471.064	365.543
475.065	106.517
479.064	87.721
483.062	96.795
487.057	16.801
491.051	35.482
495.043	227.363
499.032	518.941
503.02	947.223
507.007	1568.2
510.991	2534.88
514.973	3806.26
518.954	4329.38
522.933	3963.18
526.91	3286.68
530.885	2572.98
534.858	1891.19
538.829	1513.26
542.799	1279.17
546.766	1221.83
550.732	1261.11
554.696	1191.98
558.658	1278.43
562.618	1195.44
566.576	1093.75
570.533	1173.04
574.488	1138.61
578.44	1313.69
582.391	1339.26
586.341	1342.32
590.288	986.86
594.233	472.868
598.177	40.278
602.119	110.111
606.059	148.854
609.997	51.599
613.933	92.077
617.868	105.754
621.801	116.593
625.731	355.731
629.66	458.421
633.588	671.58
637.513	845.209
641.437	990.021
645.358	1397.03
649.278	1996.47
653.196	2770.32
657.113	3975.79
661.027	5423.68
664.94	8027.18
668.851	12620.3
672.76	21673.4
676.667	37024.7
680.572	47768.2
684.476	40920.6
688.378	24219.7
692.278	13843.1
696.176	8186.3
700.072	5551.34
703.967	4109.68
707.86	3500.75
711.751	3001.13
715.64	3139.72
719.527	3397.4
723.413	3624.13
727.297	4018.33
731.179	4422
735.059	4482.15
738.937	4255.78
742.814	3448.91
746.689	2777.53
750.562	2306.31
754.433	1951.47
758.303	1543.99
762.17	1270.88
766.036	937.112
769.901	791.489
773.763	605.302
777.624	491.587
781.482	460.754
785.339	398.22
789.195	427.62
793.048	367.129
796.9	347.722
800.75	349.33
804.598	391.824
808.445	268.072
812.289	164.039
816.132	138.699
819.973	91.052
823.813	52.075
827.65	31.717
831.486	49.969
835.32	3.148
839.152	94.678
842.983	91.926
846.812	109.958
850.639	117.726
854.464	42.163
858.288	8.968
862.11	77.998
865.93	101.778
869.748	224.6
873.564	369.93
877.379	446.336
881.192	518.085
885.004	740.722
888.813	810.369
892.621	1011.11
896.427	1117.97
900.232	1392.97
904.034	1644.04
907.835	1648.25
911.634	1783.92
915.432	1857.34
919.227	2112.51
923.021	2339.28
926.813	2982.47
930.604	3319.83
934.393	3345.22
938.18	3367.59
941.965	3269.78
945.749	3314.94
949.53	3348.78
953.311	3134.64
957.089	2561.54
960.866	1922.49
964.641	1424.3
968.414	1178.22
972.185	1063.32
975.955	1059.26
979.723	1067.6
983.49	1058.49
987.254	1081.91
991.017	1186.93
994.779	1368.02
998.538	1579.52
1002.3	1871.83
1006.05	2369.3
1009.81	2970.34
1013.56	3331.44
1017.31	3762.57
1021.06	3977.65
1024.81	4179.06
1028.55	4394.27
1032.3	4914.06
1036.04	5678.18
1039.78	6264.63
1043.52	6411.08
1047.26	6523.75
1050.99	6698.79
1054.73	6942.84
1058.46	7492.35
1062.19	7902.12
1065.92	8382.19
1069.65	8472.04
1073.37	8039.7
1077.1	7179.7
1080.82	6383.96
1084.54	5863.36
1088.26	5071.54
1091.97	4090.13
1095.69	3244.59
1099.4	2665.93
1103.12	2218.56
1106.83	1834.2
1110.54	1618.62
1114.24	1362.93
1117.95	1255.17
1121.65	1248.8
1125.35	1247.56
1129.06	802.182
1132.75	788.989
1136.45	658.068
1140.15	499.117
1143.84	402.609
1147.53	387.95
1151.22	193.198
1154.91	145.023
1158.6	158.645
1162.28	64.01
1165.97	132.177
1169.65	20.36
1173.33	30.482
1177.01	56.899
1180.69	23.028
1184.36	36.157
1188.04	18.492
1191.71	51.069
1195.38	75.104
1199.05	116.246
1202.71	37.069
1206.38	69.016
1210.04	54.685
1213.71	53.816
1217.37	20.354
1221.03	33.939
1224.68	57.78
1228.34	108.525
1231.99	112.423
1235.65	238.91
1239.3	157.099
1242.95	141.53
1246.59	179.075
1250.24	233.58
1253.88	239.104
1257.53	95.732
1261.17	200.239
1264.81	284.746
1268.45	221.233
1272.08	206.49
1275.72	130.812
1279.35	250.193
1282.98	170.979
1286.61	221.402
1290.24	236.591
1293.87	181.258
1297.49	164.785
1301.11	260.588
1304.73	279.385
1308.36	243.729
1311.97	89.001
1315.59	141.484
1319.2	107.098
1322.82	20.343
1326.43	191.353
1330.04	53.211
1333.65	30.584
1337.26	32.108
1340.86	130.913
1344.47	31.707
1348.07	59.73
1351.67	17.052
1355.27	87.255
1358.87	67.86
1362.46	11.847
1366.06	36.877
1369.65	4.07
1373.24	42.877
1376.83	52.013
1380.42	115.831
1384	91.451
1387.59	25.199
1391.17	41.562
1394.75	98.822
1398.33	143.047
1401.91	166.721
1405.49	122.957
1409.06	260.803
1412.64	206.768
1416.21	219.787
1419.78	234.346
1423.35	122.91
1426.91	208.154
1430.48	274.291
1434.05	224.074
1437.61	370.539
1441.17	258.229
1444.73	347.568
1448.29	384.764
1451.84	511.492
1455.4	443.59
1458.95	428.496
1462.5	334.004
1466.05	401.24
1469.6	240.404
1473.15	439.246
1476.69	307.027
1480.24	173.455
1483.78	284.492
1487.32	274.213
1490.86	331.996
1494.39	250.395
1497.93	158.031
1501.46	183.326
1505	210.418
