Measurement: Raman, 514 nm, ccw, Raman Data Processed
Mineral: Fluorapatite
Rruff sample: R050401
Ideal chemistry: Ca_5_(PO_4_)_3_F
Locality: Urbano mine, Golconda District, Minas Gerais, Brazil
Source: Bob Downs
Description: Pale purple hexagonal prism associated with albite R050402
Measured chemistry: (Ca_0.99_Mn_0.01_)_5_(P_1.00_O_4_)_3_F_1.00_
Pin_id: L01966
Orientation: Laser parallel to a* (1 0 0). Fiducial mark perpendicular to laser is parallel to c [0 0 1]
Raman shift (cm-1)	intensity
140.271	0
145.184	75.6553
150.094	90.6182
155.002	63.7105
159.908	4.79688
164.811	140.292
169.711	56.7891
174.61	142.068
179.505	57.4609
184.399	55.581
189.29	68.7783
194.178	164.49
199.064	33.8154
203.948	14.3237
208.829	78.2398
213.708	48.5542
218.585	153.576
223.459	66.1929
228.33	57.831
233.199	50.1938
238.066	86.6401
242.93	23.4844
247.792	60.9795
252.651	91.6958
257.508	135.107
262.363	91.9312
267.215	122.69
272.064	198.695
276.912	89.875
281.756	148.06
286.598	95.8037
291.438	231.894
296.276	19.9082
301.111	93.8477
305.943	28.7988
310.773	170.71
315.601	122.779
320.426	79.6191
325.248	42.0195
330.068	67.9111
334.886	92.8769
339.701	99.2773
344.514	3.26953
349.324	15.1318
354.132	80.2295
358.938	40.165
363.741	110.171
368.541	66.3037
373.339	44.374
378.135	27.2275
382.928	15.8057
387.718	167.724
392.506	51.2051
397.292	36.3252
402.075	209.475
406.856	182.376
411.634	43.7353
416.41	8.60059
421.183	47.419
425.954	119.132
430.722	146.81
435.488	218.94
440.251	218.238
445.012	390.482
449.77	175.078
454.526	166.357
459.28	166.858
464.03	103.131
468.779	43.5176
473.525	72.4062
478.268	40.7275
483.009	141.765
487.747	96.4834
492.483	36.502
497.217	31.8594
501.948	116.695
506.676	67.6699
511.402	138.725
516.125	125.216
520.846	70.0811
525.565	137.451
530.281	136.977
534.994	88.6924
539.705	93.3057
544.413	71.4922
549.119	206.097
553.822	133.457
558.523	181.749
563.222	87.3223
567.917	238.539
572.611	265.059
577.302	326.043
581.99	471.102
586.676	366.201
591.359	196.352
596.04	145.393
600.718	320.887
605.394	327.658
610.067	399.769
614.737	329.754
619.406	192.277
624.071	133.023
628.734	87.1113
633.395	104.189
638.053	33.6309
642.708	197.008
647.361	210.045
652.012	229.543
656.66	265.742
661.305	185.959
665.948	231.162
670.588	290.596
675.226	54.668
679.861	27.6641
684.494	95.3613
689.124	95.3926
693.752	53.834
698.377	256.273
702.999	172.387
707.619	80.2754
712.237	102.428
716.852	143.527
721.464	169.894
726.074	292.19
730.681	401.662
735.286	153
739.888	206.072
744.488	330.848
749.085	479.465
753.68	161.586
758.272	154.787
762.861	325.951
767.448	227.414
772.033	211.717
776.614	181.279
781.194	69.3555
785.77	369.098
790.345	261.666
794.916	231.76
799.485	296.959
804.052	282.297
808.616	306.943
813.177	314.982
817.736	236.316
822.292	350.897
826.846	423.375
831.397	180.81
835.945	423.586
840.491	155.738
845.035	9.45312
849.576	102.949
854.114	5.10352
858.65	31.2949
863.183	206.277
867.713	265.348
872.241	15.834
876.767	139.519
881.29	51.5527
885.81	126.617
890.328	510.256
894.843	315.006
899.356	263.223
903.866	183.478
908.373	268.102
912.878	117.975
917.38	220.066
921.88	83.8594
926.377	257.656
930.872	91.4648
935.364	405.008
939.853	319.34
944.34	105.269
948.824	465.176
953.306	349.555
957.785	975.758
962.261	4485.34
966.735	4473.36
971.207	870.926
975.675	58.4492
980.141	356.516
984.605	371.324
989.066	310.043
993.524	130.465
997.98	220.488
1002.43	1.39062
1006.88	210.148
1011.33	2.80469
1015.78	49.1602
1020.22	120.606
1024.66	25.2461
1029.1	181.512
1033.53	337.375
1037.97	243.457
1042.4	369.797
1046.82	329.918
1051.25	71.2812
1055.67	98.4062
1060.09	308.633
1064.51	114.894
1068.92	140.637
1073.33	200.754
1077.74	470.242
1082.15	322.215
1086.55	261.648
1090.95	258.57
1095.35	16.957
1099.75	226.777
1104.14	520.144
1108.53	55.8984
1112.92	26.4336
1117.31	376.606
1121.69	114.461
1126.07	36.9766
1130.45	181.113
1134.82	332.582
1139.19	421.977
1143.57	275.93
1147.93	201.184
1152.3	268.809
1156.66	235.227
1161.02	357.293
1165.38	352.648
1169.73	573.207
1174.08	160.285
1178.43	288.305
1182.78	217.066
1187.12	659.656
1191.46	409.797
1195.8	237.07
1200.14	374.156
1204.47	125.445
1208.8	343.008
1213.13	494.543
1217.46	526.902
1221.78	204.816
1226.1	201.863
1230.42	47.6719
1234.73	269.031
1239.04	293.609
1243.35	355.305
1247.66	135.629
1251.97	167.832
1256.27	321.918
1260.57	502.898
1264.86	161.781
1269.16	170.578
1273.45	363.281
1277.74	298.078
1282.03	389.887
1286.31	85.6641
1290.59	149.348
1294.87	40.3633
1299.14	40.5508
1303.42	267.516
1307.69	99.5195
1311.95	247.539
1316.22	397.445
1320.48	594.258
1324.74	476.898
1329	423.332
1333.26	313.598
1337.51	511.695
1341.76	433.602
1346	572.332
1350.25	346.894
1354.49	421.289
1358.73	333.5
1362.96	747.664
1367.2	253.723
1371.43	552.644
1375.66	570.43
1379.88	289.066
1384.11	591.543
1388.33	232.856
1392.54	609.059
1396.76	385.129
1400.97	337.098
1405.18	429.992
1409.39	425.301
1413.59	393.102
1417.8	455.934
1421.99	355.055
1426.19	410.469
1430.38	370.352
1434.58	111.773
1438.77	490.172
1442.95	634.359
1447.13	492.777
1451.32	368.734
1455.49	290.641
1459.67	38.6914
1463.84	250.879
1468.01	495.469
1472.18	251.738
1476.35	473.332
1480.51	300.016
1484.67	321.773
1488.83	376.574
1492.98	434.242
1497.13	297.977
1501.28	186.68
1505.43	371.961
1509.57	318.633
1513.71	410.019
1517.85	496.664
1521.99	525.211
1526.12	358.734
1530.25	222.352
1534.38	515.269
1538.5	385.816
1542.62	446.566
1546.74	218.125
1550.86	317.098
1554.98	167.301
1559.09	297.656
1563.2	354.769
1567.31	12.3242
1571.41	0
