Measurement: Raman, 514 nm, ccw, Raman Data Processed
Mineral: Fluorapatite
Rruff sample: R060070
Ideal chemistry: Ca_5_(PO_4_)_3_F
Locality: Panasqueira, Portugal
Source: Dave Bunk
Description: Green hexagonal tablet
Measured chemistry: (Ca_0.99_Mn_0.01_)_5_(P_1.00_O_4_)_3_F_1.00_
Pin_id: L01870
Orientation: Laser parallel to -c* (0 0 -1). Fiducial mark perpendicular to laser is parallel to -a [-1 0 0]
Raman shift (cm-1)	intensity
127.979	0
132.898	73.625
137.814	142.428
142.728	118.998
147.639	69.1797
152.549	108.893
157.455	5.60742
162.359	63.0337
167.261	34.4829
172.161	73.0698
177.058	16.1904
181.952	28.2026
186.845	94.2427
191.734	74.2393
196.622	28.168
201.507	45.9092
206.389	55.3848
211.269	80.2456
216.147	153.285
221.022	91.4849
225.895	36.044
230.765	72.7769
235.633	35.189
240.498	128.419
245.361	79.2978
250.222	122.04
255.08	132.269
259.936	101.468
264.789	146.91
269.64	87.1885
274.488	76.5889
279.334	3.27588
284.178	89.0557
289.019	52.248
293.857	58.9258
298.693	44.1397
303.527	191.174
308.358	10.6289
313.187	66.3818
318.013	165.88
322.837	137.786
327.659	129.767
332.478	146.61
337.294	40.1206
342.108	35.0581
346.92	52.5435
351.729	17.5371
356.535	57.5845
361.34	86.541
366.141	98.145
370.94	163.986
375.737	86.5781
380.531	25.9707
385.323	110.426
390.113	157.526
394.9	157.168
399.684	74.1494
404.466	14.043
409.245	70.3008
414.022	213.455
418.797	64.0137
423.569	160.448
428.338	86.334
433.105	8.82617
437.87	267.693
442.632	185.664
447.391	88.4248
452.149	191.918
456.903	3.25879
461.655	69.6943
466.405	31.9893
471.152	109.837
475.897	92.7041
480.639	117.12
485.378	285.566
490.116	114.456
494.85	106.66
499.582	106.52
504.312	169.91
509.039	93.3076
513.764	39.2529
518.486	87.5478
523.206	90.5938
527.923	61.3242
532.638	150.225
537.35	156.089
542.059	53.1221
546.766	34.0898
551.471	90.5918
556.173	22.8174
560.873	102.162
565.57	56.8135
570.264	55.9922
574.957	101.28
579.646	45.75
584.333	76.9102
589.018	232.315
593.7	223.823
598.379	171.906
603.056	189.845
607.73	116.164
612.402	47.0898
617.072	158.039
621.739	175.622
626.403	89.8799
631.065	169.632
635.724	33.0059
640.381	25.7227
645.035	25.9863
649.687	187.19
654.336	219.447
658.983	43.4844
663.627	158.685
668.268	95.2656
672.907	70.6269
677.544	180.01
682.178	188.695
686.809	41.1953
691.438	40.7461
696.065	50.6816
700.688	151.703
705.31	127.213
709.929	154.023
714.545	315.102
719.158	150.035
723.77	57.4082
728.378	321.518
732.984	20.0977
737.588	194.381
742.189	42.8086
746.787	185.51
751.383	13.1836
755.976	147.779
760.567	233.602
765.155	120.393
769.741	65.1602
774.324	90.1641
778.904	273.461
783.482	17.6875
788.058	13.8789
792.631	252.541
797.201	65.1211
801.769	278.44
806.334	95.1934
810.897	277.477
815.457	205.055
820.014	138.731
824.569	251.205
829.122	175.777
833.671	88.5273
838.219	97.7598
842.763	86.2031
847.306	152.856
851.845	201.773
856.382	2.89062
860.917	271.022
865.448	265.197
869.978	244.672
874.505	378.207
879.029	220.019
883.55	302.199
888.069	150.328
892.586	67.2051
897.1	305.26
901.611	25.9375
906.12	349.568
910.626	55.3926
915.129	317.176
919.63	152.516
924.129	78.832
928.625	294.027
933.118	199.59
937.609	159.643
942.097	310.088
946.582	156.803
951.065	375.565
955.546	518.402
960.023	468.037
964.499	1166.16
968.971	767.314
973.441	509.359
977.909	239.547
982.374	11.5
986.836	26.9473
991.295	107.379
995.753	247.152
1000.21	207.227
1004.66	191.606
1009.11	149.688
1013.55	108.738
1018	274.887
1022.44	139.481
1026.88	47.125
1031.32	32.5039
1035.75	79.8359
1040.18	307.168
1044.61	143.758
1049.04	76.2031
1053.46	244.41
1057.88	102.203
1062.3	365.586
1066.71	188.164
1071.13	124.231
1075.54	8.12891
1079.94	316.211
1084.35	275.918
1088.75	207.152
1093.15	31.375
1097.55	346.578
1101.94	144.785
1106.34	271.027
1110.73	134.371
1115.11	282.902
1119.5	257.477
1123.88	259.465
1128.26	402.394
1132.63	467.336
1137.01	228.879
1141.38	101.523
1145.75	109.215
1150.12	150.16
1154.48	244.418
1158.84	218.262
1163.2	364.629
1167.55	302.047
1171.91	303.184
1176.26	183.008
1180.61	359.887
1184.95	380.172
1189.29	157.945
1193.63	450.219
1197.97	34.9766
1202.31	413.269
1206.64	297.875
1210.97	493.297
1215.29	392.469
1219.62	403.875
1223.94	179.637
1228.26	486.988
1232.57	479.035
1236.89	431.664
1241.2	341.883
1245.51	341.793
1249.81	448.453
1254.12	224.898
1258.42	392.172
1262.72	373.797
1267.01	336.488
1271.3	455
1275.59	0.003906
1279.88	640.625
1284.17	104.961
1288.45	51.9062
1292.73	133.746
1297.01	150.469
1301.28	270.055
1305.55	227.918
1309.82	256.734
1314.09	438.375
1318.35	691.867
1322.61	378.246
1326.87	634.356
1331.13	655.055
1335.38	386.695
1339.63	604.711
1343.88	472.711
1348.12	492.477
1352.37	716
1356.61	493.336
1360.85	644.453
1365.08	898.348
1369.31	347.047
1373.54	323.555
1377.77	417.883
1381.99	401.039
1386.22	603.031
1390.43	752.867
1394.65	678.559
1398.87	575.172
1403.08	616.098
1407.29	483.668
1411.49	449.156
1415.69	201.266
1419.89	571.031
1424.09	612.012
1428.29	634.812
1432.48	178.816
1436.67	528.023
1440.86	517.82
1445.04	473.289
1449.23	472.797
1453.4	493.449
1457.58	401.32
1461.76	490.371
1465.93	465.019
1470.1	590.043
1474.26	456.676
1478.43	398.508
1482.59	475.555
1486.75	370.785
1490.9	575.441
1495.06	362.41
1499.21	159.258
1503.35	326.699
1507.5	687.148
1511.64	127.312
1515.78	461.32
1519.92	323.609
1524.05	506.312
1528.18	372.629
1532.31	430.797
1536.44	475.18
1540.56	203.691
1544.69	321.199
1548.8	76.9375
1552.92	147.914
1557.03	64.8281
1561.14	86.6914
1565.25	258.375
1569.36	515.894
