Measurement: Raman, 514 nm, ccw, Raman Data Processed
Mineral: Fluorapatite
Rruff sample: R050617
Ideal chemistry: Ca_5_(PO_4_)_3_F
Locality: Santa Cruz, Sonora, Mexico
Source: University of Arizona Mineral Museum
Description: Tan colored hexagonal prism
Measured chemistry: Ca_5.00_(P_1.00_O_4_)_3_(F_0.99_Cl_0.01_)
Pin_id: L00921
Orientation: Laser parallel to -a* (-1 0 0). Fiducial mark perpendicular to laser is parallel to c [0 0 1]
Raman shift (cm-1)	intensity
97.182	0
102.116	7.9917
107.047	179.106
111.976	136.79
116.903	255.085
121.827	314.124
126.749	788.179
131.668	2005.76
136.585	4806.37
141.5	5813.81
146.412	2361.18
151.321	929.177
156.229	543.594
161.134	312.992
166.036	176.896
170.936	95.637
175.834	124.181
180.729	139.445
185.622	124.252
190.512	120.389
195.4	126.178
200.286	113.839
205.169	126.552
210.049	183.384
214.928	62.6748
219.803	163.948
224.677	121.58
229.548	150.898
234.416	163.065
239.282	78.2297
244.146	40.3018
249.007	78.5227
253.866	64.5789
258.722	26.5889
263.576	83.2786
268.427	154.371
273.276	243.648
278.123	216.995
282.967	248.314
287.809	252.553
292.648	275.601
297.485	143.428
302.319	143.006
307.151	92.2793
311.98	97.1948
316.807	91.8872
321.631	12.0571
326.454	3.65723
331.273	61.917
336.09	1.22022
340.905	39.041
345.717	9.2627
350.527	8.69385
355.334	12.1528
360.139	40.9321
364.941	40.6885
369.741	43.832
374.538	111.019
379.333	223.755
384.126	191.229
388.916	396.512
393.703	389.694
398.488	316.043
403.271	315.131
408.051	209.002
412.828	253.86
417.603	370.184
422.376	840.577
427.146	1259.85
431.914	1122.52
436.679	829.656
441.442	658.211
446.202	614.195
450.96	461.633
455.715	373.382
460.467	251.721
465.218	114.894
469.965	185.03
474.711	5.81738
479.454	102.697
484.194	65.6079
488.932	71.1738
493.667	18.9565
498.4	104.185
503.13	120.613
507.858	184.273
512.583	308.163
517.306	251.544
522.026	179.721
526.744	200.524
531.459	73.3506
536.172	103.593
540.882	30.5064
545.59	72.0591
550.295	33.2173
554.998	24.9849
559.698	87.6763
564.396	99.2188
569.091	188.844
573.784	354.615
578.474	523.028
583.162	752.074
587.847	1181.72
592.529	947.462
597.209	476.851
601.887	524.077
606.562	467.925
611.235	372.271
615.905	266.581
620.572	444.972
625.237	419.728
629.9	583.892
634.56	671.27
639.217	592.834
643.872	431.214
648.524	399.647
653.174	340.386
657.821	183.534
662.466	63.7041
667.108	73.9863
671.748	187.02
676.385	101.723
681.02	73.2764
685.652	27.9424
690.281	55.2402
694.908	16.8184
699.533	131.005
704.155	165.856
708.774	191.268
713.391	88.3897
718.005	149.788
722.617	104.34
727.226	5.6084
731.833	3.18945
736.437	135.841
741.039	46.293
745.638	124.08
750.234	0.741211
754.828	96.418
759.419	90.4863
764.008	30.1729
768.595	80.874
773.178	50.1826
777.759	114.202
782.338	196.817
786.914	39.0605
791.488	285.447
796.059	257.269
800.627	149.764
805.193	274.834
809.756	145.584
814.317	208.231
818.875	95.7793
823.431	164.355
827.984	249.706
832.534	179.112
837.082	205.412
841.627	126.336
846.17	109.364
850.71	114.928
855.248	249.733
859.783	238.662
864.316	209.921
868.846	122.5
873.373	149.947
877.898	176.402
882.42	109.258
886.94	68.04
891.457	55.0703
895.971	28.2695
900.483	129.8
904.993	66.4121
909.5	143.391
914.004	2.97266
918.505	65.041
923.004	15.5459
927.501	28.6465
931.995	71.2861
936.486	291.507
940.975	74.1992
945.461	275.363
949.945	576.182
954.426	1707.69
958.904	7723.48
963.38	13610.4
967.853	6703.29
972.324	1799.93
976.792	417.357
981.258	170.143
985.72	295.273
990.181	67.4824
994.639	66.3359
999.094	106.992
1003.55	58.2246
1008	19.6621
1012.44	48.7031
1016.89	6.28711
1021.33	55.5742
1025.77	194.287
1030.21	335.172
1034.64	487.639
1039.07	753.209
1043.5	1184.63
1047.93	1223.33
1052.35	1374.6
1056.78	698.57
1061.19	467.842
1065.61	387.801
1070.02	314.541
1074.43	652.432
1078.84	735.443
1083.25	1136.8
1087.65	454.135
1092.05	275.805
1096.45	224.525
1100.85	136.164
1105.24	37.4473
1109.63	157.766
1114.02	127.322
1118.4	74.4375
1122.78	423.935
1127.16	51.252
1131.54	249.031
1135.92	191.596
1140.29	16.6406
1144.66	374.025
1149.02	85.2949
1153.39	61.791
1157.75	30.8203
1162.11	156.371
1166.46	144.1
1170.82	62.5977
1175.17	225.621
1179.52	141.025
1183.86	281.283
1188.21	14.2168
1192.55	229.119
1196.89	337.418
1201.22	233.879
1205.55	171.881
1209.88	285.353
1214.21	143.742
1218.54	321.42
1222.86	198.879
1227.18	270.959
1231.5	183.107
1235.81	172.299
1240.12	392.467
1244.43	149.356
1248.74	266.641
1253.04	56.0566
1257.34	311.527
1261.64	106.039
1265.94	261.059
1270.23	386.785
1274.52	130.465
1278.81	98.7148
1283.1	84.5977
1287.38	329.695
1291.66	390.672
1295.94	313.848
1300.21	91.1211
1304.48	304.434
1308.75	361.25
1313.02	7.05859
1317.29	259.812
1321.55	265.84
1325.81	101.777
1330.06	318.098
1334.32	372.258
1338.57	213.074
1342.82	110.578
1347.06	109.406
1351.31	514.762
1355.55	324.906
1359.79	335.992
1364.02	309.559
1368.26	117.066
1372.49	54.1445
1376.71	21.4258
1380.94	286.281
1385.16	97.1172
1389.38	252.422
1393.6	330.738
1397.81	94.1641
1402.02	190.445
1406.23	8.64062
1410.44	45.0352
1414.64	343.648
1418.85	128.219
1423.04	41.5117
1427.24	10.875
1431.43	166.922
1435.62	250.887
1439.81	235.082
1444	515.457
1448.18	78.418
1452.36	229.621
1456.54	245.191
1460.71	266.844
1464.89	80.1836
1469.06	448.531
1473.22	89.4609
1477.39	502.203
1481.55	223.602
1485.71	262.781
1489.86	432.652
1494.02	170.402
1498.17	34.582
1502.32	156.191
1506.46	210.418
1510.61	191.449
1514.75	146.559
1518.88	223.481
1523.02	291.25
1527.15	157.168
1531.28	299.172
1535.41	334.535
1539.53	306.086
1543.66	210.727
1547.78	54.8242
1551.89	457.809
1556.01	335.594
1560.12	379.098
1564.23	148.836
1568.33	129.578
