Measurement: Raman, 514 nm, ccw, Raman Data Processed
Mineral: Fluorapatite
Rruff sample: R050122
Ideal chemistry: Ca_5_(PO_4_)_3_F
Locality: Cruziero mine, San Jose, Minas Gerais, Brazil
Source: Carlos and Paulo Vasconcelos
Description: Green fragment
Measured chemistry: (Ca_4.99_Mn_0.01_)_Î£=5_(P_1.00_O_4_)_3_F_1.00_; trace amounts of Fe
Pin_id: L00501
Orientation: Laser parallel to c* (0 0 1). Fiducial mark perpendicular to laser is parallel to a [1 0 0]
Raman shift (cm-1)	intensity
148.25	0
152.403	59.032
156.555	161.345
160.705	229.995
164.853	88.164
168.998	143.917
173.142	74.966
177.284	149.573
181.424	92.508
185.562	37.055
189.698	119.128
193.831	69.8
197.963	19.501
202.093	101.444
206.221	132.341
210.347	174.653
214.472	38.298
218.594	104.167
222.714	94.158
226.832	3.05
230.948	23.6
235.063	119.549
239.175	196.878
243.286	79.977
247.394	126.124
251.501	140.471
255.605	137.851
259.708	109.328
263.808	298.151
267.907	447.366
272.004	198.832
276.099	133.368
280.192	142.663
284.283	326.182
288.372	69.481
292.459	19.479
296.544	154.393
300.627	204.164
304.709	80.235
308.788	15.389
312.865	68.564
316.941	294.184
321.015	120.15
325.086	19.799
329.156	85.072
333.224	289.733
337.29	176.388
341.354	22.454
345.416	224.685
349.476	117.406
353.534	40.338
357.591	99.322
361.645	198.322
365.698	159.259
369.748	149.584
373.797	119.94
377.844	218.047
381.889	195.746
385.932	80.217
389.973	79.529
394.012	197.173
398.049	223.065
402.084	108.399
406.118	43.545
410.15	96.424
414.179	189.081
418.207	128.941
422.233	32.228
426.257	366.626
430.279	405.312
434.299	273.81
438.318	260.9
442.334	698.052
446.349	1035.54
450.361	1038.73
454.372	472.594
458.381	404.663
462.388	400.448
466.394	335.446
470.397	159.058
474.398	131.057
478.398	357.1
482.396	328.97
486.391	188.911
490.385	78.869
494.377	10.691
498.368	231.87
502.356	219.769
506.342	19.912
510.327	65.155
514.31	339.135
518.291	245.265
522.27	20.47
526.247	102.604
530.222	306.074
534.196	276.88
538.167	359.739
542.137	80.191
546.105	59.639
550.071	399.762
554.035	359.357
557.998	288.176
561.958	143.99
565.917	322.33
569.874	253.615
573.829	396.002
577.782	772.189
581.733	1403.2
585.683	1048.65
589.63	646.199
593.576	438.271
597.52	242.512
601.462	204.441
605.402	847.656
609.341	1150.67
613.277	450.68
617.212	269.105
621.145	616.928
625.076	484.457
629.006	478.393
632.933	173.119
636.859	121.922
640.783	94.707
644.705	271.9
648.625	212.305
652.543	1.502
656.46	229.047
660.375	377.107
664.288	462.49
668.199	435.691
672.108	128.127
676.016	205.297
679.921	378.242
683.825	501.01
687.727	507.998
691.628	208.494
695.526	191.215
699.423	525.027
703.318	564.416
707.211	51.986
711.102	91.82
714.992	278.691
718.879	375.604
722.765	562.41
726.649	452.184
730.532	404.01
734.412	161.703
738.291	377.871
742.168	503.678
746.043	378.949
749.916	2.156
753.788	115.014
757.658	377.049
761.526	648.275
765.392	700.033
769.257	431.475
773.119	254.812
776.98	142.377
780.839	368.35
784.697	634.74
788.552	195.979
792.406	140.922
796.258	414.834
800.108	648.174
803.957	731.271
807.804	428.961
811.649	18.711
815.492	353.494
819.333	84.6
823.173	697.234
827.011	467.406
830.847	177.561
834.681	267.836
838.514	91.635
842.345	436.83
846.174	647.762
850.001	214.029
853.827	227.199
857.651	45.283
861.473	229.512
865.293	369.535
869.112	555.012
872.928	818.213
876.744	28.541
880.557	233.072
884.369	432.164
888.178	416.377
891.987	1020.26
895.793	593.051
899.598	431.896
903.401	432.227
907.202	246.129
911.001	570.711
914.799	902.303
918.595	692.902
922.389	64.404
926.182	338.258
929.972	430.545
933.761	812.832
937.549	726.426
941.334	564.324
945.118	425.203
948.9	917.773
952.681	1139.25
956.459	2351.07
960.236	5622.87
964.012	22681.3
967.785	13899.9
971.557	3065.75
975.327	928.676
979.095	920.734
982.862	647.816
986.627	901.047
990.39	562.965
994.152	41.262
997.912	182.492
1001.67	509.707
1005.43	731.547
1009.18	914.77
1012.93	773.105
1016.68	178.191
1020.43	167.848
1024.18	294.77
1027.93	915.633
1031.67	1623.21
1035.42	1617.8
1039.16	461.797
1042.9	426.414
1046.63	11.641
1050.37	796.75
1054.11	1012.66
1057.84	1197.2
1061.57	1611.18
1065.3	935.98
1069.03	310.457
1072.75	380.559
1076.47	435.375
1080.2	1141.11
1083.92	1076.4
1087.64	1531.41
1091.36	646.555
1095.07	402.508
1098.79	139.844
1102.5	236.422
1106.21	1172.16
1109.92	777.438
1113.62	593.723
1117.33	368.605
1121.04	134.039
1124.74	139.738
1128.44	56.141
1132.14	293.922
1135.83	760.598
1139.53	1495.21
1143.22	1440.49
1146.92	602.68
1150.61	314.074
1154.3	8.57
1157.98	471.559
1161.67	929.449
1165.35	1467.34
1169.04	1036.41
1172.72	1280.7
1176.4	484.633
1180.07	129.68
1183.75	232.492
1187.42	990.539
1191.1	533.871
1194.77	1239.84
1198.44	1460.78
1202.1	1173.58
1205.77	955.172
1209.43	597.125
1213.1	699.32
1216.76	1169.72
1220.42	1721.18
1224.07	2160.34
1227.73	1872.47
1231.38	1819.5
1235.04	977.281
1238.69	455.418
1242.34	142.812
1245.99	680.863
1249.63	1295.96
1253.28	1731.96
1256.92	2000.11
1260.56	1916.07
1264.2	1492.76
1267.84	483.184
1271.48	299.633
1275.11	319.684
1278.74	546.375
1282.38	1113.73
1286.01	1792.14
1289.63	1217.45
1293.26	1276.41
1296.89	741.379
1300.51	157.688
1304.13	455.191
1307.75	12.969
1311.37	445.523
1314.99	682.578
1318.6	1039.36
1322.22	1404.93
1325.83	968.555
1329.44	1039.48
1333.05	338.477
1336.66	298.141
1340.26	366.754
1343.87	336.484
1347.47	929.57
1351.07	1662.19
1354.67	2222.58
1358.27	1612.33
1361.86	1669.75
1365.46	1196.78
1369.05	403.945
1372.64	20.535
1376.23	136.094
1379.82	786.031
1383.41	1652.62
1386.99	1943.13
1390.57	2106.91
1394.16	2460.8
1397.74	2171.57
1401.32	1701.84
1404.89	979.652
1408.47	685.203
1412.04	41.352
1415.61	435.922
1419.18	909.73
1422.75	1766.96
1426.32	1970.14
1429.89	2227.71
1433.45	2163.99
1437.01	1832.59
1440.58	1224.62
1444.13	245.988
1447.69	36.293
1451.25	261.465
1454.81	425.527
1458.36	701.922
1461.91	1198.11
1465.46	1956.04
1469.01	2714.68
1472.56	2157.2
