Measurement: Raman, 514 nm, ccw, Raman Data Processed
Mineral: Fluorapatite
Rruff sample: R060070
Ideal chemistry: Ca_5_(PO_4_)_3_F
Locality: Panasqueira, Portugal
Source: Dave Bunk
Description: Green hexagonal tablet
Measured chemistry: (Ca_0.99_Mn_0.01_)_5_(P_1.00_O_4_)_3_F_1.00_
Pin_id: L01695
Orientation: Laser parallel to -a* (-1 0 0). Fiducial mark perpendicular to laser is parallel to -c [0 0 -1]
Raman shift (cm-1)	intensity
118.134	0
123.058	32.6426
127.979	120.077
132.898	44.4023
137.814	131.16
142.728	211.812
147.639	163.375
152.549	151.345
157.455	239.109
162.359	99.4639
167.261	65.2622
172.161	184.99
177.058	172.562
181.952	109.34
186.845	104.685
191.734	101.151
196.622	96.0303
201.507	61.0342
206.389	135.529
211.269	186.597
216.147	142.259
221.022	146.298
225.895	142.819
230.765	109.758
235.633	109.723
240.498	43.1191
245.361	40.9365
250.222	202.23
255.08	140.625
259.936	58.3184
264.789	75.7383
269.64	53.3027
274.488	11.4375
279.334	97.1836
284.178	75.0557
289.019	34.9736
293.857	15.3916
298.693	124.597
303.527	55.4688
308.358	109.96
313.187	91.9072
318.013	120.058
322.837	65.7647
327.659	46.1592
332.478	28.21
337.294	118.728
342.108	108.826
346.92	102.424
351.729	129.069
356.535	22.8984
361.34	0.288086
366.141	32.6641
370.94	184.255
375.737	82.8545
380.531	194.983
385.323	165.634
390.113	211.929
394.9	117.353
399.684	133.017
404.466	84.2861
409.245	85.6279
414.022	106.823
418.797	157.919
423.569	62.3252
428.338	91.4326
433.105	237.088
437.87	115.192
442.632	309.084
447.391	151.91
452.149	129.138
456.903	132.989
461.655	80.5127
466.405	139.151
471.152	189.347
475.897	86.7002
480.639	106.976
485.378	55.1709
490.116	264.727
494.85	174.518
499.582	175.865
504.312	108.912
509.039	278.25
513.764	119.908
518.486	160.836
523.206	133.727
527.923	71.4414
532.638	137.75
537.35	200.602
542.059	43.0449
546.766	236.644
551.471	173.398
556.173	167.213
560.873	119.352
565.57	178.926
570.264	126.195
574.957	138.315
579.646	203.266
584.333	251.039
589.018	128.512
593.7	66.6543
598.379	174.34
603.056	158.912
607.73	179.603
612.402	272.762
617.072	191.588
621.739	66.8848
626.403	249.238
631.065	157.268
635.724	126.564
640.381	170.014
645.035	235.885
649.687	42.1816
654.336	142.019
658.983	183.908
663.627	152.799
668.268	33.4883
672.907	154.84
677.544	225.404
682.178	133.018
686.809	349.697
691.438	218.404
696.065	3.73047
700.688	161.644
705.31	256.957
709.929	225.887
714.545	158.631
719.158	192.131
723.77	204.137
728.378	31.0547
732.984	139.69
737.588	107.883
742.189	68.0039
746.787	93.3945
751.383	130.049
755.976	212.834
760.567	278.949
765.155	24.7363
769.741	169.072
774.324	209.402
778.904	380.262
783.482	76.7129
788.058	239.603
792.631	251.685
797.201	141.279
801.769	25.1875
806.334	105.469
810.897	37.3359
815.457	197.147
820.014	141.383
824.569	353.08
829.122	435.141
833.671	82.7637
838.219	137.625
842.763	325.518
847.306	295.926
851.845	228.551
856.382	258.117
860.917	405.324
865.448	81.168
869.978	303.688
874.505	175.258
879.029	210.035
883.55	98.2695
888.069	275.453
892.586	89.8242
897.1	154.543
901.611	54.2422
906.12	169.352
910.626	131.059
915.129	147.875
919.63	173.191
924.129	14.0898
928.625	177.516
933.118	183.191
937.609	263.828
942.097	404.039
946.582	463.875
951.065	71.7578
955.546	706.438
960.023	1368.59
964.499	2261.86
968.971	1313.71
973.441	211.078
977.909	244.598
982.374	52.0156
986.836	186.777
991.295	196.906
995.753	148.098
1000.21	1.01953
1004.66	42.2695
1009.11	120.887
1013.55	182
1018	46.2695
1022.44	268.144
1026.88	75.8438
1031.32	181.746
1035.75	358.144
1040.18	321.836
1044.61	357.891
1049.04	93.4727
1053.46	247.832
1057.88	133.746
1062.3	470.664
1066.71	174.262
1071.13	423.836
1075.54	116.863
1079.94	310.641
1084.35	420.106
1088.75	262.012
1093.15	164.32
1097.55	395.231
1101.94	560.75
1106.34	309.371
1110.73	333.805
1115.11	106.043
1119.5	383.109
1123.88	585.019
1128.26	210.246
1132.63	73.4023
1137.01	229.387
1141.38	579.742
1145.75	438.977
1150.12	320.148
1154.48	340.562
1158.84	400.238
1163.2	7.4375
1167.55	253.508
1171.91	316.981
1176.26	648.445
1180.61	492.215
1184.95	345.887
1189.29	227.027
1193.63	462.965
1197.97	165.856
1202.31	41.7188
1206.64	405.547
1210.97	562.371
1215.29	439.203
1219.62	403.156
1223.94	236.09
1228.26	72.0078
1232.57	499.812
1236.89	383.613
1241.2	384.41
1245.51	289.199
1249.81	302.984
1254.12	190.781
1258.42	110.539
1262.72	361.203
1267.01	387.914
1271.3	323.492
1275.59	120.938
1279.88	16.4805
1284.17	378.906
1288.45	248.133
1292.73	51.7969
1297.01	177.129
1301.28	198.109
1305.55	72.4102
1309.82	30.8047
1314.09	80.9258
1318.35	425.195
1322.61	440.191
1326.87	590.059
1331.13	603.797
1335.38	786.418
1339.63	754.301
1343.88	685.441
1348.12	554.848
1352.37	583.961
1356.61	585.973
1360.85	700.016
1365.08	741.465
1369.31	624.754
1373.54	487.152
1377.77	546.777
1381.99	412.746
1386.22	633.356
1390.43	294.793
1394.65	476.668
1398.87	485.981
1403.08	499.106
1407.29	504.086
1411.49	466.484
1415.69	272.328
1419.89	213.816
1424.09	484.422
1428.29	251.113
1432.48	306.629
1436.67	405.164
1440.86	169.727
1445.04	291.148
1449.23	120.269
1453.4	240.57
1457.58	464.125
1461.76	71.1172
1465.93	346.453
1470.1	458.398
1474.26	283.547
1478.43	308.176
1482.59	328.691
1486.75	116.879
1490.9	268.633
1495.06	11.6914
1499.21	0.5625
1503.35	414.231
1507.5	274.133
1511.64	118.301
