Measurement: Raman, 514 nm, ccw, Raman Data Processed
Mineral: Fluorapatite
Rruff sample: R050369
Ideal chemistry: Ca_5_(PO_4_)_3_F
Locality: Russia
Source: Eugene Schlepp
Description: Blueish-green hexagonal prismatic crystal
Measured chemistry: (Ca_0.99_Na_0.01_)_5_((P_0.98_S_0.02_)O_4_)_3_F_1.00_
Pin_id: L01224
Orientation: Laser parallel to a* (1 0 0). Fiducial mark perpendicular to laser is parallel to c [0 0 1]
Raman shift (cm-1)	intensity
53.91	0
58.864	42.0319
63.817	12.2356
68.767	19.597
73.714	56.1582
78.659	207.155
83.602	337.821
88.542	456.155
93.48	648.476
98.416	703.136
103.349	695.73
108.28	801.995
113.208	724.743
118.134	828.832
123.058	812.145
127.979	925.571
132.898	1280.57
137.814	1897.89
142.728	1404.08
147.639	1045.85
152.549	1106.24
157.455	1370.28
162.359	1152.9
167.261	1087.1
172.161	838.381
177.058	723.181
181.952	640.021
186.845	554.365
191.734	522.192
196.622	514.479
201.507	560.033
206.389	518.798
211.269	589.852
216.147	477.635
221.022	505.473
225.895	596.904
230.765	732.917
235.633	781.225
240.498	524.447
245.361	433.508
250.222	426.728
255.08	573.568
259.936	943.864
264.789	1184.59
269.64	1057.64
274.488	695.019
279.334	546.685
284.178	394.637
289.019	334.861
293.857	360.344
298.693	497.074
303.527	536.04
308.358	651.23
313.187	519.631
318.013	457.234
322.837	229.026
327.659	171.997
332.478	154.136
337.294	36.4324
342.108	53.8772
346.92	39.523
351.729	26.3015
356.535	2.30322
361.34	35.1172
366.141	48.0935
370.94	37.7795
375.737	46.4275
380.531	13.2537
385.323	40.5891
390.113	41.4211
394.9	7.6106
399.684	46.4668
404.466	14.4934
409.245	64.6148
414.022	177.706
418.797	254.845
423.569	439.024
428.338	866.224
433.105	1079.43
437.87	1557.66
442.632	1940.9
447.391	2015.13
452.149	1424.34
456.903	854.522
461.655	491.707
466.405	347.534
471.152	189.918
475.897	118.935
480.639	124.594
485.378	162.89
490.116	99.8442
494.85	44.8167
499.582	61.8804
504.312	61.6282
509.039	53.1589
513.764	43.4775
518.486	3.54517
523.206	38.3418
527.923	34.3957
532.638	1.89502
537.35	75.7864
542.059	117.34
546.766	49.5806
551.471	62.9697
556.173	159.71
560.873	191.625
565.57	219.322
570.264	585.137
574.957	1535.56
579.646	2922.36
584.333	1410.81
589.018	1016.88
593.7	767.638
598.379	896.322
603.056	1696.27
607.73	1690.85
612.402	996.683
617.072	762.044
621.739	321.62
626.403	196.675
631.065	176.429
635.724	113.316
640.381	155.529
645.035	173.525
649.687	166.342
654.336	138.087
658.983	147.588
663.627	150.551
668.268	172.832
672.907	96.5786
677.544	95.8472
682.178	20.6533
686.809	53.8389
691.438	6.36963
696.065	61.4336
700.688	65.9356
705.31	42.0913
709.929	128.03
714.545	83.5581
719.158	41.6851
723.77	99.3823
728.378	196.782
732.984	75.9111
737.588	142.696
742.189	156.792
746.787	84.3227
751.383	160.889
755.976	51.5488
760.567	100.091
765.155	74.8408
769.741	135.158
774.324	109.315
778.904	96.6445
783.482	88.0606
788.058	136.167
792.631	90.209
797.201	44.0713
801.769	24.3355
806.334	4.78662
810.897	27.6753
815.457	65.228
820.014	27.0508
824.569	96.9004
829.122	94.166
833.671	137.733
838.219	36.1904
842.763	6.76465
847.306	25.3438
851.845	7.13037
856.382	54.4517
860.917	145.661
865.448	37.5737
869.978	123.154
874.505	98.7666
879.029	37.542
883.55	64.1421
888.069	86.3594
892.586	24.8643
897.1	70.7627
901.611	57.1963
906.12	122.784
910.626	160.691
915.129	72.9243
919.63	105.982
924.129	112.194
928.625	135.101
933.118	254.338
937.609	301.088
942.097	593.079
946.582	1443.51
951.065	2623.73
955.546	8569.6
960.023	30461.2
964.499	48586.9
968.971	14715.9
973.441	3547.04
977.909	1050.28
982.374	492.684
986.836	310.326
991.295	172.231
995.753	124.21
1000.21	212.28
1004.66	615.504
1009.11	1039.84
1013.55	626.13
1018	433.33
1022.44	370.338
1026.88	801.549
1031.32	1548.06
1035.75	1209.53
1040.18	819.277
1044.61	579.626
1049.04	518.937
1053.46	639.043
1057.88	1174.32
1062.3	692.76
1066.71	248.389
1071.13	375.267
1075.54	662.394
1079.94	854.715
1084.35	320.213
1088.75	212.889
1093.15	190.764
1097.55	28.7295
1101.94	67.7061
1106.34	32.1172
1110.73	18.1592
1115.11	91.7256
1119.5	128.432
1123.88	154.373
1128.26	100.403
1132.63	33.8994
1137.01	118.155
1141.38	35.8369
1145.75	117.09
1150.12	161.334
1154.48	143.452
1158.84	103.279
1163.2	191.143
1167.55	185.148
1171.91	150.681
1176.26	109.621
1180.61	28.083
1184.95	41.6836
1189.29	59.4248
1193.63	166.305
1197.97	151.39
1202.31	115.535
1206.64	117.822
1210.97	171.239
1215.29	123.178
1219.62	207.847
1223.94	116.639
1228.26	228.342
1232.57	225.617
1236.89	70.1123
1241.2	173.029
1245.51	117.288
1249.81	57.5791
1254.12	36.2139
1258.42	79.6289
1262.72	60.1738
1267.01	117.652
1271.3	17.7725
1275.59	7.93945
1279.88	18.3301
1284.17	125.843
1288.45	47.4893
1292.73	198.017
1297.01	164.113
1301.28	109.753
1305.55	141.513
1309.82	91.9756
1314.09	206.912
1318.35	136.959
1322.61	75.1348
1326.87	41.3672
1331.13	131.667
1335.38	228.028
1339.63	164.454
1343.88	96.9414
1348.12	159.493
1352.37	143.112
1356.61	183.84
1360.85	98.6602
1365.08	233.612
1369.31	41.6201
1373.54	74.625
1377.77	94.1445
1381.99	188.305
1386.22	133.64
1390.43	26.7559
1394.65	136.386
1398.87	178.917
1403.08	110.304
1407.29	357.555
1411.49	216.916
1415.69	109.51
1419.89	141.488
1424.09	118.674
1428.29	185.072
1432.48	20.7969
1436.67	83.0283
1440.86	85.1807
1445.04	77.8486
1449.23	105.4
1453.4	142.262
1457.58	190.261
1461.76	133.998
1465.93	170.06
1470.1	156.306
1474.26	145.77
1478.43	8.78711
1482.59	118.782
1486.75	115.772
1490.9	136.092
1495.06	203.398
1499.21	168.565
1503.35	119.726
1507.5	138.006
1511.64	34.2285
1515.78	148.398
1519.92	137.481
1524.05	82.6152
1528.18	176.286
1532.31	179.731
1536.44	60.8281
1540.56	62.3984
1544.69	71.1455
1548.8	82.7686
1552.92	267.666
1557.03	22.3828
1561.14	180.669
1565.25	85.6543
1569.36	183.961
