Measurement: Raman, 514 nm, ccw, Raman Data Processed
Mineral: Fluorophlogopite
Rruff sample: R040039
Ideal chemistry: KMg_3_(Si_3_Al)O_10_F_2_
Locality: Franklin, Sussex County, New Jersey, USA
Source: University of Arizona Mineral Museum
Description: Brown hexagonal sheets
Measured chemistry: (K_0.92_Na_0.06_[box]_0.02_)_Σ=1_(Mg_2.94_Fe_0.04_Ti_0.02_)_Σ=3_(Si_2.98_Al_1.02_)O_10_(F_1.24_(OH)_0.76_)_Σ=2_; OH estimated by charge balance
Pin_id: L00415
Orientation: Laser parallel to [-1 0 -1]. Fiducial mark perpendicular to laser is parallel to b* (0 1 0)
Raman shift (cm-1)	intensity
96.233	0
100.418	1209.14
104.6	2863.66
108.781	2478.29
112.959	1724
117.136	1542.34
121.31	1242.79
125.482	928.251
129.653	720.685
133.821	445.759
137.987	389.731
142.152	211.515
146.314	53.901
150.474	64.661
154.633	63.345
158.789	90.979
162.943	31.151
167.095	141.303
171.246	315.609
175.394	725.214
179.54	1320.39
183.684	2486.21
187.826	5449.18
191.967	12073.3
196.105	17725.5
200.241	13648.4
204.375	6502.04
208.507	2939.58
212.638	1595.06
216.766	978.795
220.892	494.721
225.016	267.731
229.139	101.813
233.259	55.957
237.377	58.151
241.493	33.588
245.608	105.256
249.72	63.896
253.83	49.15
257.939	148.833
262.045	220.037
266.15	715.442
270.252	1596.37
274.353	3434.52
278.451	5070.57
282.548	3837.84
286.642	2062.16
290.735	1395.91
294.826	1034.53
298.914	1328.96
303.001	1930.3
307.086	2998.46
311.168	4368.47
315.249	5345.3
319.328	5658.99
323.405	5320.3
327.48	4227.71
331.553	3053.63
335.624	2022.05
339.693	1428.96
343.76	1076.98
347.826	881.3
351.889	804.47
355.95	828.62
360.01	934.732
364.067	1264.79
368.123	1968.79
372.176	2229.78
376.228	1515.82
380.277	955.252
384.325	712.856
388.371	609.696
392.415	451.74
396.457	477.162
400.497	423.116
404.535	352.409
408.571	202.091
412.605	218.383
416.638	168.394
420.668	72.505
424.697	22.404
428.723	124.285
432.748	135.865
436.77	251.505
440.791	267.812
444.81	401.299
448.827	545.426
452.842	740.497
456.855	762.358
460.867	561.014
464.876	635.464
468.883	470.708
472.889	1.744
476.892	82.582
480.894	68.482
484.894	125.06
488.892	257.316
492.888	518.391
496.882	755.27
500.874	949.967
504.865	972.496
508.853	919.856
512.84	841.048
516.824	636.068
520.807	503.918
524.788	276.601
528.767	169.129
532.744	171.542
536.719	121.819
540.693	99.651
544.664	110.959
548.634	57.818
552.601	79.509
556.567	152
560.531	99.182
564.493	69.713
568.453	163.232
572.412	106.993
576.368	56.435
580.323	32.928
584.275	37.283
588.226	40.8
592.175	40.054
596.122	1.143
600.068	59.009
604.011	59.658
607.952	234.127
611.892	401.434
615.83	534.589
619.766	722.592
623.7	1137.44
627.632	1649.15
631.563	2152.65
635.491	2592.9
639.418	2970.08
643.343	3079.55
647.266	3199.2
651.187	3448.14
655.106	3675.97
659.024	4198.69
662.939	4906.31
666.853	6379.81
670.765	8553.21
674.675	12316.5
678.583	17649.9
682.49	21053.9
686.394	19928.6
690.297	15706.3
694.198	11101.8
698.097	7160.43
701.995	4714.48
705.89	3313.74
709.784	2455.14
713.675	1940.61
717.565	1554.66
721.453	1313.96
725.34	1260.35
729.224	1177.52
733.107	1181.64
736.988	1150.6
740.867	1093.36
744.744	1118.43
748.62	1119.65
752.493	998.931
756.365	834.814
760.235	767.247
764.103	711.294
767.969	757.691
771.834	777.972
775.697	750.122
779.558	799.219
783.417	961.269
787.274	1061.37
791.13	1158.35
794.983	1050.68
798.835	890.173
802.686	812.664
806.534	733.292
810.38	514.708
814.225	373.088
818.068	258.433
821.909	195.745
825.749	126.026
829.586	189.276
833.422	82.496
837.256	14.667
841.088	79.232
844.919	39.295
848.748	24.44
852.575	0.688
856.4	8.942
860.223	39.495
864.045	9.008
867.864	25.464
871.682	28.938
875.499	67.341
879.313	78.569
883.126	29.347
886.937	40.312
890.746	99.731
894.553	112.89
898.359	80.182
902.163	143.777
905.965	59.617
909.765	83.56
913.564	141.522
917.361	142.499
921.156	139.481
924.949	67.476
928.74	71.482
932.53	45.524
936.318	81.574
940.104	89.63
943.889	76.684
947.672	84.726
951.453	95.773
955.232	5.823
959.01	122.865
962.785	174.91
966.559	271.958
970.332	297.006
974.102	313.052
977.871	248.095
981.638	395.134
985.404	459.992
989.167	515.936
992.929	655.801
996.689	705.048
1000.45	760.397
1004.2	983.747
1007.96	893.066
1011.71	923.394
1015.46	992.094
1019.21	838.005
1022.96	757.088
1026.71	871.803
1030.45	1299.4
1034.19	1884.7
1037.94	1947.29
1041.68	1587.19
1045.41	1091.75
1049.15	847.512
1052.88	819.396
1056.62	1023.57
1060.35	1048.48
1064.08	1222.99
1067.8	1296.86
1071.53	1339.5
1075.25	1527.23
1078.97	1671.25
1082.7	2023.74
1086.41	2462.24
1090.13	2765.69
1093.85	2966.59
1097.56	2818.1
1101.27	2780.06
1104.98	2551.22
1108.69	2095.76
1112.4	1712.47
1116.1	1245.82
1119.81	989.851
1123.51	1237.91
1127.21	529.839
1130.91	243.713
1134.61	138.781
1138.3	133.575
1141.99	191.649
1145.68	262.8
1149.38	241.505
1153.06	125.16
1156.75	372.15
1160.43	29.945
1164.12	18.324
1167.8	91.016
1171.48	98.203
1175.16	134.31
1178.83	268.668
1182.51	110.687
1186.18	61.174
1189.85	6.025
1193.52	22.708
1197.19	146.301
1200.86	193.672
1204.52	123.231
1208.19	182.518
1211.85	62.528
1215.51	63.668
1219.17	3.229
1222.82	119.811
1226.48	216.607
1230.13	231.982
1233.78	277.667
1237.43	304.552
1241.08	299.673
1244.73	53.137
1248.37	170.7
1252.01	262.565
1255.66	223.382
1259.3	280.279
1262.93	198.566
1266.57	358.107
1270.21	363.013
1273.84	276.372
1277.47	146.755
1281.1	235.568
1284.73	214.379
1288.36	279.097
1291.98	401.075
1295.6	454.61
1299.23	471.457
1302.85	319.58
1306.46	166.493
1310.08	208.854
1313.7	210.002
1317.31	208.731
1320.92	318.953
1324.53	275.941
1328.14	358.403
1331.75	217.795
1335.35	279.359
1338.96	119.188
1342.56	106.535
1346.16	12.875
1349.76	99.318
1353.36	4.556
1356.95	170.54
1360.55	205.586
1364.14	213.583
1367.73	311.646
1371.32	179.36
1374.91	55.638
1378.49	10.617
1382.08	30.635
1385.66	150.105
1389.24	178.206
1392.82	213.019
1396.4	307.264
1399.97	326.628
1403.55	327.428
1407.12	338.864
1410.69	363.948
1414.26	221.526
1417.83	136.403
1421.4	0.352
1424.96	196.45
1428.53	147.411
1432.09	310.181
1435.65	515.372
1439.21	622.706
1442.76	642.584
1446.32	733.697
1449.87	629.466
1453.43	640.78
1456.98	587.449
1460.53	515.726
1464.07	557.188
1467.62	489.917
1471.16	552.033
1474.71	708.821
1478.25	638.919
1481.79	619.403
1485.32	490.677
1488.86	424.005
1492.39	277.565
1495.93	171.506
1499.46	46.492
1502.99	33.244
1506.52	9.541
1510.05	161.27
1513.57	266.49
1517.09	258.913
1520.62	144.396
