Measurement: Raman, 514 nm, ccw, Raman Data Processed
Mineral: Fluorophlogopite
Rruff sample: R040039
Ideal chemistry: KMg_3_(Si_3_Al)O_10_F_2_
Locality: Franklin, Sussex County, New Jersey, USA
Source: University of Arizona Mineral Museum
Description: Brown hexagonal sheets
Measured chemistry: (K_0.92_Na_0.06_[box]_0.02_)_Σ=1_(Mg_2.94_Fe_0.04_Ti_0.02_)_Σ=3_(Si_2.98_Al_1.02_)O_10_(F_1.24_(OH)_0.76_)_Σ=2_; OH estimated by charge balance
Pin_id: M00363
Orientation: Laser parallel to c* (0 0 1). Fiducial mark perpendicular to laser is parallel to b [0 1 0]
Raman shift (cm-1)	intensity
72.445	0
76.635	0.385
80.823	937.925
85.009	2809.54
89.193	4988.83
93.375	7357.87
97.554	9033.41
101.732	9543.73
105.908	8421.68
110.082	7275.24
114.254	6184.51
118.424	5748.58
122.592	4447.57
126.758	3137.96
130.922	2633.56
135.083	1831.23
139.243	1795.13
143.401	1158.09
147.557	944.699
151.711	611.551
155.863	446.324
160.013	551.607
164.161	663.289
168.308	778.734
172.452	982.77
176.594	1313.23
180.734	2252.12
184.872	4657.34
189.008	9811.77
193.143	19126.3
197.275	23523.7
201.405	14117.4
205.534	6600.97
209.66	3147.67
213.784	1444.49
217.907	770.355
222.027	204.215
226.146	81.151
230.263	6.768
234.377	63.59
238.49	152.533
242.601	262.188
246.709	359.645
250.816	339.509
254.921	114.462
259.024	229.81
263.125	1039.77
267.224	2542.75
271.321	5733.99
275.416	11291.3
279.51	13209.3
283.601	7513.68
287.69	3509.04
291.778	1901.29
295.863	1230.36
299.947	1394.19
304.029	2117.72
308.108	3923.89
312.186	6322.48
316.262	8636.71
320.336	10624.9
324.408	10766.5
328.478	8282.89
332.546	5712.82
336.612	3841.95
340.677	2650.51
344.739	1931.95
348.799	1560.74
352.858	1390.85
356.915	1596.23
360.969	1569.85
365.022	1862.64
369.073	2465.55
373.122	2225.58
377.169	1538.95
381.215	1434.93
385.258	935.322
389.299	671.382
393.339	584.953
397.376	786.448
401.412	468.436
405.446	326.205
409.478	270.763
413.508	87.185
417.536	46.079
421.562	40.505
425.586	155.904
429.609	222.188
433.629	307.277
437.648	473.511
441.665	649.554
445.68	932.994
449.693	915.404
453.704	1128.66
457.713	840.742
461.721	809.638
465.726	683.331
469.73	315.808
473.731	38.024
477.731	9.023
481.729	165.2
485.725	80.884
489.72	150.495
493.712	419.507
497.703	606.264
501.691	826.757
505.678	1090.29
509.663	1368.92
513.646	1381.57
517.627	1077.92
521.607	709.974
525.584	272.717
529.56	244.153
533.534	10.737
537.506	305.803
541.476	91.046
545.444	234.816
549.41	158.116
553.375	191.937
557.337	239.457
561.298	252.705
565.257	320.872
569.214	322.095
573.17	203.555
577.123	168.653
581.075	264.244
585.024	14.11
588.972	0.667
592.918	39.522
596.863	75.088
600.805	240.993
604.746	319.934
608.685	559.514
612.621	709.746
616.557	1035.62
620.49	1567.14
624.421	2256.31
628.351	3227.12
632.279	4118.81
636.205	4629.54
640.129	5220.43
644.051	5056.26
647.972	5451.28
651.89	5817.27
655.807	6434
659.722	7599.48
663.636	9098.7
667.547	11854.7
671.457	16065.4
675.365	23941.9
679.271	32197.1
683.175	35800.2
687.077	31656.9
690.978	24348.5
694.877	16998.9
698.774	10503.6
702.669	7004.64
706.562	5182.01
710.454	3827.41
714.344	2865.61
718.232	2385.97
722.118	2216.66
726.002	2128.42
729.885	2015.93
733.766	1969.54
737.645	1942.09
741.522	1786.15
745.397	1937.56
749.271	1579.94
753.143	1245.82
757.013	1197.88
760.881	1192.16
764.748	1184.03
768.613	1012.11
772.476	1026.05
776.337	1288.7
780.196	1325.26
784.054	1480.72
787.91	1618.66
791.764	1660.63
795.616	1608.07
799.467	1270.98
803.316	1008.05
807.163	1020.07
811.008	670.037
814.851	615.938
818.693	382.783
822.533	315.57
826.371	204.305
830.208	324.988
834.042	180.633
837.875	22.768
841.706	137.809
845.536	9.035
849.363	0.199
853.189	33.832
857.013	95.648
860.836	8.281
864.656	42.922
868.475	40.85
872.292	16.463
876.108	0.729
879.922	56.857
883.733	67.549
887.544	6.145
891.352	2.148
895.159	57.555
898.964	2.109
902.767	77.268
906.568	218.889
910.368	32.396
914.166	58.23
917.962	5.201
921.757	112.295
925.55	337.734
929.341	198.115
933.13	283.43
936.918	96.672
940.703	217.836
944.488	430.018
948.27	362.912
952.051	422.809
955.83	509.605
959.607	495.314
963.383	459.922
967.156	655.449
970.928	784.908
974.699	850.27
978.468	681.523
982.234	804.514
986	891.604
989.763	1216.16
993.525	1141.01
997.285	1349.96
1001.04	1769.31
1004.8	1480.47
1008.55	1579.38
1012.31	1576.19
1016.06	1370.52
1019.81	1074.34
1023.56	1245.91
1027.31	1593.13
1031.05	2517.9
1034.79	3179.93
1038.53	2829.49
1042.27	2483.49
1046.01	1939.9
1049.75	1875.07
1053.48	1922.77
1057.22	2066.54
1060.95	2064.32
1064.68	2099.62
1068.4	2330.01
1072.13	2734.74
1075.86	2972.8
1079.58	3423.72
1083.3	3629.68
1087.02	4151.43
1090.74	4484.85
1094.45	5010.31
1098.17	4680.43
1101.88	4414.54
1105.59	4402.77
1109.3	3249.52
1113.01	2824.05
1116.71	1808.65
1120.42	1217.12
1124.12	1533.25
1127.82	835.414
1131.52	406.387
1135.22	223.125
1138.91	295.84
1142.61	223.047
1146.3	209.416
1149.99	73.213
1153.68	76.623
1157.37	186.16
1161.06	284.637
1164.74	16.887
1168.42	221.58
1172.1	19.596
1175.78	98.354
1179.46	64.807
1183.14	372.109
1186.81	139.979
1190.48	377.371
1194.15	256.227
1197.83	349.486
1201.49	373.064
1205.16	469.918
1208.82	199.057
1212.49	398.949
1216.15	419.869
1219.81	333.227
1223.46	292.256
1227.12	412.564
1230.78	519.328
1234.43	401.547
1238.08	344.688
1241.73	524.119
1245.38	269.029
1249.03	207.672
1252.67	179.627
1256.31	198.031
1259.95	176.021
1263.6	138.531
1267.23	165.588
1270.87	149.838
1274.51	92.541
1278.14	51.467
1281.77	270.939
1285.4	64.41
1289.03	98.24
1292.66	26.52
1296.28	83.127
1299.91	669.459
1303.53	544.072
1307.15	193.381
1310.77	442.389
1314.38	222.246
1318	447.27
1321.61	304.664
1325.23	382.074
1328.84	423.232
1332.45	502.953
1336.06	407.865
1339.66	305.51
1343.27	329.225
1346.87	444.51
1350.47	187.875
1354.07	492.963
1357.67	331.9
1361.26	459.828
1364.86	368.971
1368.45	402.498
1372.04	364.205
1375.63	243.844
1379.22	1.768
1382.81	43.275
1386.39	206.545
1389.98	28.729
1393.56	126.258
1397.14	195.561
1400.72	160.615
1404.3	111.854
1407.87	4.732
1411.45	0
