Measurement: Raman, 514 nm, ccw, Raman Data Processed
Mineral: Fluorapatite
Rruff sample: R060421
Ideal chemistry: Ca_5_(PO_4_)_3_F
Locality: Levant mine, St. Just, Cornwall, England
Source: Michael Scott
Description: Brown hexagonal prisms
Measured chemistry: (Ca_4.93_[box]_0.07_)_Σ=5_((PO_4_)_2.86_(CO_3_)_0.14_)_Σ=3_F_1.00_ : C not measured but estimated by difference and charge balance
Pin_id: M00074
Orientation: Laser parallel to a* (1 0 0). Fiducial mark perpendicular to laser is parallel to -c [0 0 -1]
Raman shift (cm-1)	intensity
124.288	0
129.209	67.0356
134.127	29.8545
139.043	96.5208
143.956	117.439
148.867	53.1641
153.775	113.274
158.681	52.9644
163.585	117.339
168.486	92.7398
173.385	28.7241
178.282	49.6489
183.176	36.9228
188.067	42.5784
192.956	73.6409
197.843	120.359
202.727	103.166
207.609	99.3159
212.489	63.4175
217.366	54.2185
222.24	46.7671
227.112	51.5635
231.982	76.5444
236.849	102.999
241.714	74.519
246.577	19.8591
251.437	64.7415
256.294	88.1448
261.149	6.56396
266.002	66.7092
270.852	71.8738
275.7	25.9795
280.545	61.616
285.388	68.8037
290.229	60.272
295.067	22.9788
299.902	89.3984
304.735	73.8018
309.566	27.6807
314.394	85.1416
319.22	34.7661
324.043	79.9556
328.864	53.7285
333.682	34.6387
338.498	10.4692
343.311	59.5967
348.122	60.3477
352.931	27.436
357.737	66.0972
362.54	50.7446
367.341	44.0806
372.14	83.356
376.936	2.72217
381.73	108.533
386.521	93.2261
391.31	70.7007
396.096	67.9976
400.88	31.311
405.661	93.9429
410.44	30.7349
415.216	107.392
419.99	69.1113
424.761	89.9292
429.53	178.807
434.297	223.06
439.061	145.016
443.822	192.211
448.581	138.707
453.337	198.602
458.091	10.3281
462.843	81.9331
467.592	65.7139
472.338	3.98096
477.082	126.713
481.824	28.1558
486.563	21.3227
491.3	114.306
496.034	104.601
500.765	15.6685
505.494	53.0493
510.221	29.2109
514.945	63.9228
519.666	68.791
524.385	69.7861
529.102	104.619
533.816	38.4551
538.527	67.4717
543.236	78.46
547.943	78.9102
552.647	74.8828
557.348	97.4238
562.047	56.6328
566.744	85.5342
571.438	170.188
576.129	254.512
580.818	144.964
585.504	254.837
590.188	199.682
594.87	170.837
599.549	326.321
604.225	224.891
608.899	251.508
613.57	155.457
618.239	249.827
622.905	336.708
627.569	155.73
632.23	314.342
636.889	124.151
641.545	105.357
646.198	344.5
650.849	320.003
655.498	346.891
660.144	357.949
664.787	290.861
669.428	338.389
674.067	448.125
678.703	377.365
683.336	309.92
687.967	367.334
692.595	415.848
697.221	296.967
701.844	481.098
706.465	333.58
711.083	356.772
715.698	242.252
720.311	330.622
724.922	241.516
729.53	483.58
734.135	421.223
738.738	426.707
743.338	313.217
747.936	330.615
752.531	424.35
757.124	194.934
761.714	268.893
766.302	314.053
770.887	548.547
775.469	451.703
780.049	508.594
784.626	421.9
789.201	391.881
793.773	355.316
798.343	288.379
802.91	382.981
807.475	435.025
812.037	367.685
816.596	302.971
821.153	355.723
825.707	332.018
830.259	251.445
834.808	192.4
839.355	220.303
843.899	28.6602
848.441	324.688
852.98	10.4023
857.516	211.037
862.05	375.606
866.581	153.309
871.11	223.496
875.636	144.678
880.159	311.852
884.68	91.1621
889.199	273.19
893.714	288.162
898.228	399.268
902.738	34.082
907.246	277.906
911.752	203.623
916.255	214.701
920.755	4.92969
925.253	19.6836
929.748	160.627
934.241	176.016
938.731	38.4609
943.218	93.3184
947.703	77.1914
952.186	615.734
956.665	1054.78
961.142	1885.52
965.617	1381.21
970.089	641.744
974.558	308.932
979.025	114.975
983.489	114.875
987.951	3.5918
992.41	75.1211
996.866	85.7441
1001.32	194.875
1005.77	113.842
1010.22	105.947
1014.67	222.639
1019.11	127.731
1023.55	22.3125
1027.99	95.9609
1032.42	0.601563
1036.86	171.594
1041.29	51.5078
1045.72	33.3828
1050.14	103.527
1054.56	49.3984
1058.98	31.0195
1063.4	296.934
1067.82	152.793
1072.23	7.0625
1076.64	27.0938
1081.05	148.07
1085.45	101.668
1089.85	24.793
1094.25	355.512
1098.65	240.863
1103.04	513.906
1107.43	353.715
1111.82	451.055
1116.21	377.598
1120.59	475.285
1124.97	346.879
1129.35	311.711
1133.73	414.156
1138.1	636.848
1142.47	730.012
1146.84	510.906
1151.21	663.375
1155.57	795.668
1159.93	602.418
1164.29	796.242
1168.64	739.848
1172.99	717.664
1177.34	494.949
1181.69	1070.95
1186.04	826.004
1190.38	867.137
1194.72	680.859
1199.05	710.769
1203.39	1177.44
1207.72	870.715
1212.05	1061.35
1216.37	868.84
1220.7	742.18
1225.02	704.383
1229.34	1033.48
1233.65	944.496
1237.97	775.441
1242.28	798.43
1246.59	637.441
1250.89	696.465
1255.19	584.594
1259.49	210.914
1263.79	589.539
1268.09	352.844
1272.38	651.164
1276.67	418.941
1280.95	85.9453
1285.24	439.086
1289.52	329.746
1293.8	529.141
1298.08	555.719
1302.35	463.43
1306.62	373.426
1310.89	316.898
1315.15	343.109
1319.42	640.957
1323.68	376.609
1327.94	312.703
1332.19	227.731
1336.44	467.492
1340.69	288.098
1344.94	354.559
1349.19	332.871
1353.43	420.059
1357.67	395.113
1361.9	53.0078
1366.14	231.769
1370.37	465.398
1374.6	405.887
1378.83	244.449
1383.05	367.945
1387.27	283.496
1391.49	265.074
1395.7	268.484
1399.92	291.723
1404.13	119.731
1408.34	247.113
1412.54	432.445
1416.74	70.5273
1420.94	256.277
1425.14	250.664
1429.34	167.152
1433.53	295.398
1437.72	140.488
1441.9	362.172
1446.09	174.82
1450.27	475.387
1454.45	11.9023
1458.63	179.234
1462.8	166.769
1466.97	286.691
1471.14	209.945
1475.31	483.512
1479.47	539.231
1483.63	460.348
1487.79	11.6992
1491.94	345.492
1496.09	102.5
1500.24	108.598
1504.39	455.457
1508.54	240.379
1512.68	194.188
1516.82	229.879
1520.95	266.941
1525.09	113.109
1529.22	340.445
1533.35	113.133
1537.47	53.6914
1541.6	328.715
1545.72	171.766
1549.83	126.676
1553.95	221.562
1558.06	341.777
1562.17	298.352
1566.28	206.984
1570.38	0.3125
