Measurement: Raman, 514 nm, ccw, Raman Data Processed
Mineral: Fluoro-richterite
Rruff sample: R040019
Ideal chemistry: Na(NaCa)Mg_5_Si_8_O_22_F_2_
Locality: Wilberforce, Ontario, Canada
Source: University of Arizona Mineral Museum
Description: Brown prismatic crystals
Measured chemistry: (Na_0.59_K_0.27_[box]_0.14_)_Σ=1_(Ca_1.30_Na_0.70_)_Σ=2_(Mg_4.67_Fe_0.17_Fe^3+^_0.10_Ti_0.03_Mn_0.02_Al_0.01_)_Σ=5_(Si_7.67_Al_0.33_)_Σ=8_(F_1.12_(OH)_0.88_)_Σ=2_; OH estimated by charge balance
Pin_id: L00205
Orientation: Laser parallel to c [0 0 1]. Fiducial mark perpendicular to laser is parallel to -b* (0 -1 0)
Raman shift (cm-1)	intensity
128.146	0
132.309	77.689
136.47	174.584
140.63	123.863
144.787	49.5327
148.942	282.465
153.096	1373.96
157.247	3129.23
161.396	4026.38
165.544	2943.17
169.689	2188.96
173.833	2012.7
177.974	1906.17
182.114	1739.99
186.251	1595.86
190.387	1586.58
194.52	1846.25
198.652	2369.88
202.782	3003.16
206.909	3956.3
211.035	5351.41
215.159	7834.7
219.281	12552.7
223.4	20816.6
227.518	31906.1
231.634	37999.9
235.748	32653
239.86	22895.5
243.97	16110.3
248.079	11499.4
252.185	7438.78
256.289	4548.36
260.391	2844.12
264.492	1646.02
268.59	815.036
272.687	326.123
276.781	63.2417
280.874	117.647
284.964	131.583
289.053	94.2012
293.14	399.149
297.225	834.643
301.308	1597.78
305.389	2536.04
309.468	3566.97
313.545	3963.16
317.62	3463.2
321.693	2514.13
325.765	1554.24
329.834	1136.48
333.902	996.457
337.967	1096.94
342.031	1498.03
346.093	1672.95
350.153	1819.66
354.21	2084.11
358.267	2808.28
362.321	4275.12
366.373	5128.59
370.423	5315.56
374.471	5203
378.518	5829.01
382.563	6384.57
386.605	6535.68
390.646	6746.31
394.685	6702.43
398.722	6430.03
402.757	5527.08
406.79	4363.57
410.821	3467.46
414.851	3117.74
418.878	3487.39
422.904	4245.38
426.927	5255.69
430.949	5833.3
434.969	5210.2
438.987	3573.47
443.003	1896.39
447.018	979.645
451.03	410.469
455.041	196.136
459.049	143.199
463.056	185.602
467.061	222.179
471.064	166.606
475.065	83.1226
479.064	47.9834
483.062	99.8384
487.057	179.33
491.051	131.557
495.043	239.411
499.032	310.24
503.02	641.035
507.007	1020.79
510.991	1542.55
514.973	2916.27
518.954	3931.89
522.933	4967.42
526.91	4382.02
530.885	3386.76
534.858	1984.57
538.829	1461.42
542.799	1118.28
546.766	1094.97
550.732	1059.43
554.696	940.642
558.658	888.583
562.618	865.234
566.576	810.58
570.533	856.606
574.488	878.297
578.44	1160.64
582.391	1613.63
586.341	1965.25
590.288	1723.48
594.233	749.318
598.177	254.75
602.119	209.428
606.059	314.326
609.997	259.457
613.933	208.595
617.868	88.4312
621.801	9.66309
625.731	163.875
629.66	305.617
633.588	457.733
637.513	699.187
641.437	1108.11
645.358	1490.93
649.278	2156.25
653.196	3040.36
657.113	4411.8
661.027	6175.48
664.94	11728.5
668.851	14772.7
672.76	25154.2
676.667	42484
680.572	53527
684.476	45145.3
688.378	26872.6
692.278	15208.1
696.176	9142.68
700.072	6279.22
703.967	4522.67
707.86	3791.17
711.751	3570.53
715.64	3816.66
719.527	4241.28
723.413	4360.16
727.297	4467.47
731.179	4297.22
735.059	4027.41
738.937	3774.06
742.814	3295.16
746.689	2892.72
750.562	2516.76
754.433	2266.43
758.303	2001.61
762.17	1584.56
766.036	1223.24
769.901	1069.01
773.763	790.86
777.624	601.117
781.482	495.727
785.339	377.368
789.195	441.825
793.048	337.837
796.9	341.623
800.75	291.163
804.598	269.462
808.445	169.522
812.289	96.334
816.132	55.8843
819.973	43.1201
823.813	12.9824
827.65	63.5239
831.486	5.15576
835.32	99.2129
839.152	117.992
842.983	155.53
846.812	143.735
850.639	62.6084
854.464	29.0493
858.288	73.5054
862.11	76.8203
865.93	159.019
869.748	136.146
873.564	170.222
877.379	164.322
881.192	309.497
885.004	434.745
888.813	589.6
892.621	871.366
896.427	1242.24
900.232	1608.15
904.034	1811.3
907.835	2077.71
911.634	2306.57
915.432	2870.43
919.227	3284.35
923.021	4060.28
926.813	4748.05
930.604	5254.88
934.393	5401.31
938.18	5242.35
941.965	5237.47
945.749	5216.65
949.53	5350.86
953.311	5109.99
957.089	4366.15
960.866	3769.71
964.641	3187.53
968.414	3060.77
972.185	3006.25
975.955	3087.05
979.723	3044.36
983.49	3230.9
987.254	3256.98
991.017	3065.61
994.779	3293.57
998.538	3715.91
1002.3	4006.8
1006.05	4775.94
1009.81	5279.93
1013.56	5863.98
1017.31	6276.36
1021.06	6481.79
1024.81	6664.66
1028.55	7004.11
1032.3	7653.43
1036.04	8860.21
1039.78	9647.34
1043.52	9805.61
1047.26	9926.54
1050.99	9941.73
1054.73	10363.2
1058.46	10744.1
1062.19	11361.5
1065.92	12070.7
1069.65	12141.3
1073.37	11491
1077.1	10528.8
1080.82	9272.5
1084.54	8348.66
1088.26	7298.62
1091.97	5828.26
1095.69	4613.16
1099.4	3678.34
1103.12	2980.84
1106.83	2465.78
1110.54	2125.2
1114.24	1971.21
1117.95	1638.34
1121.65	1581.94
1125.35	1542.38
1129.06	1258.85
1132.75	990.71
1136.45	871.839
1140.15	747.954
1143.84	637.467
1147.53	628.144
1151.22	547.922
1154.91	409.628
1158.6	229.202
1162.28	192.406
1165.97	138.487
1169.65	114.59
1173.33	70.2842
1177.01	10.6089
1180.69	15.4273
1184.36	18.4165
1188.04	98.5972
1191.71	86.4043
1195.38	55.4004
1199.05	65.6738
1202.71	81.7461
1206.38	5.27734
1210.04	13.79
1213.71	59.6348
1217.37	40.5977
1221.03	13.3975
1224.68	8.42529
1228.34	56.1411
1231.99	88.6338
1235.65	66.458
1239.3	108.952
1242.95	163.382
1246.59	182.861
1250.24	236.495
1253.88	149.756
1257.53	163.617
1261.17	110.843
1264.81	202.95
1268.45	210.133
1272.08	655.025
1275.72	840.025
1279.35	528.02
1282.98	218.796
1286.61	276.979
1290.24	160.453
1293.87	104.458
1297.49	142.68
1301.11	183.677
1304.73	179.155
1308.36	193.214
1311.97	169.807
1315.59	182.242
1319.2	259.892
1322.82	152.717
1326.43	196.173
1330.04	166.136
1333.65	44.709
1337.26	98.5283
1340.86	97.1748
1344.47	37.331
1348.07	112.168
1351.67	39.7676
1355.27	162.098
1358.87	76.6943
1362.46	78.584
1366.06	43.9062
1369.65	55.5938
1373.24	2.91211
1376.83	103.47
1380.42	106.053
1384	98.6992
1387.59	57.1328
1391.17	104.401
1394.75	189.703
1398.33	53.4014
1401.91	121.19
1405.49	117.696
1409.06	148.453
1412.64	203.117
1416.21	76.2725
1419.78	135.543
1423.35	136.311
1426.91	270.065
1430.48	866.769
1434.05	220.213
1437.61	275.291
1441.17	47.8291
1444.73	135.906
1448.29	174.333
1451.84	203.574
1455.4	346.287
1458.95	297.188
1462.5	172.236
1466.05	142.256
1469.6	160.513
1473.15	102.226
1476.69	70.1416
1480.24	59.1963
1483.78	257.041
1487.32	141.94
1490.86	37.4434
1494.39	172.794
1497.93	70.4893
1501.46	91.7949
