Measurement: Raman, 514 nm, ccw, Raman Data Processed
Mineral: Fluorapatite
Rruff sample: R050401
Ideal chemistry: Ca_5_(PO_4_)_3_F
Locality: Urbano mine, Golconda District, Minas Gerais, Brazil
Source: Bob Downs
Description: Pale purple hexagonal prism associated with albite R050402
Measured chemistry: (Ca_0.99_Mn_0.01_)_5_(P_1.00_O_4_)_3_F_1.00_
Pin_id: L01966
Orientation: Laser parallel to a* (1 0 0). Fiducial mark perpendicular to laser is parallel to c [0 0 1]
Raman shift (cm-1)	intensity
140.271	0
145.184	58.6624
150.094	99.5945
155.002	64.2144
159.908	28.9297
164.811	65.354
169.711	85.7485
174.61	46.3828
179.505	92.9131
184.399	175.248
189.29	97.3223
194.178	74.4966
199.064	85.9712
203.948	71.9634
208.829	256.551
213.708	115.224
218.585	56.9414
223.459	62.8584
228.33	186.394
233.199	159.852
238.066	81.4414
242.93	38.1016
247.792	56.2007
252.651	95.9199
257.508	19.3242
262.363	79.8071
267.215	119.729
272.064	112.043
276.912	102.54
281.756	139.835
286.598	133.7
291.438	123.307
296.276	118.678
301.111	33.4165
305.943	142.411
310.773	86.5703
315.601	64.8149
320.426	62.6406
325.248	95.2866
330.068	69.2451
334.886	126.847
339.701	62.831
344.514	61.9409
349.324	47.6055
354.132	22.0615
358.938	93.4795
363.741	17.0537
368.541	109.402
373.339	106.002
378.135	153.359
382.928	30.2398
387.718	81.4634
392.506	33.0898
397.292	109.941
402.075	27.3227
406.856	154.898
411.634	204.061
416.41	134.831
421.183	418.93
425.954	817.634
430.722	788.423
435.488	441.354
440.251	328.622
445.012	284.115
449.77	181.846
454.526	130.769
459.28	164.893
464.03	124.65
468.779	74.0029
473.525	174.064
478.268	237.348
483.009	25.4199
487.747	114.023
492.483	154.071
497.217	71.0371
501.948	125.424
506.676	36.9678
511.402	88.7949
516.125	15.8838
520.846	46.1572
525.565	79.209
530.281	110.205
534.994	53.0557
539.705	72.8154
544.413	20.4121
549.119	6.82519
553.822	75.9043
558.523	150.662
563.222	17.9033
567.917	113.94
572.611	62.7363
577.302	367.584
581.99	329.721
586.676	562.142
591.359	706.99
596.04	474.734
600.718	646.243
605.394	348.338
610.067	295.479
614.737	250.631
619.406	159.31
624.071	168.594
628.734	72.8438
633.395	115.548
638.053	135.323
642.708	296.197
647.361	209.048
652.012	201.685
656.66	92.9824
661.305	36.1475
665.948	106.482
670.588	188.006
675.226	179.641
679.861	183.86
684.494	83.8018
689.124	145.978
693.752	149.037
698.377	53.1484
702.999	223.641
707.619	173.281
712.237	54.209
716.852	102.889
721.464	223.963
726.074	132.359
730.681	21.6914
735.286	177.978
739.888	83.6504
744.488	276.023
749.085	131.432
753.68	261.361
758.272	286.574
762.861	284.291
767.448	19.3535
772.033	301.221
776.614	325.656
781.194	76.293
785.77	374.361
790.345	180.215
794.916	173.268
799.485	193.797
804.052	106.996
808.616	368.344
813.177	48.0781
817.736	96.2734
822.292	206.922
826.846	22.4707
831.397	199.518
835.945	117.215
840.491	169.4
845.035	148.201
849.576	284.805
854.114	67.8125
858.65	90.1231
863.183	314.846
867.713	489.488
872.241	82.7519
876.767	141.76
881.29	368.523
885.81	88.6269
890.328	150.135
894.843	88.0606
899.356	142.533
903.866	73.7598
908.373	188.838
912.878	147.25
917.38	110.047
921.88	97.2188
926.377	286.41
930.872	62.8438
935.364	152.824
939.853	308.184
944.34	157.478
948.824	468.127
953.306	397.301
957.785	1494.9
962.261	5991.91
966.735	4550.75
971.207	1005.92
975.675	29.3926
980.141	255.029
984.605	13.3945
989.066	213.984
993.524	248.863
997.98	160.297
1002.43	316.887
1006.88	392.83
1011.33	228.562
1015.78	23.1035
1020.22	10.5566
1024.66	130.482
1029.1	353.318
1033.53	396.018
1037.97	264.738
1042.4	479.859
1046.82	198.242
1051.25	700.848
1055.67	626.121
1060.09	300.66
1064.51	153.496
1068.92	96.9844
1073.33	266.426
1077.74	377.602
1082.15	501.949
1086.55	279.262
1090.95	184.519
1095.35	220.742
1099.75	101.984
1104.14	35.1641
1108.53	64.9766
1112.92	325.996
1117.31	141.133
1121.69	445.066
1126.07	22.7969
1130.45	339.422
1134.82	146.477
1139.19	238.754
1143.57	136.578
1147.93	357.844
1152.3	101.34
1156.66	133.977
1161.02	29.1523
1165.38	192.5
1169.73	125.758
1174.08	221.141
1178.43	292.836
1182.78	330.703
1187.12	200.684
1191.46	263.867
1195.8	124.019
1200.14	273.227
1204.47	389.387
1208.8	233.594
1213.13	184.684
1217.46	191.699
1221.78	433.957
1226.1	415.481
1230.42	256.262
1234.73	385.953
1239.04	249.082
1243.35	262.106
1247.66	318.109
1251.97	517.234
1256.27	254.695
1260.57	297.746
1264.86	507.148
1269.16	159.906
1273.45	309.023
1277.74	493.531
1282.03	54.4609
1286.31	288.074
1290.59	26.832
1294.87	78.9492
1299.14	165.871
1303.42	2.10547
1307.69	388.363
1311.95	437.129
1316.22	624.559
1320.48	249.234
1324.74	431.324
1329	494.754
1333.26	389.531
1337.51	620.664
1341.76	359.148
1346	611
1350.25	702.941
1354.49	764.824
1358.73	552.809
1362.96	417.211
1367.2	555.113
1371.43	315.574
1375.66	734.453
1379.88	555.836
1384.11	353.559
1388.33	238.84
1392.54	606.543
1396.76	237.609
1400.97	449.215
1405.18	491.328
1409.39	452.977
1413.59	456.176
1417.8	608.973
1421.99	241.117
1426.19	403.055
1430.38	518.945
1434.58	576.129
1438.77	110.457
1442.95	635.539
1447.13	449.269
1451.32	110.859
1455.49	705.801
1459.67	561.062
1463.84	611.938
1468.01	173.438
1472.18	540.543
1476.35	68.2578
1480.51	326.586
1484.67	498.492
1488.83	246.981
1492.98	577.016
1497.13	372.672
1501.28	196.277
1505.43	635.953
1509.57	469.856
1513.71	501.117
1517.85	407.551
1521.99	405.316
1526.12	650.539
1530.25	609.363
1534.38	7.05859
1538.5	405.832
1542.62	283.984
1546.74	220.062
1550.86	468.176
1554.98	374.5
1559.09	174.031
1563.2	426.789
1567.31	4.57422
1571.41	0
