Measurement: Raman, 514 nm, ccw, Raman Data Processed
Mineral: Fluor-buergerite
Rruff sample: R060132
Ideal chemistry: NaFe^3+^_3_Al_6_(Si_6_O_18_)(BO_3_)_3_O_3_F
Locality: 20 km. south of San Luis Potasi, Mexico
Source: University of Arizona Mineral Museum
Description: Brown short prismatic
Measured chemistry: (Na_0.87_Ca_0.03_[box]_0.10_)(Fe^3+^_0.82_Al_0.12_Mg_0.04_Ti_0.02_)_3_Al_6_(BO_3_)_3_(Si_0.98_Al_0.02_)_6_O_18_(O_0.66_F_0.19_(OH)_0.15_)_4_
Pin_id: L00828
Orientation: Laser parallel to -c* (0 0 -1). Fiducial mark perpendicular to laser is parallel to -a [-1 0 0]
Raman shift (cm-1)	intensity
131.668	0
136.585	91.5977
141.5	370.562
146.412	197.942
151.321	511.758
156.229	918.097
161.134	688.35
166.036	1307.18
170.936	1484.93
175.834	1678.2
180.729	2154.4
185.622	2267.24
190.512	2232.92
195.4	2380.09
200.286	2445.01
205.169	1616.79
210.049	500.505
214.928	282.759
219.803	46.6152
224.677	86.0772
229.548	124.852
234.416	32.5957
239.282	276.098
244.146	638.482
249.007	1327.85
253.866	2264.31
258.722	3875.37
263.576	4039.3
268.427	4085.48
273.276	4400.98
278.123	4491.55
282.967	3406.2
287.809	2627.41
292.648	2503.6
297.485	2304.32
302.319	2239.27
307.151	1476.95
311.98	1302.7
316.807	1770.05
321.631	2429.93
326.454	2765.44
331.273	2591.6
336.09	2225.3
340.905	2236.09
345.717	2467.97
350.527	2879.65
355.334	2574.09
360.139	2352.24
364.941	1738.04
369.741	1550.09
374.538	1237.45
379.333	1187.43
384.126	979.491
388.916	1654.92
393.703	2865.94
398.488	3985.77
403.271	4553.93
408.051	3961.44
412.828	2775.34
417.603	873.662
422.376	52.4316
427.146	330.393
431.914	340.524
436.679	231.275
441.442	733.519
446.202	1623.4
450.96	2459.97
455.715	3183.3
460.467	3070.45
465.218	3068.44
469.965	2651.37
474.711	1764.33
479.454	799.357
484.194	344.476
488.932	21.3125
493.667	102.127
498.4	34.2559
503.13	438.411
507.858	1111.36
512.583	1920.03
517.306	1744.6
522.026	848.15
526.744	367.341
531.459	115.533
536.172	94.8174
540.882	354.103
545.59	994.584
550.295	1930.75
554.998	2292.15
559.698	2224.01
564.396	2395.35
569.091	2567.79
573.784	3156.09
578.474	3855.99
583.162	4559.02
587.847	6032.48
592.529	7809.4
597.209	10513.6
601.887	14248
606.562	18275.3
611.235	21963.6
615.905	24362.6
620.572	27777.3
625.237	31263.5
629.9	36783.8
634.56	41924.3
639.217	43533.8
643.872	37570.5
648.524	30409.1
653.174	25645.8
657.821	21129.5
662.466	15811
667.108	11858.4
671.748	8455.43
676.385	5544.7
681.02	2811.17
685.652	1032.25
690.281	551.503
694.908	696.867
699.533	986.787
704.155	1449.98
708.774	1523.2
713.391	1527.84
718.005	1191.7
722.617	1005.75
727.226	884.158
731.833	1011.25
736.437	1023.05
741.039	1015.62
745.638	1308.91
750.234	2079.07
754.828	2797.94
759.419	2461.57
764.008	1721.28
768.595	1070.86
773.178	810.981
777.759	1280.38
782.338	2039.9
786.914	3386.39
791.488	3929.75
796.059	2019.92
800.627	1061.83
805.193	666.406
809.756	456.587
814.317	287.356
818.875	207.597
823.431	85.1367
827.984	214.125
832.534	220.96
837.082	181.386
841.627	237.023
846.17	157.064
850.71	139.656
855.248	28.2666
859.783	56.7051
864.316	23.0576
868.846	241.19
873.373	177.456
877.898	273.917
882.42	344.761
886.94	332.068
891.457	584.969
895.971	649.662
900.483	776.399
904.993	895.998
909.5	941.517
914.004	1141.17
918.505	1288.88
923.004	1371.53
927.501	1481.2
931.995	1557.1
936.486	1785.94
940.975	1982.86
945.461	2033.66
949.945	2354.43
954.426	2431.94
958.904	2591.07
963.38	2784.62
967.853	2717.18
972.324	2833.5
976.792	2969.92
981.258	3097.61
985.72	3212.97
990.181	2903.02
994.639	2932.85
999.094	3175.5
1003.55	2982.7
1008	3172.98
1012.44	3406.65
1016.89	3703.75
1021.33	3775.28
1025.77	3436.47
1030.21	3123.74
1034.64	2859.77
1039.07	2532.27
1043.5	2262.71
1047.93	2531.51
1052.35	2913.89
1056.78	3266.05
1061.19	3600.29
1065.61	3342.45
1070.02	2911.21
1074.43	2558.36
1078.84	2116.1
1083.25	1943.47
1087.65	1889.55
1092.05	1628.65
1096.45	1492.49
1100.85	1470.49
1105.24	1152.79
1109.63	1246.38
1114.02	1220.11
1118.4	998.136
1122.78	804.31
1127.16	557.101
1131.54	381.483
1135.92	293.459
1140.29	209.887
1144.66	24.7363
1149.02	191.875
1153.39	62.6445
1157.75	171.005
1162.11	37.3877
1166.46	70.0166
1170.82	54.418
1175.17	79.8125
1179.52	52.4365
1183.86	3.32617
1188.21	50.1406
1192.55	156.469
1196.89	14.6982
1201.22	114.198
1205.55	26.9961
1209.88	91.165
1214.21	357.869
1218.54	261.047
1222.86	744.616
1227.18	838.672
1231.5	1406.73
1235.81	1999.85
1240.12	2762.91
1244.43	3237.73
1248.74	3236.88
1253.04	3128.76
1257.34	3281.87
1261.64	3583.19
1265.94	3819.7
1270.23	3417.37
1274.52	3663.88
1278.81	3145.32
1283.1	3504.02
1287.38	4102.03
1291.66	4185.9
1295.94	3735.39
1300.21	3129.57
1304.48	3080.75
1308.75	3253.23
1313.02	3262.44
1317.29	3368.93
1321.55	2894.92
1325.81	2770.38
1330.06	2484.13
1334.32	2541.06
1338.57	2575.71
1342.82	2536.99
1347.06	2293.6
1351.31	2294.15
1355.55	2069.52
1359.79	2029.75
1364.02	1740.69
1368.26	1676.29
1372.49	1356.02
1376.71	1145.48
1380.94	842.469
1385.16	852.639
1389.38	700.529
1393.6	758.782
1397.81	755.687
1402.02	661.313
1406.23	660.128
1410.44	649.684
1414.64	390.273
1418.85	194.628
1423.04	133.44
1427.24	135.818
1431.43	53.7998
1435.62	160.71
1439.81	83.8066
1444	48.9434
1448.18	38.1435
1452.36	70.8965
1456.54	30.9854
1460.71	64.6377
1464.89	107.045
1469.06	65.3701
1473.22	74.7246
1477.39	155.988
1481.55	53.2852
1485.71	56.7275
1489.86	111.427
1494.02	180.518
1498.17	56.373
1502.32	123.371
1506.46	340.125
1510.61	118.59
1514.75	230.644
1518.88	124.517
1523.02	197.635
1527.15	114.978
1531.28	152.93
1535.41	111.84
1539.53	50.3477
1543.66	166.185
1547.78	79.7148
1551.89	112.228
1556.01	261.293
1560.12	17.7725
1564.23	82.5459
1568.33	57.2315
