Measurement: Raman, 514 nm, ccw, Raman Data Processed
Mineral: Fluorapatite
Rruff sample: R050194
Ideal chemistry: Ca_5_(PO_4_)_3_F
Locality: Siglo XX mine, Llallagua, Bolivia
Source: Dave Bunk Minerals
Description: Purple crystal fragments
Measured chemistry: Ca_5.00_(P_1.00_O_4_)_3_F_1.00_
Pin_id: L01968
Orientation: Laser parallel to -a* (-1 0 0). Fiducial mark perpendicular to laser is parallel to -c [0 0 -1]
Raman shift (cm-1)	intensity
136.585	0
141.5	46.3457
146.412	77.7353
151.321	95.582
156.229	82.7822
161.134	121.631
166.036	82.2471
170.936	105.627
175.834	1.91309
180.729	184.171
185.622	117.861
190.512	60.4385
195.4	132.071
200.286	92.9429
205.169	35.0386
210.049	181.151
214.928	159.635
219.803	168.011
224.677	84.6626
229.548	146.733
234.416	96.9175
239.282	47.0532
244.146	158.026
249.007	104.002
253.866	95.8062
258.722	51.9546
263.576	180.355
268.427	134.461
273.276	115.969
278.123	6.80176
282.967	1.42627
287.809	39.5063
292.648	30.8379
297.485	103.577
302.319	88.0205
307.151	60.1387
311.98	142.628
316.807	70.8613
321.631	124.421
326.454	63.7666
331.273	0.962891
336.09	115.013
340.905	20.001
345.717	73.5215
350.527	82.9189
355.334	96.2783
360.139	60.791
364.941	139.969
369.741	207.481
374.538	102.639
379.333	73.9443
384.126	14.335
388.916	92.876
393.703	139.88
398.488	34.7822
403.271	80.3555
408.051	43.6055
412.828	65.7647
417.603	66.0234
422.376	248.028
427.146	324.511
431.914	293.038
436.679	175.946
441.442	65.7598
446.202	253.475
450.96	185.978
455.715	33.085
460.467	104.357
465.218	169.418
469.965	147.182
474.711	27.4229
479.454	194.74
484.194	140.318
488.932	87.3799
493.667	108.626
498.4	21.1367
503.13	14.9863
507.858	278.874
512.583	134.504
517.306	58.208
522.026	188.613
526.744	223.509
531.459	134.555
536.172	22.4521
540.882	84.79
545.59	302.863
550.295	175.348
554.998	93.582
559.698	199.055
564.396	138.583
569.091	89.8955
573.784	83.5869
578.474	228.282
583.162	264.914
587.847	184.415
592.529	233.964
597.209	184.294
601.887	74.2588
606.562	178.036
611.235	182.464
615.905	147.311
620.572	203.978
625.237	223.023
629.9	114.697
634.56	300.457
639.217	157.56
643.872	112.051
648.524	192.779
653.174	186.033
657.821	63.2246
662.466	305.131
667.108	131.074
671.748	215.147
676.385	82.9512
681.02	170.541
685.652	137.59
690.281	49.3945
694.908	160.769
699.533	146.434
704.155	29.6328
708.774	179.953
713.391	115.408
718.005	162.506
722.617	244.69
727.226	178.426
731.833	166.496
736.437	28.4004
741.039	207.607
745.638	177.287
750.234	107.045
754.828	215.424
759.419	170.051
764.008	124.543
768.595	222.197
773.178	240.926
777.759	73.6973
782.338	260.283
786.914	184.793
791.488	104.826
796.059	206.434
800.627	205.143
805.193	240.592
809.756	190.738
814.317	123.894
818.875	259.139
823.431	124.969
827.984	349.191
832.534	249
837.082	259.279
841.627	43.2812
846.17	397.691
850.71	347.324
855.248	367.598
859.783	160.379
864.316	63.1094
868.846	153.504
873.373	302.785
877.898	345.916
882.42	133.598
886.94	279.357
891.457	8.67383
895.971	129.174
900.483	146.066
904.993	198.701
909.5	72.3945
914.004	256.299
918.505	27.4844
923.004	129.481
927.501	217.102
931.995	100.504
936.486	337.15
940.975	42.9766
945.461	202.812
949.945	354.391
954.426	383.877
958.904	727.584
963.38	2413.92
967.853	1211.75
972.324	506.072
976.792	64.2519
981.258	162.643
985.72	104.234
990.181	234.121
994.639	120
999.094	60
1003.55	83.2891
1008	293.324
1012.44	175.008
1016.89	9.0625
1021.33	151.176
1025.77	53.8594
1030.21	343.777
1034.64	94.9062
1039.07	341.156
1043.5	47.7695
1047.93	122.512
1052.35	455.648
1056.78	45.2891
1061.19	153.066
1065.61	213.219
1070.02	222.039
1074.43	330.074
1078.84	15.4336
1083.25	525.93
1087.65	216.512
1092.05	311.191
1096.45	176.969
1100.85	250.852
1105.24	85.8008
1109.63	87.7969
1114.02	564.547
1118.4	218.012
1122.78	119.695
1127.16	105.938
1131.54	8.72656
1135.92	177.066
1140.29	316.254
1144.66	150.359
1149.02	144.141
1153.39	57.6367
1157.75	174.254
1162.11	24.5273
1166.46	291.824
1170.82	172.902
1175.17	341.977
1179.52	221.066
1183.86	441.914
1188.21	110.719
1192.55	227.391
1196.89	74.5352
1201.22	411.047
1205.55	208.121
1209.88	106.269
1214.21	89.2422
1218.54	410.402
1222.86	265.543
1227.18	358.891
1231.5	194.324
1235.81	431.613
1240.12	175.469
1244.43	162.832
1248.74	425.715
1253.04	260.047
1257.34	95.9258
1261.64	345.703
1265.94	150.769
1270.23	281.484
1274.52	198.762
1278.81	86.418
1283.1	218.309
1287.38	223.281
1291.66	303.496
1295.94	129.644
1300.21	426.172
1304.48	491.359
1308.75	127.262
1313.02	268.922
1317.29	493.938
1321.55	215.926
1325.81	141.758
1330.06	472.848
1334.32	320.465
1338.57	363.66
1342.82	612.426
1347.06	295.738
1351.31	51.6211
1355.55	731.078
1359.79	463.539
1364.02	352.227
1368.26	560.516
1372.49	386.414
1376.71	430.922
1380.94	360.055
1385.16	559.844
1389.38	300.297
1393.6	596.398
1397.81	510.43
1402.02	2.13281
1406.23	189.406
1410.44	406.406
1414.64	230.504
1418.85	199.699
1423.04	374.519
1427.24	263.594
1431.43	357.324
1435.62	266.035
1439.81	303.113
1444	418.082
1448.18	230.656
1452.36	388.152
1456.54	474.527
1460.71	387.754
1464.89	231.848
1469.06	468.719
1473.22	321.934
1477.39	632.938
1481.55	151.231
1485.71	515.43
1489.86	428.469
1494.02	346.848
1498.17	316.195
1502.32	468.934
1506.46	389.211
1510.61	237.273
1514.75	173.09
1518.88	328.609
1523.02	17.2852
1527.15	295.508
1531.28	393.867
1535.41	548.637
1539.53	330.438
1543.66	339.777
1547.78	275.973
1551.89	431.856
1556.01	315.269
1560.12	233.742
1564.23	169.176
1568.33	17.9805
