Measurement: Raman, 514 nm, ccw, Raman Data Processed
Mineral: Fluorapatite
Rruff sample: R050192
Ideal chemistry: Ca_5_(PO_4_)_3_F
Locality: Fulford, Eagle County, Colorado, USA
Source: Dave Bunk Minerals
Description: Pale green hexagonal prism
Measured chemistry: Ca_5.00_(P_1.00_O_4_)_3_(F_0.86_Cl_0.13_)
Pin_id: L00428
Orientation: Laser parallel to a* (1 0 0). Fiducial mark perpendicular to laser is parallel to -c [0 0 -1]
Raman shift (cm-1)	intensity
132.898	0
136.585	76.6333
140.271	218.376
143.956	124.446
147.639	135.482
151.321	90.1074
155.002	180.833
158.681	101.226
162.359	52.7776
166.036	30.8667
169.711	33.3169
173.385	60.8506
177.058	3.50562
180.729	45.5874
184.399	37.8499
188.067	29.1411
191.734	5.32422
195.4	31.0901
199.064	63.8516
202.727	31.2153
206.389	4.38721
210.049	4.59692
213.708	41.23
217.366	30.3562
221.022	20.7993
224.677	54.7918
228.33	56.2217
231.982	138.567
235.633	92.3347
239.282	87.7502
242.93	96.6406
246.577	68.1216
250.222	51.2578
253.866	138.764
257.508	174.734
261.149	204.402
264.789	216.934
268.427	239.555
272.064	189.317
275.7	127.089
279.334	164.92
282.967	201.081
286.598	160.166
290.229	142.972
293.857	98.4153
297.485	167.462
301.111	118.079
304.735	115.233
308.358	80.9522
311.98	121.174
315.601	168.116
319.22	39.7766
322.837	96.6143
326.454	43.5234
330.068	66.4434
333.682	106.93
337.294	24.1543
340.905	135.483
344.514	152.627
348.122	154.069
351.729	25.2671
355.334	100.78
358.938	90.5156
362.54	0.901367
366.141	55.2173
369.741	28.7822
373.339	88.9736
376.936	60.7031
380.531	17.7427
384.126	20.5762
387.718	96.9683
391.31	53.5303
394.9	80.6392
398.488	8.00928
402.075	69.5322
405.661	81.9424
409.245	105.867
412.828	62.9976
416.41	96.9658
419.99	185.002
423.569	236.545
427.146	341.699
430.722	451.562
434.297	398.514
437.87	493.103
441.442	571.377
445.012	621.184
448.581	695.659
452.149	558.538
455.715	381.728
459.28	333.08
462.843	388.983
466.405	166.446
469.965	96.3994
473.525	35.5884
477.082	144.689
480.639	100.035
484.194	83.0347
487.747	106.283
491.3	10.6289
494.85	78.2886
498.4	74.4077
501.948	49.0117
505.494	134.539
509.039	13.1743
512.583	31.9229
516.125	112.193
519.666	55.354
523.206	103.28
526.744	89.9331
530.281	51.3125
533.816	34.9121
537.35	30.8457
540.882	44.2593
544.413	102.504
547.943	20.898
551.471	14.0366
554.998	12.0527
558.523	4.91797
562.047	57.0747
565.57	47.3608
569.091	155.811
572.611	436.228
576.129	508.955
579.646	803.555
583.162	698.611
586.676	314.9
590.188	264.302
593.7	409.127
597.209	253.488
600.718	292.214
604.225	344.243
607.73	524.935
611.235	466.181
614.737	386.115
618.239	234.001
621.739	185.972
625.237	96.5879
628.734	31.0752
632.23	35.1455
635.724	124.193
639.217	96.8242
642.708	255.551
646.198	242.695
649.687	148.091
653.174	178.426
656.66	53.166
660.144	57.6924
663.627	142.033
667.108	190.054
670.588	46.5566
674.067	50.6836
677.544	113.898
681.02	90.6465
684.494	137.178
687.967	158.272
691.438	158.927
694.908	148.975
698.377	162.207
701.844	251.431
705.31	140.323
708.774	169.205
712.237	55.2881
715.698	153.162
719.158	188.307
722.617	63.2022
726.074	225.002
729.53	221.844
732.984	166.281
736.437	65.9922
739.888	18.9629
743.338	42.4951
746.787	2.4541
750.234	151.503
753.68	36.7978
757.124	0.563477
760.567	110.099
764.008	153.638
767.448	34.2744
770.887	18.375
774.324	275.532
777.759	74.4268
781.194	44.5967
784.626	114.077
788.058	151.118
791.488	16.2832
794.916	132.782
798.343	123.296
801.769	57.8828
805.193	138.154
808.616	135.977
812.037	109.04
815.457	68.71
818.875	119.096
822.292	178.524
825.707	5.43652
829.122	114.689
832.534	30.9053
835.945	33.8525
839.355	106.517
842.763	260.849
846.17	43.6094
849.576	75.9492
852.98	48.2451
856.382	336.494
859.783	168.599
863.183	249.239
866.581	149.075
869.978	173.175
873.373	154.577
876.767	174.465
880.159	3.03223
883.55	103.01
886.94	87.7119
890.328	95.2832
893.714	174.166
897.1	86.8301
900.483	3.5625
903.866	96.0566
907.246	79.2988
910.626	144.152
914.004	86.1269
917.38	78.2344
920.755	225.478
924.129	68.0488
927.501	24.4062
930.872	39.3789
934.241	307.668
937.609	157.162
940.975	323.816
944.34	400.684
947.703	664.422
951.065	1002.87
954.426	2323.92
957.785	5549.76
961.142	10147.3
964.499	14091.9
967.853	7683.06
971.207	3378.41
974.558	1694.36
977.909	463.732
981.258	270.057
984.605	118.988
987.951	99.5664
991.295	3.41406
994.639	106.561
997.98	153.961
1001.32	183.516
1004.66	105.057
1008	53.1816
1011.33	147.988
1014.67	189.076
1018	188.404
1021.33	235.877
1024.66	353.607
1027.99	461.254
1031.32	485.685
1034.64	299.07
1037.97	330.338
1041.29	367.082
1044.61	219.309
1047.93	314.199
1051.25	381.957
1054.56	516.531
1057.88	388.553
1061.19	481.822
1064.51	341.551
1067.82	286.185
1071.13	409.578
1074.43	168.986
1077.74	428.283
1081.05	355.935
1084.35	200.16
1087.65	105.111
1090.95	91.3926
1094.25	47.4629
1097.55	186.152
1100.85	34.9922
1104.14	282.244
1107.43	17.5234
1110.73	277.81
1114.02	191.539
1117.31	265.084
1120.59	171.518
1123.88	286.299
1127.16	181.359
1130.45	15.9258
1133.73	57.9609
1137.01	204.727
1140.29	62.2344
1143.57	235.096
1146.84	270.375
1150.12	351.441
1153.39	32.4785
1156.66	129.385
1159.93	143.188
1163.2	213.076
1166.46	281.625
1169.73	155.047
1172.99	44.6348
1176.26	191.639
1179.52	125.768
1182.78	186.518
1186.04	237.457
1189.29	168.215
1192.55	369.383
1195.8	297.32
1199.05	359.496
1202.31	147.891
1205.55	266.172
1208.8	290.102
1212.05	48.0742
1215.29	282.281
1218.54	261.797
1221.78	5.74219
1225.02	307.312
1228.26	345.297
1231.5	382.34
1234.73	238.269
1237.97	394.59
1241.2	345.606
1244.43	332.133
1247.66	395.231
1250.89	385.574
1254.12	265.43
1257.34	160.211
1260.57	203.977
1263.79	294.914
1267.01	254.742
1270.23	86.3008
1273.45	158.137
1276.67	16.7148
1279.88	346.359
1283.1	65.3711
