Measurement: Raman, 514 nm, ccw, Raman Data Processed
Mineral: Fluorapophyllite-(K)
Rruff sample: R050084
Ideal chemistry: KCa_4_Si_8_O_20_F8H_2_O
Locality: near Ahmednagar, Maharashtra, India
Source: Rock Currier
Description: Greenish-white prismatic single crystal associated with scolecite
Measured chemistry: (K_0.98_Na_0.02_)Ca_4.00_Si_8.00_O_20_F_1.00_Â·8H_2_O
Pin_id: L00295
Orientation: Laser parallel to -a* (-1 0 0). Fiducial mark perpendicular to laser is parallel to -c [0 0 -1]
Raman shift (cm-1)	intensity
90.128	0
94.324	310.42
98.519	21.239
102.712	418.969
106.902	4475.57
111.09	3823.9
115.277	468.912
119.461	600.54
123.643	359.274
127.823	669.492
132.001	867.69
136.176	1141.94
140.35	4424.48
144.521	2524.88
148.691	1112.72
152.858	680.706
157.024	649.053
161.187	1343.07
165.348	2715.65
169.507	2374.63
173.664	871.576
177.819	727.39
181.971	661.195
186.122	1636.58
190.271	1370.78
194.417	842.601
198.562	1011.03
202.704	1713.62
206.844	2725.25
210.983	3861.82
215.119	2775.2
219.253	1706.05
223.385	1313.4
227.515	1373.89
231.643	1450.67
235.769	895.465
239.893	244.232
244.014	66.19
248.134	180.704
252.252	221.458
256.367	164.355
260.481	49.741
264.592	216.981
268.702	677.978
272.809	675.816
276.915	325.146
281.018	175.79
285.119	164.601
289.218	282.572
293.316	530.776
297.411	1194.16
301.504	1558.35
305.595	1241.47
309.684	1313.67
313.771	1674.07
317.856	1900.76
321.939	2097.81
326.02	2131.28
330.099	1906.19
334.176	1679.5
338.251	1773.26
342.323	1800.89
346.394	1314.46
350.463	764.383
354.53	482.888
358.594	311.156
362.657	180.271
366.718	117.206
370.777	81.94
374.833	112.477
378.888	65.828
382.941	126.995
386.992	150.997
391.04	241.888
395.087	508.642
399.132	834.254
403.174	788.725
407.215	681.708
411.254	548.984
415.29	500.431
419.325	497.621
423.358	847.701
427.389	2049.23
431.417	4943.3
435.444	5987.35
439.469	2379.28
443.492	1078.02
447.512	571.969
451.531	312.004
455.548	197.636
459.563	296.767
463.576	603.753
467.587	553.609
471.596	370.346
475.603	383.975
479.608	953.505
483.611	2432.94
487.612	3898.3
491.611	2384.57
495.608	1270.79
499.603	974.987
503.596	949.211
507.587	690.481
511.577	528.782
515.564	478.056
519.549	507.576
523.533	520.881
527.514	734.709
531.493	1148.81
535.471	1802.97
539.447	2186.88
543.42	2054.55
547.392	1973.03
551.362	1783.27
555.329	1602.22
559.295	1528.41
563.259	1540.12
567.221	1998.23
571.181	2593.09
575.139	3402.94
579.095	4639.01
583.049	6664.86
587.002	8248.65
590.952	6564.17
594.9	3884.55
598.847	2257.33
602.792	1515.1
606.734	1101.94
610.675	780.65
614.614	524.406
618.55	392.183
622.485	406.053
626.418	366.06
630.349	368.903
634.279	365.742
638.206	414.588
642.131	460.453
646.055	578.329
649.976	609.48
653.896	631.644
657.814	865.104
661.729	1173.44
665.643	1355.32
669.555	1177.43
673.465	727.36
677.373	470.059
681.28	351.915
685.184	285.806
689.087	164.818
692.987	51.791
696.886	13.21
700.783	4.907
704.677	4.884
708.57	47.833
712.462	62.14
716.351	49.118
720.238	17.06
724.124	9.19
728.007	7.004
731.889	46.235
735.769	113.668
739.647	3.204
743.523	4.808
747.397	38.119
751.269	24.859
755.139	11.091
759.008	41.694
762.875	134.168
766.739	284.44
770.602	210.571
774.463	74.62
778.323	84.553
782.18	134.005
786.035	204.702
789.889	275.285
793.741	338.747
797.591	262.782
801.439	189.005
805.285	151.104
809.129	129.073
812.971	73.906
816.812	105.604
820.651	67.175
824.488	118.618
828.323	167.936
832.156	168.113
835.987	148.159
839.817	96.081
843.644	233.877
847.47	217.506
851.294	208.301
855.116	162.281
858.936	42.249
862.755	60.812
866.571	122.125
870.386	100.33
874.199	104.912
878.01	87.577
881.82	9.432
885.627	25.271
889.433	62.674
893.236	83.875
897.038	62.009
900.838	27.505
904.637	21.454
908.433	19.072
912.228	37.181
916.021	102.102
919.812	17.992
923.601	16.391
927.388	10.492
931.174	46.834
934.958	46.627
938.739	35.182
942.52	108.707
946.298	32.805
950.074	12.603
953.849	29.981
957.622	79.056
961.393	93.092
965.162	113.681
968.93	76.62
972.696	80.708
976.459	25.846
980.222	78.985
983.982	86.33
987.74	196.519
991.497	141.671
995.252	48.815
999.005	114
1002.76	241.19
1006.51	523.287
1010.25	714.048
1014	507.322
1017.74	301.461
1021.49	289.349
1025.23	238.976
1028.96	265.669
1032.7	390.297
1036.44	447.771
1040.17	567.947
1043.9	1042.62
1047.63	1164.75
1051.36	2056.66
1055.09	4124.37
1058.81	8708.99
1062.54	13221.8
1066.26	8935.78
1069.97	4441.69
1073.69	2574.68
1077.41	1637.81
1081.12	1294.14
1084.84	1115.18
1088.55	1146.31
1092.25	976.492
1095.96	693.005
1099.67	369.377
1103.37	311.848
1107.07	361.176
1110.77	278.573
1114.47	325.937
1118.16	292.465
1121.86	164.946
1125.55	63.511
1129.24	37.951
1132.93	77.464
1136.62	161.337
1140.31	160.876
1143.99	169.629
1147.67	55.398
1151.35	8.538
1155.03	5.128
1158.71	74.515
1162.39	10.393
1166.06	78.124
1169.73	103.962
1173.4	90.343
1177.07	40.148
1180.74	16.812
1184.4	17.083
1188.07	4.732
1191.73	83.405
1195.39	139.185
1199.05	80.325
1202.7	123.074
1206.36	42.619
1210.01	2.054
1213.66	39.501
1217.31	34.962
1220.96	68.263
1224.6	89.419
1228.25	33.49
1231.89	92.731
1235.53	152.867
1239.17	60.715
1242.81	13.727
1246.44	14.972
1250.08	78.023
1253.71	66.522
1257.34	66.822
1260.97	117.443
1264.6	101.885
1268.22	47.795
1271.85	85.452
1275.47	103.183
1279.09	105.499
1282.71	161.939
1286.33	150.252
1289.94	166.159
1293.56	197.178
1297.17	131.105
1300.78	86.027
1304.39	74.587
1307.99	59.125
1311.6	0.3
1315.2	87.891
1318.8	68.741
1322.4	80.345
1326	129.163
1329.6	90.437
1333.19	62.312
1336.79	26.134
1340.38	27.844
1343.97	23.334
1347.56	56.669
1351.14	76.799
1354.73	79.912
1358.31	144.882
1361.89	143.688
1365.47	80.517
1369.05	90.27
1372.63	45.705
1376.2	75.128
1379.78	27.464
1383.35	82.762
1386.92	180.737
1390.49	168.748
1394.05	128.479
1397.62	176.186
1401.18	161.429
1404.74	21.488
1408.3	90.896
1411.86	73.099
1415.42	25.647
1418.97	32.443
1422.53	151.129
1426.08	110.759
1429.63	156.137
1433.18	148.722
1436.72	125.552
1440.27	132.096
1443.81	133.017
1447.36	54.79
1450.89	61.02
1454.43	48.795
1457.97	94.713
1461.51	153.257
1465.04	196.077
1468.57	221.744
1472.1	220.035
1475.63	197.84
1479.16	135.451
1482.68	197.872
1486.21	92.268
1489.73	75.818
1493.25	5.3
1496.77	28.647
1500.29	32.346
1503.8	67.34
1507.32	117.548
1510.83	174.119
1514.34	131.169
1517.85	0
