Measurement: Raman, 514 nm, ccw, Raman Data Processed
Mineral: Fluorapatite
Rruff sample: R050122
Ideal chemistry: Ca_5_(PO_4_)_3_F
Locality: Cruziero mine, San Jose, Minas Gerais, Brazil
Source: Carlos and Paulo Vasconcelos
Description: Green fragment
Measured chemistry: (Ca_4.99_Mn_0.01_)_Î£=5_(P_1.00_O_4_)_3_F_1.00_; trace amounts of Fe
Pin_id: L00501
Orientation: Laser parallel to c* (0 0 1). Fiducial mark perpendicular to laser is parallel to a [1 0 0]
Raman shift (cm-1)	intensity
148.25	0
152.403	1.649
156.555	295.772
160.705	201.476
164.853	187.887
168.998	173.137
173.142	88.635
177.284	138.344
181.424	125.816
185.562	92.875
189.698	18.091
193.831	153.332
197.963	83.504
202.093	84.334
206.221	162.672
210.347	227.571
214.472	140.576
218.594	78.409
222.714	130.528
226.832	127.148
230.948	131.537
235.063	172.125
239.175	169.894
243.286	16.38
247.394	83.544
251.501	201.298
255.605	106.015
259.708	1.519
263.808	358.346
267.907	415.515
272.004	291.916
276.099	195.562
280.192	118.631
284.283	198.469
288.372	175.242
292.459	62.708
296.544	108.793
300.627	159.084
304.709	187.688
308.788	154.296
312.865	13.329
316.941	128.544
321.015	103.745
325.086	28.383
329.156	92.411
333.224	255.81
337.29	79.052
341.354	60.65
345.416	274.366
349.476	225.757
353.534	76.389
357.591	53.485
361.645	162.757
365.698	221.822
369.748	52.037
373.797	39.462
377.844	137.237
381.889	112.494
385.932	56.083
389.973	12.587
394.012	112.843
398.049	177.261
402.084	111.169
406.118	84.4
410.15	26.949
414.179	208.169
418.207	86.663
422.233	16.455
426.257	270.909
430.279	468.015
434.299	294.985
438.318	320.802
442.334	626.533
446.349	901.144
450.361	904.017
454.372	456
458.381	387.614
462.388	311.167
466.394	369.042
470.397	311.709
474.398	118.872
478.398	241.262
482.396	241.955
486.391	171.685
490.385	79.529
494.377	138.243
498.368	426.184
502.356	203.54
506.342	29.127
510.327	74.629
514.31	247.708
518.291	345.87
522.27	179.378
526.247	1.016
530.222	290.871
534.196	150.135
538.167	335.425
542.137	11.564
546.105	19.004
550.071	295.928
554.035	373.268
557.998	300.443
561.958	58.355
565.917	143.992
569.874	236.594
573.829	428.736
577.782	682.24
581.733	1242.71
585.683	845.33
589.63	676.432
593.576	476.666
597.52	77.445
601.462	308.002
605.402	908.385
609.341	1089.21
613.277	487.592
617.212	284.199
621.145	451.582
625.076	465.256
629.006	469.098
632.933	147.906
636.859	66.459
640.783	237.057
644.705	359.707
648.625	487.77
652.543	26.064
656.46	53.352
660.375	329.859
664.288	411.26
668.199	460.477
672.108	185.66
676.016	98.047
679.921	349.586
683.825	718.537
687.727	388.143
691.628	168.369
695.526	249.154
699.423	486.877
703.318	445.193
707.211	37.193
711.102	74.822
714.992	400.703
718.879	178.35
722.765	608.273
726.649	424.127
730.532	181.555
734.412	336.559
738.291	311.188
742.168	665.984
746.043	389.889
749.916	102.076
753.788	192.678
757.658	390.377
761.526	630.912
765.392	774.33
769.257	404.387
773.119	143.768
776.98	1.385
780.839	242.057
784.697	627.092
788.552	337.818
792.406	131.42
796.258	424.785
800.108	626.879
803.957	529.336
807.804	455.334
811.649	125.68
815.492	256.562
819.333	42.775
823.173	717.508
827.011	622.369
830.847	290.674
834.681	359.773
838.514	21.051
842.345	437.25
846.174	664.969
850.001	355.463
853.827	216.479
857.651	56.816
861.473	241.93
865.293	393.666
869.112	498.629
872.928	792.82
876.744	37.598
880.557	178.26
884.369	455.041
888.178	317.629
891.987	1040.75
895.793	703.283
899.598	236.578
903.401	648.211
907.202	81.279
911.001	594.143
914.799	895.66
918.595	725.562
922.389	36.877
926.182	118.396
929.972	446.137
933.761	820.484
937.549	752.363
941.334	563.523
945.118	560.281
948.9	991.523
952.681	1388.36
956.459	2518.84
960.236	5719
964.012	23198.6
967.785	14240.9
971.557	3097.5
975.327	978.965
979.095	979.145
982.862	671.871
986.627	803.484
990.39	682.555
994.152	78.262
997.912	247.816
1001.67	368.684
1005.43	549.133
1009.18	949.52
1012.93	1105.09
1016.68	329.309
1020.43	198.609
1024.18	389.242
1027.93	955.672
1031.67	1934.46
1035.42	1746.79
1039.16	580.496
1042.9	423.094
1046.63	125.102
1050.37	836.531
1054.11	1130.19
1057.84	1181.08
1061.57	1717.13
1065.3	1039.17
1069.03	608.125
1072.75	149.32
1076.47	430.734
1080.2	1252.84
1083.92	1155.4
1087.64	1397.9
1091.36	1000.18
1095.07	212.281
1098.79	286.559
1102.5	389.453
1106.21	1072.51
1109.92	935.047
1113.62	848.301
1117.33	610.238
1121.04	82.051
1124.74	244.742
1128.44	38.504
1132.14	523.641
1135.83	926.445
1139.53	1730.02
1143.22	1422.43
1146.92	672.52
1150.61	223.953
1154.3	245.133
1157.98	436.309
1161.67	695.398
1165.35	1444.04
1169.04	1118.32
1172.72	1279.19
1176.4	459.832
1180.07	185.141
1183.75	115.035
1187.42	995.266
1191.1	456.586
1194.77	1304.71
1198.44	1542.2
1202.1	1382.23
1205.77	1081.89
1209.43	651.008
1213.1	630.184
1216.76	1127.73
1220.42	1707.56
1224.07	2164.36
1227.73	1703
1231.38	1848.86
1235.04	1087.81
1238.69	653.379
1242.34	147.383
1245.99	901.277
1249.63	1353.14
1253.28	1916.09
1256.92	2240.46
1260.56	2202.04
1264.2	1569.08
1267.84	457.344
1271.48	176.945
1275.11	254.316
1278.74	460.316
1282.38	1264.17
1286.01	1598.29
1289.63	1190.84
1293.26	1059.93
1296.89	507.281
1300.51	266.801
1304.13	556.742
1307.75	236.055
1311.37	248.938
1314.99	613.285
1318.6	978.629
1322.22	1395.91
1325.83	1232.86
1329.44	813.895
1333.05	295.73
1336.66	73.465
1340.26	211.418
1343.87	289.676
1347.47	950.73
1351.07	1620.19
1354.67	2289.83
1358.27	1695.56
1361.86	1492.8
1365.46	1189.72
1369.05	336.754
1372.64	23.902
1376.23	63.18
1379.82	707.074
1383.41	1721.65
1386.99	1735.93
1390.57	2289.39
1394.16	2579.87
1397.74	2130.34
1401.32	1604.44
1404.89	807.695
1408.47	633.316
1412.04	326.926
1415.61	475.98
1419.18	1073.73
1422.75	1589.18
1426.32	1958.71
1429.89	2424.28
1433.45	2270.68
1437.01	1939.77
1440.58	1482.91
1444.13	570.906
1447.69	1.887
1451.25	280.109
1454.81	593.23
1458.36	654.488
1461.91	1293.93
1465.46	0
