Measurement: Raman, 514 nm, ccw, Raman Data Processed
Mineral: Fluorapatite
Rruff sample: R050340
Ideal chemistry: Ca_5_(PO_4_)_3_F
Locality: Buckingham, Quebec, Canada
Source: California Institute of Technology
Description: Blue fragment
Measured chemistry: Ca_5.00_((P_0.98_Si_0.02_)O_4_)_3_F_1.00_
Pin_id: L00565
Orientation: Laser parallel to -a* (-1 0 0). Fiducial mark perpendicular to laser is parallel to -c [0 0 -1]
Raman shift (cm-1)	intensity
108.28	0
113.208	14.3306
118.134	110.845
123.058	164.543
127.979	436.428
132.898	969.22
137.814	1174.72
142.728	1205.75
147.639	811.047
152.549	570.054
157.455	658.806
162.359	510.771
167.261	616.623
172.161	619.382
177.058	697.659
181.952	738.203
186.845	569.644
191.734	384.068
196.622	443.84
201.507	489.087
206.389	747.85
211.269	793.136
216.147	650.926
221.022	627.188
225.895	694.632
230.765	861.169
235.633	694.544
240.498	556.23
245.361	383.236
250.222	405.037
255.08	468.775
259.936	630.922
264.789	782.779
269.64	749.412
274.488	872.295
279.334	967.125
284.178	1061.71
289.019	1008.9
293.857	843.593
298.693	737.705
303.527	657.176
308.358	608.958
313.187	545.011
318.013	325.289
322.837	247.735
327.659	176.318
332.478	95.0254
337.294	115.861
342.108	70.8071
346.92	21.2002
351.729	75.8223
356.535	15.1919
361.34	98.2051
366.141	0.414551
370.94	4.70947
375.737	20.0464
380.531	40.8355
385.323	108.567
390.113	131.483
394.9	176.593
399.684	175.834
404.466	408.059
409.245	559.964
414.022	986.869
418.797	1732.41
423.569	3492.97
428.338	5300.56
433.105	4459.14
437.87	2888.69
442.632	2304.21
447.391	2043.67
452.149	1602.07
456.903	1102.41
461.655	713.706
466.405	522.941
471.152	350.091
475.897	266.158
480.639	196.142
485.378	149.753
490.116	56.2227
494.85	25.5557
499.582	64.9268
504.312	52.9609
509.039	31.3057
513.764	122.246
518.486	55.2246
523.206	13.2754
527.923	77.7422
532.638	12.0801
537.35	31.1543
542.059	14.6396
546.766	116.462
551.471	2.13672
556.173	163.41
560.873	207.121
565.57	353.06
570.264	556.587
574.957	1169.65
579.646	2478.16
584.333	3180.21
589.018	4447.44
593.7	2849.38
598.379	1531.45
603.056	1675.81
607.73	1706.38
612.402	894.841
617.072	550.069
621.739	420.977
626.403	229.131
631.065	314.324
635.724	232.624
640.381	113.997
645.035	313.279
649.687	350.527
654.336	222.03
658.983	129.72
663.627	172.977
668.268	141.914
672.907	70.7363
677.544	174.92
682.178	76.8555
686.809	68.5576
691.438	29.0029
696.065	57.5371
700.688	139.701
705.31	7.93066
709.929	126.533
714.545	73.3496
719.158	9.80566
723.77	234.247
728.378	194.957
732.984	55.333
737.588	211.358
742.189	158.032
746.787	44.6318
751.383	113.247
755.976	41.0195
760.567	17.1953
765.155	172.836
769.741	22.9043
774.324	122.402
778.904	83.1699
783.482	246.455
788.058	98.5147
792.631	70.0889
797.201	102.777
801.769	133.415
806.334	25.8926
810.897	92.6348
815.457	124.06
820.014	60.6103
824.569	228.87
829.122	70.1728
833.671	61.9287
838.219	98.1943
842.763	29.9766
847.306	11.624
851.845	225.524
856.382	32.1699
860.917	283.158
865.448	213.874
869.978	246.261
874.505	164.838
879.029	59.9111
883.55	127.918
888.069	47.8984
892.586	59.6475
897.1	36.1738
901.611	208.44
906.12	33.2705
910.626	176.808
915.129	181.124
919.63	42.084
924.129	110.484
928.625	173.381
933.118	298.341
937.609	333.973
942.097	626.094
946.582	1507.63
951.065	2840.2
955.546	8544.56
960.023	28319.5
964.499	45935.7
968.971	19632.4
973.441	4912.39
977.909	1293.51
982.374	569.084
986.836	272.792
991.295	179.458
995.753	104.603
1000.21	251.727
1004.66	762.388
1009.11	1062.24
1013.55	689.975
1018	372.834
1022.44	551.382
1026.88	857.861
1031.32	1537.2
1035.75	2081.09
1040.18	2887.67
1044.61	2874.02
1049.04	3278.79
1053.46	3706.61
1057.88	2385.38
1062.3	1423.23
1066.71	1106.44
1071.13	1294.65
1075.54	1706.29
1079.94	1953.6
1084.35	1265.95
1088.75	562.438
1093.15	388.043
1097.55	66.7705
1101.94	173.648
1106.34	141.53
1110.73	152.412
1115.11	152.6
1119.5	399.756
1123.88	158.931
1128.26	70.9531
1132.63	10.7969
1137.01	82.1797
1141.38	178.5
1145.75	0.945313
1150.12	16.6055
1154.48	178.986
1158.84	241.51
1163.2	207.959
1167.55	35.6816
1171.91	172.918
1176.26	174.668
1180.61	62.8848
1184.95	287.119
1189.29	62.7832
1193.63	13.6914
1197.97	86.625
1202.31	253.912
1206.64	8.89844
1210.97	80.1406
1215.29	200.106
1219.62	61.2246
1223.94	274.844
1228.26	217.566
1232.57	107.199
1236.89	191.74
1241.2	84.0215
1245.51	259.371
1249.81	52.6738
1254.12	66.8769
1258.42	193.857
1262.72	63.3574
1267.01	225.744
1271.3	11.041
1275.59	102.119
1279.88	60.1211
1284.17	131.019
1288.45	28.6562
1292.73	130.219
1297.01	52.6934
1301.28	23.0176
1305.55	299.158
1309.82	17.1523
1314.09	58.9375
1318.35	8.47656
1322.61	151.445
1326.87	135.84
1331.13	243.975
1335.38	138.123
1339.63	157.043
1343.88	282.871
1348.12	51.4102
1352.37	251.135
1356.61	300.506
1360.85	72.8262
1365.08	201.828
1369.31	113.322
1373.54	253.287
1377.77	96.0801
1381.99	76.0117
1386.22	239.92
1390.43	307.508
1394.65	19.2363
1398.87	201.764
1403.08	175.385
1407.29	65.166
1411.49	168.412
1415.69	137.691
1419.89	217.978
1424.09	152.834
1428.29	105.002
1432.48	32.3789
1436.67	197.076
1440.86	129.398
1445.04	87.9668
1449.23	291.088
1453.4	38.8789
1457.58	146.144
1461.76	337.326
1465.93	201.947
1470.1	296.482
1474.26	290.961
1478.43	198.088
1482.59	324.44
1486.75	81.4844
1490.9	268.568
1495.06	41.5195
1499.21	98.5625
1503.35	313.598
1507.5	72.9648
1511.64	283.353
1515.78	281.334
1519.92	196.719
1524.05	193.332
1528.18	403.131
1532.31	196.127
1536.44	197.06
1540.56	7.29883
1544.69	342.477
1548.8	148.574
1552.92	132.826
1557.03	3.91797
1561.14	248.139
1565.25	146.832
1569.36	87.1289
