Measurement: Raman, 514 nm, ccw, Raman Data Processed
Mineral: Fluorapophyllite-(K)
Rruff sample: R050084
Ideal chemistry: KCa_4_Si_8_O_20_F8H_2_O
Locality: near Ahmednagar, Maharashtra, India
Source: Rock Currier
Description: Greenish-white prismatic single crystal associated with scolecite
Measured chemistry: (K_0.98_Na_0.02_)Ca_4.00_Si_8.00_O_20_F_1.00_Â·8H_2_O
Pin_id: L00128
Orientation: Laser parallel to c* (0 0 1). Fiducial mark perpendicular to laser is parallel to a [1 0 0]
Raman shift (cm-1)	intensity
80.327	0
84.529	5.63
88.728	293.524
92.926	1074.02
97.121	1040.48
101.314	557.945
105.505	1636.63
109.694	7434.5
113.881	2034.86
118.066	1289.47
122.249	2653.27
126.43	3077.44
130.608	1823.09
134.785	2142.65
138.959	375.176
143.131	44.392
147.301	200.83
151.469	16.214
155.635	612.625
159.799	2067.55
163.961	5584.23
168.121	2807.52
172.278	592.619
176.434	114.761
180.587	557.654
184.739	3993.08
188.888	5668.29
193.035	1996.97
197.18	1350.68
201.324	1787.12
205.465	3211.84
209.603	8355.98
213.74	11677.4
217.875	6412.59
222.008	4005.42
226.139	4044.78
230.267	5061.1
234.394	3505.5
238.518	1639.01
242.641	890.575
246.761	506.813
250.879	82.081
254.996	37.233
259.11	224.685
263.222	463.843
267.332	853.822
271.44	1123.8
275.546	692.936
279.65	326.259
283.752	294.212
287.852	657.82
291.95	1434.6
296.046	2473.27
300.14	3520.51
304.231	2798.52
308.321	1583.77
312.409	769.961
316.495	377.671
320.578	559.51
324.66	631.601
328.739	627.129
332.817	871.186
336.892	1667.67
340.966	1917.48
345.037	1098.48
349.107	489.1
353.174	327.748
357.24	204.968
361.303	15.327
365.365	62.092
369.424	181.774
373.481	277.333
377.537	1.382
381.59	169.38
385.642	29.022
389.691	33.732
393.738	82.233
397.784	98.81
401.827	118.685
405.868	249.692
409.908	450.439
413.945	21.065
417.98	214.027
422.014	518.831
426.045	824.904
430.075	2290.43
434.102	7871.75
438.127	4402.9
442.151	1334.57
446.172	433.777
450.192	388.109
454.209	520.382
458.225	509.449
462.238	653.323
466.25	877.009
470.259	858.551
474.267	469.154
478.273	179.781
482.276	152.159
486.278	628.43
490.278	720.699
494.276	272.802
498.271	41.745
502.265	187.608
506.257	319.426
510.247	316.084
514.235	112.43
518.221	185.676
522.205	479.237
526.187	590.75
530.167	514.982
534.145	563.798
538.122	1056.08
542.096	1410.32
546.068	1061.33
550.039	627.943
554.007	635.294
557.973	952.279
561.938	1050.84
565.901	967.044
569.861	1112.58
573.82	1831.75
577.777	3135.3
581.732	4414.27
585.685	5305.78
589.636	5109.59
593.585	3829.57
597.532	2677.99
601.477	1569.51
605.42	899.889
609.361	807.255
613.301	930.202
617.238	1007.58
621.174	763.961
625.108	731.333
629.039	938.716
632.969	1288.1
636.897	1253.26
640.823	992.347
644.747	1075.7
648.669	1665.06
652.589	2373.41
656.508	2746.39
660.424	2951.53
664.339	3383.04
668.251	3788.22
672.162	3430.81
676.071	2238.16
679.978	1279.54
683.883	804.155
687.786	756.943
691.687	703.81
695.586	492.759
699.484	144.831
703.379	86.164
707.273	248.787
711.165	264.675
715.055	247.632
718.943	30.426
722.829	178.536
726.713	37.082
730.595	256.868
734.476	222.27
738.354	12.535
742.231	132.477
746.106	26.638
749.978	311.057
753.849	316.857
757.719	141.45
761.586	156.041
765.451	416.843
769.315	937.685
773.177	832.315
777.036	471.237
780.894	92.886
784.75	177.608
788.605	544.276
792.457	1115.23
796.307	1075.92
800.156	412.834
804.003	95.55
807.848	152.276
811.691	477.003
815.532	509.721
819.371	316.458
823.209	107.215
827.045	190.992
830.878	542.786
834.71	736.413
838.54	748.792
842.369	472.216
846.195	280.107
850.02	371.443
853.842	577.373
857.663	691.31
861.482	502.255
865.299	207.488
869.115	42.094
872.928	255.093
876.74	480.05
880.55	440.43
884.358	315.341
888.164	57.721
891.969	17.551
895.771	199.178
899.572	373.156
903.371	444.56
907.168	251.499
910.963	71.361
914.757	25.625
918.548	190.358
922.338	379.303
926.126	360.198
929.912	226.103
933.697	59.974
937.479	83.926
941.26	131.869
945.039	346.856
948.816	433.886
952.591	260.88
956.365	101.871
960.136	39.895
963.906	211.563
967.674	502.687
971.441	708.863
975.205	574.093
978.968	107.377
982.729	59.281
986.488	22.08
990.245	295.672
994	459.681
997.754	369.642
1001.51	411.233
1005.26	543.908
1009	854.986
1012.75	867.851
1016.5	802.86
1020.24	832.101
1023.98	716.538
1027.72	451.317
1031.46	344.002
1035.19	489.575
1038.93	817.216
1042.66	1350.43
1046.39	1692.75
1050.12	2089.63
1053.85	2985.46
1057.57	5632.32
1061.29	10533.5
1065.02	10217
1068.74	5636.11
1072.45	2932.22
1076.17	1508.42
1079.88	809.684
1083.6	431.829
1087.31	479.575
1091.02	642.511
1094.72	822.595
1098.43	725.151
1102.13	425.94
1105.84	276.741
1109.54	191.958
1113.24	385.311
1116.93	774.745
1120.63	812.266
1124.32	889.984
1128.01	545.82
1131.7	223.693
1135.39	25.185
1139.08	45.771
1142.76	131.257
1146.45	445.728
1150.13	566.64
1153.81	512.842
1157.48	345.727
1161.16	140.348
1164.84	21.461
1168.51	127.396
1172.18	336.051
1175.85	608.988
1179.52	653.105
1183.18	513.197
1186.85	347.209
1190.51	153.534
1194.17	40.993
1197.83	109.428
1201.48	398.594
1205.14	606.855
1208.79	620.479
