Measurement: Raman, 514 nm, ccw, Raman Data Processed
Mineral: Fluorapatite
Rruff sample: R060333
Ideal chemistry: Ca_5_(PO_4_)_3_F
Locality: Lovozero Massif, Kola Peninsula, U.S.S.R.
Source: Michael Scott
Description: Colorless fragment associated with red villiaumite
Measured chemistry: (Ca_4.29_Sr_0.47_Na_0.12_Ce_0.07_La_0.06_)_Σ=5_((P_0.99_Si_0.01_)_Σ=1_O_4_)_3_F_1.00_
Pin_id: L01212
Orientation: Laser parallel to a* (1 0 0). Fiducial mark perpendicular to laser is parallel to -c [0 0 -1]
Raman shift (cm-1)	intensity
164.221	0
169.145	35.0767
174.066	46.5576
178.984	99.1841
183.9	71.0229
188.812	47.8306
193.722	30.583
198.628	80.0019
203.532	152.541
208.433	70.8101
213.331	113.885
218.226	49.6538
223.118	151.406
228.007	196.391
232.893	411.219
237.777	296.377
242.657	246.257
247.535	303.672
252.41	490.347
257.281	533.755
262.15	694.003
267.017	487.959
271.88	459.39
276.74	320.443
281.598	306.806
286.453	224.574
291.304	423.097
296.153	304.036
301	349.951
305.843	300.913
310.683	247.477
315.521	218.381
320.356	29.335
325.188	107.341
330.017	91.3223
334.843	149.787
339.666	12.0815
344.487	52.3433
349.305	9.8833
354.12	9.85303
358.932	40.9185
363.741	89.9902
368.548	40.5264
373.352	171.048
378.153	132.523
382.951	44.918
387.746	24.3613
392.539	37.5918
397.328	0.969727
402.115	18.2148
406.899	194.093
411.681	184.851
416.459	361.076
421.235	306.756
426.008	612.281
430.779	780.665
435.546	1015.3
440.311	1382.32
445.073	1643.71
449.832	1541.47
454.588	1035.62
459.342	736.714
464.093	452.17
468.841	315.848
473.587	380.086
478.329	231.179
483.069	168.109
487.806	31.1797
492.541	76.0879
497.272	35.9492
502.001	83.8076
506.728	12.3096
511.451	78.5596
516.172	35.2246
520.89	3.9707
525.605	220.374
530.318	30.1875
535.028	112.307
539.735	120.584
544.44	245.592
549.141	73.0342
553.841	175.977
558.537	217.055
563.231	324.137
567.922	454.669
572.61	1140.96
577.296	1871.57
581.979	1734.48
586.659	880.803
591.336	860.846
596.011	920.351
600.683	1206.08
605.353	1971.01
610.02	1192.59
614.684	835.626
619.345	711.955
624.004	386.603
628.661	178.205
633.314	30.5117
637.965	352.715
642.613	434.016
647.259	535.9
651.902	684.417
656.542	652.691
661.18	369.489
665.815	441.056
670.447	303.38
675.077	195.036
679.704	221.158
684.328	207.252
688.95	161.603
693.569	271.559
698.186	161.33
702.8	35.3594
707.411	67.082
712.02	200.672
716.626	63.6035
721.23	140.775
725.83	154.467
730.429	179.232
735.024	146.853
739.618	112.279
744.208	118.932
748.796	19.2617
753.381	46.5547
757.964	6.63086
762.544	70.4004
767.122	191.568
771.697	23.3965
776.269	120.41
780.839	158.051
785.406	152.828
789.971	235.514
794.533	130.272
799.093	195.93
803.65	19.1289
808.204	138.033
812.756	218.516
817.305	234.607
821.852	268.764
826.396	203.227
830.938	121.684
835.477	168.711
840.013	174.525
844.547	135.471
849.079	122.684
853.608	169.008
858.134	208.254
862.658	129.684
867.179	299.031
871.698	244.769
876.214	587.264
880.728	162.953
885.239	175.096
889.748	104.606
894.254	45.4609
898.758	24.7031
903.259	11.6191
907.758	38.8652
912.254	222.566
916.748	128.584
921.239	160.258
925.728	95.4844
930.214	108.418
934.698	296.469
939.179	556.795
943.657	1159.62
948.134	2889.86
952.607	7379.6
957.079	19116.4
961.548	30403.8
966.014	19933.4
970.478	8156.24
974.939	2643.34
979.398	971.898
983.854	386.844
988.308	37.0801
992.76	35.9395
997.209	82.791
1001.65	457.197
1006.1	134.434
1010.54	164.807
1014.98	89.8828
1019.42	452.947
1023.85	706.541
1028.28	910.285
1032.71	729.047
1037.14	756.652
1041.56	479.727
1045.99	593.223
1050.41	465.629
1054.82	680.164
1059.24	779.231
1063.65	323.449
1068.06	541.789
1072.47	481.443
1076.87	682.441
1081.28	424.519
1085.68	327.654
1090.08	448.838
1094.47	209.065
1098.86	248.492
1103.25	103.016
1107.64	151.531
1112.03	232.328
1116.41	76.6055
1120.79	317.824
1125.17	347.469
1129.55	272.859
1133.92	486.328
1138.29	188.008
1142.66	202.797
1147.03	216.402
1151.39	99.9883
1155.76	445.059
1160.12	131.07
1164.47	399.676
1168.83	304.426
1173.18	189.359
1177.53	373.504
1181.88	93.7812
1186.22	302.176
1190.57	103.715
1194.91	387.574
1199.25	131.613
1203.58	278.051
1207.92	275.848
1212.25	27.7773
1216.58	330.836
1220.9	250.039
1225.23	32.6172
1229.55	295.801
1233.87	314.906
1238.19	2.77344
1242.5	113.012
1246.81	118.609
1251.12	155.398
1255.43	344.656
1259.74	262.102
1264.04	344.746
1268.34	346.562
1272.64	266.594
1276.94	2.88281
1281.23	122.656
1285.52	25.3203
1289.81	179.219
1294.1	426.441
1298.39	185.789
1302.67	376.394
1306.95	297.246
1311.23	306.348
1315.5	166.68
1319.78	544.207
1324.05	203.867
1328.32	185.594
1332.58	199.668
1336.85	305.977
1341.11	516.527
1345.37	335.328
1349.63	250.391
1353.88	235.969
1358.13	340.59
1362.38	347.523
1366.63	360.519
1370.88	198.106
1375.12	240.164
1379.36	441.582
1383.6	256.324
1387.84	223.414
1392.08	252.867
1396.31	245.109
1400.54	309.332
1404.77	261.266
1408.99	162.234
1413.21	207.34
1417.44	44.3164
1421.66	225.434
1425.87	138.481
1430.09	181.078
1434.3	166.746
1438.51	429.508
1442.72	238.644
1446.92	238.359
1451.13	304.106
1455.33	94.3164
1459.53	405.019
1463.72	508.289
1467.92	292.863
1472.11	149.281
1476.3	519.434
1480.49	289.125
1484.67	147.43
1488.86	108.156
1493.04	134.789
1497.22	447.348
1501.39	286.414
1505.57	251.203
1509.74	163.293
1513.91	528.527
1518.08	318.035
1522.25	61.8789
1526.41	507.164
1530.57	135.34
1534.73	279.934
1538.89	112.43
1543.04	478.508
1547.2	394.637
1551.35	339.867
1555.49	470.723
1559.64	194.914
1563.79	0
