Measurement: Raman, 514 nm, ccw, Raman Data Processed
Mineral: Fluorapatite
Rruff sample: R050194
Ideal chemistry: Ca_5_(PO_4_)_3_F
Locality: Siglo XX mine, Llallagua, Bolivia
Source: Dave Bunk Minerals
Description: Purple crystal fragments
Measured chemistry: Ca_5.00_(P_1.00_O_4_)_3_F_1.00_
Pin_id: L01106
Orientation: Laser parallel to -c* (0 0 -1). Fiducial mark perpendicular to laser is parallel to -a [-1 0 0]
Raman shift (cm-1)	intensity
134.127	0
139.043	69.2476
143.956	172.832
148.867	43.792
153.775	19.645
158.681	135.426
163.585	65.7026
168.486	58.7305
173.385	167.424
178.282	121.592
183.176	53.5601
188.067	18.9434
192.956	40.8696
197.843	83.6558
202.727	71.3799
207.609	67.4116
212.489	1.2207
217.366	112.412
222.24	78.1113
227.112	119.834
231.982	99.0122
236.849	155.623
241.714	91.0356
246.577	137.299
251.437	49.5488
256.294	80.8623
261.149	122.495
266.002	69.1724
270.852	137.204
275.7	101.397
280.545	0.560059
285.388	16.8135
290.229	66.6856
295.067	134.065
299.902	23.3501
304.735	72.8633
309.566	144.37
314.394	98.8931
319.22	105.942
324.043	89.2573
328.864	92.9492
333.682	70.2056
338.498	56.6465
343.311	119.528
348.122	13.4458
352.931	58.3584
357.737	76.2461
362.54	62.1226
367.341	39.3164
372.14	50.835
376.936	95.957
381.73	77.668
386.521	47.0664
391.31	192.481
396.096	174.482
400.88	31.1934
405.661	109.028
410.44	78.8584
415.216	75.9609
419.99	31.0205
424.761	83.1875
429.53	103.655
434.297	105.882
439.061	130.222
443.822	120.427
448.581	135.399
453.337	132.042
458.091	68.7578
462.843	147.628
467.592	65.0596
472.338	142.809
477.082	92.4082
481.824	115.752
486.563	113.245
491.3	167.314
496.034	178.613
500.765	145.501
505.494	94.9707
510.221	142.377
514.945	72.8955
519.666	109.419
524.385	80.083
529.102	83.8232
533.816	128.222
538.527	10.4375
543.236	56.1514
547.943	80.4951
552.647	98.582
557.348	38.0576
562.047	229.606
566.744	56.7734
571.438	122.635
576.129	109.463
580.818	328.841
585.504	262.358
590.188	87.9775
594.87	107.623
599.549	59.2754
604.225	85.0938
608.899	177.832
613.57	216.821
618.239	170.955
622.905	69.3887
627.569	147.251
632.23	8.44922
636.889	17.2158
641.545	256.836
646.198	161.286
650.849	295.957
655.498	162.039
660.144	173.193
664.787	141.482
669.428	280.946
674.067	283.922
678.703	286.106
683.336	224.99
687.967	183.428
692.595	272.326
697.221	82.0508
701.844	157.25
706.465	64.2754
711.083	63.7383
715.698	276.018
720.311	198.777
724.922	232.988
729.53	260.074
734.135	63.6738
738.738	61.834
743.338	77.4023
747.936	185.731
752.531	116.055
757.124	1.8457
761.714	175.228
766.302	235.996
770.887	231.826
775.469	138.695
780.049	251.631
784.626	133.119
789.201	54.2402
793.773	160.315
798.343	166.693
802.91	170.779
807.475	168.223
812.037	314.072
816.596	134.906
821.153	381.496
825.707	295.197
830.259	192.67
834.808	155.133
839.355	220.434
843.899	199.656
848.441	137.273
852.98	275.801
857.516	329.926
862.05	55.5469
866.581	219.832
871.11	23.9004
875.636	214.158
880.159	431.111
884.68	167.18
889.199	262.709
893.714	46.8613
898.228	61.9844
902.738	141.85
907.246	91.8555
911.752	147.994
916.255	246.283
920.755	331.193
925.253	112.613
929.748	308.973
934.241	110.004
938.731	49.2617
943.218	319.238
947.703	166.967
952.186	99.6602
956.665	491.318
961.142	951.549
965.617	2219.41
970.089	694.867
974.558	308.402
979.025	289.256
983.489	212.59
987.951	305.865
992.41	206.557
996.866	119.988
1001.32	83.0137
1005.77	358.022
1010.22	55.8652
1014.67	223.711
1019.11	68.1875
1023.55	237.367
1027.99	299.701
1032.42	348.035
1036.86	156.629
1041.29	26.8613
1045.72	225.871
1050.14	48.0234
1054.56	55.5
1058.98	173.43
1063.4	274.086
1067.82	474.305
1072.23	323.234
1076.64	201.223
1081.05	295.621
1085.45	41.1055
1089.85	151.262
1094.25	36.4648
1098.65	66.4531
1103.04	209.324
1107.43	226.918
1111.82	140.516
1116.21	130.449
1120.59	175.738
1124.97	140.711
1129.35	377.418
1133.73	511.598
1138.1	268.746
1142.47	178.477
1146.84	68.1055
1151.21	278.203
1155.57	113.508
1159.93	258.883
1164.29	182.773
1168.64	134.535
1172.99	167.137
1177.34	100.766
1181.69	205.363
1186.04	450.676
1190.38	372.18
1194.72	144.496
1199.05	336.297
1203.39	42.3398
1207.72	110.754
1212.05	260.418
1216.37	561.762
1220.7	401.961
1225.02	17.2227
1229.34	180.926
1233.65	214.996
1237.97	134.277
1242.28	125.188
1246.59	214.172
1250.89	307.496
1255.19	207.168
1259.49	51.8711
1263.79	306.5
1268.09	253.289
1272.38	182.297
1276.67	139.922
1280.95	63.0156
1285.24	172.602
1289.52	235.969
1293.8	318.231
1298.08	31.1211
1302.35	336.328
1306.62	74.6836
1310.89	169.703
1315.15	138.633
1319.42	338.246
1323.68	83.0625
1327.94	285.578
1332.19	205.582
1336.44	121.949
1340.69	288.746
1344.94	267.812
1349.19	348.555
1353.43	519.762
1357.67	681.473
1361.9	290.164
1366.14	278.519
1370.37	393.785
1374.6	147.578
1378.83	188.894
1383.05	326.734
1387.27	348.488
1391.49	306.406
1395.7	234.965
1399.92	187.91
1404.13	300.297
1408.34	162.16
1412.54	419.859
1416.74	133.609
1420.94	227.117
1425.14	490.769
1429.34	180.305
1433.53	241.613
1437.72	284.18
1441.9	89.832
1446.09	411.508
1450.27	227.273
1454.45	128.207
1458.63	499.09
1462.8	91.7461
1466.97	52.8711
1471.14	296.41
1475.31	669.523
1479.47	587.473
1483.63	308.336
1487.79	360.176
1491.94	358.629
1496.09	256.992
1500.24	344.16
1504.39	460.035
1508.54	109.742
1512.68	346.359
1516.82	657.262
1520.95	676.891
1525.09	463.875
1529.22	643.519
1533.35	496.344
1537.47	522.703
1541.6	371.852
1545.72	193.664
1549.83	48.3359
1553.95	239.008
1558.06	245.945
1562.17	567.281
1566.28	431.316
1570.38	11.5469
