Measurement: Raman, 514 nm, ccw, Raman Data Processed
Mineral: Fluorapatite
Rruff sample: R060070
Ideal chemistry: Ca_5_(PO_4_)_3_F
Locality: Panasqueira, Portugal
Source: Dave Bunk
Description: Green hexagonal tablet
Measured chemistry: (Ca_0.99_Mn_0.01_)_5_(P_1.00_O_4_)_3_F_1.00_
Pin_id: L01870
Orientation: Laser parallel to -c* (0 0 -1). Fiducial mark perpendicular to laser is parallel to -a [-1 0 0]
Raman shift (cm-1)	intensity
202.727	0
207.609	89.0293
212.489	21.4014
217.366	120.728
222.24	114.624
227.112	67.8057
231.982	11.7925
236.849	66.938
241.714	101.802
246.577	47.7964
251.437	109.47
256.294	118.876
261.149	89.3584
266.002	109.835
270.852	96.728
275.7	51.0361
280.545	135.271
285.388	114.468
290.229	93.4473
295.067	31.8438
299.902	34.5767
304.735	74.6089
309.566	162.139
314.394	262.793
319.22	30.4697
324.043	129.75
328.864	29.3198
333.682	90.2437
338.498	90.1411
343.311	27.5571
348.122	159.485
352.931	91.9302
357.737	145.193
362.54	45.6108
367.341	25.1104
372.14	151.916
376.936	72.5
381.73	158.984
386.521	111.894
391.31	104.098
396.096	141.887
400.88	111.991
405.661	123.173
410.44	60.8193
415.216	54.7422
419.99	189.31
424.761	62.4785
429.53	247.247
434.297	87.3652
439.061	168.065
443.822	273.427
448.581	281.268
453.337	168.047
458.091	214.534
462.843	282.581
467.592	63.793
472.338	126.966
477.082	24.0986
481.824	147.794
486.563	180.541
491.3	97.917
496.034	238.432
500.765	139.84
505.494	144.681
510.221	144.888
514.945	145.004
519.666	154.294
524.385	125.102
529.102	114.702
533.816	36.4336
538.527	123.137
543.236	51.8408
547.943	189.831
552.647	174.605
557.348	211.884
562.047	97.292
566.744	18.084
571.438	162.851
576.129	148.842
580.818	157.426
585.504	116.169
590.188	33.5293
594.87	21.3311
599.549	188.378
604.225	66.2266
608.899	247.829
613.57	29.5146
618.239	112.717
622.905	137.966
627.569	229.487
632.23	28.875
636.889	63.2022
641.545	190.665
646.198	245.92
650.849	166.806
655.498	129.302
660.144	181.965
664.787	73.7441
669.428	83.418
674.067	250.994
678.703	184.914
683.336	163.912
687.967	85.4981
692.595	32.3242
697.221	259.363
701.844	153.44
706.465	303.615
711.083	85.1074
715.698	123.666
720.311	76.2441
724.922	143.051
729.53	148.682
734.135	197.471
738.738	220.889
743.338	94.7676
747.936	173.703
752.531	220.463
757.124	75.1094
761.714	278.537
766.302	88.5078
770.887	372.67
775.469	221.635
780.049	228.506
784.626	205.094
789.201	295.389
793.773	108.047
798.343	315.357
802.91	182.457
807.475	156.094
812.037	194.758
816.596	147.174
821.153	250.766
825.707	248.402
830.259	71.8398
834.808	117.961
839.355	113.311
843.899	208.127
848.441	80.3555
852.98	244.777
857.516	130.566
862.05	300.764
866.581	239.562
871.11	186.541
875.636	173.459
880.159	245.594
884.68	67.3066
889.199	7.25
893.714	125.088
898.228	362.731
902.738	116.648
907.246	147.244
911.752	426.92
916.255	68.291
920.755	91.5527
925.253	216.502
929.748	38.2949
934.241	49.1699
938.731	134.41
943.218	415.977
947.703	322.397
952.186	97.2598
956.665	249.326
961.142	673.305
965.617	973.252
970.089	468.373
974.558	459.019
979.025	194.457
983.489	100.254
987.951	275.795
992.41	209.418
996.866	31.0684
1001.32	130.033
1005.77	206.641
1010.22	243.262
1014.67	156.383
1019.11	150.144
1023.55	177.074
1027.99	137.332
1032.42	12.0898
1036.86	422.984
1041.29	53.9922
1045.72	54.5586
1050.14	340.484
1054.56	267.828
1058.98	259.832
1063.4	49.7422
1067.82	170.328
1072.23	275.652
1076.64	36.6211
1081.05	209.66
1085.45	156.098
1089.85	90.1953
1094.25	42.2734
1098.65	273.398
1103.04	25.5586
1107.43	143.894
1111.82	245.488
1116.21	340.019
1120.59	228.699
1124.97	272.106
1129.35	257.891
1133.73	235.527
1138.1	248.762
1142.47	157.875
1146.84	181.703
1151.21	192.703
1155.57	328.144
1159.93	199.5
1164.29	113.894
1168.64	170.336
1172.99	354.852
1177.34	247.41
1181.69	106.941
1186.04	365.715
1190.38	399.992
1194.72	159.164
1199.05	78.5234
1203.39	405.988
1207.72	406.699
1212.05	266.57
1216.37	295.934
1220.7	392.422
1225.02	235.109
1229.34	328.016
1233.65	390.117
1237.97	398.094
1242.28	325.707
1246.59	463.699
1250.89	541.531
1255.19	212.004
1259.49	263.137
1263.79	324.883
1268.09	220.25
1272.38	5.39844
1276.67	109.227
1280.95	234.727
1285.24	53.3828
1289.52	272.113
1293.8	325.125
1298.08	126.625
1302.35	4.21875
1306.62	122.504
1310.89	282.879
1315.15	125.918
1319.42	320.742
1323.68	627.984
1327.94	742.172
1332.19	319.984
1336.44	553.441
1340.69	914.535
1344.94	635.281
1349.19	604.707
1353.43	332.809
1357.67	794.594
1361.9	401.121
1366.14	321.371
1370.37	599.324
1374.6	354.031
1378.83	480.523
1383.05	394.797
1387.27	276.785
1391.49	564.984
1395.7	369.465
1399.92	608.719
1404.13	321.769
1408.34	492.652
1412.54	327.394
1416.74	326.102
1420.94	395.742
1425.14	596.215
1429.34	474.008
1433.53	561.769
1437.72	401.82
1441.9	707.004
1446.09	355.688
1450.27	520.027
1454.45	503.684
1458.63	433.363
1462.8	670.062
1466.97	195.781
1471.14	571.527
1475.31	286.301
1479.47	494.066
1483.63	406.879
1487.79	371.664
1491.94	570.426
1496.09	426.023
1500.24	631.191
1504.39	717.543
1508.54	440.816
1512.68	157.902
1516.82	476.719
1520.95	216.352
1525.09	509.887
1529.22	490.438
1533.35	360.199
1537.47	5.48047
1541.6	226.785
1545.72	249.832
1549.83	609.289
1553.95	370.188
1558.06	163.09
1562.17	379.754
1566.28	260.938
1570.38	5.51172
