Measurement: Raman, 514 nm, ccw, Raman Data Processed
Mineral: Fluorapatite
Rruff sample: R060333
Ideal chemistry: Ca_5_(PO_4_)_3_F
Locality: Lovozero Massif, Kola Peninsula, U.S.S.R.
Source: Michael Scott
Description: Colorless fragment associated with red villiaumite
Measured chemistry: (Ca_4.29_Sr_0.47_Na_0.12_Ce_0.07_La_0.06_)_Σ=5_((P_0.99_Si_0.01_)_Σ=1_O_4_)_3_F_1.00_
Pin_id: L00852
Orientation: Laser parallel to c* (0 0 1). Fiducial mark perpendicular to laser is parallel to -a [-1 0 0]
Raman shift (cm-1)	intensity
164.221	0
169.145	128.888
174.066	73.8276
178.984	39.9028
183.9	71.8057
188.812	79.6352
193.722	6.94287
198.628	11.0391
203.532	138.003
208.433	104.814
213.331	79.4258
218.226	157.181
223.118	189.157
228.007	278.136
232.893	312.122
237.777	283.143
242.657	285.733
247.535	373.21
252.41	485.616
257.281	509.607
262.15	531.422
267.017	647.567
271.88	376.284
276.74	316.107
281.598	266.989
286.453	215.642
291.304	305.862
296.153	338.571
301	244.129
305.843	302.487
310.683	322.478
315.521	225.784
320.356	124.679
325.188	90.3828
330.017	98.8472
334.843	69.9614
339.666	20.0996
344.487	142.285
349.305	110.305
354.12	65.2666
358.932	74.4902
363.741	58.6934
368.548	58.1348
373.352	83.1348
378.153	83.7978
382.951	90.2373
387.746	118.542
392.539	7.68066
397.328	90.1768
402.115	93.6338
406.899	13.8281
411.681	155.201
416.459	180.303
421.235	266.307
426.008	433.078
430.779	432.729
435.546	1029.49
440.311	1279.62
445.073	1637.92
449.832	1448.32
454.588	1146.07
459.342	712.757
464.093	556.148
468.841	536.488
473.587	345.84
478.329	120.279
483.069	215.848
487.806	13.4307
492.541	55.293
497.272	28.9844
502.001	38.331
506.728	115.171
511.451	77.2266
516.172	57.4541
520.89	1.46484
525.605	78.4346
530.318	34.4258
535.028	85.0342
539.735	186.94
544.44	53.5137
549.141	247.922
553.841	105.866
558.537	81.7803
563.231	100.243
567.922	488.97
572.61	983.219
577.296	1621.41
581.979	1923.72
586.659	902.702
591.336	725.87
596.011	733.878
600.683	1155.73
605.353	1699.71
610.02	1238.91
614.684	747.337
619.345	478.405
624.004	307.356
628.661	190.981
633.314	0.412109
637.965	216.46
642.613	381.57
647.259	412.187
651.902	569.173
656.542	582.762
661.18	491.109
665.815	331.75
670.447	324.887
675.077	318.156
679.704	238.924
684.328	50.8711
688.95	90.3711
693.569	140.522
698.186	18.75
702.8	115.422
707.411	116.705
712.02	23.4629
716.626	82.0801
721.23	240.592
725.83	87.1133
730.429	78.1543
735.024	40.3438
739.618	81.416
744.208	95.3496
748.796	49.5586
753.381	94.1797
757.964	266.352
762.544	16.0977
767.122	37.4355
771.697	27.5137
776.269	237.557
780.839	211.772
785.406	34.377
789.971	78.2891
794.533	198.769
799.093	260.42
803.65	151.416
808.204	61.8574
812.756	105.781
817.305	138.736
821.852	56.252
826.396	226.711
830.938	294.471
835.477	60.6855
840.013	358.742
844.547	33.2578
849.079	247.863
853.608	412.336
858.134	322.172
862.658	129.443
867.179	172.277
871.698	190.219
876.214	159.647
880.728	353.885
885.239	209.772
889.748	219.768
894.254	221.307
898.758	110.861
903.259	166.967
907.758	65.2148
912.254	108.787
916.748	51.6113
921.239	192.779
925.728	148.342
930.214	173.299
934.698	283.152
939.179	629.894
943.657	954.424
948.134	2266.89
952.607	6231.83
957.079	16537.4
961.548	29697.9
966.014	21940.2
970.478	8924.85
974.939	3093.47
979.398	1120.91
983.854	186.115
988.308	131.045
992.76	377.594
997.209	47.7871
1001.65	82.166
1006.1	176.894
1010.54	453.644
1014.98	53.3594
1019.42	214.426
1023.85	431.148
1028.28	897.219
1032.71	669.953
1037.14	774.012
1041.56	663.039
1045.99	378.422
1050.41	437.531
1054.82	861.953
1059.24	569.984
1063.65	728.992
1068.06	350.699
1072.47	390.199
1076.87	717.277
1081.28	549.344
1085.68	318.375
1090.08	64.4062
1094.47	90.3711
1098.86	22.1055
1103.25	103.84
1107.64	42.4375
1112.03	401.094
1116.41	120.621
1120.79	147.09
1125.17	351.891
1129.55	89.4805
1133.92	296.367
1138.29	160.082
1142.66	338.59
1147.03	89.3203
1151.39	154.004
1155.76	187.684
1160.12	592.719
1164.47	338.184
1168.83	204.715
1173.18	503.621
1177.53	643.68
1181.88	441.84
1186.22	387.094
1190.57	238.461
1194.91	214.918
1199.25	674.535
1203.58	66.2461
1207.92	626.047
1212.25	308.945
1216.58	538.938
1220.9	571.035
1225.23	653.723
1229.55	470.039
1233.87	505.152
1238.19	641.582
1242.5	414.398
1246.81	38.2344
1251.12	331.223
1255.43	518.59
1259.74	75.3516
1264.04	370.098
1268.34	440.062
1272.64	344.312
1276.94	391.863
1281.23	380.672
1285.52	31.5039
1289.81	162.656
1294.1	289.93
1298.39	45.7383
1302.67	387.574
1306.95	682.777
1311.23	551.273
1315.5	514.027
1319.78	718.93
1324.05	661.992
1328.32	770.211
1332.58	865.598
1336.85	854.164
1341.11	720.891
1345.37	657.812
1349.63	578.922
1353.88	573.289
1358.13	661.918
1362.38	481.754
1366.63	699.836
1370.88	846.297
1375.12	423.051
1379.36	597.09
1383.6	583.445
1387.84	607.144
1392.08	863.25
1396.31	489.723
1400.54	508.602
1404.77	779.922
1408.99	431.723
1413.21	465.609
1417.44	847.848
1421.66	471.039
1425.87	833.894
1430.09	378.574
1434.3	782.961
1438.51	790.352
1442.72	318.461
1446.92	471.477
1451.13	616.836
1455.33	516.527
1459.53	652.562
1463.72	864.941
1467.92	813.664
1472.11	674.715
1476.3	256.051
1480.49	668.66
1484.67	489.481
1488.86	726.594
1493.04	427.254
1497.22	743.731
1501.39	586.391
1505.57	387.473
1509.74	392.746
1513.91	267.398
1518.08	337.606
1522.25	228.707
1526.41	79.168
1530.57	319.316
1534.73	356.172
1538.89	269.625
1543.04	40.2969
1547.2	129.309
1551.35	32.6719
1555.49	53.6055
1559.64	4.13672
1563.79	0
