Measurement: Raman, 514 nm, ccw, Raman Data Processed
Mineral: Fluorophlogopite
Rruff sample: R040075
Ideal chemistry: KMg_3_(Si_3_Al)O_10_F_2_
Locality: unknown
Source: University of Arizona Mineral Museum
Description: Green hexagonal tablet
Measured chemistry: (K_0.93_[box]_0.04_Na_0.03_)(Mg_0.66_Fe_0.30_Ti_0.02_)_3_(Si_0.75_Al_0.25_)_4_O_10_(F_0.90_(OH)_0.06_Cl_0.04_)
Pin_id: L00455
Orientation: Laser parallel to [1 0 1]. Fiducial mark perpendicular to laser is parallel to b* (0 1 0)
Raman shift (cm-1)	intensity
160.066	0
164.225	53.68
168.381	83.315
172.536	224.127
176.689	363.1
180.839	635.982
184.988	980.232
189.134	1091.23
193.279	949.339
197.421	771.046
201.561	624.309
205.7	447.553
209.836	354.581
213.97	254.542
218.102	149.481
222.232	77.654
226.36	42.959
230.486	38.666
234.61	32.63
238.732	18.467
242.852	42.496
246.969	51.025
251.085	36.658
255.199	62.842
259.31	121.574
263.42	168.705
267.528	319.995
271.633	494.078
275.737	635.769
279.838	625.28
283.938	448.529
288.035	315.629
292.131	222.944
296.224	124.016
300.315	179.169
304.405	122.815
308.492	181.1
312.578	233.516
316.661	325.309
320.742	370.565
324.821	324.858
328.899	274.197
332.974	252.408
337.047	242.207
341.119	227.473
345.188	280.117
349.255	271.099
353.32	308.459
357.384	304.163
361.445	335.055
365.504	398.998
369.561	343.396
373.617	285.601
377.67	349.113
381.721	337.637
385.77	358.798
389.818	375.519
393.863	391.03
397.906	413.994
401.948	398.259
405.987	373.398
410.025	405.668
414.06	391.458
418.093	396.887
422.125	341.475
426.154	311.649
430.182	234.837
434.207	239.759
438.231	120.039
442.252	90.924
446.272	31.277
450.29	0.762
454.305	29.32
458.319	73.482
462.331	44.315
466.341	94.64
470.348	14.257
474.354	4.722
478.358	130.94
482.36	180.417
486.36	218.341
490.358	330.402
494.354	416.812
498.349	481.187
502.341	517.704
506.331	614.7
510.319	631.728
514.306	686.939
518.29	669.222
522.273	632.7
526.253	625.426
530.232	641.965
534.208	622.903
538.183	694.752
542.156	624.061
546.127	715.723
550.096	698.313
554.063	583.997
558.028	507.677
561.991	474.411
565.952	435.218
569.911	331.064
573.869	284.906
577.824	233.748
581.778	190.53
585.729	108.245
589.679	77.685
593.627	31.722
597.573	61.355
601.517	91.569
605.459	37.006
609.399	91.288
613.337	73.695
617.273	117.448
621.208	191.1
625.14	157.933
629.071	236.792
632.999	249.217
636.926	265.087
640.851	318.242
644.774	365.67
648.695	431.224
652.614	491.755
656.531	683.269
660.447	876.894
664.36	1059.63
668.272	1492.65
672.182	1975.32
676.089	2620.99
679.995	2887.51
683.899	2670.25
687.802	2061.57
691.702	1566.8
695.6	1251.11
699.497	1129.21
703.391	1104.68
707.284	1153.98
711.175	1221.34
715.064	1394.59
718.951	1345.91
722.837	1456
726.72	1339.04
730.601	1294.12
734.481	1097.06
738.359	1031.96
742.235	946.606
746.109	969.628
749.981	919.372
753.851	1031.96
757.72	1021.7
761.587	1100.41
765.451	1217.41
769.314	1224.85
773.175	1242.61
777.034	1125.59
780.892	1080.69
784.747	876.91
788.601	788.158
792.453	654.398
796.303	511.609
800.151	341.784
803.997	241.92
807.841	224.017
811.684	122.073
815.525	85.088
819.363	1.944
823.201	19.958
827.036	21.799
830.869	18.17
834.701	14.834
838.53	24.434
842.358	27.259
846.184	64.376
850.008	49.841
853.831	23.565
857.651	20.509
861.47	43.411
865.287	41.655
869.102	24.086
872.915	79.842
876.727	91.562
880.536	43.265
884.344	163.935
888.15	201.579
891.954	173.189
895.757	158.769
899.557	195.333
903.356	270.875
907.153	251.408
910.948	267.924
914.741	273.456
918.533	322.983
922.323	322.486
926.111	335.96
929.897	344.403
933.681	307.812
937.463	267.185
941.244	354.526
945.023	364.845
948.8	342.133
952.575	371.404
956.349	384.645
960.121	314.854
963.891	326.031
967.659	298.012
971.425	310.386
975.19	261.751
978.952	329.154
982.713	294.636
986.473	330.758
990.23	308.814
993.986	298.679
997.739	313.496
1001.49	279.38
1005.24	279.223
1008.99	181.218
1012.74	221.906
1016.48	262.396
1020.23	165.262
1023.97	259.276
1027.71	382.077
1031.44	336.318
1035.18	374.109
1038.91	332.175
1042.65	369.362
1046.38	400.158
1050.11	476.282
1053.84	411.427
1057.56	462.095
1061.28	440.285
1065.01	441.403
1068.73	405.641
1072.44	490.905
1076.16	478.196
1079.88	492.516
1083.59	510.868
1087.3	481.955
1091.01	490.165
1094.72	487.469
1098.42	406.914
1102.13	397.835
1105.83	320.343
1109.53	210.854
1113.23	152.39
1116.93	118.943
1120.63	88.547
1124.32	80.693
1128.01	90.987
1131.7	80.303
1135.39	29.021
1139.08	91.811
1142.77	73.642
1146.45	44.633
1150.13	11.789
1153.81	16.052
1157.49	24.401
1161.17	30.88
1164.84	3.404
1168.51	0.102
1172.18	19.613
1175.86	28.863
1179.52	43.1
1183.19	9.43
1186.86	11.036
1190.52	8.058
1194.18	26.965
1197.84	47.857
1201.5	10.192
1205.15	3.843
1208.81	65.041
1212.46	27.125
1216.11	6.33
1219.76	32.627
1223.41	47.026
1227.05	31.534
1230.7	44.162
1234.34	72.913
1237.98	9.214
1241.62	18.771
1245.26	1.899
1248.89	27.921
1252.53	50.977
1256.16	88.491
1259.79	103.819
1263.42	54.851
1267.05	17.73
1270.67	42.576
1274.3	82.001
1277.92	73.345
1281.54	64.93
1285.16	83.349
1288.77	70.946
1292.39	78.025
1296	72.786
1299.61	59.015
1303.22	5.851
1306.83	35.061
1310.44	55.812
1314.05	54.544
1317.65	63.459
1321.25	79.519
1324.85	0
