Measurement: Raman, 514 nm, ccw, Raman Data Processed
Mineral: Fluorapatite
Rruff sample: R050274
Ideal chemistry: Ca_5_(PO_4_)_3_F
Locality: Minas Gerais, Brazil
Source: Marcus Origlieri
Description: Aggregate of blue crystal fragments separated by veins of quartz
Measured chemistry: Ca_5.00_((P_0.97_Si_0.02_S_0.01_)O_4_)_3_(F_0.90_Cl_0.10_)
Pin_id: L01565
Orientation: Laser parallel to -a* (-1 0 0). Fiducial mark perpendicular to laser is parallel to -c [0 0 -1]
Raman shift (cm-1)	intensity
108.28	0
111.976	6.4165
115.671	102.96
119.365	185.982
123.058	237.92
126.749	230.607
130.439	458.419
134.127	501.217
137.814	616.21
141.5	602.033
145.184	538.538
148.867	504.46
152.549	546.303
156.229	456.762
159.908	404.639
163.585	208.088
167.261	183.223
170.936	207.221
174.61	189.299
178.282	129.329
181.952	138.938
185.622	156.234
189.29	48.2173
192.956	111.85
196.622	213.992
200.286	236.841
203.948	186.568
207.609	195.082
211.269	119.684
214.928	177.206
218.585	189.628
222.24	229.392
225.895	278.557
229.548	247.172
233.199	302.172
236.849	209.201
240.498	277.072
244.146	140.745
247.792	239.997
251.437	386.229
255.08	265.584
258.722	455.435
262.363	433.129
266.002	567.167
269.64	440.717
273.276	351.438
276.912	285.475
280.545	278.893
284.178	220.09
287.809	240.005
291.438	221.602
295.067	153.848
298.693	218.715
302.319	288.187
305.943	250.243
309.566	211.865
313.187	109.03
316.807	210.086
320.426	49.1133
324.043	186.611
327.659	35.3042
331.273	100.903
334.886	55.5727
338.498	46.8057
342.108	49.8003
345.717	23.9043
349.324	27.0523
352.931	9.80273
356.535	82.5176
360.139	16.1025
363.741	31.273
367.341	5.53174
370.94	36.4375
374.538	118.859
378.135	106.073
381.73	65.6343
385.323	27.373
388.916	112.634
392.506	101.915
396.096	61.6182
399.684	147.975
403.271	172.121
406.856	171.027
410.44	58.8125
414.022	276.819
417.603	350.46
421.183	626.359
424.761	651.381
428.338	861.371
431.914	1022.2
435.488	1131.11
439.061	1418.97
442.632	1459.38
446.202	1276.96
449.77	953.35
453.337	783.914
456.903	613.15
460.467	523.445
464.03	376.946
467.592	162.598
471.152	151.49
474.711	222.595
478.268	206.023
481.824	169.053
485.378	173.769
488.932	1.37891
492.483	6.6084
496.034	49.1103
499.582	44.9629
503.13	91.1621
506.676	12.751
510.221	114.094
513.764	13.2461
517.306	158.166
520.846	111.155
524.385	41.1514
527.923	14.2207
531.459	90.6914
534.994	54.9824
538.527	49.7773
542.059	174.03
545.59	89.5225
549.119	217.273
552.647	125.871
556.173	27.3779
559.698	3.89746
563.222	246.48
566.744	408.178
570.264	707.12
573.784	1539.23
577.302	1605.28
580.818	1321.44
584.333	1082.18
587.847	820.457
591.359	693.349
594.87	694.438
598.379	829.477
601.887	1032.11
605.394	1192.19
608.899	1100.5
612.402	762.686
615.905	633.307
619.406	463.185
622.905	507.176
626.403	375.416
629.9	99.3955
633.395	213.96
636.889	215.087
640.381	316.378
643.872	412.225
647.361	365.703
650.849	173.585
654.336	348.563
657.821	345.389
661.305	259.894
664.787	320.406
668.268	356.33
671.748	89.4883
675.226	248.514
678.703	222.42
682.178	109.082
685.652	245.992
689.124	241.514
692.595	321.68
696.065	194.225
699.533	273.002
702.999	235.697
706.465	232.916
709.929	223.426
713.391	210.893
716.852	139.258
720.311	296.383
723.77	511.662
727.226	385.826
730.681	336.32
734.135	287.361
737.588	120.67
741.039	213.152
744.488	568.324
747.936	146.182
751.383	219.836
754.828	146.022
758.272	170.389
761.714	315.369
765.155	434.773
768.595	275.916
772.033	418.231
775.469	286.644
778.904	305.781
782.338	152.594
785.77	264.658
789.201	307.535
792.631	297.869
796.059	218.721
799.485	245.633
802.91	371.418
806.334	277.644
809.756	168.588
813.177	240.559
816.596	172.65
820.014	283.773
823.431	90.1797
826.846	344.283
830.259	437.35
833.671	105.65
837.082	34.832
840.491	63.9512
843.899	198.481
847.306	159.24
850.71	244.164
854.114	95.9746
857.516	339.262
860.917	193.334
864.316	184.338
867.713	423.711
871.11	133.268
874.505	130.801
877.898	79.9707
881.29	42.9922
884.68	76.5977
888.069	76.8203
891.457	12.8066
894.843	154.219
898.228	257.94
901.611	39.4688
904.993	231.475
908.373	118.996
911.752	110.309
915.129	128.533
918.505	223.58
921.88	73.7969
925.253	245.723
928.625	98.3106
931.995	313.494
935.364	549.039
938.731	731.553
942.097	966.641
945.461	1794.14
948.824	2957.08
952.186	6885.6
955.546	14947
958.904	23406.6
962.261	22063.5
965.617	14065.3
968.971	6603.46
972.324	2769.12
975.675	1392.3
979.025	727.74
982.374	456.838
985.72	389.254
989.066	220.449
992.41	200.746
995.753	151.102
999.094	178.984
1002.43	378.508
1005.77	395.25
1009.11	372.84
1012.44	477.344
1015.78	222.754
1019.11	391.758
1022.44	820.676
1025.77	970.32
1029.1	1258.01
1032.42	830.668
1035.75	313.984
1039.07	395.125
1042.4	475.406
1045.72	636.445
1049.04	435.375
1052.35	807.871
1055.67	880.777
1058.98	505.102
1062.3	469.754
1065.61	414.828
1068.92	520.648
1072.23	396.879
1075.54	580.93
1078.84	625.488
1082.15	421.023
1085.45	327.32
1088.75	207.828
1092.05	75.4453
1095.35	182.906
1098.65	147.941
1101.94	249.797
1105.24	166.141
1108.53	194.523
1111.82	90.8242
1115.11	140.199
1118.4	203.824
1121.69	773.391
1124.97	665.957
1128.26	276.691
1131.54	472.148
1134.82	293.891
1138.1	152.332
1141.38	27.582
1144.66	394.719
1147.93	337.07
1151.21	163.231
1154.48	311.059
1157.75	1.41797
