Measurement: Raman, 514 nm, ccw, Raman Data Processed
Mineral: Fluoro-richterite
Rruff sample: R040019
Ideal chemistry: Na(NaCa)Mg_5_Si_8_O_22_F_2_
Locality: Wilberforce, Ontario, Canada
Source: University of Arizona Mineral Museum
Description: Brown prismatic crystals
Measured chemistry: (Na_0.59_K_0.27_[box]_0.14_)_Σ=1_(Ca_1.30_Na_0.70_)_Σ=2_(Mg_4.67_Fe_0.17_Fe^3+^_0.10_Ti_0.03_Mn_0.02_Al_0.01_)_Σ=5_(Si_7.67_Al_0.33_)_Σ=8_(F_1.12_(OH)_0.88_)_Σ=2_; OH estimated by charge balance
Pin_id: L00352
Orientation: Laser parallel to a [1 0 0]. Fiducial mark perpendicular to laser is parallel to -b* (0 -1 0)
Raman shift (cm-1)	intensity
98.947	0
103.124	0.708
107.3	454.772
111.473	123.151
115.644	501.283
119.813	473.915
123.981	231.421
128.146	38.35
132.309	1.8
136.47	37.31
140.63	54.221
144.787	69.532
148.942	255.969
153.096	1290.79
157.247	2979.73
161.396	3822.7
165.544	2894.64
169.689	2258.48
173.833	2097.16
177.974	2050.61
182.114	1986.73
186.251	1734.64
190.387	1721.61
194.52	2039.76
198.652	2349.49
202.782	3139.2
206.909	4009.84
211.035	5385.61
215.159	7329.56
219.281	11648.7
223.4	19169.9
227.518	28934.3
231.634	34582.7
235.748	30215.1
239.86	21510.6
243.97	14809.1
248.079	10618.5
252.185	6909.82
256.289	4346.06
260.391	2616.16
264.492	1491.72
268.59	846.399
272.687	438.938
276.781	131.461
280.874	38.182
284.964	71.358
289.053	98.029
293.14	401.682
297.225	878.938
301.308	1486.62
305.389	2253.26
309.468	3206.11
313.545	3584.2
317.62	3201.04
321.693	2307.59
325.765	1427.82
329.834	974.696
333.902	771.261
337.967	799.297
342.031	1008.97
346.093	1181.19
350.153	1190.94
354.21	1462.22
358.267	2278.93
362.321	3537.14
366.373	4484.85
370.423	4483.04
374.471	4598.7
378.518	5111.91
382.563	5728.35
386.605	6125.31
390.646	6292.68
394.685	6227.43
398.722	5862.56
402.757	5063.03
406.79	4144.84
410.821	3259.97
414.851	2834.39
418.878	3150.11
422.904	3964.09
426.927	4850.35
430.949	5254.98
434.969	4707.99
438.987	3269.43
443.003	1833.58
447.018	890.188
451.03	393.227
455.041	176.277
459.049	109.575
463.056	211.598
467.061	268.865
471.064	191.412
475.065	58.898
479.064	20.316
483.062	100.531
487.057	282.74
491.051	211.928
495.043	209.082
499.032	256.186
503.02	416.23
507.007	858.208
510.991	1458.58
514.973	2350.98
518.954	3714.76
522.933	4534.48
526.91	3986.19
530.885	2593.89
534.858	1673.54
538.829	1253.2
542.799	1101.9
546.766	988.505
550.732	984.916
554.696	937.156
558.658	1000.16
562.618	853.91
566.576	807.395
570.533	769.603
574.488	887.524
578.44	1185.15
582.391	1539.46
586.341	1913.45
590.288	1636.12
594.233	790.442
598.177	159.412
602.119	158.173
606.059	180.28
609.997	247.358
613.933	189.572
617.868	133.701
621.801	17.477
625.731	86.65
629.66	224.041
633.588	402.899
637.513	757.312
641.437	937.295
645.358	1302.85
649.278	1855.97
653.196	2649.65
657.113	3767.01
661.027	5394.29
664.94	8308.06
668.851	13406.1
672.76	23620.3
676.667	39739
680.572	49644.8
684.476	41466
688.378	24713
692.278	14072
696.176	8283.49
700.072	5660.06
703.967	4181.95
707.86	3618.55
711.751	3311.66
715.64	3447.07
719.527	3923.84
723.413	4084.12
727.297	4259.92
731.179	4292.25
735.059	4000.11
738.937	3781.38
742.814	3310.44
746.689	2923.92
750.562	2489.96
754.433	2110.91
758.303	1906.91
762.17	1552.91
766.036	1220.68
769.901	1028.66
773.763	837.208
777.624	543.75
781.482	599.986
785.339	485.635
789.195	474.163
793.048	361.866
796.9	344.384
800.75	302.721
804.598	364.884
808.445	267.882
812.289	141.72
816.132	68.395
819.973	20.054
823.813	13.805
827.65	21.262
831.486	0.113
835.32	58.318
839.152	57.141
842.983	168.636
846.812	137.916
850.639	52.016
854.464	36.574
858.288	19.635
862.11	76.712
865.93	43.658
869.748	66.565
873.564	124.465
877.379	162.408
881.192	269.394
885.004	347.469
888.813	596.722
892.621	813.108
896.427	1179.63
900.232	1282.36
904.034	1548.31
907.835	1668.56
911.634	1827.3
915.432	2238.93
919.227	2640.6
923.021	3283.23
926.813	4102.74
930.604	4725.94
934.393	5493.55
938.18	4691.38
941.965	4514.34
945.749	4604.4
949.53	4730.53
953.311	4480.76
957.089	3748.08
960.866	2962.49
964.641	2381.88
968.414	2025.58
972.185	1937.65
975.955	1912.18
979.723	1922.4
983.49	2025.32
987.254	1931.17
991.017	2041.34
994.779	2297
998.538	2659.8
1002.3	2955.6
1006.05	3649.46
1009.81	4347.16
1013.56	4974.49
1017.31	5251.78
1021.06	5434.62
1024.81	5748.16
1028.55	6156.81
1032.3	7041.18
1036.04	8007.99
1039.78	8834.78
1043.52	8977.17
1047.26	9059.56
1050.99	9175.54
1054.73	9517.91
1058.46	9856.72
1062.19	10506.7
1065.92	11089.6
1069.65	11243.7
1073.37	10769.9
1077.1	9668
1080.82	8533.68
1084.54	7838.15
1088.26	6840.49
1091.97	5405.93
1095.69	4208.95
1099.4	3429.78
1103.12	2852.69
1106.83	2430.37
1110.54	2054.13
1114.24	1729.26
1117.95	1590.72
1121.65	1487.79
1125.35	1465.96
1129.06	1040.37
1132.75	1014
1136.45	910.059
1140.15	755.544
1143.84	653.239
1147.53	540.291
1151.22	492.705
1154.91	395.119
1158.6	355.717
1162.28	212.219
1165.97	158.719
1169.65	25.671
1173.33	11.935
1177.01	60.564
1180.69	40.677
1184.36	32.105
1188.04	0.378
1191.71	26.606
1195.38	66.028
1199.05	62.427
1202.71	79.497
1206.38	62.315
1210.04	22.125
1213.71	4.212
1217.37	73.597
1221.03	14.647
1224.68	56.255
1228.34	17.703
1231.99	74.438
1235.65	286.291
1239.3	177.66
1242.95	172.474
1246.59	200.611
1250.24	116.731
1253.88	182.386
1257.53	113.817
1261.17	75.239
1264.81	228.475
1268.45	173.902
1272.08	228.843
1275.72	142.051
1279.35	236.75
1282.98	253.976
1286.61	189.101
1290.24	180.52
1293.87	215.616
1297.49	137.312
1301.11	241.448
1304.73	153.182
1308.36	190.411
1311.97	206.108
1315.59	233.029
1319.2	154.57
1322.82	41.822
1326.43	201.897
1330.04	137.836
1333.65	141.502
1337.26	88.541
1340.86	149.428
1344.47	119.016
1348.07	143.592
1351.67	51.549
1355.27	123.433
1358.87	47.521
1362.46	10.011
1366.06	5.648
1369.65	69.188
1373.24	49.729
1376.83	25.027
1380.42	32.848
1384	123.877
1387.59	23.398
1391.17	123.12
1394.75	85.423
1398.33	81.142
1401.91	163.67
1405.49	164.413
1409.06	81.4
1412.64	220.106
1416.21	157.166
1419.78	171.094
1423.35	168.061
1426.91	187.742
1430.48	176.11
1434.05	214.322
1437.61	172.031
1441.17	173.534
1444.73	182.094
1448.29	220.922
1451.84	272.266
1455.4	359.297
1458.95	235.065
1462.5	139.441
1466.05	145.133
1469.6	219.812
1473.15	270.787
1476.69	166.615
1480.24	61.166
1483.78	198.14
1487.32	71.748
1490.86	189.757
1494.39	60.29
1497.93	57.565
1501.46	58.167
1505	81.557
1508.53	14.71
1512.06	47.875
