Measurement: Raman, 514 nm, ccw, Raman Data Processed
Mineral: Fluorophlogopite
Rruff sample: R040075
Ideal chemistry: KMg_3_(Si_3_Al)O_10_F_2_
Locality: unknown
Source: University of Arizona Mineral Museum
Description: Green hexagonal tablet
Measured chemistry: (K_0.93_[box]_0.04_Na_0.03_)(Mg_0.66_Fe_0.30_Ti_0.02_)_3_(Si_0.75_Al_0.25_)_4_O_10_(F_0.90_(OH)_0.06_Cl_0.04_)
Pin_id: L00311
Orientation: Laser parallel to a [1 0 0]. Fiducial mark perpendicular to laser is parallel to b* (0 1 0)
Raman shift (cm-1)	intensity
124.519	0
128.69	249.141
132.858	21.964
137.025	75.754
141.189	79.311
145.352	365.759
149.512	941.078
153.67	1552.76
157.827	2646.37
161.981	4370.43
166.133	7091.67
170.283	11769.4
174.431	19482.5
178.577	30639.7
182.721	41470.1
186.863	42663
191.003	33707.9
195.141	21024.4
199.277	12523.3
203.411	7475.6
207.543	4851.71
211.673	3280.01
215.801	2347.6
219.927	1813.89
224.051	1446.11
228.173	1187.95
232.292	1035.44
236.41	978.541
240.526	1085.27
244.64	1105.16
248.752	1243.94
252.861	1484.28
256.969	1796.51
261.075	2388.84
265.179	3311.39
269.281	4641.88
273.38	5465.43
277.478	5319.4
281.574	4051.98
285.668	3073.36
289.76	2396.14
293.85	2300.36
297.937	2478.39
302.023	2972.78
306.107	3369.24
310.189	3761.91
314.269	4011.78
318.347	3747.46
322.423	3314.49
326.497	2714.78
330.569	2198.98
334.639	1878.83
338.707	1555.13
342.773	1320.15
346.837	1117.66
350.899	1059.06
354.96	893.393
359.018	798.189
363.074	702.087
367.128	525.334
371.181	396.205
375.231	361.633
379.28	338.48
383.326	299.962
387.37	246.146
391.413	105.789
395.454	121.594
399.492	107.051
403.529	70.081
407.564	0.51
411.596	41.232
415.627	15.362
419.656	64.143
423.683	52.356
427.708	32.727
431.731	56.873
435.752	41.468
439.772	83.12
443.789	60.837
447.804	41.807
451.817	88.106
455.829	64.569
459.838	69.024
463.846	102.134
467.852	55.307
471.855	34.084
475.857	27.212
479.857	114.779
483.855	208.185
487.851	234.028
491.845	251.315
495.837	288.048
499.828	374.243
503.816	354.908
507.802	396.355
511.787	377.744
515.77	416.942
519.75	350.745
523.729	365.197
527.706	330.22
531.681	394.864
535.654	404.198
539.625	429.135
543.595	321.658
547.562	334.727
551.527	401.847
555.491	378.388
559.453	343.718
563.412	360.599
567.37	425.988
571.326	510.688
575.28	546.165
579.233	590.341
583.183	584.639
587.131	709.32
591.078	912.612
595.022	1151.31
598.965	1448.1
602.906	1874
606.845	2395.54
610.782	3056.11
614.718	3756.59
618.651	4438.6
622.582	5305.89
626.512	5622.53
630.44	5598.16
634.366	5476.85
638.29	5416.02
642.212	5504.15
646.132	5878.77
650.05	6669.44
653.967	7570.52
657.882	9232.4
661.794	11984.1
665.705	15939.2
669.614	21234.6
673.522	25991.8
677.427	26956
681.331	22126.4
685.232	15183.3
689.132	9669.9
693.03	6482.6
696.926	4505.1
700.82	3445.16
704.713	2996.26
708.603	2596.86
712.492	2432.71
716.379	2273.85
720.264	2180.82
724.147	1996.76
728.028	1761.38
731.908	1482.03
735.785	1337.7
739.661	1149.49
743.535	1016.3
747.407	974.151
751.278	889.145
755.146	910.304
759.013	940.641
762.878	1025.22
766.741	1029.08
770.602	951.249
774.461	832.706
778.319	785.531
782.174	696.579
786.028	483.788
789.88	494.064
793.73	352.389
797.579	202.718
801.425	145.039
805.27	164.349
809.113	177.645
812.954	41.912
816.794	15.146
820.631	51.695
824.467	20.283
828.301	59.851
832.133	75.329
835.963	5.844
839.792	82.167
843.618	80.562
847.443	13.678
851.266	3.237
855.088	14.655
858.907	11.449
862.725	21.793
866.541	33.948
870.355	40.746
874.167	48.588
877.978	83.481
881.787	133.419
885.594	108.37
889.399	189.313
893.202	265.263
897.004	321.251
900.803	331.248
904.601	335.241
908.398	387.225
912.192	330.497
915.985	465.474
919.776	410.542
923.565	389.751
927.352	462.894
931.138	532.776
934.922	581.62
938.704	569.417
942.484	667.163
946.262	735.858
950.039	754.504
953.814	775.1
957.587	927.646
961.359	998.098
965.128	1094.07
968.896	1163.83
972.662	1240.77
976.427	1289.93
980.189	1509.44
983.95	1618.37
987.709	1828.44
991.467	1963.19
995.222	2141.92
998.976	2418.05
1002.73	2792.8
1006.48	3300.57
1010.23	4006.85
1013.97	5220.65
1017.72	6780.58
1021.46	8743.62
1025.2	10125.9
1028.94	10579.6
1032.68	9200.62
1036.42	7699.69
1040.15	6308.76
1043.89	5182.74
1047.62	4793.51
1051.35	4433.94
1055.07	4105.53
1058.8	3866.45
1062.52	3386.41
1066.25	3008.87
1069.97	2568.76
1073.69	2124.58
1077.4	1840.12
1081.12	1582.41
1084.83	1319.12
1088.55	1177.51
1092.26	943.945
1095.96	814.671
1099.67	585.853
1103.38	480.68
1107.08	374.061
1110.78	313.42
1114.48	225.663
1118.18	215.908
1121.88	154.561
1125.57	95.969
1129.27	116.353
1132.96	54.798
1136.65	87.294
1140.34	36.86
1144.02	70.327
1147.71	47.05
1151.39	19.785
1155.07	10.271
1158.75	70.191
1162.43	45.402
1166.11	34.797
1169.78	7.232
1173.45	29.368
1177.12	1.104
1180.79	37.424
1184.46	50.041
1188.13	14.556
1191.79	52.287
1195.45	8.653
1199.11	1.486
1202.77	70.441
1206.43	38.021
1210.09	39.542
1213.74	5.941
1217.39	29.445
1221.05	19.157
1224.69	15.609
1228.34	68.312
1231.99	65.082
1235.63	90.778
1239.27	47.498
1242.91	89.073
1246.55	7.534
1250.19	17.969
1253.83	71.419
1257.46	98.466
1261.09	122.666
1264.72	94.366
1268.35	21.329
1271.98	83.338
1275.61	67.321
1279.23	31.05
1282.85	46.696
1286.47	94.179
1290.09	55.472
1293.71	121.312
1297.33	94.155
1300.94	100.716
1304.55	41.74
1308.16	98.477
1311.77	71.801
1315.38	46.147
1318.99	77.496
1322.59	89.014
1326.19	105.257
1329.79	63.205
1333.39	91.866
1336.99	76.192
1340.59	50.495
1344.18	20.15
1347.77	5.816
1351.37	73.106
1354.95	61.021
1358.54	81.379
1362.13	92.942
1365.71	24.445
1369.3	84.556
1372.88	104.265
1376.46	102.516
1380.04	43.14
1383.61	55.524
1387.19	66.78
1390.76	66.901
1394.33	28.932
1397.9	32.342
1401.47	121.625
1405.04	67.716
1408.6	40.888
1412.16	88.502
1415.72	86.859
1419.29	43.502
1422.84	49.184
1426.4	25.06
1429.96	120.77
1433.51	123.459
1437.06	127.944
1440.61	127.091
1444.16	103.92
1447.71	41.923
1451.25	135.538
1454.8	123.216
1458.34	70.656
1461.88	3.002
1465.42	90.971
1468.96	119.309
1472.49	4.753
1476.03	166.336
1479.56	113.217
1483.09	45.608
1486.62	54.108
1490.15	52.947
1493.67	97.312
1497.2	15.995
1500.72	31.7
1504.24	5.705
1507.76	4.033
1511.28	33.265
1514.8	0
