Measurement: Raman, 514 nm, ccw, Raman Data Processed
Mineral: Fluorapophyllite-(K)
Rruff sample: R060554
Ideal chemistry: KCa_4_Si_8_O_20_F8H_2_O
Locality: unknown
Source: Gemological Institute of America
Description: Colorless polished fragment
Measured chemistry: (K_0.88_Na_0.12_)Ca_4.00_Si_8.00_O_20_F_1.00_Â·8H2O
Pin_id: L00812
Orientation: Laser parallel to -a* (-1 0 0). Fiducial mark perpendicular to laser is parallel to -c [0 0 -1]
Raman shift (cm-1)	intensity
53.91	0
58.864	57.984
63.817	1.88892
68.767	34.4468
73.714	115.534
78.659	423.316
83.602	991.537
88.542	1818.09
93.48	4359.19
98.416	11208.2
103.349	28316.9
108.28	28764.1
113.208	7352.85
118.134	3401.01
123.058	2768.29
127.979	2613.03
132.898	2377.27
137.814	3117.7
142.728	2425.11
147.639	2241.04
152.549	3266.71
157.455	6536.26
162.359	14546.3
167.261	17135.6
172.161	7459.84
177.058	3863.59
181.952	2728.43
186.845	2591.6
191.734	2979
196.622	2867.64
201.507	2154.18
206.389	1342.27
211.269	1162.78
216.147	1264.1
221.022	1867.78
225.895	3268.39
230.765	3512.75
235.633	1993.87
240.498	1006.62
245.361	503.904
250.222	301.651
255.08	252.817
259.936	274.336
264.789	119.063
269.64	35.9963
274.488	22.8667
279.334	88.697
284.178	132.836
289.019	101.335
293.857	57.9702
298.693	142.45
303.527	198.22
308.358	250.301
313.187	247.424
318.013	328.648
322.837	297.609
327.659	102.055
332.478	99.02
337.294	88.5225
342.108	11.5815
346.92	138.906
351.729	110.454
356.535	128.293
361.34	82.4976
366.141	2.69727
370.94	290.635
375.737	565.612
380.531	1245.24
385.323	2505.52
390.113	4400.46
394.9	6562.08
399.684	6956.37
404.466	5173.36
409.245	3401.06
414.022	2240.1
418.797	1956.77
423.569	2743.04
428.338	5097.73
433.105	4626.46
437.87	1436.68
442.632	498.704
447.391	192.984
452.149	211.419
456.903	530.094
461.655	1020.07
466.405	2028.43
471.152	4462.16
475.897	10505.2
480.639	22674.4
485.378	25829.7
490.116	11986.7
494.85	5785.61
499.582	3670.4
504.312	3046.22
509.039	3241.46
513.764	3994.65
518.486	5296.89
523.206	7713.09
527.923	11566.2
532.638	16226.3
537.35	19454.4
542.059	18855.4
546.766	16957.4
551.471	15637.3
556.173	15747.4
560.873	17316.8
565.57	20711.7
570.264	27518.2
574.957	38948.6
579.646	51629.9
584.333	52670.5
589.018	37160.7
593.7	21840.3
598.379	12925.2
603.056	8226.67
607.73	5621.78
612.402	4102.06
617.072	3098.74
621.739	2611.22
626.403	2168.19
631.065	1831.29
635.724	1532.67
640.381	1454.68
645.035	1347.79
649.687	1257.28
654.336	1301.92
658.983	1204.64
663.627	1005.1
668.268	660.147
672.907	446.979
677.544	253.353
682.178	182.572
686.809	90.7959
691.438	35.8501
696.065	14.6936
700.688	5.63086
705.31	31.0896
709.929	52.9131
714.545	32.8113
719.158	75.4688
723.77	56.1323
728.378	26.9544
732.984	45.7683
737.588	81.7991
742.189	19.1626
746.787	54.9793
751.383	40.9148
755.976	3.79077
760.567	5.40784
765.155	32.0944
769.741	104.026
774.324	90.2985
778.904	212.984
783.482	552.032
788.058	929.865
792.631	1056.45
797.201	488.947
801.769	312.328
806.334	164.049
810.897	68.1028
815.457	140.394
820.014	76.9116
824.569	90.5818
829.122	97.459
833.671	143.119
838.219	142.082
842.763	125.437
847.306	190.695
851.845	147.202
856.382	186.325
860.917	179.318
865.448	121.541
869.978	145.45
874.505	97.0019
879.029	55.4265
883.55	86.0391
888.069	43.7151
892.586	27.9993
897.1	76.8215
901.611	36.4661
906.12	58.5388
910.626	81.8298
915.129	4.24902
919.63	26.4578
924.129	8.24854
928.625	18.5134
933.118	21.6939
937.609	31.7849
942.097	95.6445
946.582	199.105
951.065	352.678
955.546	407.947
960.023	437.512
964.499	425.957
968.971	565.335
973.441	906.317
977.909	767.51
982.374	662.156
986.836	624.219
991.295	597.642
995.753	510.588
1000.21	450.034
1004.66	563.935
1009.11	519.423
1013.55	497.534
1018	566.385
1022.44	712.609
1026.88	1034.55
1031.32	1604
1035.75	2416.87
1040.18	3719.07
1044.61	6514.59
1049.04	13228.3
1053.46	29872.8
1057.88	57355.2
1062.3	54337.1
1066.71	29675
1071.13	15983.6
1075.54	9492.26
1079.94	6141.62
1084.35	4517.4
1088.75	3477.41
1093.15	2509.24
1097.55	1760.73
1101.94	1399.17
1106.34	1123.29
1110.73	975.337
1115.11	855.927
1119.5	800.547
1123.88	781.97
1128.26	616.109
1132.63	405.572
1137.01	324.338
1141.38	293.363
1145.75	225.648
1150.12	179.217
1154.48	118.05
1158.84	136.131
1163.2	123.597
1167.55	121.091
1171.91	150.799
1176.26	78.7524
1180.61	50.7966
1184.95	24.9941
1189.29	27.3577
1193.63	35.8691
1197.97	65.5098
1202.31	24.7576
1206.64	52.0571
1210.97	87.1138
1215.29	45.3831
1219.62	13.447
1223.94	5.97388
1228.26	6.39014
1232.57	16.4458
1236.89	21.9055
1241.2	21.3528
1245.51	14.0613
1249.81	5.49341
1254.12	24.0012
1258.42	40.4329
1262.72	18.0811
1267.01	57.2429
1271.3	68.7129
1275.59	63.0198
1279.88	68.7676
1284.17	50.0535
1288.45	94.2859
1292.73	134.062
1297.01	76.147
1301.28	74.9766
1305.55	56.3572
1309.82	74.7554
1314.09	64.9358
1318.35	85.8704
1322.61	69.5464
1326.87	49.1997
1331.13	10.5791
1335.38	79.9336
1339.63	43.7122
1343.88	16.7153
1348.12	53.3567
1352.37	23.0864
1356.61	25.7893
1360.85	0.153564
1365.08	40.4829
1369.31	38.4651
1373.54	76.0518
1377.77	55.2959
1381.99	44.1641
1386.22	100.698
1390.43	3.98853
1394.65	21.1553
1398.87	35.0547
1403.08	22.3098
1407.29	11.0525
1411.49	9.16968
1415.69	26.0627
1419.89	15.7415
1424.09	11.2144
1428.29	46.095
1432.48	76.7344
1436.67	54.2351
1440.86	108.807
1445.04	47.7229
1449.23	123.342
1453.4	134.405
1457.58	162.342
1461.76	141.008
1465.93	96.4023
1470.1	115.574
1474.26	77.1585
1478.43	37.02
1482.59	95.2859
1486.75	35.1033
1490.9	93.1631
1495.06	44.3496
1499.21	110.235
1503.35	58.3227
1507.5	67.479
1511.64	82.6492
1515.78	22.5242
1519.92	65.7378
1524.05	62.3774
1528.18	102.593
1532.31	77.3433
1536.44	61.3467
1540.56	0.861084
1544.69	85.0476
1548.8	21.2844
1552.92	82.1953
1557.03	52.2268
1561.14	12.4102
1565.25	49.1316
1569.36	29.2578
