Measurement: Raman, 514 nm, ccw, Raman Data Processed
Mineral: Fluorapophyllite-(K)
Rruff sample: R050021
Ideal chemistry: KCa_4_Si_8_O_20_F8H_2_O
Locality: Poona, Maharashtra State, India
Source: Eugene Schlepp
Description: Colorless tetragonal prisms
Measured chemistry: (K_0.98_Na_0.02_)_Σ=1_Ca_4.00_Si_8.00_O_20_(F_0.84_(OH)_0.16_)_Σ=1_·8H_2_O
Pin_id: L00208
Orientation: Laser parallel to -c* (0 0 -1). Fiducial mark perpendicular to laser is parallel to a [1 0 0]
Raman shift (cm-1)	intensity
121.897	0
126.063	1611.04
130.228	681.281
134.39	2202.65
138.55	3369.67
142.709	3166.73
146.865	1032.02
151.019	443.012
155.171	399.939
159.322	238.189
163.47	800.083
167.617	1683.5
171.761	770.785
175.904	146.331
180.044	227.033
184.183	23.025
188.319	809.472
192.454	964.594
196.586	1884.34
200.717	3783.36
204.846	6641.38
208.972	12015.7
213.097	15702.3
217.22	8550.64
221.341	3920.22
225.46	2779.94
229.577	3879.71
233.692	4128.23
237.805	2234.56
241.916	951.879
246.025	403.211
250.132	28.9
254.237	132.652
258.34	98.632
262.442	177.797
266.541	260.998
270.639	523.302
274.734	503.425
278.828	412.727
282.919	262.235
287.009	550.416
291.097	1890.15
295.183	3780.71
299.266	5761.97
303.348	4978.74
307.428	3553.04
311.507	2794.83
315.583	2434.47
319.657	2867.41
323.729	3307.61
327.8	3118.67
331.868	2899.84
335.935	3360.58
339.999	4080.18
344.062	3137.14
348.123	1526.23
352.182	862.396
356.239	698.053
360.294	332.731
364.347	47.375
368.398	321.939
372.448	1336.53
376.495	1851.13
380.54	675.728
384.584	40.284
388.626	15.276
392.666	38.827
396.704	87.358
400.74	36.61
404.774	430.645
408.806	573.44
412.836	509.821
416.865	730.475
420.891	1395.12
424.916	2647.51
428.939	6775.7
432.959	14869.6
436.978	10654.1
440.996	4256.96
445.011	1519.85
449.024	455.154
453.036	290.558
457.045	365.738
461.053	310.65
465.059	5.314
469.063	149.794
473.065	24.005
477.065	267.851
481.063	601.604
485.06	1985.32
489.054	2399
493.047	1572.64
497.038	756.243
501.027	849.946
505.014	1334.22
508.999	1418.92
512.982	1253.71
516.964	928.521
520.944	1102.54
524.921	1254.01
528.897	1128.32
532.871	1363.28
536.844	1858.28
540.814	2353.3
544.783	2326.04
548.749	1597.79
552.714	1147.05
556.677	1117.35
560.638	1465.27
564.597	1617.84
568.555	1954.12
572.511	2879.23
576.464	4826.05
580.416	7894.2
584.366	10588.5
588.315	10220.8
592.261	7139.8
596.206	4713.54
600.148	3025.87
604.089	1843.81
608.028	1254.78
611.965	993.272
615.901	1073.57
619.834	968.542
623.766	759.027
627.696	886.246
631.624	1192.92
635.551	1557.78
639.475	1624.43
643.398	1611.01
647.318	2027.53
651.237	2923.98
655.155	3760.75
659.07	4707.89
662.984	5064.16
666.895	5491.09
670.805	4697.41
674.713	3574.58
678.62	2250.85
682.524	1176.78
686.427	902.639
690.328	828.404
694.227	774.072
698.124	389.635
702.02	205.109
705.913	50.604
709.805	156.328
713.695	241.965
717.584	187.104
721.47	298.049
725.355	233.922
729.238	129.617
733.119	632.797
736.998	335.289
740.876	32.596
744.752	79.49
748.626	71.797
752.498	312.627
756.368	253.104
760.237	6.797
764.104	137.047
767.969	52.256
771.832	361.369
775.693	550.314
779.553	179.043
783.411	157.59
787.267	466.08
791.122	1428.97
794.974	1637.26
798.825	895.418
802.674	473.445
806.522	71.334
810.367	119.084
814.211	538.652
818.053	640.723
821.893	208.043
825.732	35.383
829.568	382.404
833.403	529.299
837.236	758.094
841.068	815.012
844.898	581.975
848.726	558.572
852.552	965.205
856.376	1341.73
860.199	1327.61
864.02	983.059
867.839	687.654
871.656	408.322
875.472	606.09
879.286	815.096
883.098	648.336
886.909	363.715
890.717	327.973
894.524	28.051
898.33	259.721
902.133	561.125
905.935	510.984
909.735	341.781
913.533	63.688
917.33	7.625
921.124	263.014
924.918	556.332
928.709	732.197
932.499	324.244
936.286	19.877
940.073	196.074
943.857	472.283
947.64	598.461
951.421	664.693
955.2	430.982
958.978	66.947
962.753	66.811
966.527	368.979
970.3	755.424
974.071	691.188
977.84	406.438
981.607	153.035
985.372	70.551
989.136	3.826
992.898	510.291
996.659	783.857
1000.42	812.678
1004.17	759.912
1007.93	597.191
1011.68	514.564
1015.43	872.137
1019.18	1150.01
1022.93	1266.52
1026.68	908.846
1030.42	679.586
1034.17	568.564
1037.91	1117.97
1041.65	1870.89
1045.39	2519.98
1049.12	3530.28
1052.86	5100.76
1056.59	10045.9
1060.33	19207.1
1064.06	19478
1067.78	10829.1
1071.51	5880.44
1075.23	3761.83
1078.96	2253.29
1082.68	1465.33
1086.4	1407.1
1090.12	1729.41
1093.83	2056.98
1097.55	1689.12
1101.26	1331.4
1104.97	923.812
1108.68	656.281
1112.39	916.719
1116.1	1549.09
1119.8	1508.32
1123.5	1300.83
1127.2	1083.17
1130.9	618.463
1134.6	209.402
1138.3	137.982
1141.99	125.531
1145.69	577.158
1149.38	939.768
1153.07	864.939
1156.76	658.195
1160.44	560.949
1164.13	24.51
1167.81	141.424
1171.49	27.805
1175.17	515.07
1178.85	889.342
1182.52	873.719
1186.2	627.264
1189.87	140.557
1193.54	23.188
1197.21	56.588
1200.88	10.508
1204.55	471.359
1208.21	882.586
1211.88	954.748
1215.54	906.043
1219.2	398.934
1222.86	284.512
1226.51	49.395
1230.17	324.395
1233.82	719.643
1237.47	1335.01
1241.12	1350.53
1244.77	1096.29
1248.42	652.244
1252.06	508.293
1255.71	186.322
1259.35	255.969
1262.99	160.859
1266.63	905.627
1270.26	1265.29
1273.9	1303.1
1277.53	891.68
1281.16	524.15
1284.8	255.521
1288.42	147.77
1292.05	245.779
1295.68	649.555
1299.3	932.459
1302.92	1144.92
1306.55	1157.88
1310.16	1220.41
1313.78	633.895
1317.4	363.947
1321.01	10.051
1324.62	13.494
1328.24	319.441
1331.85	661.16
1335.45	1027.49
1339.06	1265.83
1342.66	1086.38
1346.27	787.268
1349.87	587.539
1353.47	14.754
1357.07	60.096
1360.66	4.844
1364.26	142.139
