Measurement: Raman, 514 nm, ccw, Raman Data Processed
Mineral: Fluoro-richterite
Rruff sample: R040019
Ideal chemistry: Na(NaCa)Mg_5_Si_8_O_22_F_2_
Locality: Wilberforce, Ontario, Canada
Source: University of Arizona Mineral Museum
Description: Brown prismatic crystals
Measured chemistry: (Na_0.59_K_0.27_[box]_0.14_)_Σ=1_(Ca_1.30_Na_0.70_)_Σ=2_(Mg_4.67_Fe_0.17_Fe^3+^_0.10_Ti_0.03_Mn_0.02_Al_0.01_)_Σ=5_(Si_7.67_Al_0.33_)_Σ=8_(F_1.12_(OH)_0.88_)_Σ=2_; OH estimated by charge balance
Pin_id: L00117
Orientation: Laser parallel to [-1 0 -1]. Fiducial mark perpendicular to laser is parallel to -b* (0 -1 0)
Raman shift (cm-1)	intensity
80.823	0
85.009	6.282
89.193	149.372
93.375	426.418
97.554	574.116
101.732	1093.17
105.908	1773.63
110.082	2305.03
114.254	2302.41
118.424	1780.81
122.592	840.165
126.758	259.39
130.922	100.701
135.083	23.396
139.243	115.77
143.401	67.981
147.557	0.557
151.711	31.371
155.863	220.175
160.013	520.713
164.161	743.73
168.308	1118.15
172.452	1938.89
176.594	2921.16
180.734	3474.04
184.872	3258.57
189.008	2794.28
193.143	2397.72
197.275	2312.23
201.405	2515.88
205.534	2904.06
209.66	3356.91
213.784	3982.5
217.907	5211.6
222.027	7145.74
226.146	9731.5
230.263	12389.3
234.377	12412.2
238.49	8904.36
242.601	5572.65
246.709	3518.42
250.816	2200.47
254.921	1409.04
259.024	944.197
263.125	622.546
267.224	431.834
271.321	279.953
275.416	223.733
279.51	223.047
283.601	495.025
287.69	780.815
291.778	1187.32
295.863	1545.39
299.947	2072.15
304.029	2367.7
308.108	3000.56
312.186	3706.16
316.262	3793.14
320.336	3231.62
324.408	2589.41
328.478	2063.97
332.546	1781.57
336.612	1647.49
340.677	1625.55
344.739	1635.16
348.799	1837.19
352.858	2141.88
356.915	2979.54
360.969	4406.27
365.022	5926.07
369.073	5985.89
373.122	5154.7
377.169	4498.47
381.215	4432.19
385.258	4434.84
389.299	4548.43
393.339	4870.95
397.376	5285.39
401.412	5209.75
405.446	4720.01
409.478	4006.2
413.508	2973.45
417.536	2159.75
421.562	1778.07
425.586	1439.37
429.609	1017.65
433.629	817.894
437.648	565.977
441.665	495.625
445.68	836.756
449.693	334.627
453.704	380.063
457.713	241.631
461.721	255.746
465.726	225.11
469.73	137.313
473.731	103.369
477.731	48.885
481.729	103.846
485.725	104.761
489.72	95.731
493.712	107.8
497.703	78.894
501.691	3.201
505.678	138.776
509.663	175.07
513.646	418.125
517.627	636.986
521.607	819.644
525.584	1138.08
529.56	1408.31
533.534	1418.45
537.506	1301.51
541.476	1194.52
545.444	1097.38
549.41	1082.02
553.375	1107.42
557.337	1146.54
561.298	1085.39
565.257	1032.97
569.214	986.262
573.17	1023.27
577.123	1002
581.075	909.445
585.024	757.595
588.972	574.454
592.918	214.019
596.863	55.249
600.805	9.962
604.746	13.018
608.685	44.269
612.621	118.981
616.557	201.28
620.49	381.251
624.421	430.925
628.351	642.304
632.279	885.971
636.205	986.698
640.129	1280.39
644.051	1590.14
647.972	2054.77
651.89	2602.99
655.807	3603.61
659.722	5088.51
663.636	7349
667.547	11443.4
671.457	19391
675.365	33842.2
679.271	50973.7
683.175	51396.2
687.077	33752.8
690.978	18952
694.877	10948.3
698.774	6725.58
702.669	4747.41
706.562	3563.06
710.454	2848.21
714.344	2349.08
718.232	1999.77
722.118	1839.3
726.002	1622.65
729.885	1634.85
733.766	1446.89
737.645	1455.79
741.522	1289.54
745.397	1839.15
749.271	1408.3
753.143	833.779
757.013	732.682
760.881	622.277
764.748	483.232
768.613	344.774
772.476	254.817
776.337	210.458
780.196	186.226
784.054	145.938
787.91	166.603
791.764	135.36
795.616	244.36
799.467	84.721
803.316	137.478
807.163	77.023
811.008	73.132
814.851	17.828
818.693	27.574
822.533	1.265
826.371	54.105
830.208	76.357
834.042	35.732
837.875	39.969
841.706	45.893
845.536	25.165
849.363	64.819
853.189	74.842
857.013	51.94
860.836	61.688
864.656	102.426
868.475	218.208
872.292	403.034
876.108	561.961
879.922	636.026
883.733	726.269
887.544	695.659
891.352	794.16
895.159	740.82
898.964	807.653
902.767	903.645
906.568	964.757
910.368	1000.12
914.166	1029.78
917.962	1036.72
921.757	1285.84
925.55	1536.04
929.341	1807.3
933.13	1798.61
936.918	1673.96
940.703	1794.33
944.488	1836.7
948.27	1912.07
952.051	1872.41
955.83	1607.75
959.607	1121.01
963.383	740.062
967.156	604.734
970.928	542.117
974.699	450.144
978.468	422.879
982.234	448.07
986	398.726
989.763	524.048
993.525	573.895
997.285	634.094
1001.04	810.816
1004.8	948.408
1008.55	1217
1012.31	1484.88
1016.06	1623.41
1019.81	1799.18
1023.56	1899.25
1027.31	2149.06
1031.05	2445.15
1034.79	2783.59
1038.53	3247.29
1042.27	3516.82
1046.01	3559.4
1049.75	3895.11
1053.48	4108.76
1057.22	4358.93
1060.95	4602.58
1064.68	5042.57
1068.4	5215.67
1072.13	5046.05
1075.86	4674.84
1079.58	4043.6
1083.3	3355.4
1087.02	2983.6
1090.74	2511.45
1094.45	1950.73
1098.17	1590.6
1101.88	1338.29
1105.59	1112.01
1109.3	911.295
1113.01	779.77
1116.71	638.038
1120.42	564.435
1124.12	746.87
1127.82	477.657
1131.52	373.952
1135.22	317.105
1138.91	362.693
1142.61	219.866
1146.3	226.865
1149.99	186.85
1153.68	214.934
1157.37	105.906
1161.06	64.306
1164.74	58.14
1168.42	42.088
1172.1	42.957
1175.78	37.736
1179.46	49.847
1183.14	11.856
1186.81	20.705
1190.48	10.973
1194.15	66.026
1197.83	5.023
1201.49	7.91
1205.16	47.949
1208.82	9.294
1212.49	31.316
1216.15	72.605
1219.81	36.34
1223.46	1.385
1227.12	62.019
1230.78	26.849
1234.43	69.521
1238.08	88.714
1241.73	96.991
1245.38	154.661
1249.03	105.087
1252.67	119.166
1256.31	168.465
1259.95	211.81
1263.6	146.901
1267.23	221.564
1270.87	138.453
1274.51	215.424
1278.14	124.407
1281.77	247.076
1285.4	216.842
1289.03	203.2
1292.66	210.35
1296.28	166.2
1299.91	180.896
1303.53	175.095
1307.15	217.575
1310.77	239.107
1314.38	133.836
1318	229.149
1321.61	167.906
1325.23	138.771
1328.84	175.162
1332.45	124.19
1336.06	102.508
1339.66	152.005
1343.27	84.765
1346.87	52.06
1350.47	179.366
1354.07	137.529
1357.67	124.728
1361.26	63.8
1364.86	101.305
1368.45	153.179
1372.04	54.191
1375.63	15.022
1379.22	67.137
1382.81	12.351
1386.39	12.938
1389.98	13.08
1393.56	68.111
1397.14	63.798
1400.72	67.93
1404.3	60.945
1407.87	31.701
1411.45	10.857
1415.02	157.598
1418.59	68.568
1422.16	100.535
1425.73	146.696
1429.29	200.977
1432.86	98.828
1436.42	252.645
1439.98	218.369
1443.54	138.743
1447.1	312.938
1450.66	202.078
1454.21	187.904
1457.77	239.214
1461.32	202.991
1464.87	258.93
1468.42	173.841
1471.96	307.413
1475.51	351.094
1479.06	118.443
1482.6	174.474
1486.14	178.387
1489.68	263.024
1493.22	306.984
1496.75	250.503
1500.29	49.585
1503.82	132.545
1507.35	84.838
1510.88	109.056
1514.41	64.889
1517.94	30.745
