Measurement: Raman, 514 nm, ccw, Raman Data Processed
Mineral: Fluorapatite
Rruff sample: R060070
Ideal chemistry: Ca_5_(PO_4_)_3_F
Locality: Panasqueira, Portugal
Source: Dave Bunk
Description: Green hexagonal tablet
Measured chemistry: (Ca_0.99_Mn_0.01_)_5_(P_1.00_O_4_)_3_F_1.00_
Pin_id: L01870
Orientation: Laser parallel to -c* (0 0 -1). Fiducial mark perpendicular to laser is parallel to -a [-1 0 0]
Raman shift (cm-1)	intensity
127.979	0
132.898	35.0952
137.814	105.179
142.728	147.939
147.639	145.061
152.549	149.019
157.455	97.6108
162.359	116.319
167.261	59.0806
172.161	17.145
177.058	31.8325
181.952	30.124
186.845	78.8301
191.734	25.6148
196.622	70.1636
201.507	36.7563
206.389	43.0112
211.269	114.053
216.147	2.78369
221.022	0.516602
225.895	55.8726
230.765	94.8745
235.633	117.361
240.498	156.998
245.361	41.7935
250.222	7.22021
255.08	45.1133
259.936	66.4321
264.789	40.2861
269.64	3.30273
274.488	29.2412
279.334	1.48242
284.178	69.9917
289.019	94.6299
293.857	0.468262
298.693	66.0977
303.527	7.99609
308.358	15.7241
313.187	34.6733
318.013	58.541
322.837	162.958
327.659	26.2041
332.478	49.1816
337.294	117.669
342.108	0.410645
346.92	75.0181
351.729	83.333
356.535	47.4551
361.34	2.59375
366.141	123.204
370.94	5.82227
375.737	119.253
380.531	104.861
385.323	212.642
390.113	22.335
394.9	119.277
399.684	156.84
404.466	179.356
409.245	199.299
414.022	33.5967
418.797	36.0713
423.569	59.3818
428.338	46.5801
433.105	99.4502
437.87	148.335
442.632	5.625
447.391	236.895
452.149	101.682
456.903	93.1445
461.655	125.623
466.405	113.17
471.152	85.4853
475.897	202.192
480.639	164.86
485.378	134.153
490.116	53.9639
494.85	207.422
499.582	132.957
504.312	127.893
509.039	129.03
513.764	133.929
518.486	78.8115
523.206	45.8252
527.923	88.4756
532.638	106.55
537.35	28.6064
542.059	46.1855
546.766	228.319
551.471	127.011
556.173	315.66
560.873	186.965
565.57	56.998
570.264	250.802
574.957	157.877
579.646	196.408
584.333	227.926
589.018	149.394
593.7	158.657
598.379	152.913
603.056	131.762
607.73	184.416
612.402	132.14
617.072	223.686
621.739	203.02
626.403	128.961
631.065	138.49
635.724	17.3115
640.381	218.393
645.035	56.626
649.687	149.399
654.336	127.474
658.983	73.415
663.627	97.125
668.268	276.35
672.907	106.609
677.544	162.727
682.178	83.8594
686.809	157.545
691.438	93.666
696.065	250.6
700.688	242.701
705.31	85.2285
709.929	149.356
714.545	85.1191
719.158	144.629
723.77	367.656
728.378	285.391
732.984	145.744
737.588	232.008
742.189	230.789
746.787	47.2891
751.383	4.75586
755.976	148.986
760.567	112.436
765.155	202.228
769.741	267.978
774.324	123.814
778.904	50.2852
783.482	48.9062
788.058	80.6699
792.631	148.461
797.201	130.508
801.769	166.6
806.334	148.502
810.897	285.107
815.457	177.443
820.014	229.795
824.569	98.0469
829.122	42.9375
833.671	54.7773
838.219	149.231
842.763	137.713
847.306	285.898
851.845	159.432
856.382	92.0059
860.917	182.799
865.448	132.227
869.978	110.703
874.505	212.496
879.029	94.4238
883.55	212.553
888.069	273.086
892.586	121.592
897.1	256.188
901.611	30.5996
906.12	253.451
910.626	19.0703
915.129	179.973
919.63	37.3281
924.129	129.408
928.625	114.311
933.118	283.789
937.609	119.863
942.097	87.625
946.582	201.492
951.065	151.174
955.546	352.144
960.023	517.914
964.499	1037.49
968.971	536.592
973.441	216.068
977.909	180.891
982.374	70.1641
986.836	37.2949
991.295	254.098
995.753	192.455
1000.21	136.533
1004.66	197.014
1009.11	245.965
1013.55	328.82
1018	288
1022.44	33.6133
1026.88	135.367
1031.32	156.441
1035.75	128.285
1040.18	123.231
1044.61	63.9102
1049.04	153.352
1053.46	192.223
1057.88	196.769
1062.3	53.2656
1066.71	305.082
1071.13	63.2578
1075.54	191.375
1079.94	44.6836
1084.35	120.902
1088.75	3.31641
1093.15	167.805
1097.55	11.6133
1101.94	368.019
1106.34	219.609
1110.73	79.5156
1115.11	106.109
1119.5	200.039
1123.88	332.965
1128.26	73.9727
1132.63	199.086
1137.01	61.3984
1141.38	63.3359
1145.75	190.258
1150.12	288.902
1154.48	204.184
1158.84	238.242
1163.2	284.148
1167.55	183.16
1171.91	65.2656
1176.26	160.894
1180.61	450.731
1184.95	447.684
1189.29	141.09
1193.63	305.793
1197.97	162.879
1202.31	311.336
1206.64	242.656
1210.97	247.449
1215.29	485.582
1219.62	254.422
1223.94	342.676
1228.26	103.781
1232.57	270.059
1236.89	231.758
1241.2	506.125
1245.51	134.434
1249.81	288.973
1254.12	248.16
1258.42	385.734
1262.72	434.117
1267.01	183.121
1271.3	247.731
1275.59	120.059
1279.88	264.07
1284.17	463.797
1288.45	337.227
1292.73	266.273
1297.01	35.9766
1301.28	180.352
1305.55	203.832
1309.82	62.7109
1314.09	97.3242
1318.35	292.688
1322.61	273.762
1326.87	229.559
1331.13	504.918
1335.38	450.324
1339.63	388.644
1343.88	422
1348.12	468.016
1352.37	684.703
1356.61	207.844
1360.85	528.18
1365.08	393.09
1369.31	582.738
1373.54	414.223
1377.77	201.93
1381.99	245.68
1386.22	554.199
1390.43	585.449
1394.65	437.441
1398.87	488.797
1403.08	330.441
1407.29	299.769
1411.49	402.727
1415.69	292.754
1419.89	632.019
1424.09	494.277
1428.29	190.254
1432.48	197.848
1436.67	378.828
1440.86	822.551
1445.04	458.363
1449.23	636.566
1453.4	513.555
1457.58	611.531
1461.76	455.504
1465.93	332.469
1470.1	291.438
1474.26	642.242
1478.43	511.176
1482.59	360.074
1486.75	665.977
1490.9	246.934
1495.06	860.707
1499.21	199.281
1503.35	379.75
1507.5	257.867
1511.64	513.57
1515.78	559.731
1519.92	378.59
1524.05	327.18
1528.18	125.617
1532.31	547
1536.44	207.074
1540.56	193.07
1544.69	291.223
1548.8	343.098
1552.92	204.984
1557.03	358.746
1561.14	470.461
1565.25	176.856
1569.36	168.254
