Measurement: Raman, 514 nm, ccw, Raman Data Processed
Mineral: Fluorapatite
Rruff sample: R050192
Ideal chemistry: Ca_5_(PO_4_)_3_F
Locality: Fulford, Eagle County, Colorado, USA
Source: Dave Bunk Minerals
Description: Pale green hexagonal prism
Measured chemistry: Ca_5.00_(P_1.00_O_4_)_3_(F_0.86_Cl_0.13_)
Pin_id: L00428
Orientation: Laser parallel to a* (1 0 0). Fiducial mark perpendicular to laser is parallel to -c [0 0 -1]
Raman shift (cm-1)	intensity
103.349	0
107.047	0.96875
110.744	63.0647
114.44	40.2488
118.134	31.425
121.827	38.1977
125.519	70.8735
129.209	97.9392
132.898	117
136.585	230.917
140.271	228.675
143.956	170.132
147.639	111.046
151.321	111.243
155.002	58.603
158.681	152.079
162.359	110.944
166.036	105.387
169.711	124.349
173.385	124.02
177.058	165.899
180.729	180.682
184.399	229.233
188.067	114.527
191.734	127.58
195.4	130.424
199.064	211.022
202.727	294.423
206.389	356.608
210.049	394.829
213.708	348.09
217.366	232.207
221.022	212.361
224.677	301.383
228.33	353.383
231.982	286.569
235.633	169.036
239.282	161.22
242.93	129.132
246.577	124.201
250.222	109.862
253.866	75.6213
257.508	153.333
261.149	135.781
264.789	127.473
268.427	145.078
272.064	114.57
275.7	282.013
279.334	191.391
282.967	266.683
286.598	300.86
290.229	324.894
293.857	201.77
297.485	243.476
301.111	280.006
304.735	196.351
308.358	213.504
311.98	143.451
315.601	88.1807
319.22	139.676
322.837	66.9399
326.454	28.8435
330.068	53.852
333.682	32.1348
337.294	72.3704
340.905	31.7314
344.514	48.6907
348.122	47.5244
351.729	3.09619
355.334	55.0942
358.938	29.042
362.54	92.7212
366.141	12.0215
369.741	8.3999
373.339	28.4858
376.936	60.7212
380.531	62.2036
384.126	206.927
387.718	16.1816
391.31	3.60693
394.9	99.334
398.488	183.581
402.075	149.25
405.661	170.393
409.245	295.457
412.828	342.952
416.41	415.472
419.99	761.565
423.569	1204.14
427.146	1749.21
430.722	2030.99
434.297	1757.86
437.87	1066.23
441.442	852.231
445.012	761.096
448.581	706.06
452.149	613.875
455.715	538.289
459.28	393.139
462.843	353.432
466.405	248.823
469.965	231.174
473.525	176.107
477.082	132.822
480.639	81.2212
484.194	91.5376
487.747	68.0493
491.3	106.793
494.85	102.546
498.4	117.018
501.948	107.66
505.494	104.074
509.039	44.0996
512.583	53.2197
516.125	95.0679
519.666	6.06348
523.206	134.329
526.744	25.5064
530.281	109.497
533.816	25.9507
537.35	17.6655
540.882	39.3447
544.413	68.8227
547.943	69.4194
551.471	51.8716
554.998	81.564
558.523	45.4321
562.047	84.7129
565.57	162.402
569.091	226.084
572.611	301.678
576.129	422.931
579.646	725.556
583.162	1060.7
586.676	1313.24
590.188	2009.5
593.7	1896.68
597.209	828.726
600.718	445.381
604.225	500.342
607.73	700.395
611.235	538.863
614.737	247.017
618.239	239.445
621.739	277.012
625.237	124.511
628.734	72.6045
632.23	26.2432
635.724	9.875
639.217	109.373
642.708	129.624
646.198	96.9536
649.687	216.372
653.174	125.034
656.66	159.151
660.144	268.683
663.627	144.59
667.108	119.124
670.588	150.012
674.067	63.6055
677.544	155.349
681.02	132.986
684.494	49.6348
687.967	109.3
691.438	119.569
694.908	142.195
698.377	212.497
701.844	53.6904
705.31	2.01465
708.774	72.6113
712.237	12.6172
715.698	182.656
719.158	121.083
722.617	135
726.074	183.759
729.53	104.938
732.984	105.358
736.437	138.841
739.888	195.807
743.338	163.665
746.787	58.4658
750.234	186.248
753.68	185.906
757.124	100.419
760.567	186.478
764.008	25.6396
767.448	34.5947
770.887	149.642
774.324	52.7803
777.759	131.701
781.194	57.6133
784.626	51.1211
788.058	12.581
791.488	239.095
794.916	81.6338
798.343	143.9
801.769	110.357
805.193	106.528
808.616	151.826
812.037	73.8936
815.457	48.5127
818.875	69.0088
822.292	27.6357
825.707	56.4707
829.122	222.35
832.534	122.391
835.945	42.1133
839.355	86.1064
842.763	121.799
846.17	156.172
849.576	39.3525
852.98	12.9326
856.382	256.68
859.783	175.113
863.183	229.473
866.581	0.071289
869.978	297.393
873.373	21.8496
876.767	108.064
880.159	228.095
883.55	23.3994
886.94	33.4922
890.328	6.0918
893.714	177.04
897.1	215.449
900.483	110.402
903.866	122.699
907.246	27.4883
910.626	94.832
914.004	25.5293
917.38	34.2139
920.755	30.9824
924.129	2.34863
927.501	54.8633
930.872	18.6504
934.241	307.4
937.609	154.397
940.975	315.551
944.34	369.258
947.703	874.996
951.065	1229.83
954.426	2862.73
957.785	7091.74
961.142	13024.5
964.499	18673.9
967.853	9972.72
971.207	4315.29
974.558	2027.24
977.909	802.244
981.258	467.592
984.605	374.152
987.951	202.103
991.295	114.492
994.639	222.82
997.98	297.768
1001.32	187.065
1004.66	202.459
1008	145.459
1011.33	337.83
1014.67	65.2305
1018	306.334
1021.33	429.57
1024.66	398.953
1027.99	519.596
1031.32	692.949
1034.64	666.213
1037.97	930.809
1041.29	1346.94
1044.61	1722.88
1047.93	2360.43
1051.25	2631.82
1054.56	1605.32
1057.88	996.766
1061.19	825.367
1064.51	603.539
1067.82	471.84
1071.13	674.826
1074.43	950.836
1077.74	1062.33
1081.05	923.713
1084.35	710.846
1087.65	463.785
1090.95	204.935
1094.25	202.559
1097.55	363.963
1100.85	144.83
1104.14	60.0586
1107.43	319.014
1110.73	82.8848
1114.02	155.861
1117.31	223.272
1120.59	501.461
1123.88	149.449
1127.16	225.697
1130.45	236.387
1133.73	93.0488
1137.01	59.4102
1140.29	43.9238
1143.57	101.184
1146.84	174.006
1150.12	91.1738
1153.39	295.379
1156.66	63.0547
1159.93	142.455
1163.2	100.295
1166.46	84.6973
1169.73	255.342
1172.99	311.1
1176.26	204.109
1179.52	176.096
1182.78	423.184
1186.04	200.445
1189.29	164.361
1192.55	194.688
1195.8	184.986
1199.05	471.158
1202.31	432.129
1205.55	435.346
1208.8	342.815
1212.05	205.707
1215.29	179.775
1218.54	328.881
1221.78	125.594
1225.02	177.19
1228.26	131.156
1231.5	116.644
1234.73	395.309
1237.97	320.035
1241.2	370.731
1244.43	456.762
1247.66	431.688
1250.89	58.1523
1254.12	71.918
1257.34	43.5156
1260.57	147.551
1263.79	198.812
1267.01	418.457
1270.23	95.8438
1273.45	66.6211
1276.67	247.285
1279.88	169.527
1283.1	1.64062
