Measurement: Raman, 514 nm, ccw, Raman Data Processed
Mineral: Fluorapatite
Rruff sample: R060184
Ideal chemistry: Ca_5_(PO_4_)_3_F
Locality: Yates mine, Otter Lake, Quebec, Canada
Source: Lloyd Twaites
Description: Green colored fragment of a hexagonal prism
Measured chemistry: (Ca_0.99_Ce_0.01_)_5.00_((P_0.98_Si_0.01_S_0.01_)O_4_)_3_F_1.00_
Pin_id: M00532
Orientation: Laser parallel to -a* (-1 0 0). Fiducial mark perpendicular to laser is parallel to -c [0 0 -1]
Raman shift (cm-1)	intensity
170.559	0
175.467	131.122
180.372	151.81
185.274	40.2468
190.174	40.6895
195.072	28.1438
199.967	158.319
204.859	405.629
209.749	488.348
214.637	396.219
219.521	334.836
224.404	352.014
229.284	452.569
234.161	336.963
239.036	307.473
243.908	179.458
248.777	212.865
253.645	224.808
258.509	425.848
263.371	560.63
268.231	762.429
273.088	797.397
277.942	784.075
282.794	870.766
287.643	801.233
292.49	783.013
297.335	732.014
302.176	688.103
307.015	653.291
311.852	533.601
316.686	391.74
321.518	218.366
326.347	156.06
331.173	139.777
335.997	74.4214
340.819	58.8879
345.638	60.5906
350.454	6.49634
355.268	9.60864
360.079	3.10352
364.888	22.1169
369.694	14.6602
374.498	7.02979
379.299	35.4155
384.097	52.4453
388.893	104.946
393.686	193.385
398.477	314.81
403.266	315.022
408.051	397.976
412.835	618.3
417.615	1074.54
422.394	2032.86
427.169	3641.49
431.942	3808.55
436.713	2762.09
441.481	2127.14
446.246	2007.69
451.009	1696.76
455.769	1173.35
460.527	743.473
465.282	607.854
470.035	431.925
474.785	188.305
479.532	113.035
484.277	217.323
489.02	126.185
493.76	76.3916
498.497	38.1909
503.232	23.3428
507.964	89.7896
512.693	11.5278
517.421	23.7891
522.145	0.793945
526.867	36.25
531.587	10.2148
536.303	6.93994
541.018	109.145
545.729	90.8374
550.439	101.879
555.145	196.254
559.849	262.514
564.551	459.577
569.25	574.777
573.946	1202.34
578.64	2030.45
583.331	2732.64
588.02	3912.27
592.706	3271.9
597.39	1944.49
602.071	2082.08
606.749	2186.72
611.425	1249.43
616.099	851.203
620.769	473.149
625.438	389.451
630.103	500.98
634.766	487.859
639.427	457.088
644.085	727.707
648.74	735.119
653.393	696.542
658.044	667.414
662.691	544.555
667.336	436.06
671.979	298.22
676.619	272.981
681.257	175.853
685.892	276.148
690.524	221.11
695.154	155.569
699.781	274.088
704.406	301.147
709.028	211.705
713.647	252.283
718.264	95.896
722.878	148.281
727.49	277.531
732.1	112.996
736.706	17.6377
741.31	6.36231
745.912	166.586
750.511	177.018
755.107	161.92
759.701	71.5469
764.292	28.1504
768.881	245.481
773.467	163.688
778.051	62.4385
782.632	81.1728
787.21	15.0967
791.786	49.2881
796.359	179.721
800.93	130.293
805.498	18.2041
810.064	47.7744
814.627	149.623
819.187	52.4668
823.745	101.419
828.301	141.102
832.853	106.115
837.403	31.5107
841.951	95.0986
846.496	112.981
851.038	56.6143
855.578	231.565
860.116	292.037
864.65	280.082
869.183	164.704
873.712	182.85
878.239	70.585
882.764	156.352
887.285	92.4902
891.805	10.4941
896.322	11.5752
900.836	61.419
905.347	16.6445
909.856	9.06152
914.363	11.5723
918.867	37.2578
923.368	76.9219
927.867	199.135
932.363	240.651
936.856	416.504
941.347	1031.57
945.836	2214.96
950.322	4319.27
954.805	11225.7
959.286	29320.5
963.764	44738.8
968.239	21657.9
972.712	6509.73
977.183	2173.74
981.65	708.36
986.116	377.647
990.578	316.269
995.038	143.584
999.496	306.272
1003.95	564.983
1008.4	825.79
1012.85	574.206
1017.3	487.513
1021.75	514.304
1026.19	1047.04
1030.63	1473.9
1035.06	1589.48
1039.5	2334.02
1043.93	2541.37
1048.36	3247.53
1052.79	3867.46
1057.21	2697.44
1061.63	1698.31
1066.05	1648.62
1070.47	1744.34
1074.88	2171.35
1079.29	2130.22
1083.7	1133.59
1088.11	677.819
1092.51	440.26
1096.91	385.365
1101.31	125.997
1105.7	31.2363
1110.1	17.1113
1114.49	157.805
1118.88	379.287
1123.26	218.178
1127.64	258.027
1132.02	237.537
1136.4	223.336
1140.78	281.103
1145.15	220.228
1149.52	274.777
1153.89	165.51
1158.25	52.9707
1162.61	367.514
1166.97	196.943
1171.33	129.26
1175.68	364.332
1180.04	28.0234
1184.39	183.299
1188.73	160.326
1193.08	165.943
1197.42	243.144
1201.76	102.082
1206.1	34.8652
1210.43	57.8574
1214.76	52.4805
1219.09	276.219
1223.41	89.5098
1227.74	190.356
1232.06	122.758
1236.38	337.705
1240.69	204.34
1245.01	15.4648
1249.32	65.168
1253.63	47.0215
1257.93	33.5312
1262.23	112.572
1266.54	39.0996
1270.83	221.074
1275.13	14.5488
1279.42	121.461
1283.71	35.2676
1288	15.6934
1292.28	93.3359
1296.57	124.861
1300.85	84.8398
1305.12	12.0254
1309.4	254.393
1313.67	117.676
1317.94	347.367
1322.21	267.451
1326.47	268.644
1330.73	139.768
1334.99	477.027
1339.25	224.373
1343.5	240.357
1347.75	275.367
1352	197.082
1356.25	60.2598
1360.49	396.252
1364.73	262.549
1368.97	315.375
1373.21	0.335938
1377.44	176.123
1381.67	371.293
1385.9	300.369
1390.13	410.357
1394.35	148.809
1398.57	115.197
1402.79	296.123
1407	142.055
1411.22	88.9805
1415.43	236.549
1419.63	346.826
1423.84	240.467
1428.04	183.383
1432.24	67.5527
1436.44	226.353
1440.63	228.082
1444.83	58.8457
1449.02	6.13281
1453.2	110.924
1457.39	53.9453
1461.57	63.5605
1465.75	169.315
1469.93	176.174
1474.1	80.5957
1478.27	16.3359
1482.44	2.51758
1486.61	32.1406
1490.77	102.471
1494.93	137.445
1499.09	232.353
1503.25	123.062
1507.4	318.377
1511.55	40.7949
1515.7	196.119
1519.85	258.766
1523.99	205.902
1528.13	256.914
1532.27	178.951
1536.4	186.697
1540.54	254.897
1544.67	119.525
1548.8	171.385
1552.92	76.3848
1557.05	97.7402
1561.16	239.711
1565.28	0
