Measurement: Raman, 514 nm, ccw, Raman Data Processed
Mineral: Forsterite
Rruff sample: R040057
Ideal chemistry: Mg_2_SiO_4_
Locality: Trudy's mine, San Carlos, Gila County, Arizona, USA
Source: Bob Downs
Description: Dark green crystal fragments from xenoliths in a basalt flow
Measured chemistry: (Mg_1.67_Fe_0.32_Ni_0.01_)_Î£=2_Si_1.00_O_4_; trace amounts of Mn and Ca
Pin_id: L00083
Orientation: Laser parallel to c* (0 0 1). Fiducial mark perpendicular to laser is parallel to b [0 1 0]
Raman shift (cm-1)	intensity
85.009	0
89.193	83.982
93.375	95.597
97.554	94.459
101.732	61.128
105.908	127.508
110.082	64.524
114.254	153.533
118.424	177.977
122.592	117.51
126.758	89.943
130.922	107.375
135.083	148.811
139.243	236.508
143.401	231.527
147.557	300.843
151.711	247.405
155.863	284.166
160.013	237.276
164.161	227.755
168.308	189.308
172.452	178.941
176.594	168.424
180.734	142.938
184.872	106.933
189.008	88.139
193.143	129.065
197.275	131.36
201.405	202.741
205.534	367.146
209.66	532.548
213.784	626.94
217.907	540.296
222.027	429.609
226.146	359.304
230.263	287.035
234.377	307.488
238.49	285.018
242.601	189.4
246.709	56.266
250.816	2.573
254.921	48.652
259.024	34.567
263.125	0.462
267.224	15.125
271.321	33.358
275.416	36.96
279.51	126.654
283.601	209.421
287.69	582.406
291.778	1127.52
295.863	1987.04
299.947	2321.79
304.029	1867.34
308.108	1742
312.186	1862.88
316.262	1876.4
320.336	1693.42
324.408	1406.8
328.478	1143.02
332.546	894.395
336.612	677.979
340.677	502.957
344.739	296.521
348.799	189.373
352.858	148.957
356.915	75.661
360.969	37.391
365.022	12.203
369.073	4.073
373.122	31.068
377.169	92.72
381.215	27.42
385.258	19.011
389.299	27.512
393.339	83.871
397.376	122.075
401.412	300.138
405.446	623.069
409.478	1150.89
413.508	1376.6
417.536	1788.76
421.562	2684.03
425.586	3166.1
429.609	2037.48
433.629	982.581
437.648	381.15
441.665	174.068
445.68	73.854
449.693	20.511
453.704	36.177
457.713	22.239
461.721	3.658
465.726	41.663
469.73	76.765
473.731	63.676
477.731	31.416
481.729	56.998
485.725	38.547
489.72	76.067
493.712	113.758
497.703	71.418
501.691	120.391
505.678	107.63
509.663	137.231
513.646	230.204
517.627	197.369
521.607	235.274
525.584	420.938
529.56	663.77
533.534	1148.26
537.506	1814.54
541.476	1734.88
545.444	925.724
549.41	595.648
553.375	440.464
557.337	413.4
561.298	525.181
565.257	614.761
569.214	970.143
573.17	1316.33
577.123	1516.32
581.075	1326.12
585.024	1334.75
588.972	1630.18
592.918	2167.47
596.863	2955.56
600.805	3517.47
604.746	3369.07
608.685	2508.87
612.621	1630.96
616.557	1102.35
620.49	744.643
624.421	614.244
628.351	330.335
632.279	285.802
636.205	160.249
640.129	120.497
644.051	100.84
647.972	110.34
651.89	43.754
655.807	7.211
659.722	37.611
663.636	31.653
667.547	27.126
671.457	47.738
675.365	7.827
679.271	35.242
683.175	26.127
687.077	7.335
690.978	17.771
694.877	15.631
698.774	4.047
702.669	1.819
706.562	65.32
710.454	40.409
714.344	113.443
718.232	159.425
722.118	142.361
726.002	157.224
729.885	175.4
733.766	190.942
737.645	276.743
741.522	252.523
745.397	326.287
749.271	406.039
753.143	510.79
757.013	578.566
760.881	601.407
764.748	669.338
768.613	839.448
772.476	971.805
776.337	1086.36
780.196	1206.05
784.054	1348.8
787.91	1657.62
791.764	2067.51
795.616	2615.43
799.467	3532.26
803.316	4990.12
807.163	7601.48
811.008	12546.4
814.851	24188.9
818.693	45769.2
822.533	53144
826.371	35511.8
830.208	22638
834.042	16639.2
837.875	14680.7
841.706	15411.5
845.536	20283.3
849.363	31426.6
853.189	38618.6
857.013	32425.7
860.836	21304.5
864.656	13213.6
868.475	8059.82
872.292	5133.21
876.108	3346.77
879.922	2486.48
883.733	1810.35
887.544	1313.39
891.352	964.594
895.159	744.965
898.964	620.146
902.767	572.251
906.568	600.135
910.368	564.322
914.166	606.837
917.962	610.205
921.757	539.98
925.55	579.813
929.341	588.226
933.13	761.501
936.918	953.653
940.703	1341.57
944.488	1802.53
948.27	2680.81
952.051	3966.74
955.83	5039.74
959.607	5193.89
963.383	4690.12
967.156	3729.71
970.928	2618.38
974.699	1904.27
978.468	1408.45
982.234	1020.91
986	790.651
989.763	569.714
993.525	528.517
997.285	487.979
1001.04	401.589
1004.8	276.361
1008.55	250.293
1012.31	238.383
1016.06	246.637
1019.81	183.03
1023.56	206.533
1027.31	197.141
1031.05	173.879
1034.79	156.718
1038.53	89.647
1042.27	118.658
1046.01	66.756
1049.75	28.933
1053.48	0.809
1057.22	21.966
1060.95	40.208
1064.68	2.996
1068.4	63.833
1072.13	99.778
1075.86	39.909
1079.58	24.145
1083.3	39.578
1087.02	10.669
1090.74	4.932
1094.45	22.799
1098.17	27.531
1101.88	4.227
1105.59	33.17
1109.3	9.722
1113.01	4.251
1116.71	7.881
1120.42	81.447
1124.12	230.77
1127.82	46.154
1131.52	48.943
1135.22	138.034
1138.91	8.08
1142.61	94.41
1146.3	151.616
1149.99	70.593
1153.68	96.5
1157.37	72.304
1161.06	129.613
1164.74	133.98
1168.42	181.509
1172.1	110.953
1175.78	143.531
1179.46	147.417
1183.14	167.047
1186.81	120.885
1190.48	184.323
1194.15	157.93
1197.83	224.306
1201.49	268.579
1205.16	284.93
1208.82	244.714
1212.49	254.218
1216.15	260.74
1219.81	265.786
1223.46	220.775
1227.12	213.456
1230.78	231.811
1234.43	249.423
1238.08	182.25
1241.73	227.315
1245.38	188.716
1249.03	202.343
1252.67	136.994
1256.31	45.075
1259.95	94.09
1263.6	94.424
1267.23	100.064
1270.87	115.58
1274.51	67.909
1278.14	18.528
1281.77	33.998
1285.4	46.277
1289.03	49.243
1292.66	93.538
1296.28	40.022
1299.91	97.268
1303.53	23.45
1307.15	106.487
1310.77	20.378
1314.38	52.149
1318	61.816
1321.61	33.632
1325.23	13.77
1328.84	42.063
1332.45	72.256
1336.06	3.357
1339.66	53.363
1343.27	25.29
1346.87	85.133
1350.47	69.921
1354.07	97.695
1357.67	120.481
1361.26	98.27
1364.86	111.788
1368.45	183.745
1372.04	94.717
1375.63	116.052
1379.22	127.862
1382.81	183.601
1386.39	59.027
1389.98	157.27
1393.56	183.58
1397.14	81.954
1400.72	157.174
1404.3	52.691
1407.87	184.613
1411.45	137.415
1415.02	140.778
1418.59	142.322
1422.16	137.096
1425.73	126.65
1429.29	145.013
1432.86	99.753
1436.42	180.091
1439.98	134.025
1443.54	151.438
1447.1	179.136
1450.66	239.795
1454.21	264.291
1457.77	277.523
1461.32	239.464
1464.87	114.003
1468.42	195.096
1471.96	125.493
1475.51	96.666
1479.06	88.269
1482.6	149.232
1486.14	99.336
1489.68	93.479
1493.22	112.733
1496.75	89.299
1500.29	156.427
1503.82	8.926
1507.35	100.24
1510.88	95.168
1514.41	1.84
1517.94	114.58
1521.46	93.467
1524.99	0
