Measurement: Raman, 514 nm, ccw, Raman Data Processed
Mineral: Forsterite
Rruff sample: R060535
Ideal chemistry: Mg_2_SiO_4_
Locality: unknown
Source: Gemological Institute of America
Description: Transparent brown gemstone
Measured chemistry: (Mg_1.81_Fe_0.18_Ni_0.01_)_Î£=2_Si_1.00_O_4_
Pin_id: L01269
Orientation: Laser parallel to a* (1 0 0). Fiducial mark perpendicular to laser is parallel to b [0 1 0]
Raman shift (cm-1)	intensity
207.611	0
212.51	105.929
217.407	472.231
222.301	783.399
227.192	747.347
232.08	525.527
236.965	311.419
241.848	147.702
246.728	126.853
251.604	31.5692
256.479	4.23584
261.35	30.3135
266.218	14.5033
271.084	8.56104
275.947	45.7147
280.807	54.1099
285.664	65.9639
290.518	113.279
295.37	225.407
300.219	526.609
305.065	565.516
309.908	444.898
314.749	652.649
319.586	866.77
324.421	1286.97
329.253	1386.34
334.083	1172.8
338.909	1010.86
343.733	530.83
348.554	233.696
353.372	194.287
358.187	184.301
363	213.619
367.81	253.725
372.617	219.5
377.421	120.772
382.223	47.7801
387.022	14.6423
391.818	4.44202
396.611	43.1292
401.401	0.446411
406.189	55.75
410.974	39.1467
415.756	79.5564
420.536	219.182
425.312	475.134
430.086	707.761
434.858	508.003
439.626	171.192
444.392	127.119
449.155	129.975
453.915	83.593
458.672	118.053
463.427	153.401
468.179	228.633
472.928	235.745
477.675	285.73
482.419	372.59
487.16	400.324
491.898	458.933
496.634	460.452
501.367	476.953
506.097	476.394
510.825	464.023
515.549	496.162
520.271	566.213
524.991	694.123
529.707	1009.73
534.421	1573.51
539.132	2305.89
543.841	2756.45
548.547	1565.79
553.25	770.452
557.95	661.987
562.648	577.523
567.343	583.83
572.035	600.909
576.724	674.762
581.411	839.394
586.095	887.811
590.777	925.906
595.456	754.711
600.132	685.511
604.805	752.167
609.476	703.645
614.144	531.951
618.809	348.088
623.472	234.712
628.132	195.878
632.789	84.541
637.444	47.057
642.096	4.40222
646.745	0.479736
651.392	7.4032
656.036	27.9594
660.677	39.7925
665.316	46.1713
669.952	53.3984
674.585	30.5105
679.216	36.0813
683.844	31.8225
688.469	33.7452
693.092	26.1578
697.712	25.0679
702.329	69.9764
706.944	106.889
711.556	170.818
716.166	314.773
720.773	423.765
725.377	561.805
729.978	783.905
734.577	1029.08
739.173	1269.33
743.767	1814.67
748.358	2516.13
752.946	2849.71
757.532	2547.41
762.115	1780.24
766.695	1233.25
771.273	895.412
775.848	945.654
780.421	931.043
784.991	973.227
789.558	925.006
794.123	1099.7
798.685	1611.04
803.245	2519.29
807.802	4396.63
812.356	8610.61
816.907	20013.5
821.456	38682.2
826.003	36077.1
830.547	17496.2
835.088	9552.77
839.627	7195.71
844.163	7727.01
848.696	12281.6
853.227	19512.6
857.755	18493
862.281	9840.62
866.804	4852.63
871.324	2633.99
875.842	1574.69
880.357	1218.45
884.87	777.484
889.38	508.245
893.888	362.448
898.393	241.745
902.895	254.82
907.395	354.802
911.892	903.364
916.387	2209.64
920.879	2189.23
925.368	732.229
929.855	211.599
934.339	313.776
938.821	342.339
943.301	496.763
947.777	855.413
952.251	1493.08
956.723	2369.38
961.192	2916.58
965.658	2338.88
970.122	1412.93
974.583	739.521
979.042	350.753
983.498	208.185
987.952	127.671
992.403	56.2883
996.852	64.9774
1001.3	51.0492
1005.74	60.0327
1010.18	17.158
1014.62	9.1012
1019.06	8.13745
1023.49	23.4578
1027.92	0.955444
1032.35	11.6123
1036.78	4.17517
1041.2	2.70129
1045.62	14.7884
1050.04	0.299805
1054.45	34.1996
1058.87	46.7919
1063.28	23.5741
1067.68	1.55456
1072.09	1.74316
1076.49	2.16882
1080.89	4.12476
1085.29	10.2804
1089.69	5.73828
1094.08	5.9939
1098.47	0.527832
1102.86	10.6636
1107.24	70.6763
1111.63	45.5554
1116.01	36.3213
1120.38	42.9606
1124.76	51.483
1129.13	64.8967
1133.5	92.1752
1137.87	78.3187
1142.24	33.3232
1146.6	119.344
1150.96	104.534
1155.32	103.093
1159.67	112.405
1164.03	118.571
1168.38	186.569
1172.72	156.687
1177.07	171.468
1181.41	146.881
1185.75	153.498
1190.09	140.533
1194.43	196.868
1198.76	192.866
1203.09	116.7
1207.42	226.744
1211.75	159.103
1216.07	216.413
1220.39	209.407
1224.71	229.457
1229.02	199.988
1233.34	218.342
1237.65	225.318
1241.96	212.038
1246.26	179.479
1250.57	152.09
1254.87	180.923
1259.17	124.494
1263.46	157.817
1267.76	117.08
1272.05	142.701
1276.34	104.978
1280.62	123.052
1284.91	93.5888
1289.19	123.868
1293.47	107.888
1297.74	79.7678
1302.02	59.5992
1306.29	8.62988
1310.56	8.03015
1314.83	29.6278
1319.09	30.2324
1323.35	31.8761
1327.61	59.5457
1331.87	48.2473
1336.12	56.0062
1340.38	4.83081
1344.63	5.63916
1348.87	22.469
1353.12	72.333
1357.36	32.2614
1361.6	53.2345
1365.84	45.1754
1370.08	42.0963
1374.31	72.9968
1378.54	9.8833
1382.77	6.74487
1386.99	62.5836
1391.22	39.4185
1395.44	57.4734
1399.66	25.0815
1403.87	50.9265
1408.09	23.3046
1412.3	4.19568
1416.51	42.4796
1420.71	61.0206
1424.92	85.115
1429.12	63.2964
1433.32	106.429
1437.51	79.7728
1441.71	89.3439
1445.9	77.6706
1450.09	92.978
1454.28	123.676
1458.46	113.74
1462.65	173.722
1466.83	157.479
1471	138.455
1475.18	215.554
1479.35	188.263
1483.52	213.046
1487.69	270.444
1491.86	268.281
1496.02	238.879
1500.18	256.491
1504.34	213.275
1508.5	241.114
1512.65	164.087
1516.8	145.09
1520.95	182.193
1525.1	77.4011
1529.24	72.0421
1533.39	13.9596
1537.53	27.1804
1541.66	15.207
1545.8	45.9668
1549.93	63.8603
1554.06	74.0219
1558.19	7.14771
1562.32	0.075928
