Measurement: Raman, 514 nm, ccw, Raman Data Processed
Mineral: Forsterite
Rruff sample: R040018
Ideal chemistry: Mg_2_SiO_4_
Locality: Trudy's mine, San Carlos, Gila County, Arizona, USA
Source: Bob Downs
Description: Green fragments from xenoliths in a basalt flow
Measured chemistry: (Mg_1.81_Fe_0.18_Ni_0.01_)_Î£=2_Si_1.00_O_4_; trace amounts of Mn and Ca
Pin_id: M00002
Orientation: Laser parallel to -b* (0 -1 0). Fiducial mark perpendicular to laser is parallel to c [0 0 1]
Raman shift (cm-1)	intensity
49.365	0
53.566	70.019
57.765	267.455
61.962	473.682
66.157	535.063
70.349	422.606
74.54	365.038
78.729	230.782
82.916	33.539
87.101	10.348
91.284	12.579
95.465	18.199
99.644	39.779
103.82	164.671
107.995	207.965
112.168	1129.35
116.339	445.751
120.508	262.553
124.675	161.318
128.84	194.255
133.003	171.241
137.164	150.877
141.323	128.142
145.48	137.824
149.635	130.654
153.788	86.493
157.939	114.632
162.088	106.793
166.235	72.953
170.38	46.765
174.523	113.283
178.664	115.041
182.803	142.867
186.94	117.682
191.076	101.463
195.209	108.226
199.34	60.978
203.47	96.728
207.597	112.466
211.722	182.492
215.846	397.351
219.967	825.946
224.087	1170.52
228.204	1045.73
232.32	787.986
236.434	644.32
240.545	507.592
244.655	295.355
248.763	151.921
252.869	140.63
256.973	74.799
261.075	67.73
265.175	31.209
269.273	39.296
273.369	23.736
277.463	21.676
281.556	87.58
285.646	84.477
289.734	108.597
293.821	161.917
297.905	316.809
301.988	595.768
306.069	598.021
310.147	407.815
314.224	500.687
318.299	684.171
322.372	969.452
326.443	1668.9
330.512	1683.03
334.579	1440.18
338.645	1370.53
342.708	918.72
346.769	438.646
350.829	181.467
354.887	121.007
358.942	74.644
362.996	85.956
367.048	34.311
371.098	39.947
375.146	67.917
379.192	46.87
383.236	22.706
387.279	3.596
391.319	7.037
395.358	15.393
399.394	33.326
403.429	39.191
407.462	13.815
411.493	23.77
415.522	51.733
419.549	112.45
423.575	250.155
427.598	536.668
431.619	822.149
435.639	459.49
439.657	204.721
443.673	112.209
447.687	45.881
451.699	9.513
455.709	14.81
459.717	4.754
463.724	74.146
467.728	14.38
471.731	33.533
475.732	57.619
479.731	82.633
483.728	23.637
487.723	31.64
491.716	80.468
495.708	60.228
499.697	48.073
503.685	6.26
507.671	49.121
511.655	116.537
515.637	163.553
519.617	150.358
523.596	181.604
527.572	275.371
531.547	498.138
535.52	862.292
539.491	1910.26
543.46	3410.36
547.427	2366.19
551.393	1077.86
555.356	532.358
559.318	291.847
563.278	238.005
567.236	221.686
571.192	270.349
575.147	274.909
579.099	415.868
583.05	502.749
586.999	472.551
590.946	441.279
594.891	369.934
598.834	287.516
602.776	362.027
606.715	458.399
610.653	442.288
614.589	309.057
618.523	252.864
622.456	203.766
626.386	143.958
630.315	125.778
634.242	85.253
638.167	100.815
642.09	104.386
646.012	37.854
649.931	1.665
653.849	14.412
657.765	4.622
661.679	22.328
665.592	37.177
669.502	68.313
673.411	63.597
677.318	21.075
681.223	4.765
685.126	29.63
689.028	7.63
692.927	13.273
696.825	37.115
700.721	65.896
704.616	8.656
708.508	34.411
712.399	14.186
716.288	119.016
720.175	141.876
724.06	102.76
727.944	85.654
731.825	103.569
735.705	205.489
739.584	205.417
743.46	202.362
747.334	195.324
751.207	262.304
755.078	289.314
758.947	363.374
762.815	435.493
766.68	451.663
770.544	539.886
774.406	607.233
778.267	806.704
782.125	927.254
785.982	988.849
789.837	1140.49
793.69	1432.18
797.542	1878.88
801.391	2448.59
805.239	3411.48
809.085	5078.27
812.93	8252.78
816.772	15388.7
820.613	33470.7
824.452	52443.1
828.29	37368.1
832.125	19444.8
835.959	11860.4
839.791	9056.72
843.621	8207.09
847.45	9387.26
851.277	14167.9
855.102	21819.1
858.925	20881.3
862.746	12243.6
866.566	7042.04
870.384	4258.91
874.2	2611.55
878.015	1858.29
881.828	1527.45
885.639	1213.42
889.448	959.515
893.256	727.795
897.061	571.855
900.865	446.37
904.668	525.176
908.468	550.025
912.267	665.969
916.064	1042.8
919.86	2019.3
923.653	1448.17
927.445	775.076
931.236	579.829
935.024	509.668
938.811	489.299
942.596	636.039
946.379	806.89
950.161	1213.3
953.94	1822.39
957.719	2557.59
961.495	3221.17
965.27	2811.68
969.043	2084.79
972.814	1343.74
976.583	836.917
980.351	534.478
984.117	298.135
987.882	149.705
991.644	11.023
995.405	13.444
999.165	107.518
1002.92	194.792
1006.68	31.045
1010.43	35.398
1014.18	55.16
1017.93	15.67
1021.68	19.905
1025.43	86.6
1029.18	88.385
1032.92	26.241
1036.66	22.163
1040.4	2.969
1044.14	20.882
1047.88	50.034
1051.62	38.277
1055.35	58.972
1059.08	33.307
1062.81	39.333
1066.54	25.954
1070.27	6.559
1073.99	19.831
1077.72	60.177
1081.44	54.54
1085.16	19.941
1088.88	10.395
1092.59	29.886
1096.31	0.585
1100.02	62.94
1103.73	90.442
1107.44	24.973
1111.15	99.569
1114.86	49.106
1118.57	14.362
1122.27	5.152
1125.97	120.674
1129.67	104.205
1133.37	116.029
1137.07	116.554
1140.76	67.185
1144.45	13.944
1148.15	10.612
1151.84	66.525
1155.53	139.099
1159.21	110.879
1162.9	138.921
1166.58	153.724
1170.26	85.477
1173.94	116.044
1177.62	54.564
1181.3	82.85
1184.97	122.3
1188.65	147.762
1192.32	153.697
1195.99	88.758
1199.66	19.19
1203.33	75.165
1206.99	80.68
1210.65	111.474
1214.32	167.316
1217.98	229.641
1221.64	200.045
1225.29	124.137
1228.95	122.323
1232.6	156.187
1236.26	107.747
1239.91	100.274
1243.56	133.58
1247.2	169.853
1250.85	162.286
1254.49	157.687
1258.13	108.79
1261.78	65.116
1265.41	88.712
1269.05	60.736
1272.69	56.936
1276.32	128.616
1279.95	129.25
1283.59	104.094
1287.21	85.326
1290.84	44.331
1294.47	7.289
1298.09	17.919
1301.72	19.364
1305.34	80.572
1308.96	85.674
1312.58	124.718
1316.19	111.671
1319.81	80.526
1323.42	46.285
1327.03	34.973
1330.64	19.581
1334.25	27.762
1337.86	2.665
1341.46	64.26
1345.07	83.157
1348.67	88.372
1352.27	65.754
1355.87	30.904
1359.46	48.018
1363.06	40.215
1366.65	91.359
1370.25	6.544
1373.84	5.67
1377.43	107.101
1381.02	130.787
1384.6	171.147
1388.18	168.507
1391.77	63.771
1395.35	83.079
1398.93	63.348
1402.51	38.213
1406.08	55.659
1409.66	90.871
1413.23	85.586
1416.8	177.079
1420.37	169.667
1423.94	147.477
1427.51	186.008
1431.08	122.655
1434.64	101.92
1438.2	65.836
1441.76	69.808
1445.32	140.066
1448.88	142.479
1452.43	242.351
1455.99	234.775
1459.54	258.994
1463.09	265.61
1466.64	256.21
1470.19	223.488
1473.74	72.2
1477.28	36.903
1480.83	80.253
1484.37	68.829
1487.91	66.737
1491.45	103.736
1494.98	131.061
1498.52	89.926
1502.05	167.425
1505.59	144.653
1509.12	152.484
1512.65	93.541
1516.17	52.845
1519.7	0
