Measurement: Raman, 514 nm, ccw, Raman Data Processed
Mineral: Forsterite
Rruff sample: R040018
Ideal chemistry: Mg_2_SiO_4_
Locality: Trudy's mine, San Carlos, Gila County, Arizona, USA
Source: Bob Downs
Description: Green fragments from xenoliths in a basalt flow
Measured chemistry: (Mg_1.81_Fe_0.18_Ni_0.01_)_Î£=2_Si_1.00_O_4_; trace amounts of Mn and Ca
Pin_id: M00006
Orientation: Laser parallel to c* (0 0 1). Fiducial mark perpendicular to laser is parallel to a [1 0 0]
Raman shift (cm-1)	intensity
126.063	0
130.228	57.297
134.39	68.389
138.55	103.733
142.709	61.308
146.865	52.292
151.019	98.643
155.171	72.34
159.322	8.266
163.47	21.339
167.617	60.53
171.761	156.756
175.904	106.427
180.044	123.431
184.183	201.686
188.319	103.139
192.454	47.249
196.586	32.508
200.717	45.262
204.846	44.151
208.972	138.092
213.097	176.171
217.22	350.3
221.341	692.457
225.46	981.551
229.577	710.607
233.692	524.649
237.805	502.607
241.916	385.478
246.025	314.234
250.132	164.718
254.237	151.002
258.34	187.231
262.442	134.448
266.541	129.636
270.639	109.905
274.734	108.828
278.828	80.179
282.919	21.907
287.009	62.74
291.097	173.528
295.183	191.299
299.266	199.5
303.348	341.922
307.428	378.969
311.507	267.086
315.583	371.292
319.657	604.457
323.729	1205.5
327.8	1613.62
331.868	1333.33
335.935	1250.98
339.999	1199.14
344.062	639.227
348.123	340.197
352.182	325.134
356.239	208.03
360.294	131.815
364.347	55.17
368.398	3.271
372.448	99.69
376.495	13.776
380.54	32.046
384.584	25.163
388.626	113.333
392.666	167.446
396.704	79.516
400.74	6.637
404.774	25.703
408.806	23.7
412.836	26.146
416.865	89.567
420.891	75.219
424.916	30.707
428.939	36.063
432.959	129.297
436.978	136.343
440.996	49.287
445.011	5.137
449.024	68.132
453.036	34.353
457.045	150.704
461.053	97.946
465.059	71.92
469.063	162.956
473.065	76.73
477.065	125.398
481.063	2.038
485.06	141.369
489.054	162.663
493.047	97.832
497.038	63.85
501.027	110.747
505.014	127.531
508.999	128.2
512.982	185.915
516.964	207.401
520.944	221.795
524.921	322.06
528.897	425.382
532.871	540.922
536.844	990.796
540.814	2313.51
544.783	2857.43
548.749	1573.1
552.714	677.025
556.677	406.183
560.638	331.873
564.597	249.493
568.555	251.598
572.511	167.768
576.464	306.527
580.416	332.367
584.366	277.655
588.315	355.761
592.261	295.43
596.206	416
600.148	366.206
604.089	337.527
608.028	502.573
611.965	423.229
615.901	487.87
619.834	504.332
623.766	730.521
627.696	992.936
631.624	655.254
635.551	337.51
639.475	338.065
643.398	439.657
647.318	651.563
651.237	771.724
655.155	632.684
659.07	424.281
662.984	215.697
666.895	47.101
670.805	58.403
674.713	59.614
678.62	10.737
682.524	8.39
686.427	57.877
690.328	127.721
694.227	8.073
698.124	118.757
702.02	30.244
705.913	0.944
709.805	27.989
713.695	33.354
717.584	115.034
721.47	66.639
725.355	48.441
729.238	39.453
733.119	277.592
736.998	265.65
740.876	123.771
744.752	191.944
748.626	280.125
752.498	378.304
756.368	326.501
760.237	304.749
764.104	363.077
767.969	371.475
771.832	449.916
775.693	678.39
779.553	686.926
783.411	705.548
787.267	854.209
791.122	992.915
794.974	1221.68
798.825	1620.51
802.674	2159.42
806.522	2928.45
810.367	4397.57
814.211	7556.76
818.053	15346
821.893	31415.2
825.732	37704.6
829.568	22544.1
833.403	12202.8
837.236	7861.47
841.068	6369.56
844.898	6231.99
848.726	7811.75
852.552	12408
856.376	16568.8
860.199	12868.1
864.02	7527.35
867.839	4248.02
871.656	2707.78
875.472	1965.09
879.286	1593.11
883.098	1135.16
886.909	907.582
890.717	820.025
894.524	646.296
898.33	649.9
902.133	662.92
905.935	666.209
909.735	611.724
913.533	497.417
917.33	581.395
921.124	705.778
924.918	509.961
928.709	426.541
932.499	438.892
936.286	373.643
940.073	538.586
943.857	703.723
947.64	1199.05
951.421	1524.57
955.2	2135.61
958.978	2901.51
962.753	3337.61
966.527	3003.9
970.3	2241.71
974.071	1188.38
977.84	565.902
981.607	403.554
985.372	132.283
989.136	95.902
992.898	53.818
996.659	162.115
1000.42	427.231
1004.17	683.531
1007.93	297.993
1011.68	2.095
1015.43	87.421
1019.18	217.182
1022.93	338.467
1026.68	364.812
1030.42	245.192
1034.17	45.741
1037.91	158.646
1041.65	79.468
1045.39	8.776
1049.12	152.227
1052.86	147.634
1056.59	159.104
1060.33	59.486
1064.06	7.628
1067.78	53.946
1071.51	145.681
1075.23	237.543
1078.96	259.516
1082.68	191.666
1086.4	303.96
1090.12	406.358
1093.83	198.854
1097.55	171.444
1101.26	154.121
1104.97	86.78
1108.68	109.462
1112.39	192.206
1116.1	24.992
1119.8	37.961
1123.5	240.821
1127.2	243.746
1130.9	126.669
1134.6	109.465
1138.3	12.058
1141.99	265.343
1145.69	147.038
1149.38	20.615
1153.07	121.67
1156.76	163.953
1160.44	296.217
1164.13	138.567
1167.81	9.152
1171.49	86.868
1175.17	35.357
1178.85	237.601
1182.52	149.853
1186.2	121.915
1189.87	224.862
1193.54	63.695
1197.21	81.778
1200.88	24.311
1204.55	216.8
1208.21	155.206
1211.88	267.392
1215.54	238.145
1219.2	237.773
1222.86	210.107
1226.51	177.765
1230.17	92.9
1233.82	255.398
1237.47	597.487
1241.12	639.552
1244.77	441.31
1248.42	482.709
1252.06	437.986
1255.71	288.596
1259.35	148.863
1262.99	77.275
1266.63	287.777
1270.26	657.704
1273.9	629.521
1277.53	476.931
1281.16	431.442
1284.8	311.406
1288.42	103.661
1292.05	195.008
1295.68	230.196
1299.3	329.951
1302.92	491.343
1306.55	517.97
1310.16	599.807
1313.78	561.303
1317.4	463.12
1321.01	404.695
1324.62	395.903
1328.24	376.964
1331.85	217.984
1335.45	269.138
1339.06	330.074
1342.66	211.327
1346.27	333.058
1349.87	386.078
1353.47	149.204
1357.07	42.932
1360.66	53.112
1364.26	241.593
1367.85	216.678
1371.44	232.321
1375.04	524.397
1378.62	451.559
1382.21	562.275
1385.8	449.637
1389.38	328.158
1392.96	230.635
1396.54	77.717
1400.12	227.902
1403.7	201.055
1407.28	100.145
1410.85	0
