Measurement: Raman, 514 nm, ccw, Raman Data Processed
Mineral: Forsterite
Rruff sample: R060535
Ideal chemistry: Mg_2_SiO_4_
Locality: unknown
Source: Gemological Institute of America
Description: Transparent brown gemstone
Measured chemistry: (Mg_1.81_Fe_0.18_Ni_0.01_)_Î£=2_Si_1.00_O_4_
Pin_id: L01269
Orientation: Laser parallel to a* (1 0 0). Fiducial mark perpendicular to laser is parallel to b [0 1 0]
Raman shift (cm-1)	intensity
208.836	0
213.735	133.767
218.631	316.144
223.524	330.977
228.414	197.637
233.302	162.253
238.186	91.3596
243.068	46.392
247.947	10.0068
252.823	8.58575
257.697	15.0239
262.567	36.9812
267.435	0.253296
272.3	29.9706
277.162	41.1392
282.021	52.8026
286.878	108.715
291.732	284.968
296.583	567.56
301.431	698.271
306.276	427.746
311.119	221.851
315.958	229.749
320.795	340.714
325.629	444.752
330.461	389.073
335.289	400.821
340.115	289.452
344.938	149.611
349.759	71.0382
354.576	58.1403
359.391	75.2692
364.203	51.8939
369.012	67.861
373.818	43.1188
378.622	49.2249
383.423	27.1052
388.221	19.5752
393.016	4.59033
397.809	0.934998
402.598	10.52
407.386	56.2478
412.17	111.776
416.951	149.047
421.73	135.702
426.506	78.5199
431.279	73.4111
436.05	104.299
440.818	34.1399
445.583	46.845
450.345	5.39923
455.105	52.895
459.861	3.64264
464.615	47.7698
469.367	27.1444
474.115	40.4807
478.861	28.768
483.604	7.98773
488.345	10.1878
493.082	11.313
497.817	35.8933
502.55	32.9396
507.279	32.3727
512.006	41.9576
516.73	44.6525
521.451	72.6073
526.17	113.146
530.886	176.434
535.599	351.482
540.31	551.755
545.017	380.851
549.723	145.571
554.425	74.8998
559.125	69.1328
563.822	49.9951
568.516	66.5883
573.207	117.559
577.896	172.438
582.583	248.225
587.266	255.889
591.947	246.34
596.625	216.807
601.3	238.876
605.973	287.11
610.643	199.006
615.311	129.212
619.975	106.246
624.637	51.0541
629.297	39.9275
633.953	44.7124
638.607	11.4907
643.259	24.0368
647.907	16.348
652.553	12.1313
657.197	26.5506
661.837	11.9111
666.475	3.46515
671.111	7.57684
675.743	29.523
680.373	21.7155
685.001	10.1045
689.625	32.6804
694.247	1.54791
698.867	1.28168
703.483	19.1683
708.097	10.8346
712.709	22.7958
717.318	32.7526
721.924	61.7097
726.527	106.672
731.128	101.644
735.726	114.632
740.322	163.663
744.915	159.738
749.505	175.875
754.093	224.063
758.678	176.297
763.26	205.591
767.84	213.907
772.417	243.301
776.992	289.138
781.564	298.402
786.133	266.127
790.7	318.453
795.264	331.199
799.825	442.61
804.384	722.064
808.94	1209.06
813.494	2482.43
818.045	5529.41
822.593	7940.78
827.139	5217.65
831.682	3441.62
836.223	3394.56
840.761	4745.02
845.296	9045.89
849.829	18186.3
854.359	24540.8
858.887	15805.5
863.412	7139.37
867.934	3486.36
872.454	2062.84
876.971	1577.37
881.486	1321.77
885.998	806.847
890.507	544.698
895.014	389.127
899.518	307.089
904.02	257.214
908.519	361.476
913.016	656.061
917.51	873.603
922.001	632.9
926.49	379.31
930.976	364.067
935.46	488.525
939.941	652.116
944.42	998.909
948.896	1452.43
953.369	2173.73
957.84	2892.67
962.309	2785.35
966.774	1747.99
971.238	899.081
975.698	487.783
980.156	257.682
984.612	133.601
989.065	67.8132
993.516	54.8862
997.964	56.0391
1002.41	63.4661
1006.85	11.253
1011.29	1.15015
1015.73	14.2208
1020.16	12.5448
1024.6	16.0731
1029.03	22.6592
1033.46	15.7725
1037.88	40.2402
1042.3	4.23633
1046.72	12.3058
1051.14	40.887
1055.56	22.4674
1059.97	10.9651
1064.38	6.36951
1068.79	28.0739
1073.19	17.2231
1077.59	18.6478
1081.99	10.6721
1086.39	24.308
1090.79	17.6029
1095.18	17.444
1099.57	25.2002
1103.95	47.9115
1108.34	21.5665
1112.72	59.186
1117.1	36.7645
1121.48	41.3225
1125.85	50.3491
1130.23	60.9722
1134.6	50.4039
1138.96	43.131
1143.33	81.4144
1147.69	33.2759
1152.05	54.3962
1156.41	56.1613
1160.76	99.4639
1165.11	72.5272
1169.46	73.8591
1173.81	66.6045
1178.16	37.4641
1182.5	69.2185
1186.84	87.5419
1191.18	50.0619
1195.51	22.5926
1199.84	34.9237
1204.17	19.1641
1208.5	69.7618
1212.83	61.7803
1217.15	67.7129
1221.47	65.9586
1225.79	44.6908
1230.1	72.9467
1234.41	59.4889
1238.73	36.5702
1243.03	60.4435
1247.34	25.4781
1251.64	47.0776
1255.94	28.8185
1260.24	59.5626
1264.54	42.3246
1268.83	31.9304
1273.12	17.67
1277.41	7.19543
1281.69	47.7692
1285.98	42.8989
1290.26	23.8171
1294.54	61.2165
1298.81	27.5247
1303.09	35.8125
1307.36	59.9431
1311.63	17.0166
1315.89	18.0685
1320.16	40.129
1324.42	27.2538
1328.68	42.2688
1332.93	54.2373
1337.19	18.267
1341.44	22.3328
1345.69	47.454
1349.94	58.5233
1354.18	38.6781
1358.42	9.75977
1362.66	59.7894
1366.9	10.7659
1371.13	63.6776
1375.37	59.5933
1379.6	84.4316
1383.82	24.5933
1388.05	70.3618
1392.27	31.2209
1396.49	65.0184
1400.71	16.8623
1404.92	2.83508
1409.14	59.7344
1413.35	38.2699
1417.56	26.855
1421.76	7.7196
1425.97	42.0387
1430.17	25.5987
1434.37	42.1136
1438.56	43.9564
1442.76	55.1313
1446.95	16.0605
1451.14	47.6793
1455.33	64.4398
1459.51	81.3391
1463.69	29.4318
1467.87	5.95642
1472.05	25.397
1476.22	50.9946
1480.4	37.1284
1484.57	61.7604
1488.73	78.0868
1492.9	98.8438
1497.06	84.0515
1501.22	32.5874
1505.38	41.0529
1509.54	74.5258
1513.69	6.04956
1517.84	58.4858
1521.99	52.8235
1526.14	44.312
1530.28	31.2565
1534.42	3.65332
1538.56	35.7633
1542.7	10.7262
1546.83	42.5316
1550.97	73.0343
1555.1	66.9457
1559.22	23.2517
1563.35	0
