Measurement: Raman, 514 nm, ccw, Raman Data Processed
Mineral: Forsterite
Rruff sample: R040018
Ideal chemistry: Mg_2_SiO_4_
Locality: Trudy's mine, San Carlos, Gila County, Arizona, USA
Source: Bob Downs
Description: Green fragments from xenoliths in a basalt flow
Measured chemistry: (Mg_1.81_Fe_0.18_Ni_0.01_)_Î£=2_Si_1.00_O_4_; trace amounts of Mn and Ca
Pin_id: M00002
Orientation: Laser parallel to -b* (0 -1 0). Fiducial mark perpendicular to laser is parallel to c [0 0 1]
Raman shift (cm-1)	intensity
49.365	0
53.566	105.242
57.765	185.945
61.962	377.124
66.157	416.874
70.349	321.471
74.54	243.485
78.729	132.836
82.916	14.239
87.101	20.636
91.284	11.853
95.465	3.26
99.644	89.182
103.82	102.108
107.995	148.381
112.168	346.024
116.339	304.811
120.508	249.303
124.675	181.074
128.84	182.97
133.003	219.008
137.164	223.717
141.323	223.073
145.48	222.848
149.635	253.644
153.788	238.697
157.939	222.605
162.088	210.967
166.235	193.363
170.38	163.937
174.523	171.556
178.664	152.325
182.803	132.177
186.94	121.091
191.076	170.085
195.209	176.142
199.34	204.253
203.47	222.392
207.597	276.566
211.722	364.778
215.846	616.086
219.967	1009.95
224.087	1246.53
228.204	927.167
232.32	621.327
236.434	473.148
240.545	275.494
244.655	180.857
248.763	135.785
252.869	134.571
256.973	49.396
261.075	39.746
265.175	50.315
269.273	99.131
273.369	98.552
277.463	60.911
281.556	129.339
285.646	132.923
289.734	166.538
293.821	349.658
297.905	816.239
301.988	1507.65
306.069	1462.28
310.147	769.044
314.224	477.668
318.299	423.356
322.372	540.847
326.443	872.43
330.512	826.253
334.579	751.91
338.645	857.884
342.708	776.752
346.769	450.505
350.829	266.091
354.887	144.818
358.942	147.651
362.996	128.548
367.048	94.519
371.098	78.536
375.146	118.585
379.192	82.626
383.236	61.594
387.279	10.531
391.319	15.239
395.358	20.891
399.394	3.589
403.429	22.942
407.462	69.787
411.493	144.221
415.522	236.541
419.549	307.744
423.575	201.84
427.598	159.998
431.619	125.339
435.639	110.442
439.657	132.427
443.673	76.7
447.687	62.048
451.699	11.383
455.709	10.66
459.717	41.862
463.724	26.968
467.728	25.995
471.731	23.957
475.732	63.864
479.731	57.159
483.728	35.719
487.723	4.581
491.716	15.19
495.708	52.758
499.697	34.565
503.685	28.676
507.671	58.942
511.655	107.991
515.637	120.381
519.617	124.921
523.596	169.915
527.572	202.262
531.547	270.357
535.52	425.876
539.491	787.151
543.46	1292.1
547.427	911.343
551.393	378.102
555.356	132.044
559.318	51.414
563.278	41.545
567.236	111.219
571.192	110.196
575.147	50.115
579.099	99.951
583.05	225.709
586.999	304.391
590.946	364.994
594.891	300.52
598.834	264.971
602.776	410.344
606.715	502.5
610.653	467.35
614.589	376.84
618.523	259.969
622.456	188.016
626.386	83.838
630.315	56.448
634.242	40.243
638.167	90.784
642.09	60.365
646.012	17.695
649.931	26.118
653.849	22.218
657.765	3.055
661.679	24.659
665.592	0.545
669.502	47.929
673.411	10.41
677.318	13.009
681.223	20.191
685.126	23.796
689.028	23.942
692.927	0.795
696.825	12.454
700.721	39.017
704.616	38.51
708.508	2.979
712.399	12.527
716.288	53.857
720.175	62.146
724.06	81.457
727.944	58.92
731.825	69.299
735.705	123.877
739.584	149.466
743.46	148.068
747.334	120.683
751.207	151.316
755.078	218.971
758.947	248.656
762.815	252.384
766.68	257.167
770.544	287.003
774.406	357.908
778.267	431.902
782.125	499.99
785.982	482.151
789.837	534.36
793.69	665.239
797.542	861.855
801.391	1041.07
805.239	1382.32
809.085	1906.47
812.93	2937.03
816.772	5223.16
820.613	11026.6
824.452	17663
828.29	13554.4
832.125	8442.2
835.959	6891.53
839.791	7481.23
843.621	9867.69
847.45	15260.3
851.277	28460.7
855.102	48763.2
858.925	48785.6
862.746	28099.6
866.566	14744.3
870.384	8408.71
874.2	5149.27
878.015	3585.95
881.828	2998.76
885.639	2508.71
889.448	1850.56
893.256	1349.77
897.061	1136.16
900.865	949.665
904.668	947.311
908.468	940.364
912.267	1119.86
916.064	1503.87
919.86	2456.07
923.653	1925.94
927.445	1283.44
931.236	1154.41
935.024	1241.62
938.811	1382.37
942.596	1640.69
946.379	2159.92
950.161	2978.75
953.94	4359.38
957.719	5933.35
961.495	7000.52
965.27	6040.84
969.043	4200.65
972.814	2646.84
976.583	1566.99
980.351	969.486
984.117	580.459
987.882	320.322
991.644	206.78
995.405	161.994
999.165	174.383
1002.92	198.887
1006.68	149.524
1010.43	35.29
1014.18	34.835
1017.93	27.114
1021.68	27.177
1025.43	105.34
1029.18	86.605
1032.92	77.956
1036.66	27.604
1040.4	1.892
1044.14	2.485
1047.88	84.6
1051.62	55.978
1055.35	123.782
1059.08	41.636
1062.81	24.472
1066.54	43.56
1070.27	5.656
1073.99	16.721
1077.72	36.213
1081.44	74.121
1085.16	15.992
1088.88	6.142
1092.59	62.268
1096.31	0.533
1100.02	9.318
1103.73	61.055
1107.44	57.873
1111.15	51.632
1114.86	36.225
1118.57	24.275
1122.27	7.713
1125.97	79.072
1129.67	91.88
1133.37	98.344
1137.07	128.994
1140.76	33.208
1144.45	17.595
1148.15	67.022
1151.84	98.721
1155.53	133.049
1159.21	187.462
1162.9	214.06
1166.58	135.206
1170.26	94.071
1173.94	41.928
1177.62	75.238
1181.3	80.917
1184.97	130.746
1188.65	117.602
1192.32	103.505
1195.99	95.029
1199.66	62.997
1203.33	48.779
1206.99	78.062
1210.65	96.498
1214.32	126.962
1217.98	203.13
1221.64	164.323
1225.29	131.279
1228.95	90.282
1232.6	80.084
1236.26	99.829
1239.91	104.258
1243.56	110.411
1247.2	137.047
1250.85	164.846
1254.49	144.082
1258.13	80.208
1261.78	19.056
1265.41	45.323
1269.05	38.802
1272.69	90.21
1276.32	120.444
1279.95	96.239
1283.59	92.223
1287.21	95.804
1290.84	11.469
1294.47	2.956
1298.09	10.514
1301.72	23.082
1305.34	11.367
1308.96	80.643
1312.58	92.753
1316.19	82.756
1319.81	68.647
1323.42	56.405
1327.03	12.965
1330.64	14.411
1334.25	5.763
1337.86	11.96
1341.46	72.682
1345.07	124.073
1348.67	106.009
1352.27	112.936
1355.87	83.718
1359.46	53.813
1363.06	68.521
1366.65	37.161
1370.25	31.752
1373.84	68.297
1377.43	111.863
1381.02	127.948
1384.6	152.162
1388.18	127.269
1391.77	102.863
1395.35	70.638
1398.93	57.316
1402.51	10.396
1406.08	69.33
1409.66	30.843
1413.23	99.109
1416.8	147.858
1420.37	132.136
1423.94	116.265
1427.51	104.383
1431.08	82.594
1434.64	42.639
1438.2	35.925
1441.76	5.051
1445.32	50.092
1448.88	118.692
1452.43	138.036
1455.99	176.005
1459.54	188.718
1463.09	165.004
1466.64	164.708
1470.19	125.734
1473.74	96.561
1477.28	44.458
1480.83	19.035
1484.37	49.746
1487.91	35.498
1491.45	48.286
1494.98	65.386
1498.52	126.398
1502.05	144.652
1505.59	143.461
1509.12	128.381
1512.65	111.259
1516.17	68.486
1519.7	0.285
