Measurement: Raman, 514 nm, ccw, Raman Data Processed
Mineral: Forsterite
Rruff sample: R040057
Ideal chemistry: Mg_2_SiO_4_
Locality: Trudy's mine, San Carlos, Gila County, Arizona, USA
Source: Bob Downs
Description: Dark green crystal fragments from xenoliths in a basalt flow
Measured chemistry: (Mg_1.67_Fe_0.32_Ni_0.01_)_Î£=2_Si_1.00_O_4_; trace amounts of Mn and Ca
Pin_id: L00449
Orientation: Laser parallel to b* (0 1 0). Fiducial mark perpendicular to laser is parallel to a [1 0 0]
Raman shift (cm-1)	intensity
94.768	0
98.947	4.187
103.124	33.273
107.3	194.823
111.473	55.046
115.644	546.715
119.813	342.118
123.981	139.391
128.146	118.761
132.309	106.858
136.47	193.92
140.63	247.547
144.787	281.1
148.942	282.332
153.096	231.094
157.247	199.33
161.396	195.163
165.544	200.074
169.689	127.119
173.833	129.384
177.974	188.484
182.114	142.004
186.251	140.4
190.387	82.393
194.52	66.646
198.652	194.53
202.782	244.717
206.909	480.945
211.035	572.188
215.159	594.435
219.281	479.641
223.4	364.891
227.518	303.636
231.634	268.196
235.748	279.53
239.86	171.742
243.97	115.155
248.079	48.894
252.185	0.987
256.289	2.99
260.391	24.01
264.492	37.533
268.59	33.406
272.687	0.92
276.781	31.384
280.874	55.933
284.964	300.862
289.053	683.479
293.14	1286.03
297.225	2005.44
301.308	1884.13
305.389	1590.84
309.468	1720.45
313.545	1875.49
317.62	1766.01
321.693	1537.51
325.765	1278.55
329.834	970.339
333.902	793.147
337.967	569.619
342.031	399.089
346.093	210.746
350.153	135.288
354.21	93.559
358.267	79.058
362.321	59.319
366.373	0.616
370.423	98.836
374.471	85.985
378.518	14.097
382.563	40.148
386.605	62.046
390.646	50.871
394.685	104.517
398.722	259.003
402.757	447.306
406.79	846.409
410.821	1174.34
414.851	1537.49
418.878	2273.35
422.904	3353.28
426.927	2738.21
430.949	1213.29
434.969	596.03
438.987	259.651
443.003	115.201
447.018	6.539
451.03	3.187
455.041	23.627
459.049	30.291
463.056	27.614
467.061	59.218
471.064	60.568
475.065	38.67
479.064	52.578
483.062	76.847
487.057	72.096
491.051	48.307
495.043	97.887
499.032	70.304
503.02	66.244
507.007	138.608
510.991	231.592
514.973	139.641
518.954	276.438
522.933	380.233
526.91	518.094
530.885	920.107
534.858	1598.4
538.829	2019.89
542.799	1284.96
546.766	720.743
550.732	495.954
554.696	451.479
558.658	451.312
562.618	537.028
566.576	755.099
570.533	1183.92
574.488	1461.45
578.44	1519.72
582.391	1308.76
586.341	1189.59
590.288	1495.23
594.233	2199.63
598.177	2924.77
602.119	3110.53
606.059	2517.92
609.997	1721.37
613.933	1201.48
617.868	841.03
621.801	626.165
625.731	401.486
629.66	220.333
633.588	175.271
637.513	127.671
641.437	110.745
645.358	97.834
649.278	2.27
653.196	13.561
657.113	22.016
661.027	10.125
664.94	62.346
668.851	30.363
672.76	23.982
676.667	47.736
680.572	103.963
684.476	21.332
688.378	8.363
692.278	124.892
696.176	72.413
700.072	19.489
703.967	30.584
707.86	87.981
711.751	154.455
715.64	2.224
719.527	131.975
723.413	55.071
727.297	59.069
731.179	95.976
735.059	125.798
738.937	316.542
742.814	248.211
746.689	190.811
750.562	453.348
754.433	449.826
758.303	497.258
762.17	688.669
766.036	785.096
769.901	846.616
773.763	808.238
777.624	1043.95
781.482	1176.75
785.339	1432.58
789.195	1607.41
793.048	2164.04
796.9	2881.3
800.75	3763.42
804.598	5399.56
808.445	8645.82
812.289	15320.9
816.132	30644.4
819.973	50741.2
823.813	43921.8
827.65	26436.5
831.486	17665.9
835.32	14305
839.152	13212.8
842.983	15305.7
846.812	22466.4
850.639	33469.5
854.464	34922.6
858.288	24112.5
862.11	15293.4
865.93	9636.76
869.748	5779.53
873.564	3810.03
877.379	2834.68
881.192	1918.49
885.004	1355.47
888.813	1001.37
892.621	786.911
896.427	598.372
900.232	450.994
904.034	456.78
907.835	537.812
911.634	550.212
915.432	664.011
919.227	567.19
923.021	596.253
926.813	408.699
930.604	636.074
934.393	771.159
938.18	957.479
941.965	1266.87
945.749	2043.53
949.53	2932.73
953.311	3969.07
957.089	4884.85
960.866	4535.47
964.641	3762.64
968.414	2876.86
972.185	2048.84
975.955	1401.02
979.723	949.88
983.49	756.691
987.254	536.938
991.017	566.651
994.779	514.971
998.538	291.765
1002.3	429.184
1006.05	297.97
1009.81	201.224
1013.56	234.041
1017.31	264.931
1021.06	169.452
1024.81	138.035
1028.55	248.137
1032.3	245.286
1036.04	176.66
1039.78	605.888
1043.52	575.244
1047.26	302.526
1050.99	194.1
1054.73	18.558
1058.46	13.214
1062.19	83.708
1065.92	31.8
1069.65	18.366
1073.37	8.981
1077.1	37.31
1080.82	61.547
1084.54	46.324
1088.26	25.727
1091.97	9.755
1095.69	92.287
1099.4	67.408
1103.12	39.966
1106.83	77.49
1110.54	58.003
1114.24	37.808
1117.95	10.978
1121.65	304.262
1125.35	112.441
1129.06	34.264
1132.75	35.966
1136.45	48.176
1140.15	5.158
1143.84	154.331
1147.53	48.156
1151.22	46.752
1154.91	106.281
1158.6	9.869
1162.28	64.904
1165.97	38.328
1169.65	108.977
1173.33	174.824
1177.01	26.92
1180.69	68.63
1184.36	164.101
1188.04	173.936
1191.71	235.833
1195.38	147.454
1199.05	287.974
1202.71	119.304
1206.38	354.471
1210.04	272.873
1213.71	189.286
1217.37	377.259
1221.03	270.427
1224.68	304.62
1228.34	325.863
1231.99	213.294
1235.65	291.621
1239.3	331.775
1242.95	218.32
1246.59	307.003
1250.24	214.808
1253.88	163.872
1257.53	36.927
1261.17	128.146
1264.81	95.33
1268.45	148.93
1272.08	142.204
1275.72	254.738
1279.35	107.394
1282.98	67.547
1286.61	46.843
1290.24	6.317
1293.87	49.168
1297.49	41.204
1301.11	66.032
1304.73	79.238
1308.36	29.436
1311.97	12.667
1315.59	91.821
1319.2	35.414
1322.82	100.225
1326.43	71.822
1330.04	26.493
1333.65	143.954
1337.26	197.229
1340.86	70.356
1344.47	136.401
1348.07	116.171
1351.67	97.026
1355.27	36.819
1358.87	191.576
1362.46	112.105
1366.06	157.324
1369.65	222.218
1373.24	156.922
1376.83	225.227
1380.42	266.379
1384	341.775
1387.59	264.14
1391.17	232.191
1394.75	179.013
1398.33	239.265
1401.91	242.314
1405.49	301.788
1409.06	272.977
1412.64	294.431
1416.21	257.629
1419.78	267.642
1423.35	248.659
1426.91	217.627
1430.48	172.218
1434.05	280.217
1437.61	278.413
1441.17	379.748
1444.73	314.234
1448.29	420.793
1451.84	446.121
1455.4	471.431
1458.95	504.649
1462.5	320.832
1466.05	443.994
1469.6	297.048
1473.15	294.585
1476.69	238.292
1480.24	409.54
1483.78	220.103
1487.32	377.039
1490.86	141.608
1494.39	188.233
1497.93	266.166
1501.46	39.496
1505	244.653
1508.53	154.425
1512.06	153.761
1515.59	194.567
1519.11	0.407
