Measurement: Raman, 514 nm, ccw, Raman Data Processed
Mineral: Forsterite
Rruff sample: R040018
Ideal chemistry: Mg_2_SiO_4_
Locality: Trudy's mine, San Carlos, Gila County, Arizona, USA
Source: Bob Downs
Description: Green fragments from xenoliths in a basalt flow
Measured chemistry: (Mg_1.81_Fe_0.18_Ni_0.01_)_Î£=2_Si_1.00_O_4_; trace amounts of Mn and Ca
Pin_id: M00008
Orientation: Laser parallel to a* (1 0 0). Fiducial mark perpendicular to laser is parallel to b [0 1 0]
Raman shift (cm-1)	intensity
49.365	0
53.566	46.386
57.765	186.18
61.962	368.921
66.157	534.655
70.349	469.898
74.54	459.465
78.729	326.301
82.916	149.496
87.101	51.818
91.284	64.888
95.465	21.682
99.644	215.402
103.82	452.155
107.995	618.339
112.168	902.568
116.339	904.945
120.508	2139.37
124.675	1098.19
128.84	733.373
133.003	673.927
137.164	673.285
141.323	631.315
145.48	592.668
149.635	613.089
153.788	523.159
157.939	539.42
162.088	541.756
166.235	546.289
170.38	451.112
174.523	473.419
178.664	532.013
182.803	538.785
186.94	577.718
191.076	511.8
195.209	406.155
199.34	370.681
203.47	407.339
207.597	407.134
211.722	502.071
215.846	769.964
219.967	1218.61
224.087	1613.97
228.204	1513.64
232.32	1223.8
236.434	1004.33
240.545	783.234
244.655	596.838
248.763	402.188
252.869	399.808
256.973	291.176
261.075	253.661
265.175	300.666
269.273	288.746
273.369	204.96
277.463	164.303
281.556	206.769
285.646	248.601
289.734	223.074
293.821	273.053
297.905	435.423
301.988	656.921
306.069	650.236
310.147	438.356
314.224	524.83
318.299	722.364
322.372	1359.82
326.443	2333.26
330.512	2374.78
334.579	1975.93
338.645	1813.56
342.708	1254.34
346.769	621.231
350.829	340.26
354.887	236.393
358.942	143.68
362.996	138.121
367.048	120.713
371.098	125.436
375.146	108.278
379.192	101.207
383.236	48.142
387.279	47.088
391.319	43.009
395.358	47.91
399.394	26.184
403.429	2.276
407.462	36.651
411.493	36.617
415.522	55.706
419.549	146.904
423.575	109.323
427.598	117.824
431.619	240.341
435.639	84.865
439.657	68.393
443.673	33.923
447.687	5.562
451.699	16.165
455.709	35.895
459.717	3.733
463.724	40.381
467.728	47.453
471.731	6.502
475.732	67.527
479.731	78.484
483.728	61.02
487.723	30.792
491.716	52.281
495.708	28.495
499.697	15.36
503.685	81.949
507.671	84.1
511.655	127.713
515.637	190.492
519.617	203.624
523.596	253.944
527.572	377.532
531.547	645.77
535.52	1173.33
539.491	2507.87
543.46	4201.39
547.427	2945.75
551.393	1291.59
555.356	636.342
559.318	298.704
563.278	231.124
567.236	238.085
571.192	220.468
575.147	222.773
579.099	203.984
583.05	269.101
586.999	401.121
590.946	428.044
594.891	370.871
598.834	309.601
602.776	272.235
606.715	332.245
610.653	279.484
614.589	218.542
618.523	231.904
622.456	247.792
626.386	271.671
630.315	144.608
634.242	13.355
638.167	116.923
642.09	14.57
646.012	148.205
649.931	101.505
653.849	106.698
657.765	32.096
661.679	82.375
665.592	21.356
669.502	24.126
673.411	48.301
677.318	45.026
681.223	4.049
685.126	24.663
689.028	16.841
692.927	60.563
696.825	7.511
700.721	26.422
704.616	44.199
708.508	34.938
712.399	12.332
716.288	37.351
720.175	58.021
724.06	92.679
727.944	126.319
731.825	46.926
735.705	173.576
739.584	188.219
743.46	247.883
747.334	258.559
751.207	281.239
755.078	336.953
758.947	451.736
762.815	482.58
766.68	573.573
770.544	553.656
774.406	672.8
778.267	884.997
782.125	1052.24
785.982	1135.51
789.837	1368.9
793.69	1583.23
797.542	2051.27
801.391	2718.75
805.239	3814.36
809.085	5774.1
812.93	9283.72
816.772	17515.4
820.613	37848.7
824.452	58815.2
828.29	42075.1
832.125	21617.1
835.959	12830.3
839.791	9623.72
843.621	8707.68
847.45	9921.48
851.277	15150.3
855.102	22766
858.925	21405.8
862.746	12289.7
866.566	6670.38
870.384	3956.04
874.2	2470.85
878.015	1746.79
881.828	1469.78
885.639	1216.5
889.448	972.885
893.256	782.432
897.061	650.792
900.865	538.676
904.668	624.441
908.468	723.195
912.267	901.994
916.064	1387.7
919.86	2476.97
923.653	1799.88
927.445	886.098
931.236	696.209
935.024	684.474
938.811	783.889
942.596	863.462
946.379	1249.2
950.161	1705.76
953.94	2633.05
957.719	3809.26
961.495	4924.61
965.27	4422.92
969.043	3148.38
972.814	2017.56
976.583	1248.74
980.351	691.714
984.117	524.381
987.882	256.69
991.644	142.79
995.405	6.182
999.165	84.806
1002.92	348.473
1006.68	199.524
1010.43	103.748
1014.18	24.058
1017.93	26.501
1021.68	66.224
1025.43	90.002
1029.18	232.816
1032.92	175.726
1036.66	43.707
1040.4	11.396
1044.14	65.953
1047.88	44.336
1051.62	79.042
1055.35	41.703
1059.08	61.441
1062.81	51.162
1066.54	76.085
1070.27	31.646
1073.99	15.452
1077.72	156.319
1081.44	156.266
1085.16	162.304
1088.88	162.417
1092.59	123.587
1096.31	8.19
1100.02	23.953
1103.73	22.216
1107.44	230.364
1111.15	169.558
1114.86	136.746
1118.57	28.063
1122.27	51.087
1125.97	90.26
1129.67	126.414
1133.37	125.676
1137.07	190.776
1140.76	142.806
1144.45	29.737
1148.15	34.206
1151.84	107.363
1155.53	86.531
1159.21	146.318
1162.9	299.924
1166.58	304.699
1170.26	207.755
1173.94	107.793
1177.62	54.495
1181.3	123.286
1184.97	59.403
1188.65	210.243
1192.32	247.387
1195.99	174.521
1199.66	168.739
1203.33	182.68
1206.99	99.875
1210.65	56.4
1214.32	99.75
1217.98	242.229
1221.64	321.091
1225.29	207.633
1228.95	288.78
1232.6	236.092
1236.26	193.744
1239.91	229.325
1243.56	186.329
1247.2	271.264
1250.85	320.778
1254.49	208.702
1258.13	298.983
1261.78	148.242
1265.41	93.957
1269.05	93.801
1272.69	113.728
1276.32	254.456
1279.95	191.363
1283.59	214.637
1287.21	167.789
1290.84	182.987
1294.47	119.022
1298.09	43.709
1301.72	4.742
1305.34	31.657
1308.96	13.903
1312.58	152.014
1316.19	296.876
1319.81	306.67
1323.42	242.392
1327.03	252.996
1330.64	48.438
1334.25	2.105
1337.86	80.223
1341.46	31.271
1345.07	55.228
1348.67	199.806
1352.27	197.299
1355.87	100.753
1359.46	117.184
1363.06	94.675
1366.65	89.115
1370.25	21.376
1373.84	15.767
1377.43	84.482
1381.02	219.802
1384.6	320.398
1388.18	356.033
1391.77	286.605
1395.35	230.14
1398.93	104.62
1402.51	3.724
1406.08	39.046
1409.66	43.75
1413.23	126.157
1416.8	310.951
1420.37	318.073
1423.94	303.478
1427.51	429.402
1431.08	329.129
1434.64	277.099
1438.2	158.637
1441.76	221.848
1445.32	275.333
1448.88	325.187
1452.43	392.713
1455.99	477.942
1459.54	590.48
1463.09	564.685
1466.64	546.474
1470.19	527.788
1473.74	355.729
1477.28	191.25
1480.83	172.459
1484.37	158.024
1487.91	96.073
1491.45	131.198
1494.98	115.932
1498.52	262.977
1502.05	233.089
1505.59	357.041
1509.12	335.914
1512.65	363.349
1516.17	371.67
1519.7	263.908
