Measurement: Raman, 514 nm, ccw, Raman Data Processed
Mineral: Forsterite
Rruff sample: R040018
Ideal chemistry: Mg_2_SiO_4_
Locality: Trudy's mine, San Carlos, Gila County, Arizona, USA
Source: Bob Downs
Description: Green fragments from xenoliths in a basalt flow
Measured chemistry: (Mg_1.81_Fe_0.18_Ni_0.01_)_Î£=2_Si_1.00_O_4_; trace amounts of Mn and Ca
Pin_id: M00006
Orientation: Laser parallel to c* (0 0 1). Fiducial mark perpendicular to laser is parallel to a [1 0 0]
Raman shift (cm-1)	intensity
119.119	0
123.286	30.171
127.452	78.739
131.615	149.054
135.777	220.658
139.937	219.499
144.094	178.933
148.25	291.306
152.403	319.663
156.555	169.708
160.705	148.646
164.853	162.413
168.998	138.442
173.142	129.444
177.284	139.994
181.424	172.087
185.562	129.574
189.698	29.875
193.831	14.083
197.963	55.465
202.093	51.565
206.221	41.4
210.347	34.206
214.472	122.391
218.594	231.677
222.714	269.106
226.832	341.862
230.948	285.054
235.063	172.383
239.175	171.01
243.286	219.006
247.394	137.45
251.501	7.094
255.605	66.921
259.708	24.671
263.808	74.517
267.907	131.022
272.004	59.461
276.099	88.819
280.192	30.101
284.283	160.129
288.372	95.473
292.459	113.73
296.544	437.219
300.627	1024.42
304.709	1377.01
308.788	854.001
312.865	573.154
316.941	588.877
321.015	638.592
325.086	607.64
329.156	754.676
333.224	571.132
337.29	509.036
341.354	281.879
345.416	163.989
349.476	188.91
353.534	136.017
357.591	36.854
361.645	54.48
365.698	2.938
369.748	52.626
373.797	18.196
377.844	25.039
381.889	110.089
385.932	41.187
389.973	38.188
394.012	35.21
398.049	72.315
402.084	73.519
406.118	42.395
410.15	91.113
414.179	239.626
418.207	448.053
422.233	345.275
426.257	603.346
430.279	1111.25
434.299	889.005
438.318	306.601
442.334	73.724
446.349	9.009
450.361	118.036
454.372	14.801
458.381	38.679
462.388	2.46
466.394	143.47
470.397	179.19
474.398	174.729
478.398	40.071
482.396	35.169
486.391	90.017
490.385	14.56
494.377	51.25
498.368	112.539
502.356	86.053
506.342	139.546
510.327	26.894
514.31	86.613
518.291	128.314
522.27	151.138
526.247	96.973
530.222	240.755
534.196	192.616
538.167	627.779
542.137	789.399
546.105	692.61
550.071	438.965
554.035	460.312
557.998	396.827
561.958	319.874
565.917	270.016
569.874	407.73
573.829	667.965
577.782	846.646
581.733	785.074
585.683	783.239
589.63	801.14
593.576	1028.78
597.52	1136.16
601.462	1713.15
605.402	2476.4
609.341	2460.74
613.277	1599.8
617.212	1070.9
621.145	912.025
625.076	1005.9
629.006	1071.17
632.933	616.156
636.859	459.945
640.783	392.063
644.705	525.494
648.625	682.634
652.543	557.588
656.46	389.594
660.375	169.694
664.288	201.637
668.199	229.939
672.108	72.254
676.016	5.669
679.921	123.232
683.825	8.174
687.727	119.849
691.628	41.203
695.526	107.664
699.423	3.058
703.318	83.535
707.211	66.2
711.102	83.619
714.992	27.099
718.879	38.264
722.765	40.496
726.649	248.989
730.532	287.288
734.412	135.474
738.291	143.561
742.168	111.554
746.043	219.461
749.916	287.288
753.788	235.038
757.658	182.719
761.526	310.372
765.392	438.017
769.257	495.701
773.119	533.376
776.98	341.078
780.839	518.79
784.697	596.48
788.552	754.145
792.406	841.795
796.258	1009.47
800.108	1227.16
803.957	1624.99
807.804	2372.94
811.649	3810.96
815.492	6408.97
819.333	13016.9
823.173	25104.5
827.011	23101.4
830.847	13486.6
834.681	8514.33
838.514	6566.22
842.345	5884.26
846.174	6571.3
850.001	10250.3
853.827	17656.1
857.651	21254.2
861.473	14655
865.293	9058.75
869.112	5639.3
872.928	3483.6
876.744	2349.42
880.557	1505.02
884.369	1364.2
888.178	944.662
891.987	865.268
895.793	896.01
899.598	766.891
903.401	597.914
907.202	359.123
911.001	351.391
914.799	662.895
918.595	594.572
922.389	396.369
926.182	238.311
929.972	230.4
933.761	462.637
937.549	485.021
941.334	637.553
945.118	730.234
948.9	904.381
952.681	1167.36
956.459	1987.83
960.236	3051.14
964.012	3434.67
967.785	3028.22
971.557	1802
975.327	1095.85
979.095	599.842
982.862	338.268
986.627	419.078
990.39	411.783
994.152	299.189
997.912	128.521
1001.67	529.92
1005.43	725.307
1009.18	331.041
1012.93	127.092
1016.68	186
1020.43	182.266
1024.18	467.564
1027.93	247.248
1031.67	294.273
1035.42	261.068
1039.16	312.258
1042.9	239.643
1046.63	167.08
1050.37	4.508
1054.11	75.281
1057.84	173.121
1061.57	151.016
1065.3	378.66
1069.03	306.635
1072.75	54.408
1076.47	52.227
1080.2	160.117
1083.92	478.055
1087.64	696.033
1091.36	364.053
1095.07	282.102
1098.79	80.133
1102.5	121.834
1106.21	136.004
1109.92	183.834
1113.62	221.662
1117.33	309.488
1121.04	87.285
1124.74	315.057
1128.44	57.209
1132.14	89.625
1135.83	17.73
1139.53	324.914
1143.22	454.924
1146.92	353.111
1150.61	229.857
1154.3	56.65
1157.98	22.674
1161.67	16.258
1165.35	343.047
1169.04	268.859
1172.72	364.529
1176.4	310.043
1180.07	165.484
1183.75	39.318
1187.42	65.945
1191.1	151.834
1194.77	121.27
1198.44	266.234
1202.1	583.23
1205.77	538.885
1209.43	293.605
1213.1	128.281
1216.76	355.566
1220.42	430.172
1224.07	344.541
1227.73	581.713
1231.38	836.562
1235.04	691.592
1238.69	655.805
1242.34	379.088
1245.99	370.906
1249.63	656.105
1253.28	588.289
1256.92	670.043
1260.56	973.465
1264.2	804.402
1267.84	595.68
1271.48	515.824
1275.11	431.312
1278.74	275.887
1282.38	431.76
1286.01	477.166
1289.63	251.326
1293.26	435.793
1296.89	697.455
1300.51	222.012
1304.13	242.334
1307.75	260.896
1311.37	283.912
1314.99	342.594
1318.6	474.338
1322.22	606.221
1325.83	698.178
1329.44	569.766
1333.05	541.047
1336.66	72.104
1340.26	106.799
1343.87	145.766
1347.47	105.105
1351.07	115.961
1354.67	347.238
1358.27	342.961
1361.86	534.84
1365.46	536.652
1369.05	366.975
1372.64	220.605
1376.23	124.463
1379.82	258.506
1383.41	563.764
1386.99	215.697
1390.57	556.85
1394.16	907.658
1397.74	536.629
1401.32	657.146
1404.89	482.807
1408.47	351.777
1412.04	211.684
1415.61	94.664
1419.18	9.225
1422.75	41.959
