Measurement: Raman, 514 nm, ccw, Raman Data Processed
Mineral: Forsterite
Rruff sample: R040057
Ideal chemistry: Mg_2_SiO_4_
Locality: Trudy's mine, San Carlos, Gila County, Arizona, USA
Source: Bob Downs
Description: Dark green crystal fragments from xenoliths in a basalt flow
Measured chemistry: (Mg_1.67_Fe_0.32_Ni_0.01_)_Î£=2_Si_1.00_O_4_; trace amounts of Mn and Ca
Pin_id: L00065
Orientation: Laser parallel to -a* (-1 0 0). Fiducial mark perpendicular to laser is parallel to c [0 0 1]
Raman shift (cm-1)	intensity
87.798	0
91.981	42.844
96.161	45.231
100.34	0.237
104.516	58.691
108.691	56.043
112.864	110.397
117.034	126.484
121.203	151.071
125.369	59.343
129.534	56.841
133.696	7.327
137.857	62.772
142.016	21.106
146.172	24.632
150.327	22.716
154.48	17.028
158.63	35.846
162.779	5.244
166.926	56.002
171.07	54.565
175.213	103.18
179.354	161.831
183.493	173.518
187.63	102.245
191.765	105.183
195.898	153.122
200.029	153.014
204.158	179.727
208.285	345.366
212.41	534.967
216.533	721.549
220.654	807.117
224.773	724.683
228.891	676.253
233.006	621.832
237.119	526.623
241.231	473.88
245.34	303.964
249.448	222.679
253.553	187.699
257.657	120.128
261.758	107.374
265.858	109.49
269.956	134.82
274.052	132.974
278.146	163.316
282.237	189.548
286.327	205.931
290.416	326.442
294.502	445.939
298.586	540.448
302.668	436.157
306.749	416.736
310.827	595.029
314.903	964.021
318.978	1554.18
323.051	1930.62
327.121	1780.62
331.19	1553.05
335.257	1338.47
339.322	846.923
343.385	465.391
347.446	355.997
351.505	192.496
355.563	168.168
359.618	82.916
363.672	126.709
367.723	116.519
371.773	68.358
375.821	73.18
379.866	8.972
383.91	14.271
387.952	8.415
391.992	18.041
396.031	12.405
400.067	36.017
404.101	26.332
408.134	12.501
412.165	40.858
416.193	27.548
420.22	99.453
424.245	78.277
428.268	90.024
432.289	70.69
436.309	37.269
440.326	20.76
444.342	36.155
448.355	58.547
452.367	24.538
456.377	2.866
460.385	28.386
464.391	37.169
468.395	49.965
472.398	95.484
476.398	69.497
480.397	93.337
484.394	93.652
488.389	111.064
492.382	100.169
496.373	115.373
500.362	139.515
504.349	157.82
508.335	198.081
512.319	254.284
516.3	337.825
520.28	456.684
524.259	590.117
528.235	912.994
532.209	1598.36
536.182	3048.93
540.152	3641.16
544.121	2177.57
548.088	1076.57
552.053	588.791
556.017	417.051
559.978	260.885
563.938	212.35
567.895	182.315
571.851	208.74
575.805	231.93
579.758	264.2
583.708	303.443
587.657	383.651
591.603	291.44
595.548	237.062
599.491	229.35
603.432	235.581
607.372	243.126
611.309	241.556
615.245	204.55
619.179	132.129
623.111	133.989
627.041	40.575
630.97	55.842
634.896	2.426
638.821	20.158
642.744	14.389
646.665	16.938
650.584	50.124
654.502	24.145
658.418	12.023
662.331	20.413
666.244	15.08
670.154	20.05
674.062	52.337
677.969	7.951
681.874	0.781
685.777	46.792
689.678	22.981
693.577	5.667
697.475	6.749
701.371	20.764
705.265	69.245
709.157	86.686
713.047	125.119
716.936	103.574
720.823	69.008
724.708	98.423
728.591	136.819
732.472	124.198
736.352	229.565
740.23	189.922
744.106	291.273
747.98	295.623
751.853	394.006
755.723	354.474
759.592	444.963
763.459	543.499
767.325	631.125
771.188	729.788
775.05	882.49
778.91	949.221
782.768	1127.68
786.625	1325.69
790.479	1582.72
794.332	1999.31
798.183	2659.7
802.033	3636.32
805.88	5658.02
809.726	9145.89
813.57	16849.6
817.413	33781.9
821.253	50793.6
825.092	38764.4
828.929	22522.2
832.764	14209.5
836.598	10667.9
840.429	10069.5
844.259	11574.7
848.088	16192.3
851.914	21127.6
855.739	18933.2
859.562	11470.9
863.383	6383.78
867.203	3877.77
871.02	2591.9
874.836	1802.17
878.65	1376.59
882.463	1034.23
886.274	807.885
890.083	666.556
893.89	562.022
897.695	524.304
901.499	510.75
905.301	638.998
909.102	792.662
912.9	1348.05
916.697	2166.12
920.492	1741.29
924.285	973.038
928.077	666.427
931.867	655.967
935.655	800.174
939.442	1056.53
943.226	1419.78
947.009	2044.32
950.791	2823.98
954.57	3637.96
958.348	3736.95
962.124	3308.11
965.899	2692
969.671	1948.18
973.442	1244.07
977.211	707.953
980.979	515.866
984.745	358.379
988.509	275.18
992.271	153.038
996.032	130.822
999.791	198.026
1003.55	121.395
1007.3	99.899
1011.06	61.666
1014.81	5.544
1018.56	28.567
1022.31	6.728
1026.06	29.007
1029.8	66.496
1033.55	52.025
1037.29	43.686
1041.03	11.475
1044.77	5.343
1048.5	60.328
1052.24	46.596
1055.97	20.446
1059.7	19.499
1063.43	2.625
1067.16	56.807
1070.89	59.035
1074.61	49.33
1078.34	27.693
1082.06	5.549
1085.78	11.382
1089.5	42.148
1093.21	15.716
1096.93	17.688
1100.64	9.094
1104.35	59.512
1108.06	20.891
1111.77	1.704
1115.48	10.714
1119.18	54.246
1122.89	136.532
1126.59	16.474
1130.29	10.291
1133.99	54.047
1137.68	100.956
1141.38	37.392
1145.07	63.886
1148.76	90.52
1152.45	43.76
1156.14	16.193
1159.83	124.579
1163.51	166.295
1167.19	108.866
1170.88	74.211
1174.56	137.845
1178.23	104.671
1181.91	132.524
1185.59	157.728
1189.26	67.877
1192.93	92.799
1196.6	137.074
1200.27	143.531
1203.94	173.605
1207.6	128.914
1211.27	166.28
1214.93	87.951
1218.59	162.019
1222.25	140.344
1225.9	164.996
1229.56	170.599
1233.21	132.142
1236.86	161.65
1240.51	174.875
1244.16	117.027
1247.81	112.484
1251.45	62.955
1255.1	42.728
1258.74	72.731
1262.38	72.438
1266.02	22.17
1269.66	39.105
1273.29	18.889
1276.93	36.655
1280.56	56.127
1284.19	26.332
1287.82	32.881
1291.45	55.966
1295.07	17.001
1298.7	42.943
1302.32	25.299
1305.94	11.591
1309.56	10.017
1313.18	0.458
1316.8	50.84
1320.41	24.143
1324.02	23.733
1327.63	14.63
1331.24	45.373
1334.85	62.293
1338.46	24.162
1342.06	83.959
1345.67	27.713
1349.27	4.502
1352.87	69.246
1356.47	60.965
1360.07	125.682
1363.66	64.391
1367.25	95.145
1370.85	77.888
1374.44	64.74
1378.03	57.746
1381.61	114.106
1385.2	120.314
1388.78	134.122
1392.37	109.93
1395.95	169.659
1399.53	149.701
1403.1	105.364
1406.68	127.146
1410.26	81.452
1413.83	291.897
1417.4	92.38
1420.97	109.868
1424.54	109.292
1428.1	124.054
1431.67	170.169
1435.23	178.246
1438.8	105.255
1442.36	166.193
1445.91	187.913
1449.47	132.411
1453.03	150.708
1456.58	169.82
1460.13	251.612
1463.68	229.254
1467.23	105.798
1470.78	99.365
1474.33	137.627
1477.87	86.235
1481.42	97.223
1484.96	90.461
1488.5	130.902
1492.04	197.582
1495.57	150.707
1499.11	102.503
1502.64	50.043
1506.17	13.455
1509.71	69.097
1513.23	105.521
1516.76	21.99
1520.29	41.292
1523.81	0
