Measurement: Raman, 514 nm, ccw, Raman Data Processed
Mineral: Forsterite
Rruff sample: R060535
Ideal chemistry: Mg_2_SiO_4_
Locality: unknown
Source: Gemological Institute of America
Description: Transparent brown gemstone
Measured chemistry: (Mg_1.81_Fe_0.18_Ni_0.01_)_Î£=2_Si_1.00_O_4_
Pin_id: L00998
Orientation: Laser parallel to c* (0 0 1). Fiducial mark perpendicular to laser is parallel to a [1 0 0]
Raman shift (cm-1)	intensity
209.749	0
214.637	145.566
219.521	245.833
224.404	258.57
229.284	217.681
234.161	156.329
239.036	96.7513
243.908	44.0207
248.777	18.1477
253.645	10.5128
258.509	90.5241
263.371	12.464
268.231	2.53467
273.088	51.0692
277.942	19.1486
282.794	97.8737
287.643	167.131
292.49	406.072
297.335	808.175
302.176	988.588
307.015	688.493
311.852	703.581
316.686	735.628
321.518	711.728
326.347	736.872
331.173	524.46
335.997	423.86
340.819	224.947
345.638	129.851
350.454	89.6992
355.268	91.5094
360.079	35.6043
364.888	44.3707
369.694	67.5527
374.498	22.1461
379.299	3.87134
384.097	5.65424
388.893	0.550232
393.686	28.3152
398.477	3.99799
403.266	25.7993
408.051	123.799
412.835	281.487
417.615	545.278
422.394	854.031
427.169	1390.95
431.942	930.926
436.713	318.78
441.481	115.452
446.246	17.773
451.009	37.7358
455.769	43.6003
460.527	86.3901
465.282	83.1067
470.035	89.7522
474.785	105.311
479.532	92.7678
484.277	132.14
489.02	119.437
493.76	209.656
498.497	172.738
503.232	146.575
507.964	148.828
512.693	170.226
517.421	160.321
522.145	241.895
526.867	332.022
531.587	490.11
536.303	856.926
541.018	1075.14
545.729	685.254
550.439	400.614
555.145	310.26
559.849	343.373
564.551	347.515
569.25	524.898
573.946	722.765
578.64	798.666
583.331	670.422
588.02	594.592
592.706	808.306
597.39	1194.06
602.071	1576.7
606.749	1622.68
611.425	1073.66
616.099	612.516
620.769	408.254
625.438	279.876
630.103	172.385
634.766	101.784
639.427	80.0759
644.085	76.2656
648.74	81.3661
653.393	24.3771
658.044	10.2871
662.691	25.001
667.336	35.3838
671.979	57.6061
676.619	40.0431
681.257	9.71838
685.892	11.6479
690.524	25.2035
695.154	2.0199
699.781	11.3239
704.406	33.2866
709.028	29.8751
713.647	103.451
718.264	146.021
722.878	193.591
727.49	292.171
732.1	416.778
736.706	581.417
741.31	750.093
745.912	1032.81
750.511	1219.56
755.107	1173.35
759.701	870.195
764.292	622.096
768.881	484.059
773.467	518.09
778.051	563.198
782.632	592.421
787.21	554.627
791.786	702.906
796.359	918.729
800.93	1346.52
805.498	2234.16
810.064	4160.34
814.627	9423.34
819.187	19834.6
823.745	22460.4
828.301	12720.9
832.853	7026.05
837.403	5405.59
841.951	5508.16
846.496	8357.13
851.038	14451.3
855.578	17104.7
860.116	10858.2
864.65	5895.01
869.183	3117.98
873.712	1633.15
878.239	1070.52
882.764	690.1
887.285	454.879
891.805	268.856
896.322	121.026
900.836	134.392
905.347	131.95
909.856	124.701
914.363	191.878
918.867	250.265
923.368	155.684
927.867	58.486
932.363	46.1917
936.856	159.697
941.347	301.539
945.836	607.666
950.322	1023.47
954.805	1908.69
959.286	2786.34
963.764	2813.89
968.239	1968.73
972.712	1131.22
977.183	552.561
981.65	404.638
986.116	179.963
990.578	95.9111
995.038	114.827
999.496	145.326
1003.95	168.896
1008.4	99.7977
1012.85	67.1403
1017.3	26.1217
1021.75	54.3081
1026.19	20.1434
1030.63	31.0145
1035.06	12.916
1039.5	53.2539
1043.93	6.21289
1048.36	22.274
1052.79	14.4008
1057.21	37.6932
1061.63	15.2784
1066.05	3.94763
1070.47	14.069
1074.88	22.5719
1079.29	23.8573
1083.7	9.37964
1088.11	8.0321
1092.51	21.395
1096.91	3.32568
1101.31	25.8373
1105.7	8.91309
1110.1	82.9313
1114.49	41.8531
1118.88	5.69202
1123.26	87.4282
1127.64	69.0669
1132.02	110.587
1136.4	34.023
1140.78	71.3663
1145.15	60.5989
1149.52	40.7529
1153.89	44.8044
1158.25	87.7588
1162.61	125.618
1166.97	73.3815
1171.33	145.051
1175.68	82.4487
1180.04	118.823
1184.39	60.3041
1188.73	59.9562
1193.08	87.1539
1197.42	73.1964
1201.76	125.602
1206.1	133.508
1210.43	138.173
1214.76	125.009
1219.09	114.062
1223.41	121.688
1227.74	156.015
1232.06	109.508
1236.38	142.575
1240.69	156.043
1245.01	130.534
1249.32	131.209
1253.63	144.509
1257.93	99.2799
1262.23	85.4781
1266.54	127.629
1270.83	109.627
1275.13	124.448
1279.42	103.204
1283.71	95.8099
1288	84.7528
1292.28	33.6643
1296.57	108.544
1300.85	69.286
1305.12	53.1151
1309.4	94.9976
1313.67	97.8313
1317.94	64.7676
1322.21	64.8135
1326.47	75.8916
1330.73	60.0341
1334.99	11.738
1339.25	67.442
1343.5	12.4211
1347.75	49.6971
1352	44.8074
1356.25	7.92773
1360.49	52.0504
1364.73	73.1367
1368.97	15.1971
1373.21	65.2541
1377.44	66.2848
1381.67	44.3297
1385.9	29.3757
1390.13	64.4166
1394.35	9.48804
1398.57	19.5558
1402.79	14.3586
1407	8.77588
1411.22	46.2416
1415.43	39.2119
1419.63	13.3765
1423.84	1.61548
1428.04	24.1663
1432.24	39.4421
1436.44	90.8004
1440.63	167.45
1444.83	133.542
1449.02	228.177
1453.2	170.683
1457.39	203.574
1461.57	196.488
1465.75	164.779
1469.93	86.0448
1474.1	167.316
1478.27	169.572
1482.44	158.832
1486.61	153.73
1490.77	134.853
1494.93	124.971
1499.09	127.389
1503.25	82.165
1507.4	75.9485
1511.55	87.9215
1515.7	25.104
1519.85	23.5353
1523.99	42.9612
1528.13	89.5668
1532.27	81.3954
1536.4	63.6038
1540.54	28.1836
1544.67	71.1873
1548.8	11.3763
1552.92	39.7405
1557.05	15.7705
1561.16	60.2891
1565.28	0
