Measurement: Raman, 514 nm, ccw, Raman Data Processed
Mineral: Forsterite
Rruff sample: R040052
Ideal chemistry: Mg_2_SiO_4_
Locality: Synthetic, Czochralski method
Source: Hideki Kanazawa of Kyoto University, Japan
Description: Colorless crystal fragments obtained from a boule.
Measured chemistry: Mg_2.00_Si_1.00_O_4_
Pin_id: L00366
Orientation: Laser parallel to b* (0 1 0). Fiducial mark perpendicular to laser is parallel to c [0 0 1]
Raman shift (cm-1)	intensity
70.361	0
74.577	768.21
78.791	5486.19
83.003	547.18
87.213	380.043
91.42	366.33
95.626	299.783
99.829	276.584
104.03	313.727
108.229	339.899
112.426	3435.37
116.62	3553.59
120.813	1839.49
125.003	227.812
129.191	88.399
133.377	123.057
137.561	96.757
141.743	60.546
145.922	84.16
150.099	23.337
154.274	79.533
158.448	40.773
162.618	35.642
166.787	79.436
170.954	46.983
175.118	31.419
179.28	36.058
183.441	79.778
187.599	298.75
191.755	30.994
195.908	46.535
200.06	100.021
204.209	49.272
208.357	56.067
212.502	160.438
216.645	1.276
220.786	10.856
224.925	256.596
229.062	1878.37
233.196	354.002
237.329	93.456
241.459	63.55
245.587	67.639
249.714	83.152
253.838	89.402
257.96	57.377
262.079	158.247
266.197	151.997
270.313	270.233
274.426	89.037
278.538	151.123
282.647	238.255
286.754	241.363
290.859	246.779
294.962	313.735
299.063	582.637
303.162	2026.46
307.259	5688.15
311.353	1557.61
315.446	556.163
319.536	328.001
323.625	256.217
327.711	419.624
331.795	612.628
335.877	350.688
339.957	262.284
344.035	221.025
348.111	227.005
352.185	110.889
356.257	147.747
360.327	132.545
364.394	175.368
368.46	125.2
372.523	62.651
376.585	126.81
380.644	130.582
384.701	128.427
388.756	118.564
392.81	151.281
396.861	166.925
400.91	165.884
404.957	129.896
409.002	127.968
413.045	153.886
417.085	214.183
421.124	448.193
425.161	708.172
429.196	373.809
433.228	144.098
437.259	143.766
441.287	195.902
445.314	175.949
449.338	124.853
453.361	53.584
457.381	56.145
461.4	110.567
465.416	111.898
469.43	73.138
473.443	7.301
477.453	44.361
481.461	98.258
485.467	35.012
489.471	3.389
493.474	56.865
497.474	113.48
501.472	79.048
505.468	0.706
509.462	19.526
513.454	70.086
517.444	140.599
521.432	126.261
525.418	2.492
529.402	49.31
533.384	71.761
537.364	117.63
541.343	31.998
545.319	125.624
549.293	290.77
553.265	171.802
557.235	146.756
561.203	88.584
565.169	151.954
569.133	220.925
573.095	171.64
577.055	229.186
581.013	334.489
584.969	415.938
588.923	626.315
592.875	689.432
596.825	830.926
600.773	1459.81
604.72	2734.65
608.664	5805.4
612.606	7016.97
616.546	3861.14
620.484	1982.8
624.421	1211.26
628.355	807.961
632.287	474.033
636.218	297.43
640.146	242.744
644.073	240.57
647.997	241.757
651.92	147.172
655.84	195.024
659.759	142.532
663.675	121.487
667.59	15.054
671.503	1.701
675.413	82.713
679.322	14.056
683.229	49.208
687.134	51.373
691.037	44.404
694.938	22.914
698.837	49.766
702.734	27.297
706.629	1.881
710.523	12.248
714.414	21.386
718.303	88.042
722.191	105.726
726.076	93.436
729.96	56.174
733.841	119.946
737.721	204.761
741.599	220.618
745.474	215.519
749.348	184.467
753.22	211.465
757.09	223.519
760.958	291.628
764.825	378.797
768.689	332.035
772.551	369.338
776.412	348.708
780.27	496.148
784.127	559.663
787.982	543.249
791.834	739.908
795.685	799.636
799.534	1046.44
803.381	1465.94
807.226	1874.89
811.07	2636.41
814.911	4174.81
818.75	7410.29
822.588	17364
826.423	37677.3
830.257	28579.1
834.089	12193.4
837.919	6698.77
841.747	5329.23
845.573	5708.35
849.397	7632.85
853.22	13908.9
857.04	33975
860.859	45361.3
864.676	20747.6
868.49	9224.03
872.303	4904.58
876.114	3114.24
879.924	2596
883.731	3052.88
887.536	2635.88
891.34	1444.99
895.141	1070.23
898.941	657.561
902.739	519.008
906.535	382.563
910.329	413.226
914.122	294
917.912	227.908
921.701	150.931
925.487	114.047
929.272	107.288
933.055	222.613
936.836	256.149
940.616	203.749
944.393	236.733
948.168	310.489
951.942	384.35
955.714	826.336
959.484	1515.04
963.252	3389.21
967.018	7684.56
970.783	7334.44
974.545	3325.02
978.306	1623.68
982.065	820.584
985.822	540.458
989.577	323.412
993.331	328.441
997.082	204.63
1000.83	260.806
1004.58	512.493
1008.33	306.807
1012.07	161.673
1015.81	80.382
1019.55	97.181
1023.29	170.834
1027.03	115.345
1030.76	201.017
1034.5	173.11
1038.23	59.709
1041.96	78.27
1045.68	51.208
1049.41	6.462
1053.13	91.763
1056.86	94.838
1060.58	43.033
1064.3	20.448
1068.01	8.063
1071.73	5.369
1075.44	35.776
1079.15	43.542
1082.86	55.03
1086.57	38.326
1090.28	43.368
1093.98	46.098
1097.68	5.15
1101.38	27.6
1105.08	1.63
1108.78	56.849
1112.47	88.051
1116.17	36.232
1119.86	80.39
1123.55	106.522
1127.24	17.625
1130.92	58.695
1134.61	70.727
1138.29	35.701
1141.97	45.516
1145.65	5.473
1149.33	32.719
1153	48.987
1156.68	80.645
1160.35	87.555
1164.02	108.809
1167.69	27.403
1171.35	46.894
1175.02	1.396
1178.68	3.296
1182.34	19.13
1186	96.66
1189.66	53.504
1193.31	35.757
1196.97	0.732
1200.62	7.988
1204.27	15.883
1207.92	74.632
1211.57	13.753
1215.21	86.927
1218.86	145.052
1222.5	151.848
1226.14	143.56
1229.78	182.801
1233.41	189.611
1237.05	126.34
1240.68	219.017
1244.31	231.52
1247.94	208.981
1251.57	208.171
1255.19	231.239
1258.82	179.216
1262.44	184.042
1266.06	159.635
1269.68	184.833
1273.3	237.468
1276.91	149.771
1280.53	108.057
1284.14	123.261
1287.75	94.506
1291.36	19.7
1294.96	35.471
1298.57	50.888
1302.17	20.307
1305.77	17.219
1309.37	6.533
1312.97	62.517
1316.57	33.381
1320.16	57.097
1323.76	12.323
1327.35	45.932
1330.94	17.855
1334.53	9.987
1338.11	0.005
1341.69	4.388
1345.28	10.125
1348.86	46.209
1352.44	49.409
1356.02	27.497
1359.59	37.467
1363.16	79.311
1366.74	33.043
1370.31	54.658
1373.88	106.453
1377.44	154.975
1381.01	158.384
1384.57	181.583
1388.13	143.682
1391.69	130.712
1395.25	68.32
1398.81	93.539
1402.37	22.014
1405.92	229.599
1409.47	178.078
1413.02	96.962
1416.57	90.135
1420.12	122.76
1423.66	115.691
1427.2	100.386
1430.75	131.47
1434.29	134.593
1437.82	232.333
1441.36	301.623
1444.9	343.651
1448.43	373.562
1451.96	468.284
1455.49	498.243
1459.02	485.472
1462.55	508.356
1466.07	419.322
1469.59	312.217
1473.11	341.785
1476.63	235.399
1480.15	189.277
1483.67	190.742
1487.18	446.35
1490.7	254.982
1494.21	172.502
1497.72	213.9
1501.23	165.52
1504.73	248.479
1508.24	164.663
1511.74	116.056
1515.24	116.13
1518.74	4.51
1522.24	27.609
1525.73	7.472
