Measurement: Raman, 514 nm, ccw, Raman Data Processed
Mineral: Forsterite
Rruff sample: R050117
Ideal chemistry: Mg_2_SiO_4_
Locality: Sapat, Gilgit, Pakistan
Source: Farooq and Nazia Sawal
Description: Fragment of a green crystal
Measured chemistry: (Mg_1.81_Fe_0.18_Ni_0.01_)_Î£=2_Si_1.00_O_4_
Pin_id: L00442
Orientation: Laser parallel to c* (0 0 1). Fiducial mark perpendicular to laser is parallel to -a [-1 0 0]
Raman shift (cm-1)	intensity
138.55	0
142.709	127.678
146.865	4.925
151.019	88.445
155.171	233.686
159.322	205.636
163.47	141.572
167.617	134.647
171.761	134.849
175.904	166.483
180.044	148.262
184.183	66.367
188.319	70.324
192.454	15.499
196.586	6.493
200.717	64.28
204.846	116.975
208.972	162.105
213.097	335.615
217.22	667.079
221.341	1311.19
225.46	1433.7
229.577	1036.7
233.692	757.638
237.805	533.412
241.916	307.348
246.025	125.294
250.132	108.744
254.237	7.233
258.34	8.993
262.442	8.224
266.541	51.822
270.639	40.542
274.734	51.661
278.828	10.186
282.919	9.912
287.009	44.514
291.097	52.373
295.183	108.542
299.266	278.3
303.348	401.652
307.428	327.412
311.507	263.777
315.583	406.877
319.657	838.977
323.729	1691.47
327.8	2320.14
331.868	2025.24
335.935	1911.78
339.999	1627.41
344.062	868.802
348.123	409.596
352.182	265.571
356.239	198.043
360.294	142.002
364.347	131.991
368.398	149.374
372.448	158.12
376.495	122.792
380.54	123.958
384.584	117.827
388.626	104.299
392.666	101.419
396.704	121.197
400.74	101.631
404.774	112.098
408.806	129.824
412.836	169.168
416.865	251.491
420.891	284.506
424.916	314.879
428.939	371.013
432.959	338.319
436.978	228.356
440.996	192.775
445.011	151.223
449.024	75.733
453.036	101.296
457.045	106.515
461.053	100.182
465.059	712.84
469.063	207.067
473.065	283.93
477.065	338.059
481.063	200.979
485.06	193.313
489.054	209.147
493.047	190.611
497.038	193.51
501.027	229.123
505.014	253.958
508.999	309.457
512.982	318.721
516.964	328.965
520.944	429.652
524.921	467.371
528.897	676.742
532.871	990.242
536.844	1711
540.814	3527.24
544.783	3944.72
548.749	2133.74
552.714	1051.25
556.677	650.571
560.638	513.678
564.597	416.894
568.555	370.496
572.511	375.162
576.464	378.434
580.416	368.447
584.366	305.682
588.315	291.23
592.261	245.74
596.206	165.079
600.148	194.545
604.089	205.549
608.028	280.074
611.965	275.536
615.901	208.924
619.834	95.313
623.766	87.224
627.696	71.902
631.624	17.67
635.551	25.777
639.475	10.038
643.398	24.232
647.318	24.733
651.237	20.461
655.155	21.475
659.07	12.395
662.984	38.536
666.895	34.966
670.805	3.667
674.713	13.486
678.62	22.547
682.524	21.445
686.427	12.521
690.328	8.32
694.227	24.12
698.124	13.881
702.02	44.626
705.913	30.369
709.805	16.118
713.695	77.887
717.584	86.685
721.47	115.501
725.355	110.334
729.238	140.181
733.119	175.039
736.998	183.901
740.876	209.771
744.752	234.647
748.626	243.522
752.498	298.399
756.368	365.298
760.237	370.253
764.104	475.248
767.969	572.3
771.832	605.411
775.693	788.5
779.553	842.439
783.411	1053.15
787.267	1214.08
791.122	1397.62
794.974	1720.7
798.825	2182.18
802.674	3046.71
806.522	4328.62
810.367	6777.51
814.211	11513.1
818.053	23779
821.893	48353.8
825.732	53262.4
829.568	31013.3
833.403	16754.6
837.236	10916.3
841.068	8447.09
844.898	8420.17
848.726	11102.9
852.552	18185.9
856.376	23739.5
860.199	16963.7
864.02	9177.74
867.839	5205.42
871.656	3151.6
875.472	2224.23
879.286	1643.64
883.098	1249.16
886.909	958.812
890.717	754.02
894.524	593.792
898.33	463.786
902.133	429.899
905.935	378.454
909.735	408.267
913.533	487.358
917.33	657.926
921.124	838.089
924.918	481.615
928.709	452.51
932.499	505.195
936.286	546.61
940.073	682.663
943.857	936.243
947.64	1380.72
951.421	1989.66
955.2	2972.8
958.978	4316.98
962.753	5094.37
966.527	4427.92
970.3	3009.67
974.071	1722.9
977.84	999.069
981.607	585.39
985.372	366.854
989.136	211.686
992.898	166.433
996.659	123.332
1000.42	78.365
1004.17	21.524
1007.93	15.178
1011.68	2.771
1015.43	23.25
1019.18	42.359
1022.93	43.09
1026.68	3.936
1030.42	26.889
1034.17	7.951
1037.91	35.117
1041.65	9.619
1045.39	13.713
1049.12	26.123
1052.86	32.139
1056.59	3.178
1060.33	53.214
1064.06	31.387
1067.78	26.953
1071.51	13.713
1075.23	9.595
1078.96	1.095
1082.68	3.181
1086.4	6.427
1090.12	18.658
1093.83	14.116
1097.55	24.934
1101.26	38.756
1104.97	39.573
1108.68	14.423
1112.39	20.312
1116.1	45.24
1119.8	2.201
1123.5	138.578
1127.2	81.588
1130.9	29.275
1134.6	4.897
1138.3	38.307
1141.99	44.295
1145.69	72.659
1149.38	58.649
1153.07	84.671
1156.76	94.471
1160.44	100.543
1164.13	103.911
1167.81	91.674
1171.49	136.416
1175.17	100.018
1178.85	81.786
1182.52	96.792
1186.2	93.856
1189.87	91.651
1193.54	80.394
1197.21	67.909
1200.88	73.78
1204.55	225.5
1208.21	152.362
1211.88	134.159
1215.54	158.612
1219.2	184.413
1222.86	188.85
1226.51	129.399
1230.17	113.536
1233.82	155.719
1237.47	103.638
1241.12	138.385
1244.77	116.029
1248.42	129.351
1252.06	90.658
1255.71	73.066
1259.35	78.575
1262.99	64.91
1266.63	52.151
1270.26	82.312
1273.9	43.382
1277.53	36.377
1281.16	21.982
1284.8	9.3
1288.42	13.634
1292.05	62.873
1295.68	29.315
1299.3	13.687
1302.92	60.968
1306.55	21.175
1310.16	38.3
1313.78	7.642
1317.4	5.985
1321.01	10.186
1324.62	14.031
1328.24	1.65
1331.85	19.255
1335.45	45.786
1339.06	16.269
1342.66	80.693
1346.27	99.065
1349.87	43.395
1353.47	39.706
1357.07	56
1360.66	28.276
1364.26	87.551
1367.85	87.842
1371.44	57.392
1375.04	72.723
1378.62	88.721
1382.21	92.39
1385.8	61.968
1389.38	54.567
1392.96	50.122
1396.54	105.609
1400.12	115.589
1403.7	98.391
1407.28	99.063
1410.85	105.136
1414.42	119.995
1417.99	93.672
1421.56	59.192
1425.13	99.063
1428.7	24.054
1432.26	50.204
1435.83	67.321
1439.39	83.26
1442.95	98.47
1446.51	92.642
1450.06	101.654
1453.62	92.395
1457.17	65.165
1460.73	86.534
1464.28	75.326
1467.83	63.661
1471.37	30.802
1474.92	90.274
1478.46	90.132
1482.01	77.288
1485.55	69.421
1489.09	69.659
1492.63	127.982
1496.16	139.606
1499.7	64.706
1503.23	88.263
1506.76	36.33
1510.29	10.81
1513.82	53.18
1517.35	20.222
1520.88	0.752
