Measurement: Raman, 514 nm, ccw, Raman Data Processed
Mineral: Forsterite
Rruff sample: R040052
Ideal chemistry: Mg_2_SiO_4_
Locality: Synthetic, Czochralski method
Source: Hideki Kanazawa of Kyoto University, Japan
Description: Colorless crystal fragments obtained from a boule.
Measured chemistry: Mg_2.00_Si_1.00_O_4_
Pin_id: l00104
Orientation: Laser parallel to -a* (-1 0 0). Fiducial mark perpendicular to laser is parallel to b [0 1 0]
Raman shift (cm-1)	intensity
92.531	0
96.724	84.778
100.915	245.449
105.103	406.333
109.29	1134.43
113.474	504.351
117.656	229.739
121.836	74.758
126.014	112.959
130.19	177.795
134.364	223.883
138.536	363.226
142.706	266.829
146.874	136.104
151.039	89.516
155.203	134.089
159.364	5.111
163.524	42.022
167.681	35.695
171.836	22.793
175.989	24.411
180.14	34.072
184.289	112.118
188.436	109.216
192.581	25.827
196.724	17.278
200.865	17.393
205.004	6.081
209.14	6.755
213.275	82.929
217.408	37.759
221.538	350.226
225.667	2048.63
229.793	861.423
233.917	119.515
238.04	2.048
242.16	42.744
246.278	18.818
250.395	87.226
254.509	54.135
258.621	93.448
262.731	206.226
266.839	88.128
270.945	42.438
275.049	108.148
279.151	215.141
283.251	230.159
287.349	268.979
291.445	298.876
295.539	370.798
299.631	631.515
303.72	1616.75
307.808	725.375
311.894	588.671
315.978	767.737
320.06	470.46
324.139	713.501
328.217	1932.92
332.293	1460.83
336.367	1455.9
340.438	1984.98
344.508	745.4
348.576	432.257
352.641	267.81
356.705	299.293
360.767	340.562
364.826	364.332
368.884	618.845
372.94	2400.84
376.994	1285.88
381.045	522.368
385.095	339.015
389.143	273.184
393.188	350.787
397.232	296.857
401.274	285.84
405.314	335.344
409.352	824.141
413.387	609.769
417.421	538.927
421.453	753.417
425.483	528.468
429.511	336.665
433.537	273.292
437.561	227.998
441.583	206.945
445.603	193.002
449.621	204.621
453.637	119.695
457.651	97.579
461.663	213.295
465.673	135.869
469.682	94.287
473.688	153.546
477.692	165.764
481.694	132.518
485.695	165.262
489.693	22.902
493.69	135.545
497.684	137.852
501.677	140.509
505.667	38.076
509.656	76.776
513.643	141.785
517.628	139.185
521.611	100.156
525.591	139.413
529.57	175.375
533.547	351.499
537.523	504.476
541.496	1333.85
545.467	2518.9
549.436	1100.3
553.404	526.757
557.369	261.097
561.332	124.777
565.294	155.144
569.254	242.631
573.211	244.386
577.167	395.724
581.121	592.148
585.073	1101.97
589.023	2375.2
592.971	2965.04
596.917	1358.04
600.861	649.455
604.804	698.21
608.744	784.755
612.683	511.315
616.619	242.673
620.554	263.226
624.487	216.522
628.418	171.64
632.347	63.443
636.274	21.526
640.199	2.073
644.122	109.04
648.044	121.238
651.963	43.895
655.881	0.322
659.796	29.081
663.71	38.502
667.622	5.554
671.532	10.517
675.44	41.575
679.347	65.269
683.251	19.999
687.153	65.584
691.054	12.953
694.953	33.573
698.849	33.728
702.744	80.872
706.637	66.049
710.529	13.147
714.418	52.802
718.305	54.814
722.191	157.115
726.075	109.018
729.956	243.911
733.836	24.195
737.714	91.689
741.591	168.583
745.465	225.492
749.337	108.412
753.208	99.355
757.077	246.321
760.944	234.306
764.809	359.327
768.672	352.376
772.533	351.33
776.392	373.587
780.25	410.264
784.106	688.465
787.96	692.571
791.812	670.186
795.662	836.224
799.51	1168.43
803.357	1568.15
807.201	2242.45
811.044	3261.18
814.885	5230.95
818.724	11661.4
822.562	27929.6
826.397	28289.1
830.231	12758
834.062	6428.96
837.892	4430.09
841.72	4412.18
845.547	6062.61
849.371	11033.9
853.194	25735
857.015	42076.5
860.834	22198.8
864.651	9291.47
868.466	4874.31
872.279	3096.92
876.091	2130
879.901	1804.44
883.709	1386.76
887.515	1115.19
891.32	969.728
895.122	847.377
898.923	765.11
902.722	615.994
906.519	673.999
910.314	1081.14
914.108	2348.4
917.899	8532.78
921.689	7677.38
925.477	1882.01
929.264	868.947
933.048	762.896
936.831	771.924
940.612	876.65
944.391	1156.22
948.168	1181.74
951.944	1680.42
955.717	2556.33
959.489	4142.3
963.259	7758.61
967.028	7966.19
970.794	3292.62
974.559	1337.14
978.322	632.785
982.083	457.556
985.842	311.448
989.6	174
993.356	138.123
997.11	67.364
1000.86	20.705
1004.61	15.384
1008.36	66.214
1012.11	138.271
1015.85	170.31
1019.6	104.808
1023.34	24.844
1027.08	48.917
1030.82	127.165
1034.55	66.276
1038.29	199.177
1042.02	181.979
1045.75	145.488
1049.48	62.111
1053.21	50.835
1056.93	127.754
1060.66	60.771
1064.38	170.33
1068.1	146.932
1071.82	52.816
1075.54	22.012
1079.25	94.93
1082.96	80.385
1086.67	58.633
1090.38	239.897
1094.09	181.156
1097.8	64.397
1101.5	52.597
1105.21	30.763
1108.91	110.898
1112.61	192.005
1116.31	213.083
1120	151.253
1123.7	202.215
1127.39	91.856
1131.08	32.017
1134.77	96.163
1138.45	115.62
1142.14	84.598
1145.82	108.254
1149.51	209.595
1153.19	78.266
1156.87	89.862
1160.54	32.654
1164.22	24.326
1167.89	59.788
1171.56	198.971
1175.23	233.839
1178.9	135.778
1182.57	132.371
1186.23	70.851
1189.89	117.316
1193.56	4.576
1197.22	30.232
1200.87	155.02
1204.53	271.826
1208.18	238.931
1211.84	246.164
1215.49	172.909
1219.14	220.763
1222.79	206.246
1226.43	251.627
1230.08	196.31
1233.72	210.402
1237.36	374.825
1241	299.398
1244.63	153.624
1248.27	157.289
1251.9	170.614
1255.54	83.473
1259.17	116.324
1262.8	159.254
1266.42	339.595
1270.05	282.689
1273.67	223.598
1277.3	134.083
1280.92	5.664
1284.54	46.323
1288.15	66.958
1291.77	62.66
1295.38	97.396
1298.99	217.417
1302.6	56.11
1306.21	104
1309.82	52.462
1313.42	59.438
1317.03	21.768
1320.63	44.293
1324.23	7.86
1327.83	41.375
1331.43	15.062
1335.02	130.35
1338.62	236.215
1342.21	161.02
1345.8	76.023
1349.39	140.93
1352.97	105.527
1356.56	219.85
1360.14	43.923
1363.72	157.849
1367.31	301.418
1370.88	324.813
1374.46	277.869
1378.04	351.008
1381.61	263.563
1385.18	275.874
1388.75	128.217
1392.32	150.133
1395.89	42.842
1399.45	194.746
1403.02	254.899
1406.58	275.815
1410.14	307.675
1413.7	254.352
1417.26	311.933
1420.81	256.299
1424.36	140.799
1427.92	193.456
1431.47	72.045
1435.02	208.63
1438.56	434.006
1442.11	412.768
1445.65	420.813
1449.19	438.929
1452.74	676.937
1456.28	624.873
1459.81	492.312
1463.35	457.533
1466.88	453.169
1470.41	317.731
1473.95	353.455
1477.48	296.327
1481	351.731
1484.53	368.598
1488.05	365.271
1491.58	481.663
1495.1	677.803
1498.62	434.029
1502.13	300.652
1505.65	187.902
1509.17	184.694
1512.68	11.82
1516.19	196.567
1519.7	47.562
1523.21	132.424
1526.72	0
