Measurement: Raman, 514 nm, ccw, Raman Data Processed
Mineral: Forsterite
Rruff sample: R040057
Ideal chemistry: Mg_2_SiO_4_
Locality: Trudy's mine, San Carlos, Gila County, Arizona, USA
Source: Bob Downs
Description: Dark green crystal fragments from xenoliths in a basalt flow
Measured chemistry: (Mg_1.67_Fe_0.32_Ni_0.01_)_Î£=2_Si_1.00_O_4_; trace amounts of Mn and Ca
Pin_id: L00449
Orientation: Laser parallel to b* (0 1 0). Fiducial mark perpendicular to laser is parallel to a [1 0 0]
Raman shift (cm-1)	intensity
90.587	0
94.768	65.386
98.947	40.362
103.124	19.81
107.3	93.322
111.473	109.547
115.644	386.055
119.813	233.031
123.981	161.209
128.146	88.505
132.309	36.229
136.47	82.2
140.63	49.082
144.787	7.863
148.942	1.443
153.096	5.892
157.247	45.823
161.396	45.573
165.544	4.436
169.689	49.237
173.833	104.243
177.974	137.161
182.114	132.019
186.251	113.83
190.387	146.635
194.52	114.464
198.652	145.302
202.782	187.065
206.909	335.604
211.035	565.051
215.159	836.425
219.281	900.742
223.4	806.014
227.518	790.265
231.634	738.711
235.748	581.872
239.86	467.731
243.97	300.469
248.079	275.81
252.185	161.603
256.289	85.613
260.391	87.203
264.492	117.644
268.59	95.196
272.687	131.672
276.781	166.299
280.874	150.309
284.964	200.337
289.053	306.208
293.14	507.586
297.225	668.71
301.308	508.231
305.389	536.736
309.468	619.561
313.545	1101.05
317.62	1894.84
321.693	2273.55
325.765	2130.27
329.834	1840.72
333.902	1572.44
337.967	1062.13
342.031	541.862
346.093	312.591
350.153	210.38
354.21	148.337
358.267	87.41
362.321	81.541
366.373	103.663
370.423	53.718
374.471	24.74
378.518	11.684
382.563	49.555
386.605	27.319
390.646	4.04
394.685	27.526
398.722	12.216
402.757	20.898
406.79	36.81
410.821	84.471
414.851	183.986
418.878	292.396
422.904	397.693
426.927	352.876
430.949	149.94
434.969	160.886
438.987	88.708
443.003	45.394
447.018	47.932
451.03	19.326
455.041	20.56
459.049	41.615
463.056	38.509
467.061	91.255
471.064	87.471
475.065	83.18
479.064	74.705
483.062	155.441
487.057	112.286
491.051	199.332
495.043	189.407
499.032	242.794
503.02	179.8
507.007	201.263
510.991	284.51
514.973	351.764
518.954	521.815
522.933	657.235
526.91	983.858
530.885	1866.49
534.858	3354.94
538.829	4493.43
542.799	2778.52
546.766	1349.46
550.732	771.35
554.696	547.588
558.658	379.06
562.618	306.781
566.576	261.526
570.533	344.24
574.488	387.26
578.44	283.182
582.391	252.92
586.341	218.478
590.288	275.854
594.233	189.052
598.177	244.653
602.119	263.679
606.059	292.546
609.997	258.842
613.933	245.652
617.868	221.692
621.801	186.943
625.731	146.288
629.66	146.699
633.588	40.083
637.513	2.894
641.437	43.093
645.358	30.709
649.278	44.202
653.196	85.45
657.113	27.514
661.027	0.186
664.94	50.389
668.851	89.984
672.76	41.093
676.667	12.207
680.572	25.342
684.476	15.691
688.378	24.888
692.278	7.085
696.176	24.807
700.072	58.591
703.967	40.326
707.86	1.007
711.751	127.669
715.64	136.344
719.527	128.998
723.413	173.618
727.297	111.199
731.179	161.737
735.059	219.233
738.937	283.693
742.814	357.122
746.689	342.539
750.562	372.945
754.433	479.339
758.303	512.731
762.17	619.129
766.036	752.188
769.901	885.016
773.763	955.535
777.624	1184.08
781.482	1287.69
785.339	1622.72
789.195	1874.71
793.048	2294.78
796.9	3077.68
800.75	4187.72
804.598	6075.81
808.445	9690.86
812.289	17154.3
816.132	35331
819.973	58783.3
823.813	50677.5
827.65	29462.1
831.486	18388.6
835.32	13518.2
839.152	11994.1
842.983	13045.5
846.812	17974.6
850.639	24803.4
854.464	24045
858.288	15384.9
862.11	9022.93
865.93	5445.2
869.748	3416.64
873.564	2323.24
877.379	1762.01
881.192	1322.97
885.004	882.108
888.813	753.424
892.621	580.919
896.427	427.531
900.232	392.259
904.034	382.301
907.835	414.529
911.634	476.009
915.432	472.611
919.227	534.788
923.021	554.673
926.813	544.168
930.604	689.457
934.393	801.997
938.18	1100.43
941.965	1501.67
945.749	2087.41
949.53	3050.16
953.311	3958.93
957.089	4587.86
960.866	4102.78
964.641	3329.46
968.414	2355.08
972.185	1738.03
975.955	1031.37
979.723	685.625
983.49	437.237
987.254	317.691
991.017	249.808
994.779	308.114
998.538	151.11
1002.3	293.387
1006.05	138.784
1009.81	96.735
1013.56	61.484
1017.31	39.392
1021.06	107.926
1024.81	60.132
1028.55	123.495
1032.3	48.184
1036.04	106.325
1039.78	138.789
1043.52	86.725
1047.26	6.219
1050.99	23.935
1054.73	63.18
1058.46	19.523
1062.19	7.956
1065.92	38.526
1069.65	8.028
1073.37	24.636
1077.1	8.296
1080.82	80.001
1084.54	41.263
1088.26	43.488
1091.97	9.292
1095.69	17.131
1099.4	6.055
1103.12	30.304
1106.83	2.575
1110.54	78.193
1114.24	38.501
1117.95	47.98
1121.65	237.592
1125.35	63.732
1129.06	62.828
1132.75	45.212
1136.45	23.396
1140.15	9.672
1143.84	66.883
1147.53	55.928
1151.22	77.723
1154.91	99.633
1158.6	110.572
1162.28	45.537
1165.97	15.221
1169.65	99.344
1173.33	76.393
1177.01	6.855
1180.69	31.837
1184.36	90.56
1188.04	116.319
1191.71	56.028
1195.38	79.641
1199.05	166.779
1202.71	249.671
1206.38	269.063
1210.04	236.918
1213.71	261.46
1217.37	203.013
1221.03	168.111
1224.68	217.15
1228.34	241.648
1231.99	104.095
1235.65	188.132
1239.3	234.755
1242.95	118.733
1246.59	162.123
1250.24	138.748
1253.88	163.488
1257.53	156.036
1261.17	126.309
1264.81	49.396
1268.45	76.26
1272.08	41.934
1275.72	94.891
1279.35	84.667
1282.98	11.138
1286.61	42.835
1290.24	56.152
1293.87	47.624
1297.49	35.894
1301.11	8.066
1304.73	21.306
1308.36	15.531
1311.97	80.75
1315.59	61.292
1319.2	7.596
1322.82	29.707
1326.43	121.575
1330.04	5.262
1333.65	15.24
1337.26	94.838
1340.86	43.309
1344.47	45.346
1348.07	117.913
1351.67	57.733
1355.27	216.121
1358.87	94.728
1362.46	23.435
1366.06	90.769
1369.65	117.595
1373.24	154.739
1376.83	184.274
1380.42	170.146
1384	163.793
1387.59	159.411
1391.17	51.22
1394.75	119.094
1398.33	210.223
1401.91	144.09
1405.49	242.293
1409.06	312.18
1412.64	114.25
1416.21	274.165
1419.78	160.696
1423.35	183.956
1426.91	154.034
1430.48	189.768
1434.05	149.832
1437.61	245.713
1441.17	226.745
1444.73	225.57
1448.29	261.986
1451.84	326.501
1455.4	307.657
1458.95	299.732
1462.5	269.109
1466.05	259.471
1469.6	144.499
1473.15	182.895
1476.69	155.145
1480.24	286.003
1483.78	182.863
1487.32	172.789
1490.86	44.854
1494.39	108.316
1497.93	80.287
1501.46	1.786
1505	1.162
1508.53	62.729
1512.06	43.878
1515.59	63.49
1519.11	39.142
