Measurement: Raman, 514 nm, ccw, Raman Data Processed
Mineral: Forsterite
Rruff sample: R040052
Ideal chemistry: Mg_2_SiO_4_
Locality: Synthetic, Czochralski method
Source: Hideki Kanazawa of Kyoto University, Japan
Description: Colorless crystal fragments obtained from a boule.
Measured chemistry: Mg_2.00_Si_1.00_O_4_
Pin_id: l00104
Orientation: Laser parallel to -a* (-1 0 0). Fiducial mark perpendicular to laser is parallel to b [0 1 0]
Raman shift (cm-1)	intensity
96.724	0
100.915	7.181
105.103	73.029
109.29	555.613
113.474	440.187
117.656	307.833
121.836	50.731
126.014	39.79
130.19	129.338
134.364	124.21
138.536	66.907
142.706	52.494
146.874	12.751
151.039	6.054
155.203	48.729
159.364	11.255
163.524	6.765
167.681	27.217
171.836	40.583
175.989	22.257
180.14	166.768
184.289	391.979
188.436	44.152
192.581	21.023
196.724	0.935
200.865	36.098
205.004	44.814
209.14	48.87
213.275	25.387
217.408	86.314
221.538	545.715
225.667	3429.03
229.793	1328.29
233.917	120.549
238.04	6.923
242.16	9.175
246.278	29.559
250.395	43.151
254.509	16.321
258.621	23
262.731	74.851
266.839	14.485
270.945	61.009
275.049	6.631
279.151	55.297
283.251	117.264
287.349	186.598
291.445	59.084
295.539	165.784
299.631	313.934
303.72	675.69
307.808	419.351
311.894	302.432
315.978	294.172
320.06	419.57
324.139	901.33
328.217	2301.17
332.293	2086.32
336.367	1988.37
340.438	2709.57
344.508	873.766
348.576	286.049
352.641	136.376
356.705	166
360.767	182.069
364.826	186.968
368.884	209.115
372.94	288.675
376.994	310.155
381.045	235.562
385.095	103.511
389.143	164.374
393.188	184.397
397.232	122.933
401.274	156.191
405.314	88.584
409.352	126.259
413.387	189.254
417.421	309.859
421.453	445.064
425.483	359.985
429.511	178.75
433.537	135.126
437.561	150.48
441.583	118.524
445.603	89.062
449.621	155.965
453.637	153.738
457.651	104.404
461.663	121.943
465.673	141.345
469.682	59.637
473.688	143.795
477.692	30.802
481.694	82.656
485.695	82.415
489.693	91.247
493.69	102.156
497.684	53.547
501.677	44.388
505.667	30.336
509.656	120.107
513.643	122.531
517.628	55.685
521.611	140.152
525.591	163.255
529.57	247.257
533.547	397.131
537.523	767.679
541.496	2235.89
545.467	4565.01
549.436	1966.19
553.404	723.005
557.369	338.811
561.332	172.433
565.294	139.651
569.254	122.891
573.211	117.164
577.167	91.414
581.121	91.492
585.073	225.198
589.023	412.211
592.971	365.427
596.917	198.154
600.861	199.573
604.804	372.06
608.744	411.051
612.683	345.835
616.619	110.753
620.554	131.239
624.487	144.106
628.418	136.495
632.347	2.547
636.274	39.934
640.199	56.65
644.122	118.849
648.044	65.069
651.963	33.793
655.881	10.643
659.796	28.024
663.71	61.533
667.622	37.1
671.532	1.541
675.44	22.118
679.347	84.869
683.251	33.743
687.153	7.298
691.054	5.711
694.953	14.735
698.849	26.783
702.744	5.124
706.637	2.003
710.529	80.872
714.418	16.269
718.305	15.42
722.191	114.421
726.075	130.267
729.956	46.129
733.836	104.012
737.714	167.91
741.591	283.825
745.465	272.773
749.337	170.755
753.208	151.767
757.077	316.816
760.944	348.902
764.809	506.031
768.672	505.207
772.533	493.969
776.392	602.099
780.25	558.183
784.106	857.56
787.96	871.977
791.812	1106.5
795.662	1349.62
799.51	1912.46
803.357	2515.25
807.201	3727.56
811.044	5528.21
814.885	9241.26
818.724	21041.6
822.562	50945.5
826.397	50688.4
830.231	21133.1
834.062	9488.19
837.892	5572.72
841.72	4457.41
845.547	4633.12
849.371	6868.88
853.194	14194.5
857.015	22640.2
860.834	11926.4
864.651	5252.65
868.466	2799.07
872.279	1985.61
876.091	1352.35
879.901	1009.16
883.709	826.111
887.515	663.181
891.32	690.367
895.122	527.676
898.923	505.109
902.722	452.665
906.519	310.357
910.314	538.193
914.108	796.162
917.899	2254.28
921.689	2162.63
925.477	682.741
929.264	461.399
933.048	550.341
936.831	559.153
940.612	678.122
944.391	857.256
948.168	926.574
951.944	1266.04
955.717	2025.68
959.489	3555.49
963.259	6515.82
967.028	6655.9
970.794	2788.91
974.559	989.208
978.322	529.632
982.083	340.161
985.842	261.28
989.6	102.492
993.356	113.391
997.11	74.615
1000.86	198.629
1004.61	50.173
1008.36	6.323
1012.11	46.045
1015.85	128.534
1019.6	150.382
1023.34	142.101
1027.08	43.852
1030.82	146.112
1034.55	88.251
1038.29	131.493
1042.02	164.788
1045.75	187.089
1049.48	79.783
1053.21	142.768
1056.93	65.557
1060.66	18.508
1064.38	192.336
1068.1	125.518
1071.82	198.513
1075.54	61.219
1079.25	94.336
1082.96	167.199
1086.67	139.938
1090.38	132.66
1094.09	45.346
1097.8	38.084
1101.5	260.667
1105.21	73.145
1108.91	215.54
1112.61	177.846
1116.31	190.062
1120	102.176
1123.7	134.174
1127.39	6.063
1131.08	122.168
1134.77	19.508
1138.45	31.449
1142.14	93.229
1145.82	68.402
1149.51	196.815
1153.19	82.269
1156.87	113.966
1160.54	18.705
1164.22	73.046
1167.89	69.041
1171.56	143.608
1175.23	138.064
1178.9	153.589
1182.57	176.166
1186.23	131.3
1189.89	84.061
1193.56	4.617
1197.22	167.557
1200.87	317.611
1204.53	276.705
1208.18	378.266
1211.84	376.574
1215.49	266.436
1219.14	244.745
1222.79	221.846
1226.43	278.962
1230.08	304.532
1233.72	261.811
1237.36	444.613
1241	389.627
1244.63	213.816
1248.27	347.787
1251.9	241.058
1255.54	294.192
1259.17	256.691
1262.8	196.078
1266.42	308.477
1270.05	379.947
1273.67	239.277
1277.3	10.927
1280.92	51.477
1284.54	138.191
1288.15	17.82
1291.77	13.334
1295.38	14.207
1298.99	143.519
1302.6	50.031
1306.21	25.492
1309.82	52.322
1313.42	72.007
1317.03	27.092
1320.63	52.526
1324.23	19.099
1327.83	95.089
1331.43	168.371
1335.02	111.445
1338.62	344.398
1342.21	206.553
1345.8	158.542
1349.39	110.231
1352.97	81.531
1356.56	202.459
1360.14	2.933
1363.72	133.144
1367.31	183.042
1370.88	313.953
1374.46	183.178
1378.04	302.174
1381.61	371.08
1385.18	329.581
1388.75	258.075
1392.32	125.363
1395.89	182.564
1399.45	187.611
1403.02	214.094
1406.58	245.395
1410.14	224.352
1413.7	221.114
1417.26	319.3
1420.81	284.768
1424.36	280.947
1427.92	240.287
1431.47	181.982
1435.02	221.143
1438.56	408.727
1442.11	460.57
1445.65	520.08
1449.19	462.021
1452.74	453.324
1456.28	585.439
1459.81	566.224
1463.35	556.557
1466.88	617.001
1470.41	447.055
1473.95	346.541
1477.48	305.088
1481	385.771
1484.53	296.682
1488.05	447.586
1491.58	338.32
1495.1	308.977
1498.62	269.719
1502.13	150.838
1505.65	252.27
1509.17	153.893
1512.68	6.877
1516.19	90.064
1519.7	31.648
1523.21	13.779
