Measurement: Raman, 514 nm, ccw, Raman Data Processed
Mineral: Forsterite
Rruff sample: R040052
Ideal chemistry: Mg_2_SiO_4_
Locality: Synthetic, Czochralski method
Source: Hideki Kanazawa of Kyoto University, Japan
Description: Colorless crystal fragments obtained from a boule.
Measured chemistry: Mg_2.00_Si_1.00_O_4_
Pin_id: L00074
Orientation: Laser parallel to c* (0 0 1). Fiducial mark perpendicular to laser is parallel to a [1 0 0]
Raman shift (cm-1)	intensity
103.009	0
107.197	5.602
111.382	7.329
115.565	151.425
119.747	436.482
123.926	63.948
128.103	3.534
132.278	79.718
136.451	49.936
140.621	69.854
144.79	53.016
148.957	41.593
153.121	2.877
157.284	53.588
161.444	38.521
165.602	2.702
169.759	1.608
173.913	8.404
178.065	29.38
182.215	5.308
186.363	238.032
190.509	219.733
194.653	48.35
198.795	4.576
202.935	30.896
207.072	37.791
211.208	6.07
215.342	18.289
219.473	42.749
223.603	34.429
227.73	368.18
231.856	1590.96
235.979	155.814
240.1	32.057
244.22	10.276
248.337	7.341
252.452	8.023
256.565	7.396
260.676	38.833
264.785	72.908
268.892	68.9
272.997	97.676
277.1	72.336
281.201	134.645
285.3	100.168
289.397	127.786
293.492	209.154
297.585	277.08
301.676	557.53
305.765	2843.83
309.851	3799.18
313.936	797.166
318.019	324.484
322.1	245.524
326.178	217.547
330.255	394.979
334.33	515.653
338.403	225.8
342.473	193.772
346.542	178.544
350.609	85.041
354.673	100.589
358.736	113.866
362.797	93.289
366.856	59.043
370.912	63.374
374.967	102.382
379.02	95.123
383.07	57.583
387.119	90.763
391.166	65.948
395.211	118.905
399.253	67.014
403.294	79.61
407.333	105.6
411.37	125.429
415.405	97.115
419.437	192.863
423.468	511.02
427.497	476.691
431.524	153.077
435.549	152.686
439.572	259.734
443.593	117.03
447.612	50.22
451.629	7.311
455.644	43.308
459.657	65.22
463.668	39.07
467.678	6.151
471.685	72.566
475.69	60.234
479.693	23.827
483.695	46.307
487.694	33.7
491.692	43.033
495.687	60.854
499.681	33.684
503.672	19.33
507.662	29.758
511.65	26.082
515.636	22.364
519.619	16.741
523.601	21.089
527.581	72.339
531.559	40.374
535.535	32.852
539.509	41.464
543.482	43.83
547.452	160.634
551.42	181.305
555.386	118.317
559.351	85.238
563.313	119.359
567.274	128.683
571.233	104.472
575.189	147.387
579.144	203.184
583.097	255.882
587.048	324.559
590.997	368.731
594.944	501.785
598.89	824.921
602.833	1339.24
606.774	2637.33
610.714	5246.06
614.651	5279.34
618.587	2738.54
622.521	1345.68
626.453	637.603
630.383	426.669
634.311	293.79
638.237	261.965
642.161	152.17
646.083	112.468
650.004	129.745
653.922	132.11
657.839	83.099
661.754	51.682
665.666	24.246
669.577	22.251
673.487	2.613
677.394	25.117
681.299	28.174
685.202	39.404
689.104	11.638
693.004	32.87
696.901	20.896
700.797	7.313
704.691	36.505
708.583	43.686
712.473	22.141
716.362	57.989
720.248	72.866
724.133	48.778
728.016	59.729
731.897	64.724
735.776	137.767
739.653	151.859
743.528	129.001
747.401	186.194
751.273	221.443
755.143	251.748
759.01	275.108
762.876	204.523
766.74	226.999
770.603	278.535
774.463	355.131
778.322	404.788
782.178	438.511
786.033	448.295
789.886	537.146
793.737	653.068
797.586	826.059
801.434	945.116
805.279	1102.25
809.123	1536.18
812.965	2504.22
816.805	4190.33
820.643	7663.28
824.48	17813.7
828.314	30089.5
832.147	17434.7
835.978	8291.44
839.807	5497.88
843.634	4557.97
847.459	4660.2
851.283	6765.77
855.104	14693.7
858.924	36310.7
862.742	32618
866.559	13055.3
870.373	6153.66
874.185	3419.11
877.996	2218.64
881.805	1694.25
885.612	1371.94
889.418	1006.7
893.221	716.54
897.023	575.446
900.823	506.42
904.621	378.463
908.417	324.611
912.211	247.818
916.004	187.31
919.795	113.625
923.584	90.152
927.371	134.458
931.156	154.973
934.94	117.71
938.722	112.72
942.502	145.105
946.28	183.257
950.056	283.603
953.831	477.582
957.604	764.636
961.375	1391.78
965.144	3314.56
968.911	7201.45
972.677	5274.01
976.441	2433.28
980.203	1213.07
983.963	662.712
987.721	371.158
991.478	271.035
995.233	269.81
998.986	228.784
1002.74	216.441
1006.49	247.119
1010.24	151.79
1013.98	91.063
1017.73	38.626
1021.47	81.031
1025.21	108.978
1028.95	79.797
1032.68	47.64
1036.42	41.503
1040.15	3.567
1043.88	71.417
1047.62	128.371
1051.34	55.678
1055.07	25.626
1058.8	12.168
1062.52	6.202
1066.24	1.731
1069.96	19.039
1073.68	34.957
1077.39	19.828
1081.11	29.022
1084.82	17.91
1088.53	5.901
1092.24	1.209
1095.95	7.677
1099.65	4.451
1103.36	8.388
1107.06	57.201
1110.76	30.979
1114.46	14.72
1118.15	14.435
1121.85	7.129
1125.54	47.798
1129.23	55.436
1132.92	55.04
1136.61	16.609
1140.3	18.151
1143.98	18.322
1147.66	2.842
1151.35	1.406
1155.03	39.386
1158.7	49.219
1162.38	69.642
1166.05	62.96
1169.73	11.316
1173.4	8.785
1177.07	15.239
1180.73	75.731
1184.4	39.767
1188.06	70.66
1191.73	32.716
1195.39	9.77
1199.05	19.177
1202.7	21.64
1206.36	19.707
1210.01	86.94
1213.66	52.288
1217.31	105.939
1220.96	122.506
1224.61	77.652
1228.25	78.243
1231.9	99.058
1235.54	81.048
1239.18	121.504
1242.82	161.853
1246.45	108.679
1250.09	142.764
1253.72	111.849
1257.35	100.612
1260.98	69.379
1264.61	39.967
1268.24	38.838
1271.86	57.814
1275.48	115.112
1279.11	81.648
1282.73	50.541
1286.34	56.781
1289.96	13.384
1293.58	25.176
1297.19	13.664
1300.8	5.094
1304.41	43.393
1308.02	12.69
1311.62	70.963
1315.23	63.785
1318.83	35.913
1322.43	59.4
1326.03	5.24
1329.63	5.512
1333.22	1.614
1336.82	42.219
1340.41	47.168
1344	56.693
1347.59	42.462
1351.18	78.062
1354.77	29.711
1358.35	11.311
1361.93	5.874
1365.52	9.54
1369.09	22.951
1372.67	47.416
1376.25	53.852
1379.82	90.361
1383.39	85.731
1386.97	87.068
1390.54	45.376
1394.1	27.831
1397.67	7.053
1401.23	18.125
1404.8	32.944
1408.36	46.311
1411.92	42.33
1415.48	120.617
1419.03	99.623
1422.59	60.597
1426.14	34.726
1429.69	70.341
1433.24	85.05
1436.79	44.173
1440.34	60.08
1443.88	92.591
1447.42	138.37
1450.97	150.234
1454.51	178.689
1458.04	172.379
1461.58	196.01
1465.12	196.275
1468.65	148.912
1472.18	110.417
1475.71	52.936
1479.24	74.253
1482.77	107.605
1486.29	74.041
1489.82	106.579
1493.34	130.116
1496.86	124.639
1500.38	56.167
1503.89	79.834
1507.41	87.614
1510.92	65.079
1514.44	84.012
1517.95	1.243
1521.45	26.438
1524.96	1.258
