Measurement: Raman, 514 nm, ccw, Raman Data Processed
Mineral: Forsterite
Rruff sample: R040018
Ideal chemistry: Mg_2_SiO_4_
Locality: Trudy's mine, San Carlos, Gila County, Arizona, USA
Source: Bob Downs
Description: Green fragments from xenoliths in a basalt flow
Measured chemistry: (Mg_1.81_Fe_0.18_Ni_0.01_)_Î£=2_Si_1.00_O_4_; trace amounts of Mn and Ca
Pin_id: M00008
Orientation: Laser parallel to a* (1 0 0). Fiducial mark perpendicular to laser is parallel to b [0 1 0]
Raman shift (cm-1)	intensity
49.365	0
53.566	124.69
57.765	323.497
61.962	505.713
66.157	737.635
70.349	764.13
74.54	548.212
78.729	299.769
82.916	81.798
87.101	3.062
91.284	48.038
95.465	64.752
99.644	324.166
103.82	600.846
107.995	878.48
112.168	1314.34
116.339	1422.43
120.508	1794.7
124.675	1594.89
128.84	1414.92
133.003	1441.83
137.164	1414.86
141.323	1421.09
145.48	1419.7
149.635	1464.45
153.788	1386.73
157.939	1284.36
162.088	1326.43
166.235	1253.98
170.38	1129.02
174.523	1130.59
178.664	1092.69
182.803	1055.33
186.94	1071.53
191.076	1010.33
195.209	1027.73
199.34	1060.76
203.47	1050.3
207.597	1044.26
211.722	1138.65
215.846	1429.38
219.967	1854.56
224.087	1968.17
228.204	1754.71
232.32	1382.36
236.434	1188.24
240.545	975.085
244.655	911.523
248.763	763.951
252.869	718.36
256.973	632.066
261.075	587.54
265.175	575.265
269.273	567.193
273.369	564.492
277.463	543.154
281.556	551.167
285.646	568.52
289.734	589.204
293.821	784.207
297.905	1262.17
301.988	2101.8
306.069	1938.94
310.147	1239.11
314.224	863.037
318.299	858.752
322.372	910.275
326.443	1218.33
330.512	1141.72
334.579	1048.9
338.645	1185.69
342.708	988.121
346.769	707.82
350.829	411.846
354.887	363.103
358.942	361.646
362.996	287.562
367.048	268.85
371.098	240.497
375.146	255.518
379.192	199.814
383.236	135.268
387.279	109.896
391.319	76.706
395.358	76.767
399.394	28.1
403.429	45.733
407.462	101.552
411.493	212.679
415.522	328.121
419.549	375.002
423.575	290.29
427.598	218.804
431.619	264.508
435.639	313.395
439.657	358.458
443.673	194.693
447.687	167.093
451.699	17.654
455.709	60.63
459.717	43.189
463.724	19.151
467.728	59.228
471.731	23.572
475.732	34.711
479.731	15.933
483.728	37.433
487.723	97.901
491.716	28.373
495.708	8.213
499.697	15.002
503.685	74.892
507.671	15.819
511.655	8.377
515.637	73.701
519.617	108.961
523.596	54.972
527.572	159.377
531.547	198.688
535.52	326.565
539.491	702.526
543.46	1277.21
547.427	813.547
551.393	335.993
555.356	176.833
559.318	38.686
563.278	28.287
567.236	54.677
571.192	208.688
575.147	214.677
579.099	291.641
583.05	519.573
586.999	687.469
590.946	639.327
594.891	540.145
598.834	375.919
602.776	632.648
606.715	756.329
610.653	774.96
614.589	472.893
618.523	431.42
622.456	341.874
626.386	306.043
630.315	296.868
634.242	172.224
638.167	137.111
642.09	130.058
646.012	153.784
649.931	190.937
653.849	184.471
657.765	110.309
661.679	131.57
665.592	34.719
669.502	16.783
673.411	23.187
677.318	38.606
681.223	18.203
685.126	107.304
689.028	39.233
692.927	0.508
696.825	37.074
700.721	0.488
704.616	28.812
708.508	49.014
712.399	57.049
716.288	68.701
720.175	72.129
724.06	74.149
727.944	123.776
731.825	127.385
735.705	118.984
739.584	149.569
743.46	213.766
747.334	218.713
751.207	230.282
755.078	246.849
758.947	368.422
762.815	290.01
766.68	336.619
770.544	366.273
774.406	348.969
778.267	522.688
782.125	598.459
785.982	604.258
789.837	618.119
793.69	749.025
797.542	990.986
801.391	1220.13
805.239	1642.48
809.085	2184.9
812.93	3482.27
816.772	6162.44
820.613	12777.5
824.452	20327.2
828.29	15748.8
832.125	9793.06
835.959	7799.27
839.791	8370.69
843.621	10955
847.45	16965
851.277	31210.1
855.102	52612
858.925	52467.8
862.746	30746.9
866.566	16338
870.384	9305.02
874.2	5911.99
878.015	4547.3
881.828	4435.12
885.639	3643.54
889.448	2530.76
893.256	1759.04
897.061	1339.52
900.865	1202.57
904.668	1040.4
908.468	1095.43
912.267	1321.47
916.064	1752.91
919.86	2785.53
923.653	2140.48
927.445	1372.54
931.236	1230.47
935.024	1223.66
938.811	1419.03
942.596	1543.57
946.379	2074.29
950.161	2748.45
953.94	4080.13
957.719	5451.34
961.495	6384.57
965.27	5297.98
969.043	3669.74
972.814	2291.68
976.583	1251.52
980.351	715.712
984.117	484.477
987.882	327.44
991.644	185.715
995.405	26.115
999.165	165.344
1002.92	266.46
1006.68	134.866
1010.43	3.354
1014.18	43.058
1017.93	73.788
1021.68	66.222
1025.43	17.595
1029.18	130.122
1032.92	115.802
1036.66	6.453
1040.4	61.402
1044.14	41.556
1047.88	19.145
1051.62	125.245
1055.35	148.789
1059.08	133.504
1062.81	51.484
1066.54	34.657
1070.27	57.751
1073.99	6.816
1077.72	132.184
1081.44	96.283
1085.16	124.969
1088.88	53.212
1092.59	38.503
1096.31	97.163
1100.02	48.946
1103.73	5.133
1107.44	60.104
1111.15	54.152
1114.86	46.624
1118.57	53.058
1122.27	7.938
1125.97	31.068
1129.67	111.058
1133.37	140.312
1137.07	86.593
1140.76	55.989
1144.45	5.066
1148.15	74.142
1151.84	17.759
1155.53	168.206
1159.21	127.437
1162.9	171.354
1166.58	97.86
1170.26	132.726
1173.94	97.867
1177.62	36.937
1181.3	58.031
1184.97	102.647
1188.65	212.208
1192.32	152.103
1195.99	116.579
1199.66	161.865
1203.33	130.754
1206.99	105.234
1210.65	173.21
1214.32	186.83
1217.98	239.56
1221.64	301.567
1225.29	247.248
1228.95	156.996
1232.6	240.619
1236.26	168.699
1239.91	223.531
1243.56	217.069
1247.2	289.368
1250.85	285.71
1254.49	227.089
1258.13	202.727
1261.78	101.188
1265.41	153.993
1269.05	188.401
1272.69	172.492
1276.32	177.433
1279.95	246.872
1283.59	210.038
1287.21	160.937
1290.84	149.327
1294.47	105.187
1298.09	3.747
1301.72	86.085
1305.34	45.472
1308.96	64.403
1312.58	181.463
1316.19	256.127
1319.81	179.543
1323.42	210.707
1327.03	115.622
1330.64	33.285
1334.25	65.293
1337.86	16.698
1341.46	26.524
1345.07	154.041
1348.67	214.389
1352.27	56.511
1355.87	157.294
1359.46	132.156
1363.06	3.936
1366.65	68.657
1370.25	63.621
1373.84	52.118
1377.43	127.445
1381.02	172.86
1384.6	272.847
1388.18	252.94
1391.77	225.323
1395.35	82.615
1398.93	130.178
1402.51	105.269
1406.08	27.631
1409.66	46.028
1413.23	186.769
1416.8	210.823
1420.37	353.396
1423.94	152.014
1427.51	235.875
1431.08	186.837
1434.64	83.004
1438.2	35.537
1441.76	238.711
1445.32	440.844
1448.88	370.23
1452.43	503.858
1455.99	536.944
1459.54	637.504
1463.09	648.568
1466.64	436.318
1470.19	398.447
1473.74	286.444
1477.28	265.691
1480.83	216.075
1484.37	177.177
1487.91	119.128
1491.45	170.847
1494.98	103.17
1498.52	157.562
1502.05	143.687
1505.59	271.866
1509.12	273.262
1512.65	199.559
1516.17	144.139
1519.7	87.6
