Measurement: Raman, 514 nm, ccw, Raman Data Processed
Mineral: Forsterite
Rruff sample: R050117
Ideal chemistry: Mg_2_SiO_4_
Locality: Sapat, Gilgit, Pakistan
Source: Farooq and Nazia Sawal
Description: Fragment of a green crystal
Measured chemistry: (Mg_1.81_Fe_0.18_Ni_0.01_)_Î£=2_Si_1.00_O_4_
Pin_id: L00442
Orientation: Laser parallel to c* (0 0 1). Fiducial mark perpendicular to laser is parallel to -a [-1 0 0]
Raman shift (cm-1)	intensity
124.675	0
128.84	30.926
133.003	161.601
137.164	36.492
141.323	52.771
145.48	109.469
149.635	166.534
153.788	130.118
157.939	241.615
162.088	250.979
166.235	253.361
170.38	276.148
174.523	221.654
178.664	347.249
182.803	89.143
186.94	60.144
191.076	21.06
195.209	36.507
199.34	29.04
203.47	39.852
207.597	44.978
211.722	5.7
215.846	107.549
219.967	308.989
224.087	537.574
228.204	493.01
232.32	374.033
236.434	376.689
240.545	303.975
244.655	216.184
248.763	116.828
252.869	51.46
256.973	25.52
261.075	21.98
265.175	4.013
269.273	1.692
273.369	0.298
277.463	27.076
281.556	87.803
285.646	183.513
289.734	347.648
293.821	867.36
297.905	2376.25
301.988	4424.01
306.069	3862.03
310.147	1991.81
314.224	1077.3
318.299	813.142
322.372	871.601
326.443	960.025
330.512	619.253
334.579	329.171
338.645	218.864
342.708	109.99
346.769	95.86
350.829	88.76
354.887	73.092
358.942	53.019
362.996	46.317
367.048	53.667
371.098	35.516
375.146	16.681
379.192	33.041
383.236	69.161
387.279	78.636
391.319	56.824
395.358	85.721
399.394	125.279
403.429	184.96
407.462	324.698
411.493	645.401
415.522	1129.85
419.549	1132.12
423.575	653.91
427.598	392.186
431.619	345.204
435.639	220.819
439.657	117.289
443.673	75.473
447.687	48.001
451.699	22.83
455.709	27.253
459.717	4.167
463.724	29.119
467.728	38.608
471.731	61.71
475.732	97.463
479.731	60.892
483.728	68.012
487.723	71.134
491.716	89.425
495.708	130.207
499.697	129.625
503.685	111.777
507.671	147.102
511.655	126.777
515.637	109.731
519.617	147.05
523.596	169.005
527.572	145.685
531.547	182.36
535.52	184.878
539.491	189.612
543.46	280.255
547.427	263.96
551.393	252.423
555.356	235.664
559.318	296.227
563.278	326.216
567.236	372.935
571.192	424.685
575.147	487.33
579.099	624.887
583.05	778.389
586.999	952.847
590.946	1277.27
594.891	2139.63
598.834	3639.52
602.776	6000.68
606.715	7182.21
610.653	6055.51
614.589	3725.88
618.523	2159.98
622.456	1177.11
626.386	798.747
630.315	480.299
634.242	319.218
638.167	221.804
642.09	120.499
646.012	172.052
649.931	50.849
653.849	47.876
657.765	26.899
661.679	18.248
665.592	41.442
669.502	38.732
673.411	37.198
677.318	46.914
681.223	36.74
685.126	65.73
689.028	11.954
692.927	5.241
696.825	39.465
700.721	26.179
704.616	32.92
708.508	43.69
712.399	65.496
716.288	77.34
720.175	102.218
724.06	133.125
727.944	124.058
731.825	138.021
735.705	148.018
739.584	223.051
743.46	230.123
747.334	232.237
751.207	300.395
755.078	339.611
758.947	412.925
762.815	437.369
766.68	482.929
770.544	596.616
774.406	617.456
778.267	761.489
782.125	887.702
785.982	1032.1
789.837	1189.64
793.69	1463.3
797.542	1896.1
801.391	2444.01
805.239	3469.03
809.085	5246.72
812.93	8409.98
816.772	15640.6
820.613	33266.8
824.452	48133.6
828.29	32794.1
832.125	17817.8
835.959	11746.1
839.791	10280.9
843.621	11250.8
847.45	16225.1
851.277	29899.5
855.102	48684.9
858.925	45430.6
862.746	25466.3
866.566	13522.1
870.384	7828.16
874.2	4848.32
878.015	3377.61
881.828	2679.05
885.639	1994.62
889.448	1374.32
893.256	1004.17
897.061	732.157
900.865	613.282
904.668	466.547
908.468	408.791
912.267	402.666
916.064	408.871
919.86	351.472
923.653	304.301
927.445	280.026
931.236	306.183
935.024	319.875
938.811	442.311
942.596	535.428
946.379	873.373
950.161	1395.62
953.94	2552.35
957.719	4437.85
961.495	6639.2
965.27	6750.33
969.043	5148.58
972.814	3418.02
976.583	2133.65
980.351	1357.44
984.117	974.601
987.882	750.789
991.644	550.177
995.405	436.758
999.165	364.581
1002.92	294.359
1006.68	237.218
1010.43	213.146
1014.18	166.177
1017.93	165.294
1021.68	127.491
1025.43	103.763
1029.18	131.119
1032.92	139.555
1036.66	102.054
1040.4	81.613
1044.14	54.224
1047.88	42.873
1051.62	30.556
1055.35	28.271
1059.08	24.017
1062.81	19.379
1066.54	8.043
1070.27	4.321
1073.99	21.871
1077.72	8.544
1081.44	10.33
1085.16	35.26
1088.88	33.369
1092.59	12.572
1096.31	20.844
1100.02	8.217
1103.73	39.367
1107.44	26.923
1111.15	27.437
1114.86	51.936
1118.57	75.423
1122.27	47.896
1125.97	87.353
1129.67	74.145
1133.37	35.695
1137.07	97.547
1140.76	92.149
1144.45	20.469
1148.15	56.812
1151.84	107.954
1155.53	76.441
1159.21	70.258
1162.9	95.253
1166.58	124.112
1170.26	79.642
1173.94	49.017
1177.62	67.494
1181.3	99.164
1184.97	89.034
1188.65	152.581
1192.32	132.257
1195.99	112.792
1199.66	142.339
1203.33	156.884
1206.99	160.154
1210.65	184.183
1214.32	171.277
1217.98	198.788
1221.64	226.848
1225.29	266.721
1228.95	205.663
1232.6	204.766
1236.26	195.536
1239.91	137.789
1243.56	137.491
1247.2	146.24
1250.85	159.755
1254.49	114.636
1258.13	101.741
1261.78	134.161
1265.41	127.697
1269.05	48.108
1272.69	89.328
1276.32	123.39
1279.95	61.181
1283.59	56.025
1287.21	48.923
1290.84	49.422
1294.47	4.995
1298.09	20.52
1301.72	19.976
1305.34	16.648
1308.96	6.591
1312.58	12.75
1316.19	14.145
1319.81	2.147
1323.42	25.751
1327.03	4.442
1330.64	26.277
1334.25	25.929
1337.86	23.521
1341.46	29.064
1345.07	50.563
1348.67	91.022
1352.27	60.474
1355.87	38.951
1359.46	37.515
1363.06	35.044
1366.65	71.613
1370.25	32.728
1373.84	6.004
1377.43	31.487
1381.02	50.01
1384.6	86.697
1388.18	89.46
1391.77	92.227
1395.35	56.948
1398.93	98.606
1402.51	31.622
1406.08	24.266
1409.66	21.426
1413.23	89.265
1416.8	62.183
1420.37	93.439
1423.94	53.304
1427.51	76.153
1431.08	70.088
1434.64	64.997
1438.2	58.479
1441.76	46.975
1445.32	34.157
1448.88	46.888
1452.43	21.692
1455.99	100.651
1459.54	100.362
1463.09	65.74
1466.64	97.273
1470.19	93.18
1473.74	88.759
1477.28	37.21
1480.83	71.368
1484.37	50.47
1487.91	36.905
1491.45	40.425
1494.98	89.289
1498.52	78.698
1502.05	36.672
1505.59	103.312
1509.12	79.905
1512.65	138.987
1516.17	66.639
1519.7	54.906
