Measurement: Raman, 514 nm, ccw, Raman Data Processed
Mineral: Forsterite
Rruff sample: R060539
Ideal chemistry: Mg_2_SiO_4_
Locality: Sri Lanka
Source: Gemological Institute of America
Description: Brown cut gemstone
Measured chemistry: (Mg_1.67_Fe_0.33_)_Î£=2_Si_1.00_O_4_; trace amounts of Mn and Ca
Pin_id: L01074
Orientation: Laser parallel to a* (1 0 0). Fiducial mark perpendicular to laser is parallel to b [0 1 0]
Raman shift (cm-1)	intensity
168.104	0
173.013	26.4354
177.92	79.8469
182.823	163.74
187.725	211.92
192.623	307.24
197.52	440.401
202.413	661.185
207.305	838.733
212.193	1018.51
217.079	989.613
221.963	674.144
226.844	422.833
231.723	336.991
236.599	208.355
241.472	138.212
246.343	0.765015
251.211	7.00769
256.077	25.1896
260.94	17.9053
265.801	25.4043
270.66	40.7824
275.515	91.8961
280.368	232.206
285.219	482.789
290.067	888.283
294.913	1311.99
299.756	1228.62
304.596	750.408
309.434	571.372
314.27	598.565
319.102	607.578
323.933	579.091
328.76	541.557
333.586	640.059
338.408	415.644
343.229	321.228
348.046	185.692
352.861	139.246
357.674	145.371
362.484	102.289
367.291	82.0872
372.096	91.8489
376.898	37.5504
381.698	8.83337
386.495	36.3831
391.29	33.2419
396.082	0.2052
400.872	4.54443
405.659	69.0437
410.443	133.47
415.225	136.285
420.005	158.606
424.782	135.389
429.556	141.55
434.328	144.522
439.097	102.388
443.864	76.11
448.628	88.6534
453.389	123.987
458.148	65.0919
462.905	104.966
467.659	145.636
472.41	146.093
477.159	126.708
481.905	102.41
486.649	129.305
491.39	109.929
496.129	183.068
500.865	186.819
505.598	230.396
510.329	241.223
515.057	342.397
519.783	314.349
524.506	401.19
529.227	627.997
533.945	929.321
538.661	1002.57
543.374	561.679
548.084	252.401
552.792	226.853
557.498	186.428
562.2	99.3215
566.901	244.191
571.598	237.068
576.293	246.684
580.986	363.926
585.676	423.351
590.363	352.771
595.048	321.855
599.731	426.667
604.41	418.795
609.088	380.609
613.762	252.456
618.434	177.07
623.104	131.245
627.771	143.322
632.435	61.021
637.097	7.61792
641.756	61.6414
646.413	35.2771
651.067	18.6284
655.719	10.3914
660.368	16.4136
665.014	52.8892
669.658	0.059814
674.299	4.08106
678.938	39.5405
683.574	8.09229
688.208	18.5254
692.839	12.1704
697.468	35.9473
702.094	2.39258
706.717	16.4748
711.338	49.1655
715.956	50.2517
720.572	6.16162
725.185	115.556
729.795	51.9573
734.403	146.392
739.009	116.865
743.611	125.411
748.212	136.006
752.809	111.654
757.405	154.366
761.997	218.089
766.587	229.847
771.174	273.622
775.759	437.877
780.342	361.435
784.921	438.824
789.498	572.928
794.073	783.178
798.645	1007.25
803.215	1601.55
807.781	2762.87
812.346	5907.9
816.907	12187.1
821.467	14790.1
826.023	10277.4
830.577	7970.02
835.129	8882.49
839.678	12713.9
844.224	23022.5
848.768	38954.2
853.309	42916
857.847	27259.5
862.383	13858.9
866.917	7486.68
871.448	4377.79
875.976	3160.34
880.502	2237.5
885.025	1545.79
889.545	1197.29
894.063	969.726
898.579	886.179
903.092	854.751
907.602	1074.69
912.11	1753.34
916.615	2230.94
921.118	1538.83
925.618	1279.65
930.115	1301.85
934.61	1643.51
939.102	2158.94
943.592	3209.28
948.079	4311.77
952.564	5312.97
957.046	5105.28
961.525	3966.07
966.002	2660.53
970.476	1540.99
974.948	905.827
979.417	517.799
983.883	332.057
988.347	221.483
992.809	170.244
997.268	87.1536
1001.72	9.35742
1006.18	26.2454
1010.63	46.6096
1015.08	101.212
1019.52	49.2966
1023.97	21.073
1028.41	35.1457
1032.85	49.8848
1037.28	52.8809
1041.71	29.0886
1046.14	41.4907
1050.57	0.358643
1055	114.498
1059.42	31.072
1063.84	7.30737
1068.26	28.655
1072.67	57.8718
1077.09	10.4692
1081.5	23.7771
1085.9	27.9536
1090.31	1.77124
1094.71	43.6331
1099.11	15.9497
1103.51	23.8498
1107.9	67.4678
1112.29	11.8694
1116.68	17.5308
1121.07	19.2246
1125.45	79.9534
1129.84	61.718
1134.21	90.2908
1138.59	132.01
1142.96	135.121
1147.34	129.234
1151.7	214.508
1156.07	122.718
1160.43	119.848
1164.79	219.326
1169.15	209.986
1173.51	176.687
1177.86	125.258
1182.21	34.718
1186.56	106.986
1190.91	171.724
1195.25	122.948
1199.59	182.579
1203.93	113.433
1208.26	156.522
1212.6	109.01
1216.92	107.624
1221.25	122.517
1225.58	114.963
1229.9	121.119
1234.22	67.6409
1238.54	85.2322
1242.85	26.4253
1247.16	47.7444
1251.47	100.065
1255.78	31.5625
1260.08	88.9827
1264.38	20.342
1268.68	7.79541
1272.98	88.1426
1277.28	25.5144
1281.57	33.7805
1285.86	47.7581
1290.14	3.69702
1294.42	14.511
1298.71	69.6372
1302.98	66.7524
1307.26	72.8362
1311.53	106.278
1315.8	56.2881
1320.07	59.4836
1324.34	34.7695
1328.6	21.1433
1332.86	93.1597
1337.12	52.031
1341.38	97.5342
1345.63	3.06519
1349.88	36.6103
1354.13	38.187
1358.37	148.82
1362.61	139.495
1366.85	41.5796
1371.09	46.001
1375.33	70.9604
1379.56	107.874
1383.79	70.8386
1388.01	95.8086
1392.24	114.989
1396.46	47.3674
1400.68	21.5161
1404.9	48.3616
1409.11	124.999
1413.32	7.6687
1417.53	79.6116
1421.74	101.286
1425.94	143.389
1430.14	133.961
1434.34	33.2954
1438.54	46.2742
1442.73	115.968
1446.92	120.128
1451.11	121.323
1455.3	109.535
1459.48	98.6304
1463.66	74.8916
1467.84	114.199
1472.01	213.525
1476.19	72.8625
1480.36	97.2527
1484.53	93.6924
1488.69	90.4119
1492.85	52.396
1497.01	58.2395
1501.17	174.214
1505.33	44.3503
1509.48	94.603
1513.63	66.9851
1517.78	152.522
1521.92	110.239
1526.06	92.1799
1530.2	144.49
1534.34	46.2146
1538.47	51.2324
1542.6	122.842
1546.73	10.1216
1550.86	52.282
1554.98	146.189
1559.11	60.8984
1563.22	55.1191
