Measurement: Raman, 514 nm, ccw, Raman Data Processed
Mineral: Forsterite
Rruff sample: R040018
Ideal chemistry: Mg_2_SiO_4_
Locality: Trudy's mine, San Carlos, Gila County, Arizona, USA
Source: Bob Downs
Description: Green fragments from xenoliths in a basalt flow
Measured chemistry: (Mg_1.81_Fe_0.18_Ni_0.01_)_Î£=2_Si_1.00_O_4_; trace amounts of Mn and Ca
Pin_id: M00008
Orientation: Laser parallel to a* (1 0 0). Fiducial mark perpendicular to laser is parallel to b [0 1 0]
Raman shift (cm-1)	intensity
49.365	0
53.566	29.439
57.765	177.982
61.962	329.333
66.157	518.882
70.349	473.879
74.54	401.381
78.729	286.552
82.916	76.257
87.101	24.223
91.284	54.721
95.465	41.345
99.644	217.35
103.82	388.067
107.995	500.281
112.168	892.046
116.339	872.08
120.508	937.256
124.675	753.663
128.84	735.12
133.003	722.007
137.164	668.659
141.323	650.943
145.48	624.506
149.635	652.119
153.788	593.325
157.939	563.972
162.088	496.796
166.235	518.851
170.38	478.146
174.523	470.695
178.664	451.519
182.803	435.608
186.94	391.981
191.076	430.693
195.209	379.744
199.34	363.06
203.47	354.597
207.597	410.296
211.722	453.152
215.846	602.34
219.967	873.544
224.087	954.57
228.204	863.112
232.32	668.352
236.434	528.496
240.545	424.126
244.655	358.873
248.763	300.655
252.869	280.987
256.973	272.704
261.075	223.329
265.175	200.962
269.273	193.927
273.369	164.049
277.463	151.32
281.556	165.734
285.646	155.585
289.734	210.369
293.821	275.541
297.905	531.745
301.988	858.408
306.069	793.539
310.147	533.849
314.224	564.53
318.299	542.744
322.372	558.253
326.443	904.161
330.512	813.172
334.579	692.859
338.645	736.048
342.708	540.229
346.769	326.874
350.829	195.181
354.887	138.808
358.942	195.282
362.996	165.867
367.048	424.55
371.098	607.371
375.146	522.374
379.192	277.499
383.236	77.632
387.279	69.77
391.319	11.93
395.358	11.148
399.394	49.47
403.429	131.877
407.462	315.337
411.493	249.859
415.522	186.488
419.549	185.333
423.575	150.342
427.598	100.408
431.619	256.501
435.639	220.615
439.657	165.745
443.673	97.889
447.687	4.039
451.699	12.813
455.709	9.674
459.717	5.545
463.724	14.549
467.728	4.622
471.731	12.667
475.732	18.336
479.731	60.603
483.728	58.303
487.723	41.448
491.716	19.738
495.708	12.13
499.697	6.448
503.685	8.845
507.671	7.1
511.655	0.685
515.637	136.696
519.617	148.827
523.596	105.266
527.572	182.168
531.547	217.279
535.52	368.646
539.491	724.155
543.46	1301.41
547.427	929.915
551.393	459.072
555.356	189.486
559.318	171.433
563.278	160.951
567.236	201.375
571.192	250.731
575.147	300.844
579.099	462.859
583.05	864.771
586.999	1319.58
590.946	1794.29
594.891	1328.88
598.834	720.379
602.776	561.767
606.715	587.749
610.653	481.458
614.589	358.248
618.523	258.042
622.456	203.442
626.386	265.177
630.315	241.768
634.242	88.178
638.167	51.597
642.09	98.701
646.012	150.644
649.931	89.732
653.849	87.239
657.765	78.482
661.679	42.087
665.592	50.149
669.502	25.3
673.411	67.443
677.318	3.464
681.223	1.646
685.126	44.975
689.028	46.294
692.927	58.688
696.825	28.074
700.721	22.72
704.616	5.75
708.508	12.616
712.399	43.175
716.288	15.806
720.175	8.709
724.06	88.552
727.944	46.338
731.825	42.074
735.705	65.77
739.584	89.43
743.46	160.051
747.334	184.648
751.207	191.219
755.078	166.762
758.947	139.284
762.815	282.8
766.68	253.34
770.544	271.888
774.406	274.442
778.267	388.015
782.125	486.582
785.982	493.16
789.837	584.761
793.69	614.249
797.542	778.849
801.391	1065.51
805.239	1511.29
809.085	2155.13
812.93	3340.01
816.772	6121.99
820.613	13018.3
824.452	20835.1
828.29	15686.4
832.125	8793.9
835.959	6121.2
839.791	5567.08
843.621	6366.57
847.45	9217.17
851.277	16246.8
855.102	26865.1
858.925	26814.2
862.746	15612.1
866.566	8456.13
870.384	4925.48
874.2	3078.54
878.015	2362.8
881.828	2191.06
885.639	1857.8
889.448	1342.94
893.256	1022.69
897.061	795.631
900.865	808.777
904.668	757.951
908.468	1052.25
912.267	1547.61
916.064	3103.05
919.86	6036.73
923.653	3824.94
927.445	1569.14
931.236	1014.12
935.024	861.212
938.811	889.422
942.596	912.747
946.379	1113.19
950.161	1572.26
953.94	2337.86
957.719	3230.65
961.495	3938.41
965.27	3279.98
969.043	2338.71
972.814	1395.69
976.583	846.155
980.351	495.827
984.117	381.981
987.882	270.95
991.644	98.552
995.405	24.931
999.165	132.515
1002.92	314.265
1006.68	168.118
1010.43	70.082
1014.18	51.214
1017.93	25.485
1021.68	13.952
1025.43	62.779
1029.18	81.395
1032.92	120.103
1036.66	81.187
1040.4	63.444
1044.14	0.14
1047.88	34.646
1051.62	147.555
1055.35	68.884
1059.08	56.318
1062.81	15.724
1066.54	67.161
1070.27	14.708
1073.99	33.288
1077.72	101.134
1081.44	147.61
1085.16	223.187
1088.88	137.855
1092.59	62.552
1096.31	30.727
1100.02	2.004
1103.73	108.731
1107.44	112.441
1111.15	126.134
1114.86	37.242
1118.57	2.242
1122.27	83.594
1125.97	70.949
1129.67	50.351
1133.37	151.6
1137.07	102.383
1140.76	146.818
1144.45	25.295
1148.15	14.507
1151.84	67.703
1155.53	73.723
1159.21	42.881
1162.9	234.072
1166.58	161.388
1170.26	149.403
1173.94	143.21
1177.62	47.895
1181.3	63.512
1184.97	85.93
1188.65	111.624
1192.32	206.23
1195.99	93.923
1199.66	114.867
1203.33	62.362
1206.99	125.621
1210.65	26.832
1214.32	69.722
1217.98	241.697
1221.64	224.785
1225.29	282.248
1228.95	198.871
1232.6	162.387
1236.26	133.675
1239.91	181.653
1243.56	129.463
1247.2	277.292
1250.85	245.16
1254.49	291.35
1258.13	254.127
1261.78	204.874
1265.41	138.105
1269.05	79.916
1272.69	84.901
1276.32	179.008
1279.95	307.387
1283.59	240.272
1287.21	162.525
1290.84	195.066
1294.47	76.309
1298.09	120.443
1301.72	96.465
1305.34	31.642
1308.96	21.883
1312.58	181.246
1316.19	239.454
1319.81	201.226
1323.42	231.16
1327.03	130.898
1330.64	45.176
1334.25	43.816
1337.86	60.058
1341.46	3.453
1345.07	139.373
1348.67	108.951
1352.27	146.536
1355.87	129.344
1359.46	106.729
1363.06	100.157
1366.65	59.988
1370.25	19.546
1373.84	88.056
1377.43	123.755
1381.02	177.641
1384.6	228.069
1388.18	295.365
1391.77	331.583
1395.35	154.875
1398.93	137.006
1402.51	66.078
1406.08	49.748
1409.66	6.47
1413.23	103.347
1416.8	226.827
1420.37	157.667
1423.94	272.784
1427.51	301.341
1431.08	337.851
1434.64	300.475
1438.2	168.813
1441.76	148.203
1445.32	321.288
1448.88	309.952
1452.43	340.253
1455.99	524.615
1459.54	538.36
1463.09	585.325
1466.64	491.491
1470.19	457.057
1473.74	382.639
1477.28	186.772
1480.83	208.98
1484.37	150.795
1487.91	58.714
1491.45	152.375
1494.98	98.357
1498.52	199.582
1502.05	239.276
1505.59	289.772
1509.12	324.732
1512.65	318.449
1516.17	276.288
1519.7	230.789
