Measurement: Raman, 514 nm, ccw, Raman Data Processed
Mineral: Forsterite
Rruff sample: R050117
Ideal chemistry: Mg_2_SiO_4_
Locality: Sapat, Gilgit, Pakistan
Source: Farooq and Nazia Sawal
Description: Fragment of a green crystal
Measured chemistry: (Mg_1.81_Fe_0.18_Ni_0.01_)_Î£=2_Si_1.00_O_4_
Pin_id: M00216
Orientation: Laser parallel to b* (0 1 0). Fiducial mark perpendicular to laser is parallel to c [0 0 1]
Raman shift (cm-1)	intensity
46.644	0
50.85	60.536
55.054	380.898
59.255	760.884
63.454	703.83
67.652	488.61
71.847	386.936
76.04	230.982
80.232	6.564
84.421	13.622
88.608	81.753
92.793	40.312
96.976	19.503
101.157	18.789
105.336	51.969
109.513	50.998
113.688	64.532
117.861	19.547
122.032	26.695
126.201	2.749
130.367	30.706
134.532	49.655
138.695	47.167
142.856	29.013
147.014	38.161
151.171	70.089
155.325	56.793
159.478	10.994
163.629	0.02
167.777	8.849
171.924	23.696
176.068	27.028
180.211	2.975
184.351	36.495
188.49	19.603
192.626	37.7
196.761	41.262
200.893	70.214
205.024	116.206
209.152	143.323
213.279	387.473
217.403	724.494
221.526	949.332
225.646	832.452
229.765	512.112
233.881	378.956
237.996	238.344
242.108	188.19
246.219	140.07
250.328	131.978
254.434	114.053
258.539	99.259
262.641	147.426
266.742	122.093
270.84	132.944
274.937	134.289
279.032	135.004
283.125	163.971
287.215	246.138
291.304	317.594
295.391	626.22
299.476	1268.63
303.558	1383.62
307.639	758.46
311.718	464.405
315.795	400.916
319.87	548.364
323.943	770.2
328.014	748.832
332.083	707.532
336.15	856.758
340.215	763.424
344.279	423.411
348.34	244.884
352.399	168.568
356.457	118.752
360.512	133.061
364.565	100.92
368.617	91.184
372.666	82.82
376.714	65.159
380.76	54.467
384.803	36.313
388.845	37.731
392.885	18.743
396.923	16.385
400.959	26.417
404.993	52.44
409.025	98.69
413.055	216.44
417.084	320.603
421.11	258.591
425.134	155.73
429.157	126.555
433.177	132.625
437.196	141.592
441.213	87.899
445.227	53.312
449.24	34.372
453.251	15.944
457.26	33.474
461.267	12.969
465.272	16.058
469.276	31.76
473.277	60.06
477.276	43.308
481.274	26.564
485.27	31.705
489.263	34.211
493.255	10.079
497.245	21.928
501.233	49.659
505.219	17.969
509.203	52.324
513.186	88.944
517.166	122.591
521.145	148.529
525.121	179.179
529.096	187.519
533.069	331.813
537.04	654.09
541.009	1170.24
544.976	773.734
548.941	271.039
552.905	152.279
556.866	88.241
560.826	71.084
564.784	49.984
568.74	23.488
572.694	52.453
576.646	129.383
580.596	160.281
584.544	174.148
588.491	185.986
592.435	145.794
596.378	122.572
600.319	221.314
604.258	343.797
608.195	391.899
612.131	295.591
616.064	172.69
619.995	125.466
623.925	52.255
627.853	29.183
631.779	33.261
635.703	34.298
639.625	21.181
643.546	0.026
647.464	3.212
651.381	1.525
655.296	19.114
659.209	28.473
663.12	27.248
667.029	27.803
670.937	32.007
674.842	19.998
678.746	8.749
682.648	5.569
686.548	31.477
690.447	10.523
694.343	4.334
698.238	5.841
702.13	7.964
706.021	9.764
709.91	7.574
713.798	27.4
717.683	55.245
721.567	23
725.448	54.572
729.328	46.342
733.206	95.246
737.083	73.164
740.957	111.098
744.83	117.049
748.701	153.019
752.57	114.011
756.437	164.026
760.302	185.067
764.166	198.143
768.027	261.261
771.887	315.437
775.745	324.675
779.602	370.997
783.456	405.436
787.309	453.361
791.16	534.575
795.009	644.192
798.856	795.628
802.702	1070.91
806.545	1507.12
810.387	2306.3
814.227	4063.15
818.065	8304.15
821.902	14151
825.737	11642.5
829.569	7519.75
833.401	6029.61
837.23	6180.11
841.057	7905.19
844.883	12464
848.707	24000.1
852.529	42587
856.35	43244.3
860.168	24792.3
863.985	12500.5
867.8	7115.79
871.613	4597.16
875.425	3438.63
879.234	3178.2
883.042	2620.87
886.848	1793.65
890.653	1281.52
894.455	1045.49
898.256	847.573
902.055	790.753
905.852	677.035
909.648	659.42
913.442	718.906
917.233	865.561
921.024	833.057
924.812	779.093
928.599	796.819
932.384	894.951
936.167	1104.58
939.948	1398.48
943.728	1899.68
947.506	2535.19
951.282	3427.82
955.056	4801.13
958.829	6214.94
962.6	5797.82
966.369	4267.39
970.136	2567.68
973.902	1448.9
977.666	875.312
981.428	493.833
985.188	330.832
988.947	263.605
992.704	203.523
996.459	140.584
1000.21	97.755
1003.96	65.03
1007.71	80.392
1011.46	27.84
1015.21	42.357
1018.95	34.938
1022.7	29.582
1026.44	32.288
1030.18	47.057
1033.91	16.895
1037.65	42.787
1041.39	52.731
1045.12	48.835
1048.85	49.874
1052.58	24.956
1056.31	31.079
1060.03	46.24
1063.76	2.566
1067.48	29.657
1071.2	12.106
1074.92	15.879
1078.63	30.672
1082.35	45.551
1086.06	21.552
1089.78	4.611
1093.49	14.713
1097.19	18.895
1100.9	2.113
1104.61	8.635
1108.31	14.375
1112.01	17.034
1115.71	28.27
1119.41	35.308
1123.11	42.148
1126.8	27.883
1130.5	1.83
1134.19	34.296
1137.88	26.346
1141.57	46.842
1145.25	46.667
1148.94	78.018
1152.62	95.001
1156.3	81.252
1159.98	106.381
1163.66	65.137
1167.34	93.881
1171.01	107.551
1174.68	99.839
1178.36	77.389
1182.02	74.945
1185.69	53.459
1189.36	27.831
1193.02	48.285
1196.69	77.438
1200.35	40.733
1204.01	58.69
1207.66	94.559
1211.32	102.342
1214.98	60.098
1218.63	107.531
1222.28	92.685
1225.93	90.572
1229.58	75.018
1233.22	85.3
1236.87	71.947
1240.51	91.933
1244.15	25.904
1247.79	63.909
1251.43	38.852
1255.07	28.2
1258.7	24.011
1262.33	37.726
1265.96	18.612
1269.59	28.546
1273.22	13.384
1276.85	2.841
1280.47	3.472
1284.1	0.96
1287.72	21.449
1291.34	27.642
1294.95	23.985
1298.57	11.36
1302.19	11.499
1305.8	13.603
1309.41	15.753
1313.02	23.742
1316.63	13.614
1320.23	34.408
1323.84	30.128
1327.44	16.774
1331.05	20.359
1334.64	21.712
1338.24	29.097
1341.84	28.415
1345.43	33.66
1349.03	58.84
1352.62	41.958
1356.21	68.014
1359.8	59.261
1363.39	59.23
1366.97	71.186
1370.56	51.074
1374.14	45.149
1377.72	30.322
1381.3	17.522
1384.87	32.774
1388.45	40.004
1392.02	39.047
1395.6	27.856
1399.17	70.338
1402.74	46.475
1406.3	43.449
1409.87	10.046
1413.43	12.974
1417	50.304
1420.56	23.984
1424.12	36.33
1427.67	11.544
1431.23	10.339
1434.79	12.01
1438.34	49.657
1441.89	26.209
1445.44	20.815
1448.99	7.216
1452.54	31.239
1456.08	43.41
1459.62	39.292
1463.17	44.804
1466.71	62.402
1470.24	50.187
1473.78	41.917
1477.32	38.323
1480.85	82.473
1484.38	53.266
1487.91	73.354
1491.44	26.584
1494.97	45.632
1498.5	29.09
1502.02	26.945
1505.54	16.187
1509.07	19.227
1512.59	16.398
1516.1	12.287
