Measurement: Raman, 514 nm, ccw, Raman Data Processed
Mineral: Forsterite
Rruff sample: R040057
Ideal chemistry: Mg_2_SiO_4_
Locality: Trudy's mine, San Carlos, Gila County, Arizona, USA
Source: Bob Downs
Description: Dark green crystal fragments from xenoliths in a basalt flow
Measured chemistry: (Mg_1.67_Fe_0.32_Ni_0.01_)_Î£=2_Si_1.00_O_4_; trace amounts of Mn and Ca
Pin_id: L00065
Orientation: Laser parallel to -a* (-1 0 0). Fiducial mark perpendicular to laser is parallel to c [0 0 1]
Raman shift (cm-1)	intensity
90.587	0
94.768	18.445
98.947	12.795
103.124	30.21
107.3	104.102
111.473	115.894
115.644	290.168
119.813	330.027
123.981	168.915
128.146	101.425
132.309	132.292
136.47	108.252
140.63	164.06
144.787	250.667
148.942	140.028
153.096	179.024
157.247	151.551
161.396	124.527
165.544	110.9
169.689	121.947
173.833	157.258
177.974	235.542
182.114	169.822
186.251	187.226
190.387	220.089
194.52	214.618
198.652	368.602
202.782	373.76
206.909	602
211.035	845.302
215.159	1233.66
219.281	1108.05
223.4	914.476
227.518	780.943
231.634	701.467
235.748	605.052
239.86	421.513
243.97	247.87
248.079	200.195
252.185	109.988
256.289	76.433
260.391	119.893
264.492	53.974
268.59	58.786
272.687	118.071
276.781	110.765
280.874	183.086
284.964	245.745
289.053	363.638
293.14	810.202
297.225	1205.95
301.308	1195.77
305.389	928.589
309.468	1006.01
313.545	1137.56
317.62	1279.73
321.693	1570.98
325.765	1514.95
329.834	1290.33
333.902	1303.3
337.967	967.441
342.031	540.326
346.093	293.115
350.153	180.996
354.21	250.048
358.267	374.225
362.321	636.523
366.373	853.009
370.423	657.534
374.471	411.063
378.518	163.68
382.563	10.687
386.605	67.885
390.646	34.613
394.685	32.762
398.722	210.036
402.757	582.19
406.79	343.15
410.821	142.971
414.851	117.663
418.878	76.226
422.904	61.694
426.927	118.058
430.949	42.303
434.969	47.417
438.987	24.387
443.003	3.83
447.018	45.296
451.03	52.115
455.041	10.699
459.049	1.218
463.056	5.41
467.061	24.327
471.064	14.55
475.065	50.235
479.064	43.682
483.062	108.356
487.057	60.406
491.051	68.548
495.043	112.37
499.032	119.745
503.02	162.355
507.007	191.055
510.991	305.837
514.973	323.137
518.954	438.023
522.933	584.471
526.91	766.326
530.885	1294.42
534.858	2238.95
538.829	3182.71
542.799	2275.95
546.766	1152.32
550.732	724.729
554.696	495.622
558.658	416.679
562.618	369.498
566.576	479.937
570.533	590.755
574.488	804.893
578.44	1207.39
582.391	2076.55
586.341	2964.45
590.288	2397.81
594.233	1509.89
598.177	1039.43
602.119	884.701
606.059	791.53
609.997	571.172
613.933	479.186
617.868	406.669
621.801	362.55
625.731	157.429
629.66	113.951
633.588	109.545
637.513	8.915
641.437	86.197
645.358	104.046
649.278	121.918
653.196	47.155
657.113	32.834
661.027	23.938
664.94	57.361
668.851	40.637
672.76	37.943
676.667	34.123
680.572	85.924
684.476	19.595
688.378	40.742
692.278	89.498
696.176	29.713
700.072	57.591
703.967	66.221
707.86	30.342
711.751	190.895
715.64	51.979
719.527	134.923
723.413	124.735
727.297	83.423
731.179	130.007
735.059	165.491
738.937	261.874
742.814	272.166
746.689	337.396
750.562	427.551
754.433	446.684
758.303	507.851
762.17	623.019
766.036	692.303
769.901	806.696
773.763	903.156
777.624	972.658
781.482	1112
785.339	1403.83
789.195	1495.15
793.048	1896.43
796.9	2518.38
800.75	3327.96
804.598	4860.74
808.445	7119.2
812.289	12314.2
816.132	24693.3
819.973	43997.6
823.813	42700.7
827.65	26704.3
831.486	17538.3
835.32	14358
839.152	14607.8
842.983	18288.6
846.812	27744.1
850.639	43417.7
854.464	47853.1
858.288	33283.4
862.11	19822.2
865.93	11703.6
869.748	7231.88
873.564	4987.43
877.379	3681.19
881.192	2903.18
885.004	2159.66
888.813	1808.2
892.621	1739.93
896.427	1681.4
900.232	1836.66
904.034	2111.49
907.835	3277.4
911.634	5498.1
915.432	10616.6
919.227	10706.7
923.021	5324.2
926.813	3425.05
930.604	2321.13
934.393	2419.44
938.18	2578
941.965	3182.8
945.749	4110.94
949.53	5389.56
953.311	6567.58
957.089	7242.1
960.866	6370.15
964.641	5046.41
968.414	3537.52
972.185	2347.7
975.955	1502.31
979.723	1007.12
983.49	610.638
987.254	420.859
991.017	260.2
994.779	289.046
998.538	268.581
1002.3	257.487
1006.05	83.113
1009.81	116.203
1013.56	124.716
1017.31	74.007
1021.06	146.894
1024.81	99.999
1028.55	141.274
1032.3	52.783
1036.04	5.142
1039.78	165.72
1043.52	51.749
1047.26	62.02
1050.99	151.596
1054.73	22.947
1058.46	56.671
1062.19	6.738
1065.92	31.794
1069.65	80.337
1073.37	37.059
1077.1	14.512
1080.82	44.032
1084.54	89.616
1088.26	55.266
1091.97	1.954
1095.69	52.292
1099.4	41.584
1103.12	76.796
1106.83	13.903
1110.54	22.169
1114.24	20.729
1117.95	57.664
1121.65	278.874
1125.35	62.242
1129.06	13.123
1132.75	1.888
1136.45	47.884
1140.15	25.442
1143.84	130.702
1147.53	128.889
1151.22	22.97
1154.91	122.12
1158.6	141.588
1162.28	132.749
1165.97	160.495
1169.65	192.899
1173.33	184.448
1177.01	14.688
1180.69	115.752
1184.36	239.463
1188.04	163.233
1191.71	203.317
1195.38	110.482
1199.05	166.808
1202.71	268.965
1206.38	243.954
1210.04	238.021
1213.71	260.239
1217.37	281.81
1221.03	237.161
1224.68	276.009
1228.34	241.67
1231.99	160.115
1235.65	224.356
1239.3	236.362
1242.95	151.797
1246.59	199.497
1250.24	133.832
1253.88	170.609
1257.53	197.618
1261.17	57.651
1264.81	89.918
1268.45	165.092
1272.08	125.853
1275.72	169.302
1279.35	39.712
1282.98	175.586
1286.61	28.759
1290.24	72.409
1293.87	7.936
1297.49	18.659
1301.11	122.133
1304.73	0.34
1308.36	43.101
1311.97	102.982
1315.59	33.551
1319.2	182.815
1322.82	203.832
1326.43	154.983
1330.04	216.329
1333.65	97.383
1337.26	18.175
1340.86	109.539
1344.47	117.677
1348.07	170.849
1351.67	73.869
1355.27	218.902
1358.87	167.431
1362.46	179.104
1366.06	151.654
1369.65	178.344
1373.24	203.739
1376.83	207.068
1380.42	224.444
1384	194.437
1387.59	351.034
1391.17	234.727
1394.75	215.694
1398.33	232.806
1401.91	168.335
1405.49	304.631
1409.06	318.404
1412.64	171.233
1416.21	244.272
1419.78	100.117
1423.35	156.044
1426.91	244.985
1430.48	225.264
1434.05	138.915
1437.61	313.471
1441.17	354.452
1444.73	439.654
1448.29	376.573
1451.84	411.272
1455.4	418.233
1458.95	487.337
1462.5	304.615
1466.05	518.485
1469.6	301.095
1473.15	303.731
1476.69	184.385
1480.24	365.617
1483.78	182.242
1487.32	84.417
1490.86	96.948
1494.39	190.324
1497.93	212.716
1501.46	2.928
1505	144.522
1508.53	12.707
1512.06	98.896
1515.59	233.779
1519.11	112.72
