Measurement: Raman, 514 nm, ccw, Raman Data Processed
Mineral: Forsterite
Rruff sample: R060535
Ideal chemistry: Mg_2_SiO_4_
Locality: unknown
Source: Gemological Institute of America
Description: Transparent brown gemstone
Measured chemistry: (Mg_1.81_Fe_0.18_Ni_0.01_)_Î£=2_Si_1.00_O_4_
Pin_id: L00998
Orientation: Laser parallel to c* (0 0 1). Fiducial mark perpendicular to laser is parallel to a [1 0 0]
Raman shift (cm-1)	intensity
175.467	0
180.372	72.9492
185.274	67.709
190.174	31.3414
195.072	18.9371
199.967	27.5851
204.859	23.2301
209.749	164.063
214.637	478.056
219.521	851.553
224.404	895.277
229.284	632.403
234.161	434.206
239.036	282.692
243.908	133.109
248.777	74.6493
253.645	26.5546
258.509	89.0637
263.371	14.2677
268.231	55.2261
273.088	99.9827
277.942	97.0413
282.794	104.876
287.643	152.424
292.49	252.534
297.335	387.882
302.176	546.264
307.015	391.593
311.852	528.983
316.686	943.046
321.518	1522.34
326.347	1942.66
331.173	1635.53
335.997	1386.59
340.819	792.775
345.638	418.871
350.454	265.1
355.268	238.307
360.079	198.521
364.888	146.779
369.694	150.01
374.498	84.2267
379.299	80.4545
384.097	4.32288
388.893	5.17859
393.686	63.1802
398.477	44.3997
403.266	12.8973
408.051	22.3069
412.835	67.2756
417.615	172.059
422.394	192.662
427.169	258.982
431.942	268.64
436.713	119.682
441.481	110.448
446.246	141.07
451.009	162.547
455.769	164.876
460.527	263.054
465.282	322.083
470.035	361.944
474.785	416.621
479.532	458.106
484.277	569.391
489.02	583.475
493.76	593.388
498.497	604.405
503.232	653.48
507.964	599.501
512.693	626.995
517.421	698.831
522.145	851.295
526.867	1145.13
531.587	1804.08
536.303	2723.8
541.018	3454.79
545.729	2088.82
550.439	1027.99
555.145	743.219
559.849	654.673
564.551	616.88
569.25	543.845
573.946	517.577
578.64	414.087
583.331	398.317
588.02	449.301
592.706	453.188
597.39	443.873
602.071	569.362
606.749	576.66
611.425	524.77
616.099	431.699
620.769	284.451
625.438	176.034
630.103	98.4523
634.766	36.7135
639.427	16.7562
644.085	14.1403
648.74	8.77856
653.393	10.8115
658.044	48.4739
662.691	35.2477
667.336	51.509
671.979	18.1665
676.619	30.0796
681.257	6.18677
685.892	17.3015
690.524	31.6312
695.154	43.585
699.781	87.5327
704.406	163.483
709.028	242.446
713.647	316.433
718.264	429.454
722.878	640.52
727.49	918.643
732.1	1195.83
736.706	1535.09
741.31	2038.44
745.912	2949.88
750.511	3563.43
755.107	3334.09
759.701	2470.88
764.292	1593.79
768.881	1081.87
773.467	990.942
778.051	1046.68
782.632	917.118
787.21	920.735
791.786	1112.9
796.359	1540.64
800.93	2353.2
805.498	3906.59
810.064	7438.41
814.627	17136.6
819.187	35749.9
823.745	40263.7
828.301	21707.6
832.853	10753.9
837.403	7294.76
841.951	6848.96
846.496	9540.48
851.038	15720.3
855.578	17091.5
860.116	9811.99
864.65	4708.81
869.183	2429.97
873.712	1362.46
878.239	836.31
882.764	618.457
887.285	348.052
891.805	230.743
896.322	117.878
900.836	99.3662
905.347	95.3946
909.856	83.1528
914.363	323.924
918.867	424.381
923.368	305.091
927.867	147.355
932.363	191.129
936.856	365.806
941.347	577.301
945.836	981.789
950.322	1747.44
954.805	2894.31
959.286	3913.45
963.764	3586.59
968.239	2319.93
972.712	1179.1
977.183	647.185
981.65	326.814
986.116	190.599
990.578	200.532
995.038	66.6903
999.496	130.898
1003.95	80.2288
1008.4	55.6755
1012.85	39.2662
1017.3	37.9153
1021.75	13.6516
1026.19	31.4675
1030.63	57.3535
1035.06	34.7003
1039.5	3.24902
1043.93	12.7727
1048.36	36.8187
1052.79	17.9556
1057.21	39.2014
1061.63	6.69592
1066.05	34.3401
1070.47	1.18018
1074.88	26.227
1079.29	19.5607
1083.7	14.2727
1088.11	1.85107
1092.51	13.2338
1096.91	19.6433
1101.31	15.946
1105.7	38.4409
1110.1	50.7013
1114.49	42.8563
1118.88	93.9071
1123.26	80.8448
1127.64	103.663
1132.02	121.358
1136.4	67.9645
1140.78	61.4509
1145.15	108.766
1149.52	127.982
1153.89	140.068
1158.25	148.014
1162.61	133.815
1166.97	144.2
1171.33	167.701
1175.68	124.001
1180.04	124.721
1184.39	158.133
1188.73	137.502
1193.08	155.312
1197.42	175.535
1201.76	170.125
1206.1	171.362
1210.43	180.9
1214.76	277.744
1219.09	275.618
1223.41	254.436
1227.74	264.092
1232.06	279.678
1236.38	199.572
1240.69	280.373
1245.01	230.233
1249.32	173.556
1253.63	281.734
1257.93	221.823
1262.23	229.613
1266.54	184.434
1270.83	195.248
1275.13	140.004
1279.42	214.969
1283.71	177.162
1288	150.673
1292.28	145.141
1296.57	122.526
1300.85	41.871
1305.12	59.1844
1309.4	47.4867
1313.67	87.7978
1317.94	7.88196
1322.21	28.496
1326.47	42.8516
1330.73	10.2033
1334.99	10.5588
1339.25	19.0891
1343.5	16.2075
1347.75	16.5172
1352	9.84277
1356.25	33.2057
1360.49	13.6951
1364.73	48.2114
1368.97	36.7139
1373.21	9.18811
1377.44	45.6381
1381.67	33.067
1385.9	43.4785
1390.13	2.1283
1394.35	30.2255
1398.57	11.5692
1402.79	0.082886
1407	7.7262
1411.22	62.729
1415.43	58.1446
1419.63	63.5931
1423.84	74.0768
1428.04	35.8062
1432.24	64.3179
1436.44	35.062
1440.63	81.4356
1444.83	157.544
1449.02	130.134
1453.2	186.401
1457.39	167.243
1461.57	219.859
1465.75	162.957
1469.93	229.911
1474.1	163.219
1478.27	226.287
1482.44	261.398
1486.61	274.236
1490.77	275.602
1494.93	282.852
1499.09	348.068
1503.25	269.157
1507.4	188.244
1511.55	231.575
1515.7	146.129
1519.85	108.734
1523.99	87.5303
1528.13	147.714
1532.27	103.188
1536.4	30.9854
1540.54	92.2516
1544.67	59.1043
1548.8	13.746
1552.92	8.63403
1557.05	28.938
1561.16	0.796265
1565.28	0
