Measurement: Raman, 514 nm, ccw, Raman Data Processed
Mineral: Forsterite
Rruff sample: R040057
Ideal chemistry: Mg_2_SiO_4_
Locality: Trudy's mine, San Carlos, Gila County, Arizona, USA
Source: Bob Downs
Description: Dark green crystal fragments from xenoliths in a basalt flow
Measured chemistry: (Mg_1.67_Fe_0.32_Ni_0.01_)_Î£=2_Si_1.00_O_4_; trace amounts of Mn and Ca
Pin_id: L00083
Orientation: Laser parallel to c* (0 0 1). Fiducial mark perpendicular to laser is parallel to b [0 1 0]
Raman shift (cm-1)	intensity
76.635	0
80.823	76.078
85.009	55.715
89.193	100.133
93.375	82.434
97.554	45.53
101.732	18.323
105.908	117.078
110.082	52.271
114.254	203.828
118.424	143.353
122.592	101.017
126.758	1.463
130.922	21.12
135.083	6.069
139.243	53.831
143.401	25.767
147.557	7.279
151.711	23.307
155.863	1.791
160.013	19.456
164.161	38.544
168.308	40.709
172.452	91.873
176.594	86.997
180.734	123.076
184.872	167.123
189.008	111.093
193.143	110.939
197.275	118.646
201.405	192.133
205.534	276.535
209.66	491.894
213.784	775.225
217.907	921.536
222.027	921.858
226.146	810.527
230.263	780.404
234.377	718.607
238.49	594.708
242.601	423.771
246.709	322.655
250.816	253.096
254.921	177.828
259.024	147.355
263.125	123.679
267.224	137.707
271.321	173.529
275.416	159.18
279.51	184
283.601	211.912
287.69	289.966
291.778	429.106
295.863	599.116
299.947	637.227
304.029	512.48
308.108	587.038
312.186	832.937
316.262	1445.86
320.336	2059.2
324.408	2197.07
328.478	1968.56
332.546	1751.38
336.612	1385.39
340.677	837.445
344.739	460.543
348.799	274.677
352.858	222.845
356.915	118.05
360.969	144.33
365.022	68.679
369.073	75.03
373.122	21.333
377.169	17.576
381.215	10.75
385.258	10.848
389.299	16.864
393.339	0.763
397.376	15.5
401.412	17.971
405.446	25.622
409.478	25.522
413.508	118.534
417.536	202.443
421.562	294.253
425.586	317.964
429.609	212.577
433.629	124.095
437.648	61.567
441.665	19.889
445.68	25.1
449.693	11.199
453.704	0.818
457.713	37.046
461.721	62.819
465.726	115.495
469.73	111.122
473.731	86.964
477.731	109.754
481.729	109.055
485.725	139.619
489.72	100.101
493.712	146.406
497.703	130.519
501.691	200.532
505.678	254.435
509.663	224.86
513.646	366.284
517.627	454.913
521.607	559.191
525.584	833.064
529.56	1387.13
533.534	2518.26
537.506	4006.22
541.476	3698.83
545.444	1989.12
549.41	1036.19
553.375	655.747
557.337	397.037
561.298	354.553
565.257	294.681
569.214	271.806
573.17	306.702
577.123	297.746
581.075	228.654
585.024	194.427
588.972	182.065
592.918	153.572
596.863	128.819
600.805	231.463
604.746	235.887
608.685	275.806
612.621	211.652
616.557	204.629
620.49	139.785
624.421	160.958
628.351	73.365
632.279	4.634
636.205	22.775
640.129	8.638
644.051	20.656
647.972	7.851
651.89	9.155
655.807	23.818
659.722	14.103
663.636	12.657
667.547	41.487
671.457	28.586
675.365	42.977
679.271	38
683.175	9.241
687.077	5.929
690.978	17.809
694.877	51.483
698.774	75.107
702.669	54.69
706.562	54.237
710.454	79.788
714.344	114.367
718.232	162.941
722.118	135.522
726.002	165.124
729.885	232.71
733.766	201.278
737.645	265.832
741.522	257.377
745.397	327.93
749.271	366.49
753.143	433.027
757.013	534.652
760.881	610.326
764.748	688.062
768.613	813.873
772.476	940.747
776.337	1040.66
780.196	1191.63
784.054	1392.52
787.91	1700.17
791.764	2052.59
795.616	2644.47
799.467	3515.74
803.316	5097.59
807.163	7810.94
811.008	13203.4
814.851	25506.6
818.693	48663.3
822.533	57430.5
826.371	37952.4
830.208	22759.3
834.042	15243.7
837.875	12509.9
841.706	12192.5
845.536	15062
849.363	21292.5
853.189	24703.4
857.013	19219.4
860.836	11726.6
864.656	6918.87
868.475	4280.34
872.292	2871.97
876.108	1934.75
879.922	1438.69
883.733	1101.79
887.544	867.046
891.352	675.534
895.159	518.124
898.964	438.385
902.767	357.505
906.568	465.839
910.368	400.612
914.166	481.42
917.962	525.97
921.757	526.153
925.55	538.864
929.341	620.126
933.13	727.061
936.918	979.298
940.703	1357.41
944.488	1883.3
948.27	2613.52
952.051	3595.24
955.83	4293.22
959.607	4262.06
963.383	3707.15
967.156	2779.35
970.928	1926.81
974.699	1298.52
978.468	893.551
982.234	641.888
986	415.572
989.763	301.453
993.525	250.538
997.285	166.802
1001.04	110.244
1004.8	151.848
1008.55	74.614
1012.31	78.541
1016.06	88.606
1019.81	56.25
1023.56	62.442
1027.31	54.071
1031.05	68.687
1034.79	13.445
1038.53	30.36
1042.27	13.4
1046.01	41.434
1049.75	8.183
1053.48	48.826
1057.22	6.434
1060.95	16.975
1064.68	40.474
1068.4	11.968
1072.13	2.441
1075.86	2.864
1079.58	12.213
1083.3	4.498
1087.02	14.59
1090.74	6.052
1094.45	6.878
1098.17	53.265
1101.88	39.876
1105.59	18.316
1109.3	3.598
1113.01	53.436
1116.71	49.373
1120.42	60.453
1124.12	142.459
1127.82	30.759
1131.52	83.959
1135.22	69.531
1138.91	39.41
1142.61	89.848
1146.3	91.763
1149.99	48.115
1153.68	80.22
1157.37	83.183
1161.06	87.368
1164.74	167.954
1168.42	46.993
1172.1	95.123
1175.78	113.264
1179.46	90.612
1183.14	103.135
1186.81	131.027
1190.48	142.422
1194.15	122.492
1197.83	103.564
1201.49	180.568
1205.16	214.34
1208.82	192.095
1212.49	200.623
1216.15	169.605
1219.81	204.084
1223.46	141.783
1227.12	133.676
1230.78	177.724
1234.43	125.818
1238.08	159.425
1241.73	91.619
1245.38	119.746
1249.03	93.386
1252.67	21.874
1256.31	64.838
1259.95	29.83
1263.6	57.728
1267.23	39.51
1270.87	25.17
1274.51	28.671
1278.14	27.621
1281.77	13.372
1285.4	19.436
1289.03	27.606
1292.66	15.536
1296.28	8.364
1299.91	37.097
1303.53	33.738
1307.15	28.297
1310.77	56.782
1314.38	29.752
1318	2.919
1321.61	50.098
1325.23	1.457
1328.84	7.502
1332.45	26.261
1336.06	7.324
1339.66	29.127
1343.27	28.876
1346.87	27.577
1350.47	43.256
1354.07	62.906
1357.67	34.542
1361.26	51.339
1364.86	96.992
1368.45	45.641
1372.04	121.294
1375.63	99.003
1379.22	68.21
1382.81	96.464
1386.39	61.419
1389.98	74.979
1393.56	113.977
1397.14	42.628
1400.72	85.855
1404.3	125.124
1407.87	116.618
1411.45	61.266
1415.02	126.886
1418.59	134.826
1422.16	78.353
1425.73	56.071
1429.29	166.64
1432.86	97.203
1436.42	97.938
1439.98	137.049
1443.54	133.799
1447.1	174.177
1450.66	196.407
1454.21	174.44
1457.77	175.21
1461.32	126.555
1464.87	58.139
1468.42	105.894
1471.96	131.851
1475.51	105.854
1479.06	86.262
1482.6	49.962
1486.14	28.77
1489.68	38.656
1493.22	63.751
1496.75	76.219
1500.29	41.12
1503.82	26.516
1507.35	46.497
1510.88	32.347
1514.41	34.274
1517.94	2.934
1521.46	58.741
