Measurement: Raman, 514 nm, ccw, Raman Data Processed
Mineral: Forsterite
Rruff sample: R040052
Ideal chemistry: Mg_2_SiO_4_
Locality: Synthetic, Czochralski method
Source: Hideki Kanazawa of Kyoto University, Japan
Description: Colorless crystal fragments obtained from a boule.
Measured chemistry: Mg_2.00_Si_1.00_O_4_
Pin_id: L00366
Orientation: Laser parallel to b* (0 1 0). Fiducial mark perpendicular to laser is parallel to c [0 0 1]
Raman shift (cm-1)	intensity
68.955	0
73.172	748.142
77.386	2122.09
81.599	1424.64
85.81	757.184
90.018	653.067
94.224	594.421
98.428	396.935
102.63	360.091
106.83	491.439
111.027	1223.6
115.222	1351.13
119.416	2903.29
123.607	602.921
127.795	163.98
131.982	127.421
136.167	182.71
140.349	197.6
144.529	111.045
148.707	97.545
152.883	13.845
157.057	49.861
161.228	58.99
165.398	2.572
169.565	4.737
173.73	40.117
177.893	43.094
182.054	5.628
186.213	59.004
190.369	68.513
194.524	87.929
198.676	86.538
202.826	66.323
206.975	35.583
211.121	18.446
215.264	53.697
219.406	35.367
223.546	49.629
227.683	921.579
231.818	675.893
235.952	106.11
240.083	230.328
244.212	562.237
248.338	252.372
252.463	218.074
256.586	179.865
260.706	180.45
264.825	228.185
268.941	226.152
273.055	190.121
277.167	137.092
281.277	178.052
285.385	260.757
289.491	271.731
293.595	237.197
297.696	319.633
301.796	824.057
305.893	3178.21
309.989	1508.28
314.082	526.97
318.173	383.787
322.262	363.992
326.349	392.664
330.434	842.664
334.517	664.15
338.598	619.146
342.676	893.866
346.753	419.998
350.827	272.042
354.9	147.886
358.97	126.992
363.039	188.732
367.105	168.249
371.169	190.495
375.231	96.723
379.291	115.938
383.349	192.754
387.405	149.765
391.459	149.423
395.511	182.977
399.56	215.425
403.608	151.755
407.654	158.572
411.697	125.299
415.739	225.337
419.778	352.873
423.816	712.258
427.851	500.979
431.884	329.883
435.916	617.973
439.945	1094.05
443.972	958.739
447.997	454.925
452.02	289.949
456.041	181.823
460.06	120.548
464.077	69.206
468.092	183.639
472.105	139.887
476.116	99.321
480.125	61.664
484.132	123.883
488.137	174.027
492.14	65.129
496.141	83.972
500.139	90.672
504.136	81.984
508.131	117.974
512.124	40.031
516.114	90.305
520.103	174.773
524.09	108.643
528.075	116.538
532.057	34.449
536.038	190.875
540.017	238.256
543.993	376.824
547.968	713.315
551.941	442
555.911	274.44
559.88	194.118
563.847	114.491
567.812	86.98
571.774	186.836
575.735	336.681
579.694	412.896
583.65	758.607
587.605	1723.01
591.558	1677.26
595.509	983.449
599.458	807.523
603.404	1019.19
607.349	2015.42
611.292	3567.72
615.233	2636.03
619.172	1204.89
623.109	626.825
627.044	508.931
630.977	468.587
634.908	281.295
638.837	102.181
642.764	132.969
646.689	227.683
650.612	232.243
654.533	212.658
658.453	65.409
662.37	42.195
666.285	26.803
670.199	89.542
674.11	5.569
678.02	92.907
681.927	29.464
685.833	30.047
689.736	41.429
693.638	17.662
697.538	90.199
701.435	68.174
705.331	10.261
709.225	56.448
713.117	10.82
717.007	73.138
720.895	55.541
724.781	62.983
728.665	72.474
732.548	85.935
736.428	39.369
740.306	54.78
744.183	172.175
748.057	207.559
751.93	171.94
755.801	111.315
759.669	56.691
763.536	190.068
767.401	347.447
771.264	328.836
775.125	334.233
778.984	271.638
782.842	329.053
786.697	418.482
790.55	491.93
794.402	644.393
798.251	694.875
802.099	725.313
805.945	1135.33
809.789	1569.5
813.631	2356.26
817.471	3538.53
821.309	6940.81
825.145	17467
828.98	21900.3
832.812	10905.1
836.643	5649.37
840.471	3857.51
844.298	3948.84
848.123	5617.3
851.946	10624.8
855.767	24501.2
859.586	46258
863.404	26506.1
867.219	10944.4
871.033	6022.73
874.844	4341.16
878.654	4289.77
882.462	6878.4
886.268	8107.24
890.072	3462.04
893.874	1724.92
897.675	1109.01
901.473	861.044
905.27	578.311
909.065	367.507
912.858	363.787
916.649	411.209
920.438	490.659
924.225	360.231
928.011	306.859
931.794	321.575
935.576	290.392
939.356	394.756
943.134	483.76
946.91	576.738
950.684	734.978
954.457	1019.03
958.228	1594.65
961.996	3047.61
965.763	6453.49
969.528	8584.39
973.291	4005.5
977.053	1546.64
980.812	774.903
984.57	421.28
988.326	305.752
992.08	205.319
995.832	248.991
999.582	230.755
1003.33	227.339
1007.08	157.259
1010.82	49.983
1014.57	123.731
1018.31	172.655
1022.04	134.052
1025.78	75.923
1029.52	15.659
1033.25	42.819
1036.98	141.328
1040.71	127.897
1044.44	112.651
1048.17	51.503
1051.89	83.5
1055.62	3.245
1059.34	56.095
1063.06	35.282
1066.78	52.404
1070.49	36.838
1074.2	91.159
1077.92	56.934
1081.63	123.549
1085.33	46.725
1089.04	91.749
1092.75	36.367
1096.45	60.91
1100.15	33.454
1103.85	150.001
1107.55	70.542
1111.24	120.079
1114.94	108.609
1118.63	111.127
1122.32	143.625
1126.01	123.102
1129.69	42.566
1133.38	36.019
1137.06	34.325
1140.74	51.617
1144.42	20.158
1148.1	58.926
1151.78	35.011
1155.45	16.513
1159.12	1.989
1162.8	24.526
1166.46	31.621
1170.13	75.336
1173.8	84.306
1177.46	126.306
1181.12	80.288
1184.78	115.842
1188.44	21.851
1192.1	102.46
1195.75	83.005
1199.4	46.543
1203.06	114.469
1206.7	56.177
1210.35	40.747
1214	113.7
1217.64	127.423
1221.28	73.739
1224.92	220.093
1228.56	135.236
1232.2	207.226
1235.84	205.095
1239.47	317.584
1243.1	189.585
1246.73	181.98
1250.36	198.175
1253.99	160.179
1257.61	202.012
1261.23	169.517
1264.86	171.291
1268.47	176.706
1272.09	193.717
1275.71	195.382
1279.32	120.903
1282.93	32.004
1286.55	149.712
1290.15	45.737
1293.76	58.23
1297.37	155.088
1300.97	6.469
1304.57	73.414
1308.17	23.785
1311.77	75.446
1315.37	2.425
1318.96	71.982
1322.56	186.583
1326.15	55.962
1329.74	39.264
1333.33	84.069
1336.92	34.707
1340.5	26.187
1344.08	15.192
1347.66	17.158
1351.24	14.455
1354.82	75.146
1358.4	181.557
1361.97	108.786
1365.55	193.83
1369.12	125.7
1372.69	125.405
1376.26	76.922
1379.82	79.59
1383.38	80.791
1386.95	130.85
1390.51	148.14
1394.07	197.45
1397.62	167.915
1401.18	202.869
1404.73	167.667
1408.29	218.155
1411.84	118.92
1415.39	118.977
1418.93	151.562
1422.48	148.256
1426.02	199.203
1429.57	168.718
1433.11	199.621
1436.64	307.192
1440.18	405.113
1443.72	451.796
1447.25	574.972
1450.78	457.854
1454.31	549.284
1457.84	600.718
1461.37	506.277
1464.89	486.086
1468.42	517.665
1471.94	501.489
1475.46	468.468
1478.98	451.545
1482.5	320.324
1486.01	354.401
1489.53	296.383
1493.04	203.259
1496.55	117.175
1500.06	178.373
1503.56	184.925
1507.07	162.736
1510.57	199.895
1514.07	136.451
1517.57	137.737
1521.07	230.311
1524.57	0
