Measurement: Raman, 514 nm, ccw, Raman Data Processed
Mineral: Forsterite
Rruff sample: R060539
Ideal chemistry: Mg_2_SiO_4_
Locality: Sri Lanka
Source: Gemological Institute of America
Description: Brown cut gemstone
Measured chemistry: (Mg_1.67_Fe_0.33_)_Î£=2_Si_1.00_O_4_; trace amounts of Mn and Ca
Pin_id: L01564
Orientation: Laser parallel to -b* (0 -1 0). Fiducial mark perpendicular to laser is parallel to c [0 0 1]
Raman shift (cm-1)	intensity
138.598	0
143.522	32.5956
148.444	54.9565
153.363	116.437
158.279	98.6704
163.193	89.5845
168.104	149.505
173.013	40.2986
177.92	41.8856
182.823	27.0232
187.725	27.7645
192.623	8.96851
197.52	15.485
202.413	1.63538
207.305	43.825
212.193	112.031
217.079	240.246
221.963	255.714
226.844	356.983
231.723	433.689
236.599	416.417
241.472	343.896
246.343	246.263
251.211	189.481
256.077	182.814
260.94	202.66
265.801	166.965
270.66	192.605
275.515	270.209
280.368	374.782
285.219	892.234
290.067	1731.68
294.913	3077.81
299.756	3830.95
304.596	2862.47
309.434	1795.51
314.27	1390.61
319.102	1319.92
323.933	884.144
328.76	442.331
333.586	287.216
338.408	175.216
343.229	139.169
348.046	87.595
352.861	105.165
357.674	67.4808
362.484	59.7556
367.291	38.946
372.096	21.8932
376.898	42.2152
381.698	39.2617
386.495	36.384
391.29	132.619
396.082	211.964
400.872	554.302
405.659	1119.61
410.443	1532.94
415.225	1155.3
420.005	526.574
424.782	301.737
429.556	144.783
434.328	166.704
439.097	37.4888
443.864	25.8943
448.628	10.6126
453.389	27.7034
458.148	29.7283
462.905	30.8584
467.659	27.7639
472.41	66.4385
477.159	110.935
481.905	105.301
486.649	113.498
491.39	158.53
496.129	119.362
500.865	82.0574
505.598	192.675
510.329	145.965
515.057	126.126
519.783	134.242
524.506	129.674
529.227	136.125
533.945	154.694
538.661	183.364
543.374	228.72
548.084	246.514
552.792	338.705
557.498	368.121
562.2	407.442
566.901	472.219
571.598	641.892
576.293	862.097
580.986	1180.85
585.676	1861.27
590.363	2963.74
595.048	4759.74
599.731	6369.84
604.41	6003.96
609.088	4163.89
613.762	2493.01
618.434	1415.96
623.104	865.923
627.771	536.737
632.435	322.514
637.097	190.132
641.756	105.577
646.413	110.891
651.067	17.9385
655.719	23.9531
660.368	34.3691
665.014	20.0083
669.658	3.91211
674.299	39.7078
678.938	10.1816
683.574	38.2048
688.208	28.9487
692.839	29.9341
697.468	17.5869
702.094	16.1565
706.717	44.7085
711.338	38.2495
715.956	36.7996
720.572	49.373
725.185	50.0071
729.795	118.788
734.403	118.749
739.009	184.925
743.611	189.231
748.212	206.66
752.809	318.208
757.405	411.869
761.997	457.646
766.587	528.551
771.174	624.589
775.759	688.77
780.342	832.107
784.921	1072.52
789.498	1368.89
794.073	1898.83
798.645	2785.59
803.215	4473.5
807.781	7796.48
812.346	16005.4
816.907	33194
821.467	45905.3
826.023	31932.5
830.577	17795.6
835.129	12733.8
839.678	13675.2
844.224	20662.2
848.768	35335.4
853.309	45128.1
857.847	33806.2
862.383	17474.6
866.917	9001.35
871.448	5285.41
875.976	3676.8
880.502	2977.53
885.025	1865.58
889.545	1105.95
894.063	591.841
898.579	427.682
903.092	280.034
907.602	244.711
912.11	183.713
916.615	164.55
921.118	132.665
925.618	129.817
930.115	251.084
934.61	398.788
939.102	635.796
943.592	1235.31
948.079	2326.86
952.564	4003.89
957.046	4878.11
961.525	4831.79
966.002	3765.01
970.476	2670.43
974.948	1665.69
979.417	1109.88
983.883	808.186
988.347	615.644
992.809	549.332
997.268	319.08
1001.72	294.996
1006.18	196.999
1010.63	136.119
1015.08	194.347
1019.52	190.676
1023.97	178.119
1028.41	155.645
1032.85	133.246
1037.28	100.913
1041.71	86.9133
1046.14	4.3125
1050.57	19.5154
1055	4.8064
1059.42	33.3369
1063.84	16.2109
1068.26	70.4141
1072.67	34.0576
1077.09	23.9451
1081.5	4.69849
1085.9	1.36011
1090.31	50.9116
1094.71	10.3838
1099.11	53.6746
1103.51	17.6826
1107.9	28.5322
1112.29	86.3186
1116.68	42.0151
1121.07	33.6506
1125.45	85.1968
1129.84	119.656
1134.21	89.0261
1138.59	126.302
1142.96	151.482
1147.34	159.691
1151.7	118.023
1156.07	174.9
1160.43	177.712
1164.79	130.43
1169.15	147.095
1173.51	195.589
1177.86	218.831
1182.21	103.752
1186.56	111.088
1190.91	108.607
1195.25	196.502
1199.59	221.942
1203.93	175.99
1208.26	221.238
1212.6	226.959
1216.92	220.69
1221.25	164.517
1225.58	242.046
1229.9	242.738
1234.22	198.229
1238.54	217.596
1242.85	132.007
1247.16	163.016
1251.47	137.995
1255.78	104.354
1260.08	128.855
1264.38	105.198
1268.68	74.5662
1272.98	49.9273
1277.28	67.2788
1281.57	31.6155
1285.86	26.9192
1290.14	39.408
1294.42	1.28052
1298.71	41.459
1302.98	10.0874
1307.26	76.426
1311.53	37.7947
1315.8	11.7432
1320.07	12.8804
1324.34	65.7107
1328.6	53.748
1332.86	127.018
1337.12	5.49561
1341.38	88.0879
1345.63	46.7375
1349.88	56.4441
1354.13	14.791
1358.37	37.0972
1362.61	83.1382
1366.85	16.2073
1371.09	29.7173
1375.33	14.9705
1379.56	94.1257
1383.79	46.3772
1388.01	63.6123
1392.24	82.9356
1396.46	101.319
1400.68	59.7661
1404.9	99.1538
1409.11	71.3801
1413.32	56.8772
1417.53	30.6362
1421.74	75.2398
1425.94	141.691
1430.14	65.6257
1434.34	83.8298
1438.54	71.9495
1442.73	131.733
1446.92	81.9304
1451.11	106.708
1455.3	38.4885
1459.48	165.969
1463.66	126.679
1467.84	26.0503
1472.01	84.7786
1476.19	93.2236
1480.36	79.4165
1484.53	120.869
1488.69	83.4304
1492.85	79.7239
1497.01	25.1868
1501.17	28.728
1505.33	80.3569
1509.48	22.092
1513.63	84.8838
1517.78	91.7671
1521.92	39.8557
1526.06	45.0427
1530.2	57.6243
1534.34	11.4661
1538.47	107.046
1542.6	138.148
1546.73	109.688
1550.86	59.231
1554.98	40.7935
1559.11	19.425
1563.22	46.6475
