Measurement: Raman, 514 nm, ccw, Raman Data Processed
Mineral: Forsterite
Rruff sample: R060539
Ideal chemistry: Mg_2_SiO_4_
Locality: Sri Lanka
Source: Gemological Institute of America
Description: Brown cut gemstone
Measured chemistry: (Mg_1.67_Fe_0.33_)_Î£=2_Si_1.00_O_4_; trace amounts of Mn and Ca
Pin_id: L01564
Orientation: Laser parallel to -b* (0 -1 0). Fiducial mark perpendicular to laser is parallel to c [0 0 1]
Raman shift (cm-1)	intensity
138.598	0
143.522	38.154
148.444	70.4111
153.363	113.047
158.279	82.5896
163.193	96.2152
168.104	69.7192
173.013	62.3093
177.92	43.1614
182.823	37.9066
187.725	79.2833
192.623	135.777
197.52	112.456
202.413	172.998
207.305	298.075
212.193	387.601
217.079	390.959
221.963	470.258
226.844	384.406
231.723	344.338
236.599	256.72
241.472	158.993
246.343	159.211
251.211	152.124
256.077	124.539
260.94	204.931
265.801	156.93
270.66	188.17
275.515	160.553
280.368	162.61
285.219	252.525
290.067	578.418
294.913	828.929
299.756	1006.88
304.596	820.412
309.434	468.367
314.27	439.342
319.102	437.894
323.933	297.243
328.76	304.296
333.586	289.132
338.408	312.648
343.229	296.606
348.046	250.68
352.861	180.344
357.674	103.855
362.484	33.2449
367.291	29.0872
372.096	5.25696
376.898	48.8141
381.698	39.6215
386.495	26.6019
391.29	30.5696
396.082	18.6334
400.872	37.2878
405.659	134.938
410.443	224.443
415.225	175.843
420.005	234.295
424.782	308.853
429.556	491.517
434.328	530.173
439.097	290.74
443.864	115.182
448.628	43.4751
453.389	39.6128
458.148	54.5909
462.905	117.414
467.659	135.108
472.41	94.7549
477.159	78.2505
481.905	46.5727
486.649	65.7126
491.39	23.6628
496.129	67.4116
500.865	30.9758
505.598	109.75
510.329	112.07
515.057	130.385
519.783	143.096
524.506	208.057
529.227	254.632
533.945	321.522
538.661	389.229
543.374	296.478
548.084	218.887
552.792	130.466
557.498	191.025
562.2	300.913
566.901	418.291
571.598	653.847
576.293	952.608
580.986	1163.08
585.676	1073.52
590.363	946.951
595.048	1158.91
599.731	1348.54
604.41	1312.41
609.088	1008.09
613.762	757.445
618.434	809.45
623.104	832.836
627.771	561.043
632.435	346.556
637.097	334.552
641.756	408.028
646.413	546.723
651.067	381.031
655.719	260.99
660.368	111.967
665.014	25.01
669.658	19.6981
674.299	20.7992
678.938	0.675781
683.574	14.1982
688.208	10.5137
692.839	29.6867
697.468	53.4179
702.094	65.9968
706.717	26.868
711.338	31.704
715.956	11.3439
720.572	8.8219
725.185	89.8739
729.795	127.486
734.403	129.03
739.009	104.518
743.611	118.955
748.212	156.345
752.809	126.701
757.405	223.036
761.997	265.356
766.587	227.678
771.174	350.013
775.759	366.397
780.342	378.844
784.921	481.397
789.498	666.14
794.073	839.153
798.645	1039.42
803.215	1528.03
807.781	2649.49
812.346	5227.47
816.907	10088.5
821.467	13646.5
826.023	10334.9
830.577	6749.38
835.129	6040.65
839.678	7527.69
844.224	11903.4
848.768	20205.2
853.309	24695
857.847	19014.6
862.383	10555
866.917	5872.58
871.448	4132.43
875.976	4043.59
880.502	4046.04
885.025	2639.72
889.545	1524.65
894.063	1056.86
898.579	900.317
903.092	810.028
907.602	707.396
912.11	751.903
916.615	704.412
921.118	554.707
925.618	574.487
930.115	595.902
934.61	770.201
939.102	1006.92
943.592	1468.78
948.079	2100.99
952.564	2793.5
957.046	2966.32
961.525	2584.84
966.002	1893.7
970.476	1182.09
974.948	654.18
979.417	468.649
983.883	298.67
988.347	164.735
992.809	193.978
997.268	282.374
1001.72	462.909
1006.18	161.347
1010.63	112.13
1015.08	96.7473
1019.52	165.764
1023.97	132.764
1028.41	118.06
1032.85	38.3613
1037.28	46.8477
1041.71	8.29102
1046.14	7.75513
1050.57	8.82886
1055	15.5049
1059.42	89.0842
1063.84	64.3206
1068.26	8.13892
1072.67	30.749
1077.09	115.818
1081.5	134.69
1085.9	217.729
1090.31	142.477
1094.71	40.3821
1099.11	63.283
1103.51	52.165
1107.9	122.033
1112.29	132.054
1116.68	44.6987
1121.07	52.4807
1125.45	45.2285
1129.84	115.942
1134.21	29.6209
1138.59	27.7556
1142.96	4.60522
1147.34	64.8523
1151.7	89.0571
1156.07	9.83057
1160.43	69.1489
1164.79	1.91748
1169.15	81.9385
1173.51	100.335
1177.86	93.7856
1182.21	86.0295
1186.56	66.6621
1190.91	46.1782
1195.25	72.6174
1199.59	48.3672
1203.93	28.447
1208.26	58.9473
1212.6	65.4375
1216.92	168.943
1221.25	85.4673
1225.58	94.0107
1229.9	95.4116
1234.22	105.98
1238.54	89.5957
1242.85	109.24
1247.16	144.681
1251.47	114.416
1255.78	177.267
1260.08	189.314
1264.38	302.235
1268.68	282.944
1272.98	310.937
1277.28	309.112
1281.57	278.353
1285.86	149.211
1290.14	252.091
1294.42	292.404
1298.71	288.911
1302.98	291.498
1307.26	327.173
1311.53	488.992
1315.8	362.964
1320.07	449.145
1324.34	291.223
1328.6	195.122
1332.86	137.242
1337.12	108.257
1341.38	59.5957
1345.63	71.0425
1349.88	110.598
1354.13	52.2625
1358.37	34.0376
1362.61	38.9282
1366.85	23.9321
1371.09	93.022
1375.33	143.527
1379.56	141.252
1383.79	123.913
1388.01	114.76
1392.24	83.5842
1396.46	45.646
1400.68	89.7815
1404.9	51.1243
1409.11	6.51416
1413.32	20.7354
1417.53	17.7385
1421.74	82.7253
1425.94	47.6633
1430.14	89.5247
1434.34	230.377
1438.54	460.548
1442.73	613.298
1446.92	715.991
1451.11	833.924
1455.3	963.086
1459.48	818.432
1463.66	682.72
1467.84	422.437
1472.01	363.309
1476.19	279.123
1480.36	261.916
1484.53	161.843
1488.69	95.8967
1492.85	89.4116
1497.01	102.722
1501.17	98.2776
1505.33	66.1081
1509.48	17.2134
1513.63	27.5471
1517.78	18.1223
1521.92	80.9192
1526.06	43.999
1530.2	92.4595
1534.34	156.882
1538.47	157.62
1542.6	123.672
1546.73	80.0496
1550.86	48.4033
1554.98	59.7944
1559.11	25.9348
1563.22	0.227295
