Measurement: Raman, 514 nm, ccw, Raman Data Processed
Mineral: Forsterite
Rruff sample: R060539
Ideal chemistry: Mg_2_SiO_4_
Locality: Sri Lanka
Source: Gemological Institute of America
Description: Brown cut gemstone
Measured chemistry: (Mg_1.67_Fe_0.33_)_Î£=2_Si_1.00_O_4_; trace amounts of Mn and Ca
Pin_id: L01074
Orientation: Laser parallel to a* (1 0 0). Fiducial mark perpendicular to laser is parallel to b [0 1 0]
Raman shift (cm-1)	intensity
132.439	0
137.367	36.8562
142.291	6.42004
147.213	2.19367
152.133	39.0709
157.05	10.4684
161.965	17.5831
166.877	25.9634
171.786	62.4951
176.693	62.812
181.598	108.693
186.5	99.0163
191.399	110.686
196.296	121.671
201.19	224.913
206.082	328.438
210.971	556.821
215.858	720.116
220.742	689.412
225.624	597.835
230.503	549.332
235.38	485.819
240.254	375.427
245.125	226.021
249.994	152.644
254.861	101.305
259.725	124.978
264.586	79.8461
269.445	78.3513
274.302	82.6185
279.155	129.59
284.007	204.89
288.855	333.637
293.702	553.668
298.545	685.793
303.386	583.258
308.225	606.63
313.061	825.554
317.894	1118
322.725	1262.87
327.554	1161.85
332.38	1012.79
337.203	692.775
342.024	378.783
346.842	175.794
351.658	97.7981
356.471	89.797
361.281	84.8249
366.09	89.9227
370.895	45.1397
375.698	36.4855
380.498	1.06036
385.296	17.4936
390.092	19.8917
394.884	37.2644
399.675	13.367
404.462	113.987
409.248	140.416
414.03	357.674
418.81	718.924
423.588	944.131
428.363	642.301
433.135	314.427
437.905	117.498
442.672	62.5092
447.437	7.44983
452.199	9.29327
456.959	11.0183
461.716	29.6154
466.47	42.1113
471.222	54.5098
475.972	78.8069
480.719	69.0005
485.463	49.0864
490.205	96.062
494.944	86.1191
499.681	90.1389
504.415	157.875
509.146	152.956
513.875	215.671
518.602	261.155
523.326	440.257
528.047	859.43
532.766	1699.01
537.482	2583.08
542.196	1963.5
546.907	847.008
551.616	434.294
556.322	318.435
561.025	309.539
565.726	365.051
570.424	515.292
575.12	603.344
579.813	562.206
584.504	534.88
589.192	420.075
593.877	353.615
598.56	428.524
603.241	439.963
607.919	442.726
612.594	303.242
617.267	232.663
621.937	162.916
626.604	106.003
631.269	64.9331
635.932	69.7015
640.592	13.2967
645.249	5.35229
649.904	5.34631
654.556	7.75378
659.206	17.5752
663.853	33.8026
668.497	14.4274
673.139	2.35864
677.779	23.5853
682.416	28.8804
687.05	31.1882
691.682	11.3654
696.311	27.5824
700.937	58.3284
705.561	62.1827
710.183	32.9886
714.802	62.7544
719.418	71.4883
724.032	101.198
728.643	59.0605
733.251	124.596
737.857	123.327
742.461	136.147
747.062	196.023
751.66	269.937
756.256	330.909
760.849	385.925
765.44	464.989
770.028	562.115
774.613	587.166
779.196	747.74
783.777	963.223
788.354	1264.35
792.93	1665.77
797.502	2412.02
802.072	3831.16
806.64	6529.06
811.205	13360.1
815.767	29105.9
820.327	45318.6
824.884	33758.6
829.439	18196.7
833.991	11796.5
838.541	9944.41
843.087	12013.5
847.632	17736.9
852.174	22320.5
856.713	16919.3
861.25	9242.4
865.784	4961.72
870.315	2844.3
874.844	1774.19
879.371	1245.58
883.894	831.421
888.416	558.246
892.934	350.321
897.45	339.416
901.964	375.769
906.475	433.659
910.983	856.68
915.489	1601.83
919.992	1378.53
924.493	587.65
928.991	417.275
933.486	434.338
937.979	587.696
942.47	794.329
946.957	1243.73
951.443	1684.76
955.925	2062.43
960.405	1918.15
964.883	1514.12
969.358	995.125
973.83	631.575
978.3	339.231
982.767	231.087
987.232	116.139
991.694	110.458
996.153	69.8903
1000.61	34.5048
1005.06	13.3009
1009.52	38.3743
1013.97	3.31201
1018.41	12.396
1022.86	8.39429
1027.3	20.1528
1031.74	10.5763
1036.17	71.3675
1040.61	12.718
1045.04	29.1803
1049.47	8.88843
1053.89	9.86633
1058.32	18.8511
1062.74	13.8888
1067.15	13.0162
1071.57	3.91577
1075.98	12.1376
1080.39	19.7971
1084.8	27.7651
1089.21	26.7445
1093.61	53.011
1098.01	3.81934
1102.41	51.8956
1106.8	41.0132
1111.19	58.1735
1115.59	83.3622
1119.97	22.5756
1124.36	112.806
1128.74	51.0525
1133.12	107.382
1137.5	25.9642
1141.87	119.765
1146.24	90.1332
1150.61	55.0466
1154.98	124.672
1159.34	81.6802
1163.7	110.083
1168.06	119.575
1172.42	143.05
1176.77	133.061
1181.12	126.736
1185.47	87.7473
1189.82	72.5125
1194.16	136.448
1198.5	160.102
1202.84	160.641
1207.18	116.002
1211.51	135.543
1215.84	128.686
1220.17	166.513
1224.5	95.736
1228.82	119.24
1233.14	110.918
1237.46	134.795
1241.77	55.7036
1246.09	74.6061
1250.39	83.4238
1254.7	90.2588
1259.01	29.9944
1263.31	51.9008
1267.61	27.5747
1271.91	47.3524
1276.2	26.1472
1280.49	33.9287
1284.78	10.0703
1289.07	90.2878
1293.35	10.7723
1297.64	63.1216
1301.91	12.4603
1306.19	42.8539
1310.46	32.2474
1314.74	60.6359
1319.01	66.0206
1323.27	53.4462
1327.54	54.9143
1331.8	62.3816
1336.06	6.83582
1340.31	24.2993
1344.57	43.7324
1348.82	60.1661
1353.06	20.5763
1357.31	76.962
1361.55	82.335
1365.79	90.6711
1370.03	71.9847
1374.27	99.2771
1378.5	77.5531
1382.73	16.8149
1386.96	108.063
1391.18	94.2305
1395.4	20.442
1399.62	83.6909
1403.84	124.922
1408.06	137.101
1412.27	91.3499
1416.48	81.2512
1420.69	61.1456
1424.89	56.5573
1429.09	93.5075
1433.29	59.5233
1437.49	25.8563
1441.68	52.433
1445.87	70.2701
1450.06	35.52
1454.25	58.0852
1458.43	40.214
1462.62	86.9847
1466.79	17.8185
1470.97	83.7172
1475.14	40.4701
1479.31	104.561
1483.48	7.92932
1487.65	60.5867
1491.81	48.3535
1495.97	59.402
1500.13	69.4946
1504.29	51.5585
1508.44	52.7742
1512.59	48.5232
1516.74	6.56714
1520.88	13.9308
1525.03	7.53772
1529.17	40.3092
1533.3	29.2264
1537.44	25.3369
1541.57	24.0889
1545.7	32.2145
1549.83	21.7765
1553.95	94.3064
1558.08	36.6226
1562.19	4.56982
