Measurement: Raman, 514 nm, ccw, Raman Data Processed
Mineral: Forsterite
Rruff sample: R050117
Ideal chemistry: Mg_2_SiO_4_
Locality: Sapat, Gilgit, Pakistan
Source: Farooq and Nazia Sawal
Description: Fragment of a green crystal
Measured chemistry: (Mg_1.81_Fe_0.18_Ni_0.01_)_Î£=2_Si_1.00_O_4_
Pin_id: M00216
Orientation: Laser parallel to b* (0 1 0). Fiducial mark perpendicular to laser is parallel to c [0 0 1]
Raman shift (cm-1)	intensity
46.644	0
50.85	107.883
55.054	787.945
59.255	1902.43
63.454	2352.59
67.652	2055.88
71.847	2065.12
76.04	1693.35
80.232	819.858
84.421	300.545
88.608	118.146
92.793	46.309
96.976	17.245
101.157	37.889
105.336	6.927
109.513	235.542
113.688	111.118
117.861	92.795
122.032	25.741
126.201	86.214
130.367	43.626
134.532	130.001
138.695	124.377
142.856	38.713
147.014	40.882
151.171	93.302
155.325	32.375
159.478	0.813
163.629	10.772
167.777	44.54
171.924	31.871
176.068	33.638
180.211	35.984
184.351	17.055
188.49	57.536
192.626	0.393
196.761	22.457
200.893	17.683
205.024	28.408
209.152	27.887
213.279	157.467
217.403	456.528
221.526	743.067
225.646	790.097
229.765	731.408
233.881	729.216
237.996	751.133
242.108	628.97
246.219	553.778
250.328	436.82
254.434	450.6
258.539	373.43
262.641	386.696
266.742	369.109
270.84	348.708
274.937	390.39
279.032	442.805
283.125	437.622
287.215	554.625
291.304	749.711
295.391	1361.46
299.476	2733.54
303.558	3140.23
307.639	1790.34
311.718	985.496
315.795	784.559
319.87	885.114
323.943	1045.54
328.014	881.737
332.083	662.793
336.15	643.138
340.215	627.232
344.279	425.256
348.34	361.227
352.399	338.838
356.457	347.386
360.512	300.739
364.565	230.632
368.617	178.335
372.666	121.566
376.714	105.768
380.76	122.703
384.803	135.104
388.845	124.062
392.885	98.233
396.923	66.65
400.959	108
404.993	193.305
409.025	356.739
413.055	727.486
417.084	924.68
421.11	649.88
425.134	512.81
429.157	691.704
433.177	1219.32
437.196	1368.01
441.213	739.998
445.227	337.076
449.24	178.363
453.251	138.211
457.26	66.972
461.267	50.625
465.272	51.154
469.276	73.573
473.277	73.901
477.276	66.141
481.274	31.298
485.27	54.406
489.263	35.552
493.255	46.63
497.245	18.714
501.233	3.742
505.219	23.62
509.203	15.171
513.186	57.776
517.166	89.278
521.145	88.559
525.121	91.877
529.096	111.988
533.069	176.616
537.04	317.598
541.009	497.411
544.976	442.656
548.941	249.18
552.905	203.698
556.866	167.704
560.826	198.058
564.784	253.569
568.74	344.66
572.694	600.819
576.646	1040.94
580.596	1760.02
584.544	2043.08
588.491	1554.12
592.435	1473.14
596.378	1948.14
600.319	2977.13
604.258	3991.09
608.195	3629.98
612.131	2418.34
616.064	1390.07
619.995	792.386
623.925	491.736
627.853	343.374
631.779	246.944
635.703	170.534
639.625	84.124
643.546	52.706
647.464	17.234
651.381	18.871
655.296	15.543
659.209	36.245
663.12	37.945
667.029	23.915
670.937	58.659
674.842	31.189
678.746	47.122
682.648	44.713
686.548	38.397
690.447	30.943
694.343	10.276
698.238	28.376
702.13	44.077
706.021	12.107
709.91	2.727
713.798	0.562
717.683	3.365
721.567	63.861
725.448	97.117
729.328	89.399
733.206	94.711
737.083	122.055
740.957	151.433
744.83	137.486
748.701	182.298
752.57	242.804
756.437	269.381
760.302	271.014
764.166	329.695
768.027	408.456
771.887	489.343
775.745	516.363
779.602	575.535
783.456	714.842
787.309	805.263
791.16	987.774
795.009	1237.4
798.856	1577.17
802.702	2165.01
806.545	3274.01
810.387	5311.9
814.227	9257.88
818.065	19109.1
821.902	32531.5
825.737	25609.4
829.569	14870.7
833.401	9860.49
837.23	8590.75
841.057	9622.08
844.883	13998.8
848.707	26174.3
852.529	45989.9
856.35	48481.6
860.168	28496.5
863.985	14672.6
867.8	8799.52
871.613	6502.06
875.425	6659
879.234	9003.07
883.042	7550.26
886.848	4060.82
890.653	2213.02
894.455	1546.58
898.256	1257.28
902.055	987.117
905.852	831.799
909.648	780.482
913.442	722.985
917.233	833.663
921.024	729.032
924.812	615.955
928.599	602.349
932.384	672.999
936.167	815.292
939.948	1050.1
943.728	1457.58
947.506	2019.35
951.282	3020.92
955.056	4680.68
958.829	6653.31
962.6	6989.09
966.369	5455.94
970.136	3499.8
973.902	2052.79
977.666	1207.96
981.428	852.296
985.188	616.804
988.947	482.56
992.704	391.402
996.459	313.36
1000.21	220.421
1003.96	180.576
1007.71	148.886
1011.46	111.348
1015.21	146.936
1018.95	130.638
1022.7	92.42
1026.44	81.268
1030.18	100.173
1033.91	83.18
1037.65	83.199
1041.39	80.365
1045.12	89.493
1048.85	31.648
1052.58	16.161
1056.31	32.979
1060.03	7.822
1063.76	2.351
1067.48	2.535
1071.2	15.324
1074.92	17.31
1078.63	50.397
1082.35	6.631
1086.06	23.951
1089.78	36.667
1093.49	18.734
1097.19	23.222
1100.9	7.878
1104.61	19.398
1108.31	22.335
1112.01	7.874
1115.71	26.07
1119.41	34.231
1123.11	50.651
1126.8	58.937
1130.5	49.465
1134.19	18.7
1137.88	60.188
1141.57	52.155
1145.25	91.839
1148.94	127.084
1152.62	129.964
1156.3	56.36
1159.98	121.467
1163.66	101.937
1167.34	121.743
1171.01	123.994
1174.68	108.037
1178.36	70.425
1182.02	79.681
1185.69	44.886
1189.36	53.452
1193.02	72.856
1196.69	87.388
1200.35	126.999
1204.01	114.074
1207.66	135.361
1211.32	150.394
1214.98	163.053
1218.63	142.271
1222.28	126.64
1225.93	151.759
1229.58	169.22
1233.22	167.485
1236.87	161.826
1240.51	144.579
1244.15	116.196
1247.79	46.281
1251.43	77.226
1255.07	56.756
1258.7	88.25
1262.33	62.659
1265.96	81.166
1269.59	51.53
1273.22	52.795
1276.85	51.827
1280.47	21.728
1284.1	0.576
1287.72	44.061
1291.34	74.732
1294.95	41.269
1298.57	41.643
1302.19	51.096
1305.8	25.618
1309.41	24.516
1313.02	42.563
1316.63	21.494
1320.23	22.329
1323.84	1.135
1327.44	68.719
1331.05	49.126
1334.64	47.54
1338.24	24.898
1341.84	83.18
1345.43	53.391
1349.03	34.558
1352.62	48.671
1356.21	33.892
1359.8	49.381
1363.39	100.403
1366.97	76.426
1370.56	44.369
1374.14	56.485
1377.72	61.203
1381.3	64.612
1384.87	51.196
1388.45	48.794
1392.02	32.277
1395.6	41.465
1399.17	18.308
1402.74	66.078
1406.3	45.937
1409.87	78.622
1413.43	84.951
1417	3.644
1420.56	32.543
1424.12	25.695
1427.67	22.681
1431.23	11.44
1434.79	27.379
1438.34	68.367
1441.89	73.002
1445.44	66.521
1448.99	73.309
1452.54	22.924
1456.08	61.148
1459.62	37.204
1463.17	17.849
1466.71	55.337
1470.24	55.495
1473.78	64.271
1477.32	88.32
1480.85	113.272
1484.38	116.161
1487.91	87.696
1491.44	65.255
1494.97	86.765
1498.5	6.39
1502.02	50.831
1505.54	23.878
1509.07	23.484
1512.59	55.303
1516.1	0
