Measurement: Raman, 514 nm, ccw, Raman Data Processed
Mineral: Forsterite
Rruff sample: R060535
Ideal chemistry: Mg_2_SiO_4_
Locality: unknown
Source: Gemological Institute of America
Description: Transparent brown gemstone
Measured chemistry: (Mg_1.81_Fe_0.18_Ni_0.01_)_Î£=2_Si_1.00_O_4_
Pin_id: L01261
Orientation: Laser parallel to b* (0 1 0). Fiducial mark perpendicular to laser is parallel to c [0 0 1]
Raman shift (cm-1)	intensity
208.836	0
213.735	158.688
218.631	332.784
223.524	419.076
228.414	304.789
233.302	304.757
238.186	176.283
243.068	125.256
247.947	37.3171
252.823	41.2695
257.697	98.0779
262.567	30.1074
267.435	23.2229
272.3	30.0593
277.162	44.7368
282.021	15.5181
286.878	255.118
291.732	454.491
296.583	1056.04
301.431	1602.18
306.276	1135.98
311.119	655.2
315.958	442.007
320.795	493.824
325.629	487.641
330.461	398.21
335.289	286.475
340.115	245.952
344.938	177.046
349.759	136.709
354.576	85.5442
359.391	127.895
364.203	5.16724
369.012	49.1909
373.818	65.0156
378.622	11.3176
383.423	8.63525
388.221	12.7354
393.016	54.8562
397.809	20.3735
402.598	87.1621
407.386	137.217
412.17	275.744
416.951	404.716
421.73	404.803
426.506	537.979
431.279	894.115
436.05	958.085
440.818	609.666
445.583	291.914
450.345	175.8
455.105	21.4221
459.861	73.8772
464.615	61.1626
469.367	13.2688
474.115	38.1824
478.861	15.8957
483.604	83.3901
488.345	109.65
493.082	83.6973
497.817	36.5085
502.55	23.3047
507.279	44.727
512.006	164.476
516.73	130.319
521.451	53.6553
526.17	161.535
530.886	251.832
535.599	354.716
540.31	354
545.017	337.219
549.723	300.412
554.425	174.423
559.125	253.669
563.822	349.302
568.516	449.069
573.207	632.233
577.896	1133.53
582.583	1610.48
587.266	1501.09
591.947	1308.42
596.625	1526.79
601.3	2142
605.973	2318.66
610.643	1824.86
615.311	1038.63
619.975	598.706
624.637	367.877
629.297	325.628
633.953	204.198
638.607	84.6079
643.259	159.131
647.907	48.8594
652.553	39.1489
657.197	2.58496
661.837	39.9429
666.475	36.0459
671.111	1.45703
675.743	38.3691
680.373	49.6919
685.001	21.5386
689.625	41.6782
694.247	6.63135
698.867	20.4839
703.483	16.959
708.097	62.04
712.709	102.809
717.318	73.3945
721.924	68.8711
726.527	128.25
731.128	235.541
735.726	133.759
740.322	174.922
744.915	243.036
749.505	334.116
754.093	307.18
758.678	361.512
763.26	212.269
767.84	401.328
772.417	437.402
776.992	559.424
781.564	693.422
786.133	600.394
790.7	613.619
795.264	754.99
799.825	1024.81
804.384	1690.48
808.94	2972.97
813.494	5971.25
818.045	13636.6
822.593	19907.8
827.139	14809.4
831.682	8149.31
836.223	6032.6
840.761	6767.15
845.296	11121.2
849.829	21678.5
854.359	31810.7
858.887	24889.1
863.412	12409.7
867.934	6338.49
872.454	4274.58
876.971	4487.88
881.486	5432.38
885.998	3142.13
890.507	1525.25
895.014	695.365
899.518	389.321
904.02	425.929
908.519	444.271
913.016	516.527
917.51	843.745
922.001	504.462
926.49	274.593
930.976	259.479
935.46	418.572
939.941	632.925
944.42	910.55
948.896	1410.22
953.369	2408.34
957.84	3753.97
962.309	4098.1
966.774	3270.57
971.238	1888.42
975.698	974.016
980.156	486.872
984.612	273.834
989.065	332.129
993.516	200.25
997.964	50.4292
1002.41	204.125
1006.85	119.387
1011.29	56.0185
1015.73	38.4209
1020.16	4.61328
1024.6	24.7642
1029.03	24.5356
1033.46	27.4253
1037.88	40.9517
1042.3	39.3008
1046.72	17.5815
1051.14	62.6924
1055.56	67.2695
1059.97	88.5142
1064.38	0.428711
1068.79	17.1626
1073.19	45.8071
1077.59	29.8726
1081.99	5.08838
1086.39	146.832
1090.79	74.5386
1095.18	113.71
1099.57	11.1528
1103.95	127.709
1108.34	76.1445
1112.72	59.832
1117.1	59.2808
1121.48	109.571
1125.85	96.6797
1130.23	128.637
1134.6	73.9394
1138.96	234.44
1143.33	158.825
1147.69	68.0078
1152.05	227.852
1156.41	139.831
1160.76	163.446
1165.11	139.345
1169.46	264.636
1173.81	102.238
1178.16	143.966
1182.5	107.78
1186.84	20.1299
1191.18	99.3926
1195.51	139.396
1199.84	91.835
1204.17	111.942
1208.5	126.785
1212.83	263.977
1217.15	110.281
1221.47	203.156
1225.79	11.0117
1230.1	180.959
1234.41	73.9648
1238.73	152.184
1243.03	38.3789
1247.34	145.399
1251.64	78.1338
1255.94	99.0264
1260.24	171.885
1264.54	54.2295
1268.83	139.435
1273.12	190.004
1277.41	182.141
1281.69	11.9053
1285.98	38.4111
1290.26	40.0147
1294.54	137.029
1298.81	122.552
1303.09	131.942
1307.36	169.303
1311.63	153.014
1315.89	89.8477
1320.16	182.419
1324.42	126.097
1328.68	51.3506
1332.93	68.4102
1337.19	74.5576
1341.44	111.314
1345.69	49.1289
1349.94	109.455
1354.18	46.8867
1358.42	214.395
1362.66	115.959
1366.9	100.806
1371.13	81.3496
1375.37	64.7519
1379.6	108.612
1383.82	70.751
1388.05	75.8213
1392.27	74.1445
1396.49	80.7266
1400.71	83.6641
1404.92	63.7119
1409.14	105.111
1413.35	147.085
1417.56	10.3418
1421.76	71.3291
1425.97	86.3174
1430.17	219.272
1434.37	183.057
1438.56	84.1807
1442.76	144.414
1446.95	411.852
1451.14	284.927
1455.33	327.545
1459.51	235.249
1463.69	175.39
1467.87	215.976
1472.05	212.856
1476.22	208.786
1480.4	185.578
1484.57	240.523
1488.73	101.866
1492.9	106.689
1497.06	155.597
1501.22	58.3105
1505.38	192.426
1509.54	76.0234
1513.69	123.562
1517.84	4.42969
1521.99	55.4434
1526.14	70.8906
1530.28	120.603
1534.42	66.0176
1538.56	253.725
1542.7	140.856
1546.83	184.361
1550.97	87.1211
1555.1	152.865
1559.22	125.032
1563.35	0
