Measurement: Raman, 514 nm, ccw, Raman Data Processed
Mineral: Forsterite
Rruff sample: R060535
Ideal chemistry: Mg_2_SiO_4_
Locality: unknown
Source: Gemological Institute of America
Description: Transparent brown gemstone
Measured chemistry: (Mg_1.81_Fe_0.18_Ni_0.01_)_Î£=2_Si_1.00_O_4_
Pin_id: L01269
Orientation: Laser parallel to a* (1 0 0). Fiducial mark perpendicular to laser is parallel to b [0 1 0]
Raman shift (cm-1)	intensity
208.836	0
213.735	118.025
218.631	252.02
223.524	315.215
228.414	219.621
233.302	149.788
238.186	92.7192
243.068	61.9224
247.947	2.18793
252.823	24.3222
257.697	20.134
262.567	11.9609
267.435	7.46698
272.3	0.407043
277.162	12.4876
282.021	44.1619
286.878	34.86
291.732	121.686
296.583	242.454
301.431	381.226
306.276	318.396
311.119	297.689
315.958	381.977
320.795	394.337
325.629	496.481
330.461	503.909
335.289	452.719
340.115	342.306
344.938	158.796
349.759	88.2757
354.576	73.21
359.391	108.245
364.203	239.378
369.012	338.263
373.818	223.818
378.622	73.855
383.423	2.75073
388.221	5.47455
393.016	26.7055
397.809	6.6687
402.598	89.9102
407.386	153.693
412.17	85.5772
416.951	80.9781
421.73	198.661
426.506	315.301
431.279	372.908
436.05	182.461
440.818	84.95
445.583	47.2193
450.345	3.15265
455.105	37.0205
459.861	38.8455
464.615	59.6248
469.367	63.3567
474.115	120.035
478.861	120.649
483.604	143.204
488.345	160.704
493.082	191.183
497.817	174.714
502.55	160.801
507.279	157.38
512.006	187.402
516.73	166.869
521.451	254.995
526.17	340.323
530.886	462.744
535.599	725.786
540.31	1055.95
545.017	809.963
549.723	430.56
554.425	291.029
559.125	246.675
563.822	256.952
568.516	300.751
573.207	429.419
577.896	567.958
582.583	760.37
587.266	1062.66
591.947	927.303
596.625	548.166
601.3	459.018
605.973	454.757
610.643	365.471
615.311	230.078
619.975	139.579
624.637	117.976
629.297	78.2729
633.953	32.4705
638.607	17.5671
643.259	9.53449
647.907	18.3027
652.553	7.86987
657.197	39.7396
661.837	30.6113
666.475	38.7858
671.111	31.2615
675.743	28.9321
680.373	15.7363
685.001	19.757
689.625	9.02801
694.247	1.70398
698.867	25.697
703.483	22.8193
708.097	53.3177
712.709	95.8044
717.318	130.285
721.924	183.766
726.527	235.254
731.128	353.758
735.726	433.291
740.322	582.854
744.915	828.47
749.505	1058.18
754.093	1082.93
758.678	868.733
763.26	618.593
767.84	413.511
772.417	428.409
776.992	440.225
781.564	433.449
786.133	360.599
790.7	412.392
795.264	508.135
799.825	777.48
804.384	1270.54
808.94	2343.7
813.494	4948.69
818.045	11341.6
822.593	16811.2
827.139	11157
831.682	5692.71
836.223	3994.03
840.761	3883.5
845.296	5776.15
849.829	10725
854.359	14875
858.887	10718.2
863.412	5308.59
867.934	2694.31
872.454	1588.09
876.971	1264.59
881.486	1070.48
885.998	607.9
890.507	365.55
895.014	261.655
899.518	256.576
904.02	297.659
908.519	592.233
913.016	1633.27
917.51	3238.15
922.001	1846.31
926.49	589.965
930.976	313.232
935.46	273.052
939.941	340.421
944.42	473.479
948.896	751.343
953.369	1199.97
957.84	1765.16
962.309	1846.74
966.774	1236.93
971.238	680.721
975.698	386.265
980.156	182.914
984.612	127.663
989.065	38.7006
993.516	25.6348
997.964	25.8291
1002.41	41.8318
1006.85	0.001343
1011.29	50.22
1015.73	4.56372
1020.16	12.6322
1024.6	14.1169
1029.03	9.15869
1033.46	28.4764
1037.88	11.8865
1042.3	21.73
1046.72	8.61023
1051.14	5.09485
1055.56	19.1425
1059.97	31.5994
1064.38	1.41028
1068.79	3.66113
1073.19	1.26282
1077.59	11.3163
1081.99	21.4945
1086.39	0.200684
1090.79	24.7605
1095.18	48.1758
1099.57	12.0409
1103.95	49.6226
1108.34	35.6953
1112.72	35.7106
1117.1	56.6709
1121.48	60.5839
1125.85	54.3518
1130.23	23.2029
1134.6	32.7563
1138.96	51.3488
1143.33	38.3582
1147.69	60.0122
1152.05	50.3905
1156.41	46.2129
1160.76	58.4344
1165.11	68.5554
1169.46	78.6138
1173.81	91.2662
1178.16	77.3781
1182.5	81.7406
1186.84	58.6526
1191.18	30.067
1195.51	87.5478
1199.84	70.425
1204.17	76.736
1208.5	99.6202
1212.83	132.203
1217.15	99.9904
1221.47	129.333
1225.79	113.875
1230.1	102.44
1234.41	150.557
1238.73	124.372
1243.03	113.126
1247.34	74.2786
1251.64	112.857
1255.94	84.4286
1260.24	133.353
1264.54	48.0665
1268.83	32.7048
1273.12	67.0842
1277.41	55.6858
1281.69	51.0114
1285.98	40.306
1290.26	75.7069
1294.54	44.9282
1298.81	67.0234
1303.09	48.1422
1307.36	21.2489
1311.63	23.3531
1315.89	13.6141
1320.16	12.2683
1324.42	64.2196
1328.68	42.1322
1332.93	8.97998
1337.19	25.8842
1341.44	29.7822
1345.69	50.6816
1349.94	36.5881
1354.18	53.5006
1358.42	4.41736
1362.66	44.5087
1366.9	39.2473
1371.13	14.1238
1375.37	0.963623
1379.6	30.7682
1383.82	18.5541
1388.05	14.3236
1392.27	25.0872
1396.49	21.8395
1400.71	27.5831
1404.92	20.3221
1409.14	26.1375
1413.35	1.97754
1417.56	16.7655
1421.76	67.5458
1425.97	21.4475
1430.17	49.2714
1434.37	87.6818
1438.56	62.5441
1442.76	35.6827
1446.95	57.0624
1451.14	88.1014
1455.33	9.97241
1459.51	34.798
1463.69	83.4287
1467.87	45.2235
1472.05	162.843
1476.22	73.5004
1480.4	85.6946
1484.57	86.824
1488.73	85.2821
1492.9	117.393
1497.06	158.748
1501.22	129.044
1505.38	75.5017
1509.54	135.126
1513.69	88.7643
1517.84	61.4744
1521.99	42.3823
1526.14	55.4659
1530.28	48.7372
1534.42	3.75781
1538.56	19.03
1542.7	46.1912
1546.83	13.8402
1550.97	64.2507
1555.1	39.2468
1559.22	22.1514
1563.35	0
