Measurement: Raman, 514 nm, ccw, Raman Data Processed
Mineral: Forsterite
Rruff sample: R060539
Ideal chemistry: Mg_2_SiO_4_
Locality: Sri Lanka
Source: Gemological Institute of America
Description: Brown cut gemstone
Measured chemistry: (Mg_1.67_Fe_0.33_)_Î£=2_Si_1.00_O_4_; trace amounts of Mn and Ca
Pin_id: L01554
Orientation: Laser parallel to -c* (0 0 -1). Fiducial mark perpendicular to laser is parallel to a [1 0 0]
Raman shift (cm-1)	intensity
128.742	0
133.671	21.2709
138.598	30.7913
143.522	8.03748
148.444	46.9326
153.363	2.328
158.279	12.3318
163.193	77.3983
168.104	107.749
173.013	129.033
177.92	182.976
182.823	155.429
187.725	173.292
192.623	170.513
197.52	218.689
202.413	247.735
207.305	444.652
212.193	733.48
217.079	937.313
221.963	956.221
226.844	836.191
231.723	773.224
236.599	662.342
241.472	492.68
246.343	336.772
251.211	201.094
256.077	168.048
260.94	133.825
265.801	121.961
270.66	152.461
275.515	168.432
280.368	173.111
285.219	276.433
290.067	407.877
294.913	582.822
299.756	612.941
304.596	545.981
309.434	750.471
314.27	1335.08
319.102	2041.79
323.933	2201.58
328.76	1942.44
333.586	1560.35
338.408	1033.32
343.229	546.822
348.046	265.336
352.861	199.375
357.674	143.466
362.484	110.644
367.291	47.9015
372.096	51.279
376.898	57.8397
381.698	23.3959
386.495	5.49817
391.29	9.44519
396.082	6.35303
400.872	19.2707
405.659	15.6573
410.443	44.4126
415.225	137.02
420.005	252.589
424.782	292.134
429.556	205.648
434.328	118.119
439.097	74.541
443.864	27.9026
448.628	60.182
453.389	56.3719
458.148	90.4795
462.905	100.499
467.659	91.4247
472.41	128.251
477.159	121.974
481.905	115.588
486.649	136.094
491.39	158.148
496.129	170.931
500.865	183.661
505.598	226.537
510.329	306.602
515.057	378.969
519.783	628.607
524.506	874.051
529.227	1777.58
533.945	3127.26
538.661	3907.31
543.374	2495.78
548.084	1123.39
552.792	642.715
557.498	450.875
562.2	348.562
566.901	317.031
571.598	388.281
576.293	354.313
580.986	302.125
585.676	283.713
590.363	191.399
595.048	182.558
599.731	236.501
604.41	293.231
609.088	246.749
613.762	262.057
618.434	206.158
623.104	149.055
627.771	100.75
632.435	45.2372
637.097	25.4869
641.756	8.43164
646.413	0.040161
651.067	8.20923
655.719	36.9065
660.368	24.6954
665.014	32.0377
669.658	60.8862
674.299	7.72998
678.938	32.8949
683.574	17.2106
688.208	3.18897
692.839	20.9515
697.468	61.9275
702.094	5.36377
706.717	13.8914
711.338	73.344
715.956	67.7308
720.572	77.0603
725.185	75.7688
729.795	141.595
734.403	111.821
739.009	150.028
743.611	183.227
748.212	216.445
752.809	286.681
757.405	301.938
761.997	394.226
766.587	514.544
771.174	639.058
775.759	769.724
780.342	933.191
784.921	1276.56
789.498	1613.74
794.073	2166.43
798.645	3287.45
803.215	5223.07
807.781	9706.28
812.346	20710.3
816.907	42261.2
821.467	55110.6
826.023	36362.6
830.577	19564.1
835.129	13099.2
839.678	11964.6
844.224	14883.3
848.768	21460.2
853.309	23355.3
857.847	15346.7
862.383	8046.35
866.917	4352.29
871.448	2481.49
875.976	1576.97
880.502	1003.63
885.025	639.088
889.545	461.965
894.063	309.884
898.579	245.794
903.092	210.998
907.602	237.868
912.11	318.329
916.615	387.692
921.118	395.815
925.618	382.343
930.115	496.82
934.61	697.277
939.102	1084.48
943.592	1709.08
948.079	2593.6
952.564	3746.82
957.046	4194.52
961.525	3746.28
966.002	2709.11
970.476	1705.86
974.948	994.943
979.417	597.601
983.883	362.151
988.347	244.927
992.809	172.924
997.268	119.18
1001.72	29.6045
1006.18	16.235
1010.63	4.92639
1015.08	18.8866
1019.52	21.6717
1023.97	41.714
1028.41	69.2839
1032.85	4.03503
1037.28	16.9644
1041.71	34.0732
1046.14	6.65588
1050.57	8.75574
1055	33.7631
1059.42	34.3984
1063.84	27.1294
1068.26	20.147
1072.67	34.4869
1077.09	3.802
1081.5	38.8867
1085.9	14.3697
1090.31	19.6682
1094.71	23.9629
1099.11	46.2438
1103.51	67.5366
1107.9	42.8478
1112.29	42.1917
1116.68	74.7036
1121.07	77.9477
1125.45	62.3601
1129.84	82.7886
1134.21	84.2272
1138.59	80.0054
1142.96	131.832
1147.34	116.177
1151.7	129.357
1156.07	113.75
1160.43	117.329
1164.79	164.844
1169.15	161.71
1173.51	139.517
1177.86	144.191
1182.21	112.71
1186.56	126.668
1190.91	157.175
1195.25	118.558
1199.59	223.914
1203.93	163.626
1208.26	162.234
1212.6	155.745
1216.92	195.242
1221.25	193.692
1225.58	213.298
1229.9	191.937
1234.22	136.889
1238.54	109.71
1242.85	111.159
1247.16	92.9285
1251.47	56.6451
1255.78	63.328
1260.08	66.9492
1264.38	50.5481
1268.68	82.1276
1272.98	49.6462
1277.28	19.0983
1281.57	51.4924
1285.86	31.8379
1290.14	2.86792
1294.42	15.3556
1298.71	11.5167
1302.98	65.6
1307.26	12.5828
1311.53	40.5104
1315.8	31.7689
1320.07	47.5308
1324.34	70.6432
1328.6	45.7195
1332.86	3.72156
1337.12	42.7487
1341.38	19.7701
1345.63	44.8063
1349.88	68.8068
1354.13	26.8304
1358.37	48.84
1362.61	60.8384
1366.85	48.839
1371.09	20.7985
1375.33	84.8955
1379.56	81.6951
1383.79	56.7682
1388.01	61.7993
1392.24	47.0187
1396.46	59.5712
1400.68	26.0519
1404.9	83.7529
1409.11	74.73
1413.32	53.7363
1417.53	46.4481
1421.74	63.9114
1425.94	119.292
1430.14	41.6219
1434.34	69.188
1438.54	84.3509
1442.73	88.4331
1446.92	65.5584
1451.11	85.3367
1455.3	28.194
1459.48	47.8584
1463.66	15.4465
1467.84	89.1527
1472.01	59.7944
1476.19	38.4096
1480.36	23.9639
1484.53	68.4971
1488.69	28.0879
1492.85	41.7031
1497.01	67.3748
1501.17	30.2233
1505.33	59.1119
1509.48	26.0443
1513.63	53.3289
1517.78	49.8279
1521.92	78.4551
1526.06	33.2268
1530.2	2.2113
1534.34	12.5686
1538.47	52.4137
1542.6	27.9672
1546.73	47.7498
1550.86	26.037
1554.98	59.4039
1559.11	15.3236
1563.22	0.398315
