Measurement: Raman, 514 nm, ccw, Raman Data Processed
Mineral: Forsterite
Rruff sample: R040018
Ideal chemistry: Mg_2_SiO_4_
Locality: Trudy's mine, San Carlos, Gila County, Arizona, USA
Source: Bob Downs
Description: Green fragments from xenoliths in a basalt flow
Measured chemistry: (Mg_1.81_Fe_0.18_Ni_0.01_)_Î£=2_Si_1.00_O_4_; trace amounts of Mn and Ca
Pin_id: M00006
Orientation: Laser parallel to c* (0 0 1). Fiducial mark perpendicular to laser is parallel to a [1 0 0]
Raman shift (cm-1)	intensity
119.119	0
123.286	28.509
127.452	105.451
131.615	180.573
135.777	204.021
139.937	192.401
144.094	283.963
148.25	295.657
152.403	312.986
156.555	313.229
160.705	271.163
164.853	152.41
168.998	289.69
173.142	256.192
177.284	235.736
181.424	286.267
185.562	224.517
189.698	25.607
193.831	69.979
197.963	29.409
202.093	112.438
206.221	3.542
210.347	83.769
214.472	142.687
218.594	186.785
222.714	459.123
226.832	547.722
230.948	491.571
235.063	465.703
239.175	489.822
243.286	372.583
247.394	351.785
251.501	260.94
255.605	288.41
259.708	211.919
263.808	195.464
267.907	279.026
272.004	202.583
276.099	286.118
280.192	279.617
284.283	244.286
288.372	328.996
292.459	552.651
296.544	1405.68
300.627	3133.43
304.709	4247.52
308.788	2430.57
312.865	1195.39
316.941	950.316
321.015	843.835
325.086	894.653
329.156	809.007
333.224	414.614
337.29	270.747
341.354	114.027
345.416	127.769
349.476	144.697
353.534	155.422
357.591	49.246
361.645	52.572
365.698	74.754
369.748	108.815
373.797	47.416
377.844	39.754
381.889	32.168
385.932	48.168
389.973	62.115
394.012	146.137
398.049	140.081
402.084	224.032
406.118	227.9
410.15	411.589
414.179	764.991
418.207	1068.26
422.233	681.412
426.257	364.433
430.279	237.319
434.299	140.069
438.318	112.681
442.334	24.853
446.349	17.405
450.361	49.495
454.372	31.365
458.381	26.967
462.388	45.587
466.394	75.424
470.397	116.18
474.398	66.758
478.398	107.107
482.396	22.729
486.391	47.095
490.385	26.693
494.377	76.055
498.368	55.212
502.356	153.98
506.342	142.463
510.327	140.752
514.31	113.699
518.291	167.793
522.27	160.618
526.247	192.809
530.222	140.808
534.196	67.97
538.167	242.81
542.137	178.431
546.105	191.13
550.071	259.767
554.035	224.996
557.998	363.795
561.958	301.089
565.917	413.943
569.874	308.792
573.829	513.394
577.782	758.303
581.733	682.415
585.683	1016.28
589.63	1249.91
593.576	1808.31
597.52	2976.45
601.462	4836.11
605.402	6607.91
609.341	6335.59
613.277	4434.41
617.212	2811.69
621.145	1976.63
625.076	1821.74
629.006	1793.05
632.933	1042.41
636.859	752.001
640.783	608.755
644.705	795.527
648.625	924.52
652.543	894.03
656.46	651.358
660.375	282.373
664.288	252.201
668.199	191.712
672.108	171.136
676.016	29.608
679.921	70.489
683.825	8.323
687.727	73.473
691.628	46.392
695.526	81.689
699.423	134.631
703.318	17.913
707.211	51.413
711.102	114.705
714.992	190.561
718.879	103.787
722.765	121.612
726.649	186.939
730.532	332.232
734.412	347.484
738.291	132.709
742.168	247.921
746.043	323.126
749.916	478.333
753.788	383.549
757.658	388.832
761.526	404.189
765.392	609.709
769.257	765.34
773.119	741.068
776.98	766.934
780.839	832.967
784.697	969.088
788.552	1085.3
792.406	1461.61
796.258	1828.04
800.108	2124.66
803.957	2831.47
807.804	3958.44
811.649	6295.55
815.492	10652.9
819.333	21660.4
823.173	40678.1
827.011	36994.8
830.847	20948.9
834.681	12749.6
838.514	9911.85
842.345	9754.63
846.174	12511.6
850.001	21053.7
853.827	38311
857.651	45762.2
861.473	30058
865.293	16013
869.112	9161.17
872.928	5934
876.744	3994.06
880.557	2925.75
884.369	2377.68
888.178	1679.32
891.987	1341.76
895.793	1184.47
899.598	1127.45
903.401	880.678
907.202	674.328
911.001	452.041
914.799	681.047
918.595	567.934
922.389	262.691
926.182	368.145
929.972	283.381
933.761	378.871
937.549	484.623
941.334	800.631
945.118	666.9
948.9	1265.08
952.681	1812.96
956.459	3078.3
960.236	5145.58
964.012	6063.1
967.785	5474.76
971.557	3422.76
975.327	2021
979.095	1031.54
982.862	583.119
986.627	717.465
990.39	677.836
994.152	448.035
997.912	376.861
1001.67	987.996
1005.43	940.658
1009.18	437.68
1012.93	254.322
1016.68	102.428
1020.43	395.938
1024.18	481.625
1027.93	434.215
1031.67	336.955
1035.42	219.896
1039.16	193.092
1042.9	266.27
1046.63	280.115
1050.37	213.625
1054.11	99.221
1057.84	106.889
1061.57	137.449
1065.3	251.727
1069.03	175.531
1072.75	20.586
1076.47	163.363
1080.2	177.428
1083.92	341.65
1087.64	545.949
1091.36	230.309
1095.07	304.721
1098.79	69.148
1102.5	146.422
1106.21	67.805
1109.92	92.062
1113.62	216.338
1117.33	200.631
1121.04	24.836
1124.74	309.086
1128.44	36.713
1132.14	72.631
1135.83	158.719
1139.53	244.852
1143.22	368.674
1146.92	241.375
1150.61	153.9
1154.3	63.887
1157.98	51.836
1161.67	66.455
1165.35	15.637
1169.04	157.455
1172.72	329.068
1176.4	440.453
1180.07	241.764
1183.75	133.002
1187.42	154.164
1191.1	61.424
1194.77	173.523
1198.44	186.314
1202.1	398.127
1205.77	567.217
1209.43	338.154
1213.1	264.537
1216.76	384.264
1220.42	294.236
1224.07	454.4
1227.73	623.99
1231.38	784.459
1235.04	824.646
1238.69	664.301
1242.34	743.6
1245.99	401.012
1249.63	630.48
1253.28	509.174
1256.92	817.67
1260.56	885.375
1264.2	888.92
1267.84	622.168
1271.48	739.098
1275.11	500.885
1278.74	482.205
1282.38	296.482
1286.01	590.18
1289.63	308.807
1293.26	456.914
1296.89	765.734
1300.51	387.242
1304.13	312.996
1307.75	352.15
1311.37	90.951
1314.99	318.945
1318.6	491.76
1322.22	588.043
1325.83	515.502
1329.44	542.631
1333.05	449.15
1336.66	185.322
1340.26	31.244
1343.87	47.26
1347.47	2.953
1351.07	98.449
1354.67	133.783
1358.27	139.617
1361.86	435.797
1365.46	444.094
1369.05	335.014
1372.64	421.471
1376.23	130.348
1379.82	379.717
1383.41	420.605
1386.99	309.137
1390.57	604.812
1394.16	776.098
1397.74	522.217
1401.32	789.037
1404.89	740.078
1408.47	394.172
1412.04	377.645
1415.61	207.816
1419.18	67.682
1422.75	30.605
1426.32	148.711
1429.89	0
