Measurement: Raman, 514 nm, ccw, Raman Data Processed
Mineral: Forsterite
Rruff sample: R060535
Ideal chemistry: Mg_2_SiO_4_
Locality: unknown
Source: Gemological Institute of America
Description: Transparent brown gemstone
Measured chemistry: (Mg_1.81_Fe_0.18_Ni_0.01_)_Î£=2_Si_1.00_O_4_
Pin_id: L00998
Orientation: Laser parallel to c* (0 0 1). Fiducial mark perpendicular to laser is parallel to a [1 0 0]
Raman shift (cm-1)	intensity
225.624	0
229.284	55.7842
232.942	19.4624
236.599	73.9774
240.254	100.351
243.908	58.9645
247.56	58.2408
251.211	43.0049
254.861	17.8639
258.509	58.8182
262.156	13.051
265.801	26.3435
269.445	38.1538
273.088	71.3623
276.729	77.6523
280.368	136.237
284.007	291.367
287.643	614.158
291.279	1254.11
294.913	2276.83
298.545	3335.31
302.176	3431.58
305.806	2620.35
309.434	1450.87
313.061	889.459
316.686	785.686
320.31	812.778
323.933	731.789
327.554	597.759
331.173	305.686
334.792	168.483
338.408	110.493
342.024	83.3737
345.638	33.7894
349.25	33.0399
352.861	38.1797
356.471	15.3218
360.079	3.14917
363.686	2.55212
367.291	9.04004
370.895	4.4574
374.498	0.216553
378.099	3.13452
381.698	36.1267
385.296	29.8204
388.893	31.254
392.488	64.8955
396.082	58.625
399.675	117.325
403.266	247.656
406.855	472.212
410.443	768.895
414.03	957.079
417.615	864.456
421.199	580.066
424.782	395.861
428.363	256.607
431.942	223.18
435.52	116.547
439.097	88.661
442.672	22.5439
446.246	39.1807
449.818	30.6389
453.389	7.06604
456.959	11.9249
460.527	18.0938
464.094	6.9845
467.659	29.8286
471.222	17.598
474.785	36.1615
478.346	61.6776
481.905	22.0662
485.463	84.9409
489.02	53.0309
492.575	65.5518
496.129	29.4097
499.681	39.2863
503.232	84.2903
506.781	70.1685
510.329	73.6309
513.875	54.6009
517.421	93.0183
520.964	100.154
524.506	41.5911
528.047	97.3641
531.587	29.6899
535.124	97.9105
538.661	166.396
542.196	143.77
545.729	190.316
549.262	197.779
552.792	140.443
556.322	238.755
559.849	252.122
563.376	259.34
566.901	369.056
570.424	395.688
573.946	516.204
577.467	587.607
580.986	786.803
584.504	1019.38
588.02	1430.57
591.535	2139.67
595.048	3313.73
598.56	4876.82
602.071	6174.41
605.58	6249.45
609.088	5047.96
612.594	3271.49
616.099	1995.07
619.602	1286.99
623.104	862.718
626.604	608.621
630.103	410.457
633.601	302.85
637.097	250.953
640.592	199.74
644.085	143.476
647.577	163.194
651.067	104.088
654.556	96.7645
658.044	60.6521
661.53	55.5374
665.014	3.86658
668.497	21.151
671.979	14.7858
675.459	21.2372
678.938	47.1718
682.416	22.2223
685.892	63.4367
689.366	62.8855
692.839	64.5138
696.311	7.30237
699.781	13.7727
703.25	26.8148
706.717	22.8506
710.183	2.88855
713.647	18.9487
717.11	103.036
720.572	55.1549
724.032	153.314
727.49	161.524
730.947	232.787
734.403	206.148
737.857	249.594
741.31	254.12
744.762	385.718
748.212	446.397
751.66	391.152
755.107	422.986
758.553	493.898
761.997	456.889
765.44	535.963
768.881	678.12
772.321	837.367
775.759	972.703
779.196	1141.13
782.632	1083.65
786.066	1122.33
789.498	1242.18
792.93	1389.2
796.359	1772.44
799.788	2393.9
803.215	3243.09
806.64	4749.17
810.064	7603.26
813.486	13859
816.907	25047.5
820.327	36362.7
823.745	37270.9
827.162	25813.8
830.577	15465.4
833.991	10586
837.403	9428.49
840.814	10382.8
844.224	14740.6
847.632	24353.5
851.038	36933.6
854.444	43025.9
857.847	35308.3
861.25	21427
864.65	12089.7
868.05	7021.68
871.448	4396.78
874.844	3102.05
878.239	2328.48
881.633	1825.07
885.025	1362.83
888.416	836.745
891.805	661.822
895.193	445.058
898.579	333.453
901.964	231.006
905.347	266.716
908.729	191.2
912.11	152.601
915.489	163.774
918.867	150.573
922.243	131.684
925.618	79.6397
928.991	130.065
932.363	172.88
935.733	213.171
939.102	374.144
942.47	602.771
945.836	926.922
949.2	1548.6
952.564	2598.09
955.925	4132.34
959.286	5573.42
962.644	6053.46
966.002	5115.37
969.358	3691.21
972.712	2367.19
976.065	1555.12
979.417	1050.27
982.767	728.816
986.116	555.201
989.463	409.554
992.809	349.966
996.153	354.433
999.496	292.977
1002.84	316.545
1006.18	269.675
1009.52	157.05
1012.85	102.744
1016.19	110.474
1019.52	136.235
1022.86	151.026
1026.19	145.842
1029.52	81.6816
1032.85	127.541
1036.17	96.4155
1039.5	75.3033
1042.82	70.2003
1046.14	83.1034
1049.47	67.0092
1052.79	11.1116
1056.1	19.3778
1059.42	43.7727
1062.74	41.364
1066.05	30.2169
1069.36	58.5542
1072.67	28.7283
1075.98	45.3494
1079.29	29.1283
1082.6	56.9548
1085.9	17.9858
1089.21	8.01562
1092.51	30.8485
1095.81	16.649
1099.11	41.3551
1102.41	37.9902
1105.7	8.42505
1109	92.0604
1112.29	39.4866
1115.59	80.8527
1118.88	88.1558
1122.16	139.394
1125.45	82.5707
1128.74	70.6864
1132.02	71.7375
1135.31	73.7245
1138.59	32.6509
1141.87	71.5129
1145.15	96.3133
1148.43	77.0487
1151.7	129.727
1154.98	185.353
1158.25	167.933
1161.52	126.441
1164.79	116.883
1168.06	85.2522
1171.33	147.55
1174.6	81.7749
1177.86	123.926
1181.12	132.003
1184.39	113.905
1187.65	115.623
1190.91	104.518
1194.16	110.691
1197.42	70.1046
1200.67	103.643
1203.93	87.0859
1207.18	124.497
1210.43	136.559
1213.68	108.996
1216.92	115.778
1220.17	152.006
1223.41	159.965
1226.66	94.6325
1229.9	167.888
1233.14	208.185
1236.38	175.967
1239.62	126.014
1242.85	128.219
1246.09	137.243
1249.32	97.1212
1252.55	97.2395
1255.78	45.3577
1259.01	39.427
1262.23	101.468
1265.46	89.5127
1268.68	56.4181
1271.91	61.3984
1275.13	11.0467
1278.35	51.015
1281.57	61.5996
1284.78	100.059
1288	63.9772
1291.21	53.0918
1294.42	25.9767
1297.64	34.8975
1300.85	34.7861
1304.05	22.6299
1307.26	51.4614
1310.46	76.2843
1313.67	61.1284
1316.87	69.0471
1320.07	61.0125
1323.27	34.0915
1326.47	81.2703
1329.67	18.4337
1332.86	58.9806
1336.06	5.53516
1339.25	61.0134
1342.44	15.4027
1345.63	8.81934
1348.82	22.012
1352	17.4487
1355.19	38.1178
1358.37	1.79944
1361.55	19.4746
1364.73	38.1135
1367.91	32.746
1371.09	69.6858
1374.27	78.0354
1377.44	29.9713
1380.62	7.62476
1383.79	29.4161
1386.96	55.6899
1390.13	57.4933
1393.29	27.1786
1396.46	80.8639
1399.62	11.1763
1402.79	24.6494
1405.95	15.5461
1409.11	4.75049
1412.27	35.8917
1415.43	19.3862
1418.58	98.208
1421.74	48.7983
1424.89	9.41492
1428.04	49.9951
1431.19	54.5979
1434.34	71.1965
1437.49	42.9536
1440.63	69.8645
1443.78	113.241
1446.92	135.357
1450.06	189.488
1453.2	209.229
1456.34	173.98
1459.48	165.668
1462.62	145.786
1465.75	70.6628
1468.88	120.797
1472.01	123.95
1475.14	110.089
1478.27	39.2507
1481.4	72.7926
1484.53	34.8845
1487.65	64.368
1490.77	82.8275
1493.89	89.6194
1497.01	27.2638
1500.13	36.0523
1503.25	66.8304
1506.36	53.6007
1509.48	35.3812
1512.59	89.2433
1515.7	83.1078
1518.81	37.9342
1521.92	6.68884
1525.03	67.4338
1528.13	57.4412
1531.23	43.7458
1534.34	31.1724
1537.44	24.1489
1540.54	91.312
1543.64	89.9202
1546.73	27.821
1549.83	32.8497
1552.92	25.899
1556.02	48.8923
1559.11	6.55371
1562.19	57.3789
1565.28	0
