Measurement: Raman, 514 nm, ccw, Raman Data Processed
Mineral: Forsterite
Rruff sample: R040052
Ideal chemistry: Mg_2_SiO_4_
Locality: Synthetic, Czochralski method
Source: Hideki Kanazawa of Kyoto University, Japan
Description: Colorless crystal fragments obtained from a boule.
Measured chemistry: Mg_2.00_Si_1.00_O_4_
Pin_id: L00366
Orientation: Laser parallel to b* (0 1 0). Fiducial mark perpendicular to laser is parallel to c [0 0 1]
Raman shift (cm-1)	intensity
70.361	0
74.577	1073.69
78.791	4632.07
83.003	1123.67
87.213	776.201
91.42	664.909
95.626	568.244
99.829	486.496
104.03	369.121
108.229	466.741
112.426	3535
116.62	2693.19
120.813	2499.8
125.003	298.926
129.191	155.952
133.377	150.567
137.561	82.546
141.743	150.264
145.922	136.712
150.099	19.549
154.274	32.46
158.448	10.541
162.618	281.4
166.787	65.766
170.954	39.579
175.118	61.224
179.28	30.395
183.441	28.879
187.599	35.209
191.755	43.204
195.908	85.841
200.06	30.418
204.209	36.846
208.357	45.124
212.502	94.287
216.645	10.192
220.786	30.017
224.925	302.328
229.062	2162.76
233.196	389.639
237.329	79.773
241.459	70.444
245.587	49.13
249.714	52.152
253.838	75.794
257.96	102.921
262.079	121.029
266.197	160.598
270.313	136.07
274.426	122.253
278.538	94.377
282.647	125.38
286.754	155.855
290.859	131.604
294.962	240.18
299.063	378.067
303.162	888.436
307.259	2367.91
311.353	702.871
315.446	326.196
319.536	257.424
323.625	266.015
327.711	691.527
331.795	1796.87
335.877	941.619
339.957	1434.01
344.035	1742.19
348.111	543.31
352.185	309.394
356.257	191.263
360.327	134.936
364.394	126.637
368.46	94.409
372.523	108.725
376.585	147.599
380.644	149.75
384.701	89.375
388.756	96.171
392.81	166.633
396.861	143.45
400.91	90.3
404.957	172.378
409.002	137.41
413.045	173.482
417.085	223.212
421.124	533.716
425.161	946.884
429.196	423.554
433.228	222.749
437.259	125.477
441.287	141.258
445.314	182.454
449.338	88.542
453.361	83.492
457.381	44.298
461.4	114.966
465.416	50.545
469.43	60.667
473.443	56.58
477.453	83.02
481.461	65.408
485.467	68.756
489.471	68.09
493.474	44.42
497.474	63.729
501.472	52.028
505.468	32.881
509.462	24.657
513.454	94.186
517.444	67.693
521.432	110.461
525.418	31.516
529.402	76.136
533.384	129.391
537.364	201.782
541.343	357.814
545.319	1259.69
549.293	1661.61
553.265	548.815
557.235	186.759
561.203	125.413
565.169	72.56
569.133	80.904
573.095	55.241
577.055	7.671
581.013	96.076
584.969	195.304
588.923	268.29
592.875	248.894
596.825	167.584
600.773	124.685
604.72	302.224
608.664	550.272
612.606	652.338
616.546	374.514
620.484	311.891
624.421	310.803
628.355	321.997
632.287	174.943
636.218	106.913
640.146	87.999
644.073	179.074
647.997	139.846
651.92	105.747
655.84	124.681
659.759	128.577
663.675	9.347
667.59	16.353
671.503	44.227
675.413	8.156
679.322	9.876
683.229	9.83
687.134	62.297
691.037	57.528
694.938	24.841
698.837	1.228
702.734	77.313
706.629	17.787
710.523	52.044
714.414	81.434
718.303	54.621
722.191	84.961
726.076	88.292
729.96	50.624
733.841	4.966
737.721	159.319
741.599	193.69
745.474	153.081
749.348	146.495
753.22	92.709
757.09	167.407
760.958	200.905
764.825	239.436
768.689	230
772.551	220.602
776.412	260.241
780.27	445.92
784.127	377.645
787.982	400.415
791.834	446.23
795.685	571.096
799.534	717.014
803.381	840.687
807.226	1021.16
811.07	1262.3
814.911	1892.18
818.75	3386.53
822.588	7561.08
826.423	16322
830.257	12524.2
834.089	5867.23
837.919	4010.57
841.747	4196.24
845.573	5596.23
849.397	8840.01
853.22	16823.2
857.04	42967.8
860.859	57762.7
864.676	26597.8
868.49	11363.1
872.303	5888.56
876.114	3645.13
879.924	2989.82
883.731	3531.62
887.536	2992.54
891.34	1787.56
895.141	1252.68
898.941	870.906
902.739	703.235
906.535	642.667
910.329	625.203
914.122	504.844
917.912	419.872
921.701	532.724
925.487	482.682
929.272	452.75
933.055	640.933
936.836	596.3
940.616	610.72
944.393	789.279
948.168	1008.97
951.942	1409.8
955.714	2379.76
959.484	3490.49
963.252	5554.54
967.018	9553.64
970.783	7442.13
974.545	3006.8
978.306	1340.59
982.065	648.468
985.822	381.447
989.577	254.539
993.331	91.748
997.082	117.918
1000.83	151.388
1004.58	399.57
1008.33	143.886
1012.07	52.255
1015.81	41.242
1019.55	39.069
1023.29	85.555
1027.03	209.521
1030.76	90.559
1034.5	164.889
1038.23	71.087
1041.96	27.366
1045.68	65.756
1049.41	49.272
1053.13	114.871
1056.86	89.518
1060.58	85.223
1064.3	111.624
1068.01	8.011
1071.73	80.593
1075.44	94.689
1079.15	37.7
1082.86	49.101
1086.57	62.254
1090.28	38.655
1093.98	20.546
1097.68	47.422
1101.38	28.691
1105.08	32.825
1108.78	24.961
1112.47	22.082
1116.17	20.203
1119.86	49.343
1123.55	137.487
1127.24	24.625
1130.92	120.768
1134.61	107.843
1138.29	82.871
1141.97	6.162
1145.65	55.258
1149.33	2.668
1153	66.194
1156.68	68.547
1160.35	37.33
1164.02	73.285
1167.69	137.743
1171.35	70.17
1175.02	85.733
1178.68	50.4
1182.34	43.742
1186	78.362
1189.66	87.015
1193.31	45.415
1196.97	100.981
1200.62	46.096
1204.27	27.391
1207.92	34.665
1211.57	57.186
1215.21	77.197
1218.86	56.614
1222.5	138.203
1226.14	69.016
1229.78	108.013
1233.41	139.585
1237.05	163.536
1240.68	75.681
1244.31	160.664
1247.94	192.016
1251.57	196.36
1255.19	121.212
1258.82	66.716
1262.44	82.629
1266.06	95.972
1269.68	179.743
1273.3	178.074
1276.91	228.684
1280.53	99.837
1284.14	155.965
1287.75	114.621
1291.36	33.552
1294.96	10.003
1298.57	22.994
1302.17	31.097
1305.77	42.96
1309.37	8.779
1312.97	33.318
1316.57	100.691
1320.16	54.932
1323.76	61.047
1327.35	66.375
1330.94	2.651
1334.53	8.529
1338.11	16.918
1341.69	32.297
1345.28	76.12
1348.86	19.077
1352.44	93.992
1356.02	17.781
1359.59	85.445
1363.16	1.006
1366.74	53.411
1370.31	66.84
1373.88	70.036
1377.44	145.276
1381.01	200.33
1384.57	150.185
1388.13	153.914
1391.69	63.584
1395.25	32.875
1398.81	67.145
1402.37	27.218
1405.92	54.23
1409.47	75.213
1413.02	169.448
1416.57	184.446
1420.12	85.581
1423.66	136.613
1427.2	164.99
1430.75	108.076
1434.29	155.282
1437.82	200.526
1441.36	161.912
1444.9	331.982
1448.43	367.42
1451.96	482.928
1455.49	538.975
1459.02	591.194
1462.55	511.552
1466.07	465.538
1469.59	351.833
1473.11	267.699
1476.63	260.87
1480.15	241.686
1483.67	204.443
1487.18	257.287
1490.7	198.012
1494.21	208.753
1497.72	128.447
1501.23	238.524
1504.73	261.873
1508.24	187.406
1511.74	124.249
1515.24	100.716
1518.74	9.702
1522.24	58.139
1525.73	2.914
