Measurement: Raman, 514 nm, ccw, Raman Data Processed
Mineral: Forsterite
Rruff sample: R050117
Ideal chemistry: Mg_2_SiO_4_
Locality: Sapat, Gilgit, Pakistan
Source: Farooq and Nazia Sawal
Description: Fragment of a green crystal
Measured chemistry: (Mg_1.81_Fe_0.18_Ni_0.01_)_Î£=2_Si_1.00_O_4_
Pin_id: L00442
Orientation: Laser parallel to c* (0 0 1). Fiducial mark perpendicular to laser is parallel to -a [-1 0 0]
Raman shift (cm-1)	intensity
139.937	0
144.094	58.372
148.25	87.624
152.403	58.243
156.555	134.388
160.705	166.557
164.853	194.708
168.998	91.441
173.142	130.117
177.284	249.631
181.424	162.027
185.562	160.782
189.698	114.272
193.831	16.965
197.963	53.02
202.093	124.663
206.221	176.661
210.347	283.371
214.472	491.742
218.594	695.625
222.714	710.377
226.832	673.239
230.948	511.292
235.063	376.958
239.175	262.724
243.286	143.379
247.394	86.723
251.501	98.508
255.605	15.489
259.708	15.781
263.808	21.43
267.907	32.426
272.004	21.067
276.099	9.004
280.192	15.472
284.283	11.849
288.372	41.793
292.459	205.598
296.544	737.646
300.627	1645.93
304.709	1906.17
308.788	1238.9
312.865	999.896
316.941	1184.78
321.015	1126.86
325.086	1216.55
329.156	1167.15
333.224	940.885
337.29	820.164
341.354	541.449
345.416	316.873
349.476	201.854
353.534	181.744
357.591	155.444
361.645	96.076
365.698	122.465
369.748	124.221
373.797	113.457
377.844	128.807
381.889	173.973
385.932	112.84
389.973	148.35
394.012	115.441
398.049	166.99
402.084	137.96
406.118	230.94
410.15	384.632
414.179	607.577
418.207	885.693
422.233	940.047
426.257	1493.99
430.279	2511.69
434.299	1935.69
438.318	790.198
442.334	364.248
446.349	208.811
450.361	122.682
454.372	131.496
458.381	88.302
462.388	78.338
466.394	55.057
470.397	74.182
474.398	122.723
478.398	142.711
482.396	139.178
486.391	159.261
490.385	191.256
494.377	152.36
498.368	153.677
502.356	191.612
506.342	202.745
510.327	233.658
514.31	245.493
518.291	248.007
522.27	293.179
526.247	304.428
530.222	454.413
534.196	594.11
538.167	962.372
542.137	1621.69
546.105	1454.38
550.071	840.181
554.035	571.501
557.998	460.929
561.958	494.482
565.917	528.781
569.874	610.167
573.829	818.264
577.782	1197.29
581.733	1275.26
585.683	1156.43
589.63	932.227
593.576	1000.24
597.52	1450.24
601.462	2258.21
605.402	3067.75
609.341	3241.94
613.277	2009.89
617.212	1185.35
621.145	716.549
625.076	490.618
629.006	346.899
632.933	192.211
636.859	194.579
640.783	103.985
644.705	75.728
648.625	32.265
652.543	3.254
656.46	3.89
660.375	30.014
664.288	26.613
668.199	29.047
672.108	40.739
676.016	32.714
679.921	55.821
683.825	6.102
687.727	12.523
691.628	2.914
695.526	0.603
699.423	2.026
703.318	9.363
707.211	2.3
711.102	18.967
714.992	30.343
718.879	20.67
722.765	57.01
726.649	72.354
730.532	96.688
734.412	116.016
738.291	79.339
742.168	166.658
746.043	193.976
749.916	213.293
753.788	240.612
757.658	286.943
761.526	346.299
765.392	381.738
769.257	476.278
773.119	526.91
776.98	584.644
780.839	766.476
784.697	817.405
788.552	936.438
792.406	1209.53
796.258	1473.68
800.108	1942.7
803.957	2625.35
807.804	3974.21
811.649	6109.02
815.492	10876.4
819.333	22422.3
823.173	41227.4
827.011	36170.6
830.847	20377.3
834.681	12764.3
838.514	9943.49
842.345	8864.47
846.174	10156
850.001	15868.3
853.827	27685.9
857.651	31838.8
861.473	20992
865.293	12774.1
869.112	7807.83
872.928	4629.67
876.744	2975.61
880.557	2120.67
884.369	1658.84
888.178	1212.37
891.987	862.529
895.793	671.045
899.598	510.678
903.401	453.429
907.202	373.299
911.001	344.151
914.799	415.219
918.595	503.047
922.389	464.85
926.182	347.12
929.972	279.177
933.761	386.429
937.549	423.045
941.334	579.013
945.118	752.256
948.9	1185.68
952.681	1810.18
956.459	3080.02
960.236	4636.43
964.012	5376.51
967.785	4540.22
971.557	3082.5
975.327	1951.6
979.095	1202.9
982.862	804.401
986.627	550.075
990.39	360.922
994.152	320.028
997.912	236.15
1001.67	209.398
1005.43	133.825
1009.18	118.376
1012.93	77.02
1016.68	61.781
1020.43	74.651
1024.18	34.621
1027.93	125.7
1031.67	90.87
1035.42	16.133
1039.16	63.469
1042.9	87.647
1046.63	64.371
1050.37	59.926
1054.11	29.55
1057.84	20.762
1061.57	17.045
1065.3	22.663
1069.03	21.703
1072.75	0.855
1076.47	29.642
1080.2	30.202
1083.92	34.181
1087.64	2.498
1091.36	1.214
1095.07	38.094
1098.79	1.591
1102.5	8.711
1106.21	28.022
1109.92	21.651
1113.62	31.666
1117.33	22.012
1121.04	49.371
1124.74	204.734
1128.44	50.108
1132.14	28.486
1135.83	50.171
1139.53	62.478
1143.22	97.507
1146.92	76.313
1150.61	73.457
1154.3	52.068
1157.98	92.7
1161.67	96.293
1165.35	99.332
1169.04	125.867
1172.72	99.982
1176.4	106.805
1180.07	80.633
1183.75	99.289
1187.42	98.631
1191.1	61.263
1194.77	133.438
1198.44	144.696
1202.1	145.793
1205.77	150.863
1209.43	147.977
1213.1	171.94
1216.76	180.008
1220.42	165.441
1224.07	181.032
1227.73	237.126
1231.38	181.817
1235.04	195.387
1238.69	144.518
1242.34	135.894
1245.99	89.594
1249.63	110.95
1253.28	65.718
1256.92	118.775
1260.56	129.948
1264.2	112.102
1267.84	95.794
1271.48	70.788
1275.11	57.722
1278.74	9.494
1282.38	24.154
1286.01	24.026
1289.63	9.572
1293.26	16.821
1296.89	43.135
1300.51	25.36
1304.13	37.508
1307.75	5.582
1311.37	8.944
1314.99	24.515
1318.6	12.375
1322.22	32.078
1325.83	7.835
1329.44	33.872
1333.05	8.809
1336.66	34.127
1340.26	17.375
1343.87	5.443
1347.47	33.659
1351.07	45.699
1354.67	53.678
1358.27	24.635
1361.86	67.606
1365.46	40.594
1369.05	20.581
1372.64	43.581
1376.23	45.776
1379.82	53.185
1383.41	45.679
1386.99	51.17
1390.57	69.636
1394.16	95.034
1397.74	61.382
1401.32	73.121
1404.89	54.407
1408.47	42.734
1412.04	69.043
1415.61	29.795
1419.18	34.532
1422.75	71.932
1426.32	93.688
1429.89	120.737
1433.45	109.417
1437.01	103.502
1440.58	66.929
1444.13	57.94
1447.69	49.507
1451.25	17.712
1454.81	48.684
1458.36	12.333
1461.91	69.675
1465.46	36.7
1469.01	78.743
1472.56	53.089
1476.1	118.873
1479.64	58.248
1483.19	70.629
1486.73	72.795
1490.27	56.667
1493.81	14.85
1497.34	32.989
1500.88	14.689
1504.41	1.47
1507.94	69.579
1511.47	23.544
1515	0.81
1518.53	27.706
