Measurement: Raman, 514 nm, ccw, Raman Data Processed
Mineral: Forsterite
Rruff sample: R060539
Ideal chemistry: Mg_2_SiO_4_
Locality: Sri Lanka
Source: Gemological Institute of America
Description: Brown cut gemstone
Measured chemistry: (Mg_1.67_Fe_0.33_)_Î£=2_Si_1.00_O_4_; trace amounts of Mn and Ca
Pin_id: L01554
Orientation: Laser parallel to -c* (0 0 -1). Fiducial mark perpendicular to laser is parallel to a [1 0 0]
Raman shift (cm-1)	intensity
128.742	0
133.671	11.8414
138.598	87.4414
143.522	93.139
148.444	131.234
153.363	123.738
158.279	92.4452
163.193	92.8683
168.104	100.892
173.013	126.585
177.92	92.8809
182.823	101.722
187.725	100.009
192.623	82.7483
197.52	154
202.413	193.421
207.305	313.738
212.193	400.09
217.079	377.566
221.963	312.488
226.844	257.502
231.723	223.077
236.599	201.733
241.472	98.3093
246.343	50.9518
251.211	47.6403
256.077	0.259766
260.94	6.0152
265.801	24.7134
270.66	33.4716
275.515	17.6429
280.368	110.38
285.219	220.893
290.067	508.85
294.913	853.119
299.756	1013.62
304.596	966.772
309.434	1057.35
314.27	1088.42
319.102	1106.26
323.933	1033.58
328.76	779.843
333.586	622.94
338.408	393.307
343.229	203.615
348.046	129.924
352.861	94.1698
357.674	30.4182
362.484	37.7692
367.291	7.90741
372.096	10.5428
376.898	38.8792
381.698	9.42731
386.495	3.06055
391.29	9.81281
396.082	24.6484
400.872	161.539
405.659	388.402
410.443	685.57
415.225	1065.16
420.005	1639.93
424.782	1704.73
429.556	920.514
434.328	350.259
439.097	84.9555
443.864	60.5945
448.628	0.156128
453.389	11.4529
458.148	0.675049
462.905	16.6238
467.659	16.4765
472.41	61.2308
477.159	47.8897
481.905	44.4493
486.649	75.9055
491.39	34.6712
496.129	57.519
500.865	44.5107
505.598	64.9219
510.329	119.786
515.057	152.732
519.783	170.42
524.506	313.343
529.227	630.487
533.945	1134.6
538.661	1474.77
543.374	970.62
548.084	485.794
552.792	352.184
557.498	304.921
562.2	354.099
566.901	539.919
571.598	731.878
576.293	909.48
580.986	765.893
585.676	700.134
590.363	877.192
595.048	1172.52
599.731	1486.77
604.41	1345.98
609.088	983.062
613.762	588.17
618.434	412.154
623.104	279.951
627.771	195.53
632.435	109.909
637.097	66.2412
641.756	24.4022
646.413	3.70203
651.067	11.9731
655.719	4.51215
660.368	31.3528
665.014	21.6308
669.658	31.2648
674.299	35.3336
678.938	4.19653
683.574	18.4592
688.208	12.5219
692.839	27.5558
697.468	14.1796
702.094	16.2079
706.717	14.2985
711.338	7.73718
715.956	29.1113
720.572	58.4346
725.185	74.7129
729.795	49.9696
734.403	52.2535
739.009	65.6162
743.611	89.9901
748.212	111.36
752.809	171.732
757.405	209.109
761.997	303.499
766.587	307.91
771.174	389.35
775.759	489.8
780.342	561.218
784.921	682.378
789.498	944.311
794.073	1269.13
798.645	1902.46
803.215	3181.27
807.781	5630.82
812.346	11948.3
816.907	24394.5
821.467	32115.6
826.023	20924.2
830.577	11911.8
835.129	8949.68
839.678	8443.48
844.224	11278.3
848.768	17316.2
853.309	20222.3
857.847	14271.7
862.383	8120.29
866.917	4542.06
871.448	2544.02
875.976	1504.18
880.502	931.533
885.025	643.081
889.545	364.827
894.063	246.773
898.579	183.92
903.092	142.271
907.602	187.979
912.11	224.78
916.615	294.484
921.118	225.337
925.618	193.905
930.115	253.839
934.61	401.96
939.102	641.068
943.592	1024.44
948.079	1689.24
952.564	2485.26
957.046	2887.78
961.525	2666.38
966.002	2032.31
970.476	1442.9
974.948	863.752
979.417	579.206
983.883	358.922
988.347	255.651
992.809	218.509
997.268	142.268
1001.72	114.372
1006.18	44.5917
1010.63	45.923
1015.08	63.3612
1019.52	25.9023
1023.97	64.5414
1028.41	36.3079
1032.85	54.718
1037.28	41.2234
1041.71	1.70056
1046.14	13.5547
1050.57	27.3877
1055	23.7421
1059.42	20.1825
1063.84	18.2512
1068.26	18.7922
1072.67	12.7653
1077.09	10.2179
1081.5	5.23279
1085.9	17.6902
1090.31	6.12378
1094.71	62.5261
1099.11	0.082031
1103.51	0.338379
1107.9	25.5084
1112.29	68.7304
1116.68	35.9369
1121.07	84.125
1125.45	12.2947
1129.84	63.4177
1134.21	85.5115
1138.59	30.5784
1142.96	90.6162
1147.34	51.7445
1151.7	106.624
1156.07	118.56
1160.43	86.6132
1164.79	93.8262
1169.15	104.63
1173.51	78.4325
1177.86	127.989
1182.21	142.111
1186.56	123.356
1190.91	123.735
1195.25	105.573
1199.59	141.885
1203.93	106.826
1208.26	130.107
1212.6	155.411
1216.92	131.175
1221.25	171.39
1225.58	136.941
1229.9	86.7266
1234.22	130.457
1238.54	116.642
1242.85	89.8099
1247.16	75.8384
1251.47	71.9714
1255.78	96.8411
1260.08	52.4029
1264.38	29.4778
1268.68	62.5356
1272.98	36.5796
1277.28	55.6111
1281.57	22.6324
1285.86	15.3656
1290.14	1.49036
1294.42	32.2933
1298.71	16.0662
1302.98	22.8265
1307.26	11.5729
1311.53	22.338
1315.8	12.1435
1320.07	53.0029
1324.34	4.94324
1328.6	29.933
1332.86	7.00952
1337.12	36.1294
1341.38	15.3031
1345.63	45.4838
1349.88	35.6837
1354.13	0.901245
1358.37	8.12427
1362.61	47.3792
1366.85	23.5067
1371.09	48.9817
1375.33	28.8284
1379.56	36.3104
1383.79	41.6448
1388.01	45.0056
1392.24	19.5775
1396.46	45.9695
1400.68	57.843
1404.9	5.30029
1409.11	83.7662
1413.32	29.4019
1417.53	23.312
1421.74	27.8438
1425.94	68.3378
1430.14	4.50232
1434.34	16.5228
1438.54	63.1161
1442.73	39.2297
1446.92	51.7512
1451.11	33.0848
1455.3	72.5907
1459.48	95.0127
1463.66	52.4644
1467.84	72.9863
1472.01	41.4956
1476.19	13.9856
1480.36	79.4638
1484.53	44.9133
1488.69	13.3204
1492.85	85.8832
1497.01	5.41394
1501.17	41.3286
1505.33	19.105
1509.48	37.9963
1513.63	46.0096
1517.78	21.0873
1521.92	12.2374
1526.06	27.4902
1530.2	23.8884
1534.34	7.34229
1538.47	31.0212
1542.6	38.3185
1546.73	6.0791
1550.86	53.176
1554.98	28.7922
1559.11	0.628418
1563.22	11.4371
