Measurement: Raman, 514 nm, ccw, Raman Data Processed
Mineral: Forsterite
Rruff sample: R040052
Ideal chemistry: Mg_2_SiO_4_
Locality: Synthetic, Czochralski method
Source: Hideki Kanazawa of Kyoto University, Japan
Description: Colorless crystal fragments obtained from a boule.
Measured chemistry: Mg_2.00_Si_1.00_O_4_
Pin_id: L00074
Orientation: Laser parallel to c* (0 0 1). Fiducial mark perpendicular to laser is parallel to a [1 0 0]
Raman shift (cm-1)	intensity
96.025	0
100.216	30.524
104.405	0.945
108.592	59.722
112.777	41.232
116.959	320.105
121.14	1159
125.318	110.908
129.495	87.231
133.669	67.522
137.841	52.406
142.011	83.621
146.179	27.748
150.345	39.842
154.509	19.859
158.671	26.592
162.83	10.02
166.988	19.973
171.144	0.183
175.297	8.806
179.449	29.597
183.598	57.742
187.745	266.684
191.891	18.157
196.034	12.995
200.175	4.681
204.314	8.697
208.451	3.518
212.586	13.775
216.719	12.593
220.85	55.049
224.979	232.991
229.105	2035.73
233.23	1367.82
237.353	52.058
241.474	18.692
245.592	19.608
249.709	23.625
253.823	6.506
257.936	2.546
262.046	30.082
266.155	51.734
270.261	148.996
274.365	58.927
278.468	43.4
282.568	65.371
286.666	47.968
290.762	53.067
294.857	80.819
298.949	118.984
303.039	146.814
307.127	462.841
311.213	314.794
315.297	176.036
319.379	215.696
323.46	269.443
327.538	476.436
331.614	1998.08
335.688	1664.75
339.76	1364.95
343.83	2088.97
347.898	654.942
351.964	231.229
356.028	156.794
360.09	113.719
364.15	69.701
368.208	95.645
372.264	109.37
376.318	120.384
380.37	55.246
384.42	110.395
388.468	90.772
392.514	82.177
396.558	69.25
400.6	80.861
404.641	105.96
408.679	87.065
412.715	85.069
416.749	82.006
420.781	145.838
424.811	346.599
428.84	224.162
432.866	145.825
436.89	208.478
440.913	181.097
444.933	101.012
448.951	65.167
452.968	57.898
456.982	54.546
460.995	57.127
465.005	41.663
469.014	51.145
473.02	79.563
477.025	70.921
481.027	47.198
485.028	55.389
489.027	37.534
493.024	72.646
497.019	67.732
501.012	43.831
505.002	79.651
508.992	98.183
512.979	41.91
516.964	48.898
520.947	89.375
524.928	91.866
528.907	99.629
532.885	125.274
536.86	231.27
540.834	479.329
544.805	1369.83
548.775	3245.43
552.742	1489.38
556.708	508.324
560.672	274.735
564.634	176.402
568.594	106.143
572.552	104.784
576.508	93.384
580.462	142.976
584.414	90.562
588.365	87.144
592.313	94.499
596.26	86.731
600.204	73.997
604.147	91.136
608.088	160.264
612.026	340.318
615.963	228.555
619.898	94.84
623.832	51.781
627.763	54.031
631.692	56.977
635.619	60.171
639.545	0.537
643.469	10.665
647.39	16.958
651.31	14.687
655.228	6.7
659.144	27.438
663.058	15.1
666.97	5.783
670.881	0.48
674.789	11.18
678.696	19.894
682.6	40.505
686.503	14.441
690.404	10.842
694.303	13.076
698.2	5.906
702.095	3.731
705.989	7.546
709.88	34.646
713.77	22.847
717.658	33.061
721.543	33.288
725.427	54.53
729.31	73.788
733.19	97.064
737.068	106.363
740.945	92.683
744.819	136.03
748.692	156.405
752.563	204.809
756.432	178.243
760.299	204.704
764.165	242.196
768.028	303.719
771.89	327.277
775.749	363.868
779.607	411.413
783.463	492.07
787.318	641.762
791.17	788.5
795.02	919.837
798.869	995.781
802.716	1201.11
806.561	1686.96
810.404	2560.67
814.245	4046
818.085	6271.13
821.922	12542.9
825.758	32358.5
829.592	39745.6
833.424	17962
837.254	8114.65
841.083	4740.91
844.909	3468.19
848.734	3206.56
852.557	4566.99
856.378	9375.5
860.197	17073.1
864.015	9960.73
867.83	4410.41
871.644	2759.14
875.456	1677.92
879.266	1132.76
883.074	795.87
886.881	626.839
890.686	537.962
894.488	473.042
898.29	446.231
902.089	414.418
905.886	322.727
909.682	263.021
913.476	175.417
917.268	194.962
921.058	261.653
924.846	274.62
928.633	208.189
932.418	194.066
936.201	195.753
939.982	265.584
943.761	404.675
947.539	483.671
951.315	631.604
955.089	856.601
958.861	1258.67
962.631	2089.03
966.4	4291.41
970.167	5381.53
973.932	2406.29
977.695	884.656
981.456	422.062
985.216	178.513
988.974	114.151
992.73	75.686
996.484	67.26
1000.24	10.178
1003.99	77.161
1007.74	43.98
1011.48	11.703
1015.23	27.637
1018.97	50.02
1022.72	48.846
1026.45	58.049
1030.19	6.075
1033.93	13.831
1037.66	15.996
1041.4	59.964
1045.13	39.96
1048.86	18.342
1052.59	15.409
1056.31	29.091
1060.04	1.981
1063.76	7.17
1067.48	25.369
1071.2	63.52
1074.92	39.041
1078.63	8.788
1082.35	41.409
1086.06	12.612
1089.77	8.994
1093.47	11.065
1097.18	5.404
1100.89	47.646
1104.59	10.874
1108.29	20.085
1111.99	34.29
1115.69	43.494
1119.38	7.304
1123.08	25.888
1126.77	45.123
1130.46	42.303
1134.15	13.533
1137.84	11.686
1141.53	21.865
1145.21	12.004
1148.89	3.153
1152.57	32.005
1156.25	24.053
1159.93	8.967
1163.61	26.388
1167.28	5.429
1170.95	18.073
1174.62	60.26
1178.29	44.384
1181.96	74.342
1185.62	59.199
1189.28	11.722
1192.95	2.58
1196.61	12.568
1200.26	27.387
1203.92	5.239
1207.58	47.236
1211.23	47.336
1214.88	65.353
1218.53	52.559
1222.18	37.328
1225.82	8.583
1229.47	67.985
1233.11	68.767
1236.75	119.335
1240.39	129.259
1244.03	105.624
1247.66	50.923
1251.3	63.075
1254.93	18.284
1258.56	43.457
1262.19	24.602
1265.82	60.062
1269.45	97.126
1273.07	47.104
1276.69	40.087
1280.31	44.938
1283.93	35.355
1287.55	53.23
1291.16	6.283
1294.78	8.518
1298.39	53.055
1302	20.775
1305.61	14.417
1309.22	22.992
1312.82	47.148
1316.43	32.401
1320.03	17.547
1323.63	5.822
1327.23	39.148
1330.83	32.638
1334.42	56.48
1338.02	66.405
1341.61	18.552
1345.2	26.635
1348.79	10.681
1352.38	17.32
1355.96	9.53
1359.55	10.558
1363.13	27.315
1366.71	52.167
1370.29	52.993
1373.86	43.884
1377.44	54.645
1381.01	64.402
1384.59	46.274
1388.16	35.086
1391.72	42.704
1395.29	44.503
1398.86	18.832
1402.42	49.204
1405.98	65.316
1409.55	93.437
1413.11	53.852
1416.66	76.12
1420.22	62.377
1423.77	35.654
1427.32	58.165
1430.88	37.188
1434.42	66.329
1437.97	88.929
1441.52	85.911
1445.06	92.224
1448.61	155.486
1452.15	151.64
1455.68	156.725
1459.22	129.851
1462.76	109.93
1466.29	59.775
1469.83	72.334
1473.36	85.134
1476.89	63.845
1480.41	62.519
1483.94	81.385
1487.47	78.389
1490.99	114.416
1494.51	94.419
1498.03	76.413
1501.55	37.475
1505.07	24.637
1508.58	0.101
1512.09	6.251
1515.61	43.741
1519.12	40.641
1522.62	47.625
1526.13	1.088
