Measurement: Raman, 514 nm, ccw, Raman Data Processed
Mineral: Forsterite
Rruff sample: R060539
Ideal chemistry: Mg_2_SiO_4_
Locality: Sri Lanka
Source: Gemological Institute of America
Description: Brown cut gemstone
Measured chemistry: (Mg_1.67_Fe_0.33_)_Î£=2_Si_1.00_O_4_; trace amounts of Mn and Ca
Pin_id: L01074
Orientation: Laser parallel to a* (1 0 0). Fiducial mark perpendicular to laser is parallel to b [0 1 0]
Raman shift (cm-1)	intensity
132.439	0
137.367	99.2445
142.291	86.6125
147.213	87.305
152.133	113.032
157.05	1.69348
161.965	78.526
166.877	72.5958
171.786	100.418
176.693	78.3801
181.598	65.8519
186.5	183.056
191.399	177.864
196.296	217.623
201.19	391.214
206.082	497.989
210.971	729.64
215.858	862.266
220.742	702.079
225.624	509.395
230.503	458.932
235.38	375.587
240.254	228.42
245.125	70.3549
249.994	31.3564
254.861	13.6083
259.725	152.498
264.586	30.6428
269.445	2.16187
274.302	71.7477
279.155	151.563
284.007	253.735
288.855	487.014
293.702	817.901
298.545	1068.2
303.386	815.927
308.225	768.789
313.061	770.817
317.894	822.968
322.725	867.715
327.554	837.642
332.38	702.195
337.203	535.806
342.024	361.855
346.842	135.534
351.658	177.783
356.471	238.469
361.281	359.251
366.09	443.555
370.895	309.894
375.698	168.323
380.498	6.97815
385.296	9.11255
390.092	62.1875
394.884	76.7125
399.675	269.779
404.462	214.676
409.248	200.313
414.03	357.376
418.81	531.779
423.588	735.061
428.363	528.255
433.135	306.351
437.905	179.322
442.672	70.1528
447.437	44.8044
452.199	23.7786
456.959	15.292
461.716	27.0989
466.47	34.6746
471.222	41.033
475.972	99.1687
480.719	69.0874
485.463	111.781
490.205	92.5359
494.944	54.2732
499.681	35.1804
504.415	108.288
509.146	185.135
513.875	223.618
518.602	300.274
523.326	467.441
528.047	698.096
532.766	1305.1
537.482	1862.28
542.196	1357.25
546.907	625.146
551.616	420.598
556.322	408.902
561.025	413.861
565.726	436.471
570.424	787.785
575.12	1118.88
579.813	1615.45
584.504	2028.67
589.192	1776.38
593.877	1060.34
598.56	854.665
603.241	738.679
607.919	584.723
612.594	451.319
617.267	307.152
621.937	245.45
626.604	151.041
631.269	129.629
635.932	47.175
640.592	100.852
645.249	24.3413
649.904	32.1445
654.556	8.77393
659.206	78.439
663.853	45.8325
668.497	2.06421
673.139	61.8049
677.779	23.0855
682.416	8.85742
687.05	4.92432
691.682	18.6738
696.311	31.0774
700.937	17.3467
705.561	35.4946
710.183	9.46631
714.802	111.466
719.418	76.3166
724.032	9.09985
728.643	48.8474
733.251	75.6094
737.857	105.417
742.461	133.258
747.062	192.126
751.66	157.029
756.256	202.992
760.849	300.024
765.44	374.12
770.028	404.712
774.613	557.183
779.196	647.097
783.777	762.968
788.354	965.068
792.93	1246.13
797.502	1926.45
802.072	2808.34
806.64	5135.98
811.205	10600.5
815.767	22682.4
820.327	33865.8
824.884	24431.7
829.439	14170.2
833.991	10927.2
838.541	11739.6
843.087	17016.3
847.632	28051.1
852.174	37051.6
856.713	27730.4
861.25	14886.6
865.784	8072.17
870.315	4773.16
874.844	3357.59
879.371	2736.04
883.894	1923.68
888.416	1255.54
892.934	1088.94
897.45	1011.56
901.964	1323.32
906.475	1943.03
910.983	4051.64
915.489	7077.02
919.992	5009.5
924.493	2039.52
928.991	1337.84
933.486	1193.46
937.979	1513.55
942.47	2087.29
946.957	2844.48
951.443	3602.44
955.925	3967.63
960.405	3396.51
964.883	2459.48
969.358	1550.65
973.83	913.747
978.3	545.917
982.767	349.753
987.232	217.228
991.694	201.812
996.153	111.193
1000.61	17.981
1005.06	53.0703
1009.52	44.4473
1013.97	10.9009
1018.41	32.0566
1022.86	44.6958
1027.3	28.2148
1031.74	5.47754
1036.17	6.4043
1040.61	50.5796
1045.04	28.9736
1049.47	15.4751
1053.89	48.8555
1058.32	85.8623
1062.74	21.4307
1067.15	47.2456
1071.57	51.084
1075.98	45.5254
1080.39	62.9497
1084.8	10.4521
1089.21	25.8315
1093.61	38.772
1098.01	24.4551
1102.41	2.78857
1106.8	54.9995
1111.19	16.1328
1115.59	93.7427
1119.97	107.688
1124.36	97.6977
1128.74	120.209
1133.12	101.693
1137.5	178.835
1141.87	161.07
1146.24	155.407
1150.61	128.594
1154.98	95.915
1159.34	218.302
1163.7	209.499
1168.06	105.16
1172.42	199.965
1176.77	98.4702
1181.12	112.29
1185.47	108.745
1189.82	218.333
1194.16	110.587
1198.5	185.339
1202.84	152.37
1207.18	148.977
1211.51	180.35
1215.84	164.334
1220.17	90.9072
1224.5	142.344
1228.82	155.923
1233.14	162.581
1237.46	192.962
1241.77	128.117
1246.09	76.3223
1250.39	127.618
1254.7	77.3955
1259.01	51.9302
1263.31	43.4473
1267.61	54.9736
1271.91	146.52
1276.2	9.94727
1280.49	15.4883
1284.78	16.9087
1289.07	18.3091
1293.35	78.7783
1297.64	86.2612
1301.91	47.749
1306.19	67.2637
1310.46	61.8423
1314.74	17.5117
1319.01	39.1382
1323.27	28.8643
1327.54	61.73
1331.8	69.6865
1336.06	49.8237
1340.31	156.054
1344.57	157.314
1348.82	97.6514
1353.06	43.0571
1357.31	175.506
1361.55	146
1365.79	101.546
1370.03	116.136
1374.27	165.785
1378.5	29.4702
1382.73	47.1943
1386.96	162.524
1391.18	86.9844
1395.4	75.0176
1399.62	119.844
1403.84	83.0371
1408.06	117.259
1412.27	116.153
1416.48	89.4097
1420.69	95.5776
1424.89	134.003
1429.09	90.6631
1433.29	89.0298
1437.49	93.6152
1441.68	75.4243
1445.87	107.941
1450.06	69.6416
1454.25	102.67
1458.43	72.8897
1462.62	21.1455
1466.79	199.433
1470.97	150.856
1475.14	76.1553
1479.31	88.5435
1483.48	141.967
1487.65	112.585
1491.81	99.4604
1495.97	100.31
1500.13	82.2061
1504.29	89.1865
1508.44	93.5742
1512.59	140.167
1516.74	33.9297
1520.88	108.971
1525.03	46.0923
1529.17	105.964
1533.3	137.989
1537.44	43.4946
1541.57	104.55
1545.7	131.318
1549.83	80.6973
1553.95	83.1704
1558.08	80.9902
1562.19	0.40918
