Measurement: Raman, 514 nm, ccw, Raman Data Processed
Mineral: Forsterite
Rruff sample: R060535
Ideal chemistry: Mg_2_SiO_4_
Locality: unknown
Source: Gemological Institute of America
Description: Transparent brown gemstone
Measured chemistry: (Mg_1.81_Fe_0.18_Ni_0.01_)_Î£=2_Si_1.00_O_4_
Pin_id: L01261
Orientation: Laser parallel to b* (0 1 0). Fiducial mark perpendicular to laser is parallel to c [0 0 1]
Raman shift (cm-1)	intensity
208.836	0
213.735	290.438
218.631	490.812
223.524	669.431
228.414	489.819
233.302	179.425
238.186	118.333
243.068	118.518
247.947	35.229
252.823	22.5176
257.697	21.8726
262.567	6.83936
267.435	36.1753
272.3	21.7773
277.162	43.5801
282.021	107.927
286.878	43.9111
291.732	497.296
296.583	897.7
301.431	1180.35
306.276	735.964
311.119	485.969
315.958	440.831
320.795	666.739
325.629	801.35
330.461	818.575
335.289	733.567
340.115	696.909
344.938	351.677
349.759	263.999
354.576	193.953
359.391	174.595
364.203	150.07
369.012	199.079
373.818	110.314
378.622	59.8867
383.423	61.7856
388.221	95.2759
393.016	11.7969
397.809	18.7363
402.598	133.541
407.386	172.794
412.17	294.073
416.951	347.632
421.73	361.943
426.506	116.85
431.279	174.545
436.05	224.148
440.818	111.038
445.583	148.109
450.345	98.6846
455.105	123.775
459.861	42.5352
464.615	133.807
469.367	121.501
474.115	52.6709
478.861	156.219
483.604	132.471
488.345	34
493.082	173.613
497.817	195.68
502.55	224.764
507.279	136.172
512.006	146.33
516.73	154.745
521.451	201.292
526.17	368.538
530.886	437.162
535.599	886.892
540.31	1144.95
545.017	973.312
549.723	539.381
554.425	412.208
559.125	316.246
563.822	291.17
568.516	201.154
573.207	327
577.896	133.013
582.583	589.952
587.266	642.999
591.947	497.294
596.625	408.276
601.3	623.268
605.973	652.467
610.643	546.004
615.311	442.737
619.975	48.5615
624.637	296.033
629.297	208.92
633.953	138.602
638.607	118.463
643.259	118.934
647.907	13.8975
652.553	17.126
657.197	151.58
661.837	131.244
666.475	101.163
671.111	45.833
675.743	55.3574
680.373	48.416
685.001	5.83887
689.625	154.493
694.247	77.2393
698.867	46.5654
703.483	82.0019
708.097	19.127
712.709	66.0117
717.318	226.274
721.924	186.809
726.527	183.19
731.128	331.443
735.726	278.715
740.322	233.06
744.915	319.596
749.505	451.309
754.093	495.023
758.678	242.98
763.26	373.585
767.84	236.377
772.417	455.613
776.992	585.143
781.564	513.088
786.133	410.785
790.7	527.294
795.264	540.204
799.825	777.898
804.384	1209.97
808.94	2157.06
813.494	4810.45
818.045	10043.4
822.593	14273.6
827.139	11095.6
831.682	7132.73
836.223	6116.52
840.761	8369.92
845.296	15274
849.829	30114.6
854.359	41382.6
858.887	32108.7
863.412	15241.1
867.934	7097.72
872.454	4353.54
876.971	2958.89
881.486	2650.17
885.998	1818.93
890.507	1093.67
895.014	794.554
899.518	505.779
904.02	606.691
908.519	598.626
913.016	993.206
917.51	1286.33
922.001	1163.21
926.49	663.181
930.976	797.432
935.46	968.392
939.941	1249.46
944.42	1692.2
948.896	2690.46
953.369	4182.21
957.84	5710.33
962.309	5806.2
966.774	4095.6
971.238	2189.5
975.698	935.192
980.156	577.606
984.612	237.144
989.065	179.727
993.516	87.3457
997.964	238.992
1002.41	155.657
1006.85	8.33594
1011.29	11.4902
1015.73	4.1709
1020.16	95.7139
1024.6	109.249
1029.03	40.5117
1033.46	56.1406
1037.88	180.824
1042.3	92.7236
1046.72	24.4326
1051.14	47.2402
1055.56	2.28125
1059.97	129.057
1064.38	76.6758
1068.79	47.5918
1073.19	114.856
1077.59	25.0312
1081.99	253.105
1086.39	144.916
1090.79	14.6133
1095.18	16.7305
1099.57	99.3936
1103.95	26.4824
1108.34	93.71
1112.72	71.3555
1117.1	58.3398
1121.48	125.697
1125.85	195.912
1130.23	192.981
1134.6	224.908
1138.96	39.6914
1143.33	20.9336
1147.69	31.8223
1152.05	185.154
1156.41	65.1289
1160.76	79.0957
1165.11	75.1113
1169.46	178.834
1173.81	118.949
1178.16	57.4824
1182.5	89.6133
1186.84	122.213
1191.18	193.527
1195.51	31.9004
1199.84	181.33
1204.17	27.334
1208.5	33.4844
1212.83	96.7715
1217.15	55.6758
1221.47	51.7129
1225.79	22.1797
1230.1	117.102
1234.41	249.705
1238.73	105.561
1243.03	104.451
1247.34	105.363
1251.64	58.3125
1255.94	191.315
1260.24	141.377
1264.54	134.541
1268.83	266.703
1273.12	245.029
1277.41	139.902
1281.69	136.914
1285.98	175.885
1290.26	295.336
1294.54	541.791
1298.81	223.482
1303.09	390.301
1307.36	256.248
1311.63	353.381
1315.89	295.705
1320.16	345.156
1324.42	336.978
1328.68	400.43
1332.93	219.598
1337.19	286.082
1341.44	478.139
1345.69	255.461
1349.94	329.424
1354.18	356.986
1358.42	303.014
1362.66	359.617
1366.9	421.453
1371.13	17.3164
1375.37	448.883
1379.6	168.359
1383.82	209.289
1388.05	188.91
1392.27	293.662
1396.49	197.723
1400.71	296.037
1404.92	206.574
1409.14	192.385
1413.35	218.383
1417.56	443.209
1421.76	203.75
1425.97	218.852
1430.17	297.978
1434.37	500.871
1438.56	490.156
1442.76	367.588
1446.95	471.277
1451.14	489.69
1455.33	452.41
1459.51	607.42
1463.69	304.785
1467.87	157.443
1472.05	254.408
1476.22	149.644
1480.4	289.984
1484.57	232.625
1488.73	5.40039
1492.9	20.5469
1497.06	230.377
1501.22	207.424
1505.38	32.8047
1509.54	26.5801
1513.69	118.723
1517.84	206.207
1521.99	136
1526.14	306.103
1530.28	122.727
1534.42	154.852
1538.56	253.184
1542.7	82.5742
1546.83	75.9297
1550.97	178.334
1555.1	185.158
1559.22	114.09
1563.35	0
