Measurement: Raman, 514 nm, ccw, Raman Data Processed
Mineral: Forsterite
Rruff sample: R040052
Ideal chemistry: Mg_2_SiO_4_
Locality: Synthetic, Czochralski method
Source: Hideki Kanazawa of Kyoto University, Japan
Description: Colorless crystal fragments obtained from a boule.
Measured chemistry: Mg_2.00_Si_1.00_O_4_
Pin_id: l00104
Orientation: Laser parallel to -a* (-1 0 0). Fiducial mark perpendicular to laser is parallel to b [0 1 0]
Raman shift (cm-1)	intensity
93.929	0
98.121	107.85
102.311	92.193
106.499	284.752
110.685	575.792
114.868	364.954
119.05	252.612
123.229	118.68
127.407	43.458
131.582	82.38
135.755	152.884
139.926	181.884
144.095	219.7
148.262	156.897
152.427	181.843
156.59	185.772
160.751	128.697
164.91	56.054
169.066	28.029
173.221	17.324
177.373	12.177
181.524	58.015
185.672	10.209
189.818	25.916
193.963	7.243
198.105	22.503
202.245	3.013
206.383	13.713
210.519	19.446
214.653	21.358
218.785	38.309
222.915	399.473
227.042	2225.59
231.168	334.435
235.292	15.04
239.413	50.464
243.533	51.793
247.651	21.646
251.766	30.779
255.88	66.32
259.991	120.087
264.101	54.313
268.208	22.475
272.313	28.653
276.417	86.106
280.518	134.851
284.617	169.03
288.715	182.815
292.81	279.311
296.903	364.45
300.994	1184.48
305.083	2314
309.17	619.115
313.256	413.073
317.339	283.065
321.42	367.135
325.499	851.895
329.576	1689.6
333.651	888.381
337.724	1742.15
341.795	1596.99
345.864	531.507
349.931	264.126
353.996	336.942
358.059	237.038
362.12	177.442
366.179	132.867
370.236	214.166
374.291	346.057
378.344	195.283
382.395	154.438
386.444	180.025
390.491	203.499
394.537	147.619
398.58	166.795
402.621	140.885
406.66	209.102
410.697	194.439
414.732	300.763
418.765	749.101
422.797	1000.63
426.826	390.22
430.853	178.214
434.878	138.225
438.902	200.741
442.923	124.451
446.942	126.241
450.96	79.845
454.975	98.276
458.989	97.581
463	62.781
467.01	78.818
471.017	97.849
475.023	132.806
479.026	84.698
483.028	53.505
487.028	105.247
491.026	94.918
495.021	83.596
499.015	67.739
503.007	51.949
506.997	103.095
510.985	91.607
514.971	101.47
518.956	33.523
522.938	157.543
526.918	164.462
530.896	161.235
534.873	218.721
538.847	430.978
542.82	1496.55
546.79	1525.92
550.759	365.718
554.726	162.314
558.69	131.5
562.653	96.281
566.614	54.692
570.573	36.024
574.53	65.281
578.485	86.937
582.438	163.01
586.39	259.841
590.339	364.465
594.287	333.591
598.232	257.782
602.176	318.052
606.118	549.872
610.057	642.895
613.995	383.887
617.931	352.117
621.865	299.565
625.797	164.261
629.728	102.465
633.656	54.601
637.582	112.217
641.507	69.753
645.43	47.168
649.35	59.013
653.269	86.778
657.186	89.507
661.101	10.022
665.014	15.503
668.926	50.749
672.835	28.023
676.743	13.635
680.648	12.789
684.552	102.312
688.454	41.958
692.354	1.681
696.252	26.547
700.148	6.284
704.042	73.197
707.935	10.714
711.825	16.668
715.714	16.5
719.601	59.301
723.486	58.205
727.369	24.104
731.25	173.005
735.129	102.915
739.007	65.836
742.882	136.778
746.756	106.742
750.628	150.725
754.498	189.73
758.366	198.756
762.232	264.811
766.096	160.895
769.959	275.005
773.82	332.153
777.679	357.246
781.536	444.47
785.391	447.732
789.244	434.045
793.095	619.401
796.945	655.746
800.793	782.893
804.639	935.133
808.483	1292.35
812.325	2199.97
816.165	3815.2
820.004	8499.51
823.84	16336.1
827.675	11264.8
831.508	5814.61
835.339	4183.24
839.169	4224.39
842.996	5683.68
846.822	9134.21
850.646	19284.7
854.468	50276
858.288	55995.8
862.106	23707.3
865.923	9909
869.737	5140.81
873.55	3280.72
877.361	2491.75
881.17	2248.55
884.978	1763.77
888.783	1259.1
892.587	951.526
896.389	843.039
900.189	783.642
903.988	697.338
907.784	642.127
911.579	698.009
915.372	1008.99
919.163	2649.06
922.952	1531.23
926.74	753.493
930.525	673.853
934.309	644.309
938.091	586.865
941.872	777.215
945.65	1157.28
949.427	1555.06
953.202	2464.35
956.975	3528.4
960.746	5778.28
964.516	9832.94
968.283	6868.27
972.049	2875.32
975.813	1300.11
979.576	575.148
983.336	230.145
987.095	94.391
990.852	116.562
994.607	107.43
998.361	201.787
1002.11	241.022
1005.86	148.686
1009.61	17.389
1013.36	60.664
1017.1	71.126
1020.84	163.659
1024.59	161.58
1028.32	91.421
1032.06	149.314
1035.8	101.373
1039.53	58.416
1043.26	69.502
1046.99	107.742
1050.72	48.215
1054.45	131.555
1058.17	83.972
1061.9	57.519
1065.62	77.098
1069.34	95.712
1073.06	76.128
1076.77	22.423
1080.49	47.57
1084.2	18.638
1087.91	128.105
1091.62	24.076
1095.33	14.381
1099.04	41.57
1102.74	4.232
1106.44	33.847
1110.14	7.569
1113.84	20.027
1117.54	42.448
1121.23	96.006
1124.93	178.444
1128.62	85.802
1132.31	153.203
1136	12.487
1139.68	75.797
1143.37	43.544
1147.05	27.979
1150.73	30.917
1154.41	21.399
1158.09	53.145
1161.77	134.249
1165.44	139.921
1169.12	55.856
1172.79	102.85
1176.45	76.956
1180.12	28.326
1183.79	90.228
1187.45	119.862
1191.12	103.961
1194.78	78.907
1198.43	119.161
1202.09	38.288
1205.75	75.746
1209.4	119.351
1213.05	191.868
1216.7	188.881
1220.35	85.043
1224	126.26
1227.65	49.944
1231.29	121.333
1234.93	173.796
1238.57	166.305
1242.21	232.086
1245.85	287.357
1249.48	186.875
1253.12	115.804
1256.75	133.131
1260.38	104.457
1264.01	179.683
1267.63	123.446
1271.26	274.399
1274.88	236.759
1278.5	83.702
1282.12	97.786
1285.74	195.631
1289.36	70.206
1292.97	142.484
1296.59	115.67
1300.2	40.225
1303.81	46.386
1307.41	26.783
1311.02	36.55
1314.63	15.193
1318.23	1.168
1321.83	67.383
1325.43	5.066
1329.03	27.669
1332.62	41.104
1336.22	30.263
1339.81	85.094
1343.4	166.183
1346.99	68.929
1350.58	52.513
1354.17	26.994
1357.75	32.994
1361.34	80.054
1364.92	182.287
1368.5	122.56
1372.08	150.02
1375.65	180.318
1379.23	244.355
1382.8	182.2
1386.37	138.293
1389.94	27.652
1393.51	80.476
1397.08	67.712
1400.64	37.56
1404.2	210.589
1407.77	170.502
1411.33	204.059
1414.88	292.387
1418.44	145.073
1421.99	97.198
1425.55	116.263
1429.1	126.349
1432.65	155.506
1436.2	158.978
1439.74	243.555
1443.29	383.273
1446.83	553.111
1450.38	474.317
1453.92	444.225
1457.45	463.936
1460.99	442.517
1464.53	371.801
1468.06	198.038
1471.59	235.876
1475.12	211.234
1478.65	220.322
1482.18	328.076
1485.7	335.764
1489.23	326.134
1492.75	308.167
1496.27	196.043
1499.79	317.234
1503.31	225.938
1506.82	105.699
1510.34	24.588
1513.85	56.456
1517.36	78.463
1520.87	5.185
1524.38	44.183
