Measurement: Raman, 514 nm, ccw, Raman Data Processed
Mineral: Forsterite
Rruff sample: R040057
Ideal chemistry: Mg_2_SiO_4_
Locality: Trudy's mine, San Carlos, Gila County, Arizona, USA
Source: Bob Downs
Description: Dark green crystal fragments from xenoliths in a basalt flow
Measured chemistry: (Mg_1.67_Fe_0.32_Ni_0.01_)_Î£=2_Si_1.00_O_4_; trace amounts of Mn and Ca
Pin_id: L00065
Orientation: Laser parallel to -a* (-1 0 0). Fiducial mark perpendicular to laser is parallel to c [0 0 1]
Raman shift (cm-1)	intensity
97.554	0
101.732	3.397
105.908	68.109
110.082	29.428
114.254	137.258
118.424	163.269
122.592	93.265
126.758	58.456
130.922	80.288
135.083	162.385
139.243	170.706
143.401	204.037
147.557	252.083
151.711	278.703
155.863	195.776
160.013	165.215
164.161	138.952
168.308	103.314
172.452	119.601
176.594	88.752
180.734	136.995
184.872	209.995
189.008	248.827
193.143	274.69
197.275	308.487
201.405	497.442
205.534	716.367
209.66	1030.27
213.784	1233.16
217.907	1206.08
222.027	1009.99
226.146	692.871
230.263	544.724
234.377	406.555
238.49	285.365
242.601	191.96
246.709	108.935
250.816	89.151
254.921	103.744
259.024	48.453
263.125	89.646
267.224	54.257
271.321	123.422
275.416	95.853
279.51	191.578
283.601	237.185
287.69	396.8
291.778	863.071
295.863	1367.22
299.947	1583.68
304.029	1193.43
308.108	723.783
312.186	601.458
316.262	638.304
320.336	682.705
324.408	570.312
328.478	603.898
332.546	590.717
336.612	710.775
340.677	494.526
344.739	341.899
348.799	229.381
352.858	207.767
356.915	144.148
360.969	183.539
365.022	159.978
369.073	97.416
373.122	74.838
377.169	65.277
381.215	12.722
385.258	50.884
389.299	4.591
393.339	91.469
397.376	8.555
401.412	24.179
405.446	13.081
409.478	102.619
413.508	130.983
417.536	110.533
421.562	70.099
425.586	77.529
429.609	62.864
433.629	83.09
437.648	119.205
441.665	29.201
445.68	92.061
449.693	3.221
453.704	0.292
457.713	14.602
461.721	71.74
465.726	107.721
469.73	87.553
473.731	80.06
477.731	102.069
481.729	77.31
485.725	66.706
489.72	66.143
493.712	51.088
497.703	65.198
501.691	171.365
505.678	93.085
509.663	224.995
513.646	221.039
517.627	286.825
521.607	343.724
525.584	395.918
529.56	529.372
533.534	722.761
537.506	1170.68
541.476	1081.39
545.444	588.017
549.41	302.511
553.375	201.174
557.337	133.44
561.298	148.691
565.257	143.196
569.214	181.949
573.17	143.811
577.123	152.478
581.075	179.917
585.024	306.192
588.972	324.068
592.918	273.974
596.863	349.683
600.805	460.916
604.746	534.905
608.685	471.008
612.621	240.098
616.557	281.684
620.49	180.796
624.421	206.005
628.351	83.302
632.279	49.129
636.205	39.729
640.129	69.399
644.051	62.746
647.972	14.958
651.89	14.295
655.807	4.964
659.722	3.479
663.636	65.82
667.547	49.034
671.457	5.23
675.365	15.664
679.271	46.417
683.175	77.445
687.077	100.886
690.978	14.53
694.877	60.468
698.774	6.673
702.669	53.021
706.562	16.494
710.454	51.052
714.344	67.509
718.232	116.534
722.118	108.384
726.002	110.632
729.885	61.859
733.766	114.277
737.645	178.719
741.522	127.163
745.397	211.588
749.271	173
753.143	263.418
757.013	254.117
760.881	328.274
764.748	413.833
768.613	411.332
772.476	524.956
776.337	477.624
780.196	567.346
784.054	649.987
787.91	810.78
791.764	892.051
795.616	1047.33
799.467	1265.09
803.316	1816.07
807.163	2569.61
811.008	4067.83
814.851	7565.18
818.693	14586.9
822.533	18280.8
826.371	13601.5
830.208	10159
834.042	9273.02
837.875	10757.2
841.706	14652.6
845.536	23196.4
849.363	39605.4
853.189	51973.5
857.013	42815.6
860.836	26040.8
864.656	15099.3
868.475	9207.89
872.292	5978.69
876.108	4160.22
879.922	3168.41
883.733	2532.82
887.544	1996.41
891.352	1687.2
895.159	1460.17
898.964	1386.32
902.767	1441.65
906.568	1420
910.368	1741.72
914.166	2559.32
917.962	3185.93
921.757	2324.61
925.55	1852.09
929.341	1664.12
933.13	1953.96
936.918	2345.97
940.703	2907.8
944.488	3706.86
948.27	4710.44
952.051	5991.9
955.83	6558.57
959.607	6016.24
963.383	4808.83
967.156	3401.44
970.928	2334.54
974.699	1447.96
978.468	896.276
982.234	802.429
986	501.463
989.763	300.102
993.525	264.464
997.285	213.345
1001.04	228.395
1004.8	124.635
1008.55	123.072
1012.31	122.764
1016.06	47.62
1019.81	24.719
1023.56	105.19
1027.31	63.441
1031.05	49.657
1034.79	91.805
1038.53	162.195
1042.27	129.283
1046.01	67.078
1049.75	69.959
1053.48	56.866
1057.22	74.673
1060.95	6.872
1064.68	35.868
1068.4	41.6
1072.13	6.585
1075.86	48.707
1079.58	28.872
1083.3	55.044
1087.02	1.899
1090.74	8.842
1094.45	48.22
1098.17	27.501
1101.88	16.485
1105.59	89.114
1109.3	6.237
1113.01	32.518
1116.71	20.732
1120.42	5.54
1124.12	37.74
1127.82	34.741
1131.52	85.476
1135.22	152.642
1138.91	65.318
1142.61	3.164
1146.3	100.487
1149.99	119.008
1153.68	42.956
1157.37	207.833
1161.06	150.862
1164.74	118.437
1168.42	103.602
1172.1	112.957
1175.78	100.116
1179.46	14.786
1183.14	70.008
1186.81	140.215
1190.48	162.142
1194.15	115.765
1197.83	100.354
1201.49	149.101
1205.16	84.718
1208.82	126.852
1212.49	87.945
1216.15	86.831
1219.81	144.443
1223.46	117.803
1227.12	100.75
1230.78	143.775
1234.43	244.868
1238.08	134.718
1241.73	215.945
1245.38	227.354
1249.03	129.737
1252.67	195.793
1256.31	105.191
1259.95	24.167
1263.6	99.644
1267.23	111.599
1270.87	175.617
1274.51	19.813
1278.14	21.235
1281.77	145.333
1285.4	83.968
1289.03	31.474
1292.66	2.175
1296.28	104.935
1299.91	23.868
1303.53	41.4
1307.15	122.046
1310.77	16.297
1314.38	126.229
1318	10.711
1321.61	100.679
1325.23	114.389
1328.84	148.802
1332.45	136.61
1336.06	12.046
1339.66	134.69
1343.27	68.123
1346.87	123.319
1350.47	92.831
1354.07	190.929
1357.67	220.592
1361.26	90.339
1364.86	164.229
1368.45	117.984
1372.04	136.62
1375.63	181.421
1379.22	162.329
1382.81	270.453
1386.39	120.066
1389.98	143.272
1393.56	205.232
1397.14	163.605
1400.72	139.419
1404.3	197.995
1407.87	210.468
1411.45	205.882
1415.02	140.029
1418.59	218.979
1422.16	128.273
1425.73	116.244
1429.29	137.687
1432.86	169.245
1436.42	193.405
1439.98	220.52
1443.54	349.116
1447.1	285.64
1450.66	411.678
1454.21	446.016
1457.77	382.523
1461.32	176.193
1464.87	183.256
1468.42	158.933
1471.96	136.088
1475.51	124.844
1479.06	187.092
1482.6	227.889
1486.14	38.775
1489.68	203.791
1493.22	99.185
1496.75	74.351
1500.29	52.373
1503.82	112.29
1507.35	88.328
1510.88	87.051
1514.41	44.847
1517.94	149.377
1521.46	27.132
