Measurement: Raman, 514 nm, ccw, Raman Data Processed
Mineral: Forsterite
Rruff sample: R060539
Ideal chemistry: Mg_2_SiO_4_
Locality: Sri Lanka
Source: Gemological Institute of America
Description: Brown cut gemstone
Measured chemistry: (Mg_1.67_Fe_0.33_)_Î£=2_Si_1.00_O_4_; trace amounts of Mn and Ca
Pin_id: L01554
Orientation: Laser parallel to -c* (0 0 -1). Fiducial mark perpendicular to laser is parallel to a [1 0 0]
Raman shift (cm-1)	intensity
115.174	0
120.11	13.1694
125.044	90.734
129.975	125.273
134.903	140.475
139.829	175.382
144.753	199.898
149.673	262.875
154.592	211.508
159.508	174.077
164.421	198.175
169.332	180.774
174.24	128.696
179.146	85.6965
184.049	106.6
188.95	55.2507
193.848	61.0468
198.743	57.9977
203.636	40.2568
208.527	128.034
213.415	241.011
218.301	305.23
223.183	291.827
228.064	373.602
232.942	363.741
237.817	381.658
242.69	302.927
247.56	237.348
252.428	186.9
257.293	227.593
262.156	176.776
267.016	142.102
271.874	211.016
276.729	327.886
281.581	490.461
286.431	1055.59
291.279	2085.17
296.124	3326.74
300.966	3418.46
305.806	2240.51
310.643	1593.77
315.478	1359.88
320.31	1136.67
325.14	671.121
329.967	352.568
334.792	177.122
339.614	100.773
344.433	79.5181
349.25	74.349
354.065	23.2565
358.876	46.2203
363.686	36.2147
368.493	1.22571
373.297	23.2522
378.099	22.3102
382.898	32.5242
387.694	48.9233
392.488	100.543
397.28	284.353
402.069	697.296
406.855	1282.37
411.639	1432.57
416.42	878.867
421.199	489.255
425.975	297.638
430.749	128.002
435.52	56.3313
440.289	2.60864
445.055	45.3508
449.818	38.6754
454.579	35.4181
459.338	40.6361
464.094	20.8361
468.847	70.1874
473.597	48.4375
478.346	57.5821
483.091	105.616
487.834	72.5352
492.575	113.335
497.313	80.01
502.048	84.5577
506.781	99.9745
511.511	104.388
516.239	82.859
520.964	126.078
525.687	116.494
530.407	138.083
535.124	153.833
539.839	183.228
544.552	242.358
549.262	213.507
553.969	285.276
558.674	304.836
563.376	344.113
568.075	454.165
572.772	624.99
577.467	844.589
582.159	1170.02
586.848	1958.57
591.535	3320.5
596.219	5054.88
600.901	5976.91
605.58	5014.98
610.257	3246.16
614.931	1893.2
619.602	1047.08
624.271	673.803
628.937	396.37
633.601	265.786
638.262	174.058
642.921	134.188
647.577	53.1836
652.23	24.0453
656.881	55.6819
661.53	71.7164
666.175	44.6879
670.819	56.1532
675.459	32.1765
680.097	28.6713
684.733	10.5418
689.366	15.7388
693.996	15.1043
698.624	21.3412
703.25	31.6717
707.872	21.989
712.492	58.2092
717.11	113.164
721.725	92.9706
726.338	81.4753
730.947	99.1526
735.555	97.0697
740.16	185.223
744.762	217.519
749.361	320.896
753.958	304.354
758.553	425.903
763.145	458.551
767.734	516.307
772.321	600.178
776.905	718.174
781.487	841.327
786.066	1148.63
790.642	1423.72
795.216	2020.49
799.788	3171.78
804.356	5041.56
808.923	9337
813.486	19862.7
818.047	37222.6
822.606	40354.9
827.162	23884.8
831.715	14373.5
836.266	12006.3
840.814	14379.4
845.36	23645.9
849.903	38186.6
854.444	40717.7
858.982	25646
863.517	13119.6
868.05	6843.53
872.58	3977.75
877.108	2415.25
881.633	1584.05
886.155	1000.13
890.675	639.494
895.193	425.148
899.707	310.089
904.22	285.315
908.729	189.825
913.236	140.739
917.741	139.472
922.243	103.039
926.742	115.146
931.239	225.741
935.733	411.856
940.225	846.872
944.714	1524.41
949.2	2706.97
953.684	4041.28
958.166	4755.81
962.644	4287.73
967.121	3207.54
971.594	2105.8
976.065	1337
980.534	955.496
985	662.974
989.463	525.871
993.924	410.304
998.382	362.142
1002.84	216.084
1007.29	168.124
1011.74	199.253
1016.19	168.464
1020.63	168.75
1025.08	103.102
1029.52	125.513
1033.95	64.9894
1038.39	42.515
1042.82	50.0763
1047.25	12.3262
1051.68	13.9303
1056.1	4.1554
1060.53	52.7047
1064.95	67.6016
1069.36	40.8756
1073.78	32.5237
1078.19	9.43506
1082.6	41.1008
1087.01	0.542847
1091.41	12.2245
1095.81	2.81079
1100.21	61.6993
1104.61	59.5001
1109	0.212646
1113.39	44.7976
1117.78	97.2943
1122.16	78.6997
1126.55	88.4563
1130.93	131.223
1135.31	139.336
1139.68	142.345
1144.06	115.25
1148.43	141.048
1152.8	144.738
1157.16	155.327
1161.52	149.809
1165.88	140.282
1170.24	135.549
1174.6	156.698
1178.95	129.3
1183.3	182.623
1187.65	182.978
1191.99	188.158
1196.33	190.95
1200.67	199.087
1205.01	218.386
1209.35	235.157
1213.68	202.919
1218.01	219.999
1222.33	193.977
1226.66	234.535
1230.98	201.269
1235.3	194.018
1239.62	133.849
1243.93	152.748
1248.24	121.609
1252.55	78.4337
1256.86	120.225
1261.16	106.986
1265.46	59.7178
1269.76	54.4508
1274.05	64.1363
1278.35	77.9142
1282.64	92.571
1286.93	38.1041
1291.21	18.2539
1295.49	29.2012
1299.78	39.7894
1304.05	23.3739
1308.33	23.5127
1312.6	56.0527
1316.87	72.9694
1321.14	41.62
1325.4	40.4474
1329.67	36.4399
1333.93	14.6123
1338.18	119.978
1342.44	79.4766
1346.69	10.0763
1350.94	24.7761
1355.19	27.5621
1359.43	84.4008
1363.67	80.2661
1367.91	49.1448
1372.15	26.0449
1376.38	18.9612
1380.62	26.8944
1384.84	84.8585
1389.07	41.8627
1393.29	39.9034
1397.52	23.9836
1401.73	3.64282
1405.95	30.5194
1410.16	16.1885
1414.37	57.0803
1418.58	9.69971
1422.79	18.658
1426.99	17.0252
1431.19	11.58
1435.39	27.7101
1439.59	9.37048
1443.78	49.6287
1447.97	126.102
1452.16	75.626
1456.34	68.1793
1460.52	84.7841
1464.7	68.4315
1468.88	83.0619
1473.06	72.7917
1477.23	43.5679
1481.4	47.3519
1485.57	88.0411
1489.73	54.5182
1493.89	47.7891
1498.05	69.5664
1502.21	61.3143
1506.36	38.4597
1510.52	92.4589
1514.66	62.5593
1518.81	71.6893
1522.95	102.839
1527.1	52.0101
1531.23	40.4705
1535.37	24.3196
1539.51	89.4631
1543.64	104.921
1547.77	24.108
1551.89	103.569
1556.02	24.8224
1560.14	36.7865
1564.25	19.1506
