Measurement: Raman, 514 nm, ccw, Raman Data Processed
Mineral: Forsterite
Rruff sample: R050117
Ideal chemistry: Mg_2_SiO_4_
Locality: Sapat, Gilgit, Pakistan
Source: Farooq and Nazia Sawal
Description: Fragment of a green crystal
Measured chemistry: (Mg_1.81_Fe_0.18_Ni_0.01_)_Î£=2_Si_1.00_O_4_
Pin_id: M00435
Orientation: Laser parallel to a* (1 0 0). Fiducial mark perpendicular to laser is parallel to -b [0 -1 0]
Raman shift (cm-1)	intensity
46.644	0
50.85	123.542
55.054	618.382
59.255	1178.35
63.454	1524.33
67.652	1273.07
71.847	1328.53
76.04	1271.07
80.232	559.834
84.421	210.634
88.608	88.38
92.793	89.759
96.976	19.912
101.157	11.191
105.336	21.9
109.513	430.682
113.688	119.446
117.861	130.465
122.032	125.044
126.201	78.078
130.367	100.271
134.532	71.672
138.695	125.447
142.856	155.832
147.014	112.709
151.171	112.312
155.325	153.037
159.478	35.189
163.629	21.427
167.777	51.07
171.924	64.908
176.068	14.441
180.211	4.499
184.351	30.427
188.49	29.247
192.626	37.04
196.761	4.236
200.893	22.747
205.024	31.703
209.152	87.495
213.279	268.539
217.403	606.208
221.526	974.402
225.646	990.208
229.765	855.392
233.881	780.814
237.996	732.024
242.108	623.221
246.219	449.224
250.328	401.128
254.434	320.395
258.539	363.274
262.641	305.659
266.742	309.962
270.84	302.745
274.937	329.032
279.032	339.563
283.125	358.581
287.215	498.373
291.304	724.053
295.391	1359.52
299.476	2787.84
303.558	3282.15
307.639	1795.14
311.718	1015.71
315.795	844.848
319.87	896.916
323.943	1121.78
328.014	966.871
332.083	703.044
336.15	640.549
340.215	528.788
344.279	364.686
348.34	274.382
352.399	298.604
356.457	290.297
360.512	267.417
364.565	200.658
368.617	142.909
372.666	141.098
376.714	83.482
380.76	117.287
384.803	95.505
388.845	88.074
392.885	60.834
396.923	69.368
400.959	97.179
404.993	207.512
409.025	351.957
413.055	684.161
417.084	864.251
421.11	686.153
425.134	600.459
429.157	836.911
433.177	1415.54
437.196	1560.19
441.213	917.739
445.227	413.716
449.24	206.788
453.251	95.968
457.26	78.092
461.267	26.152
465.272	31.151
469.276	49.077
473.277	54.93
477.276	41.731
481.274	23.465
485.27	4.124
489.263	22.751
493.255	16.637
497.245	5.047
501.233	19.381
505.219	7.232
509.203	24.505
513.186	30.939
517.166	66.29
521.145	86.063
525.121	67.447
529.096	65.113
533.069	119.272
537.04	178.973
541.009	281.767
544.976	208.779
548.941	97.715
552.905	79.147
556.866	99.583
560.826	149.219
564.784	207.752
568.74	346.931
572.694	582.077
576.646	1118.2
580.596	1958.32
584.544	2354.42
588.491	1813.52
592.435	1376.61
596.378	1501.7
600.319	2239.78
604.258	2900.85
608.195	2673.9
612.131	1839.73
616.064	1109.91
619.995	648.928
623.925	391.882
627.853	313.837
631.779	191.714
635.703	129.815
639.625	67.813
643.546	39.635
647.464	23.691
651.381	3.041
655.296	19.154
659.209	19.268
663.12	34.877
667.029	17.488
670.937	24.002
674.842	11.303
678.746	22.623
682.648	2.999
686.548	6.694
690.447	5.493
694.343	1.69
698.238	12.868
702.13	38.046
706.021	14.75
709.91	23.588
713.798	50.472
717.683	57.401
721.567	71.371
725.448	86.368
729.328	107.287
733.206	144.454
737.083	171.547
740.957	178.674
744.83	220.838
748.701	243.039
752.57	308.28
756.437	327.563
760.302	370.903
764.166	380.317
768.027	448.8
771.887	529.385
775.745	606.069
779.602	645.877
783.456	767.801
787.309	869.832
791.16	1054.97
795.009	1280.24
798.856	1639.6
802.702	2121.05
806.545	3185.4
810.387	5123.7
814.227	8947.58
818.065	18319.2
821.902	31610.2
825.737	25520.8
829.569	14892.9
833.401	10375.5
837.23	9312.88
841.057	10620.3
844.883	15368.1
848.707	28505.7
852.529	51202.9
856.35	55089.4
860.168	33308.1
863.985	17447.1
867.8	10336
871.613	7454.14
875.425	7231.34
879.234	9993.64
883.042	8853.04
886.848	4325.55
890.653	2449.16
894.455	1740.86
898.256	1381.66
902.055	1157.57
905.852	952.582
909.648	937.01
913.442	1171.07
917.233	1930.27
921.024	1460.08
924.812	761.652
928.599	516.775
932.384	389.988
936.167	333.562
939.948	356.451
943.728	401.25
947.506	408.06
951.282	403.126
955.056	410.464
958.829	395.784
962.6	354.568
966.369	280.076
970.136	231.148
973.902	171.951
977.666	100.916
981.428	108.043
985.188	81.32
988.947	108.698
992.704	78.165
996.459	42.714
1000.21	69.336
1003.96	29.034
1007.71	25.833
1011.46	24.716
1015.21	36.679
1018.95	43.704
1022.7	31.785
1026.44	25.343
1030.18	25.137
1033.91	13.402
1037.65	29.706
1041.39	38.048
1045.12	38.426
1048.85	23.837
1052.58	29.28
1056.31	3.249
1060.03	17.761
1063.76	11.702
1067.48	15.15
1071.2	10.551
1074.92	31.112
1078.63	19.859
1082.35	36.704
1086.06	12.641
1089.78	11.357
1093.49	30.72
1097.19	1.921
1100.9	4.848
1104.61	12.61
1108.31	0.628
1112.01	23.119
1115.71	28.885
1119.41	32.633
1123.11	54.402
1126.8	43.284
1130.5	70.536
1134.19	54.943
1137.88	69.372
1141.57	47.885
1145.25	76.797
1148.94	110.73
1152.62	85.079
1156.3	96.328
1159.98	114.659
1163.66	98.677
1167.34	109.698
1171.01	86.724
1174.68	109.128
1178.36	109.173
1182.02	68.568
1185.69	115.85
1189.36	65.152
1193.02	66.383
1196.69	119.561
1200.35	121.568
1204.01	98.409
1207.66	129.175
1211.32	129.36
1214.98	139.555
1218.63	165.828
1222.28	140.623
1225.93	140.43
1229.58	136.36
1233.22	147.427
1236.87	137.703
1240.51	144.108
1244.15	76.305
1247.79	87.139
1251.43	66.415
1255.07	64.457
1258.7	34.83
1262.33	50.261
1265.96	52.629
1269.59	41.621
1273.22	23.669
1276.85	18.467
1280.47	23.154
1284.1	4.225
1287.72	8.303
1291.34	12.773
1294.95	28.368
1298.57	12.824
1302.19	30.186
1305.8	5.293
1309.41	15.991
1313.02	18.05
1316.63	16.961
1320.23	11.945
1323.84	37.75
1327.44	37.463
1331.05	27.804
1334.64	24.863
1338.24	37.253
1341.84	49.741
1345.43	35.089
1349.03	28.375
1352.62	55.604
1356.21	1.799
1359.8	50.98
1363.39	50.4
1366.97	41.518
1370.56	41.618
1374.14	38.674
1377.72	38.771
1381.3	177.649
1384.87	146.151
1388.45	29.616
1392.02	23.006
1395.6	5.291
1399.17	16.731
1402.74	31.131
1406.3	48.759
1409.87	41.004
1413.43	28.455
1417	37.16
1420.56	34.822
1424.12	26.338
1427.67	30.091
1431.23	47.623
1434.79	19.679
1438.34	7.081
1441.89	45.432
1445.44	21.835
1448.99	12.612
1452.54	45.413
1456.08	61.538
1459.62	21.963
1463.17	19.751
1466.71	21.758
1470.24	43.379
1473.78	25.667
1477.32	52.039
1480.85	31.303
1484.38	36.911
1487.91	61.604
1491.44	28.72
1494.97	57.965
1498.5	40.087
1502.02	4.208
1505.54	32.489
1509.07	42.474
1512.59	25.566
1516.1	18.54
1519.62	0
