Measurement: Raman, 514 nm, ccw, Raman Data Processed
Mineral: Forsterite
Rruff sample: R050117
Ideal chemistry: Mg_2_SiO_4_
Locality: Sapat, Gilgit, Pakistan
Source: Farooq and Nazia Sawal
Description: Fragment of a green crystal
Measured chemistry: (Mg_1.81_Fe_0.18_Ni_0.01_)_Î£=2_Si_1.00_O_4_
Pin_id: M00435
Orientation: Laser parallel to a* (1 0 0). Fiducial mark perpendicular to laser is parallel to -b [0 -1 0]
Raman shift (cm-1)	intensity
46.644	0
50.85	64.863
55.054	210.497
59.255	394.365
63.454	865.074
67.652	1320.64
71.847	1540.54
76.04	2113.72
80.232	1740.05
84.421	1322.75
88.608	760.725
92.793	392.194
96.976	189.121
101.157	85.083
105.336	138.852
109.513	484.317
113.688	336.115
117.861	187.593
122.032	94.79
126.201	56.09
130.367	65.509
134.532	36.943
138.695	39.632
142.856	38.776
147.014	7.141
151.171	30.909
155.325	23.444
159.478	24.201
163.629	11.034
167.777	10.4
171.924	2.911
176.068	18.007
180.211	74.823
184.351	114.143
188.49	100.866
192.626	54.234
196.761	38.674
200.893	5.52
205.024	17.268
209.152	92.58
213.279	269.71
217.403	741.468
221.526	1295.63
225.646	1495.67
229.765	1118.27
233.881	885.303
237.996	701.73
242.108	520.575
246.219	394.961
250.328	312.722
254.434	289.889
258.539	251.378
262.641	245.548
266.742	233.052
270.84	235.053
274.937	259.547
279.032	285.348
283.125	293.253
287.215	329.109
291.304	349.628
295.391	433.106
299.476	693.575
303.558	835.728
307.639	610.828
311.718	576.381
315.795	712.563
319.87	1137.12
323.943	2076.01
328.014	2447.57
332.083	1966.78
336.15	1944.62
340.215	1543
344.279	775.056
348.34	407.248
352.399	249.136
356.457	214.011
360.512	179.011
364.565	182.285
368.617	292.459
372.666	290.815
376.714	200.997
380.76	123.853
384.803	86.548
388.845	86.638
392.885	89.149
396.923	69.111
400.959	67.552
404.993	139.516
409.025	161.819
413.055	132.135
417.084	204.171
421.11	222.708
425.134	266.001
429.157	381.011
433.177	308.826
437.196	187.805
441.213	86.043
445.227	57.337
449.24	54.189
453.251	18.157
457.26	29.097
461.267	17.163
465.272	30.208
469.276	42.214
473.277	67.846
477.276	52.782
481.274	48.668
485.27	52.626
489.263	66.949
493.255	73.761
497.245	45.859
501.233	64.38
505.219	95.957
509.203	115.492
513.186	177.08
517.166	158.245
521.145	217.372
525.121	318.759
529.096	501.116
533.069	851.251
537.04	1843.16
541.009	3784.1
544.976	3554.45
548.941	1534.59
552.905	774.475
556.866	449.09
560.826	312.666
564.784	246.998
568.74	225.737
572.694	219.361
576.646	309.313
580.596	371.273
584.544	515.2
588.491	716.097
592.435	672.969
596.378	377.814
600.319	313.209
604.258	322.116
608.195	365.824
612.131	285.27
616.064	186.609
619.995	135.825
623.925	88.234
627.853	57.803
631.779	32.75
635.703	30.65
639.625	10.396
643.546	0.636
647.464	25.034
651.381	20.32
655.296	15.115
659.209	39.13
663.12	20.068
667.029	39.951
670.937	32.069
674.842	26.426
678.746	9.975
682.648	33.651
686.548	0.551
690.447	1.683
694.343	8.235
698.238	30.802
702.13	31.835
706.021	22.85
709.91	47.882
713.798	79.925
717.683	93.985
721.567	100.057
725.448	107.135
729.328	155.218
733.206	175.307
737.083	257.401
740.957	262.505
744.83	280.619
748.701	333.747
752.57	355.89
756.437	426.071
760.302	454.303
764.166	528.586
768.027	580.941
771.887	688.38
775.745	827.907
779.602	982.51
783.456	1084.18
787.309	1305.74
791.16	1598.2
795.009	2004.31
798.856	2625.38
802.702	3470.99
806.545	5160
810.387	8307.85
814.227	14917
818.065	30957.9
821.902	58247
825.737	50494.6
829.569	27063
833.401	15424.8
837.23	10856.2
841.057	9220.78
844.883	9875.77
848.707	14581.2
852.529	23557
856.35	26553.3
860.168	16439.8
863.985	8736.31
867.8	5104.15
871.613	3208.06
875.425	2284.97
879.234	1729
883.042	1441.14
886.848	1103.42
890.653	858.811
894.455	698.33
898.256	644.094
902.055	635.865
905.852	652.774
909.648	830.943
913.442	1338.16
917.233	2918.55
921.024	2511.45
924.812	1206.72
928.599	806.512
932.384	680.541
936.167	724.105
939.948	847.359
943.728	1235.46
947.506	1734.08
951.282	2509.47
955.056	3705.54
958.829	5195.34
962.6	5347.3
966.369	4229.9
970.136	2754.26
973.902	1604.81
977.666	963.568
981.428	575.537
985.188	355.685
988.947	189.998
992.704	153.461
996.459	141.063
1000.21	66.783
1003.96	42.635
1007.71	16.608
1011.46	5.704
1015.21	24.925
1018.95	8.266
1022.7	15.715
1026.44	14.266
1030.18	17.916
1033.91	15.659
1037.65	10.487
1041.39	34.398
1045.12	11.388
1048.85	2.455
1052.58	27.595
1056.31	38.165
1060.03	22.908
1063.76	24.615
1067.48	29.303
1071.2	0.011
1074.92	2.266
1078.63	14.48
1082.35	8.234
1086.06	14.985
1089.78	24.76
1093.49	40.582
1097.19	34.531
1100.9	37.651
1104.61	16.8
1108.31	43.977
1112.01	0.815
1115.71	29.409
1119.41	44.66
1123.11	74.934
1126.8	68.223
1130.5	48.648
1134.19	64.144
1137.88	62.238
1141.57	65.762
1145.25	73.77
1148.94	56.513
1152.62	121.137
1156.3	104.414
1159.98	136.108
1163.66	123.769
1167.34	119.341
1171.01	88.804
1174.68	87.85
1178.36	130.647
1182.02	134.529
1185.69	103.927
1189.36	81.38
1193.02	96.756
1196.69	114.072
1200.35	119.729
1204.01	156.047
1207.66	162.04
1211.32	161.77
1214.98	177.199
1218.63	172.082
1222.28	156.157
1225.93	165.911
1229.58	156.218
1233.22	169.463
1236.87	145.265
1240.51	144.99
1244.15	138.633
1247.79	88.175
1251.43	84.177
1255.07	65.617
1258.7	47.643
1262.33	44.037
1265.96	44.364
1269.59	56.582
1273.22	73.687
1276.85	40.7
1280.47	30.639
1284.1	26.514
1287.72	2.317
1291.34	6.003
1294.95	8.611
1298.57	15.15
1302.19	3.611
1305.8	5.016
1309.41	0.272
1313.02	18.473
1316.63	11.4
1320.23	4.64
1323.84	0.393
1327.44	24.507
1331.05	15.351
1334.64	54.139
1338.24	24.876
1341.84	50.562
1345.43	4.806
1349.03	20.763
1352.62	42
1356.21	40.534
1359.8	28.069
1363.39	41.622
1366.97	57.082
1370.56	23.585
1374.14	66.071
1377.72	64.184
1381.3	75.934
1384.87	95.719
1388.45	66.457
1392.02	52.146
1395.6	57.778
1399.17	49.995
1402.74	47.076
1406.3	62.791
1409.87	86.744
1413.43	102.317
1417	107.165
1420.56	104.251
1424.12	78.24
1427.67	81.578
1431.23	78.471
1434.79	51.729
1438.34	57.53
1441.89	105.084
1445.44	100.26
1448.99	56.814
1452.54	50.1
1456.08	83.07
1459.62	90.719
1463.17	51.28
1466.71	57.202
1470.24	28.473
1473.78	42.762
1477.32	39.392
1480.85	59.051
1484.38	44.749
1487.91	54.551
1491.44	48.644
1494.97	72.052
1498.5	58.782
1502.02	46.535
1505.54	27.145
1509.07	9.885
1512.59	0.451
1516.1	0
