Measurement: Raman, 514 nm, ccw, Raman Data Processed
Mineral: Forsterite
Rruff sample: R060539
Ideal chemistry: Mg_2_SiO_4_
Locality: Sri Lanka
Source: Gemological Institute of America
Description: Brown cut gemstone
Measured chemistry: (Mg_1.67_Fe_0.33_)_Î£=2_Si_1.00_O_4_; trace amounts of Mn and Ca
Pin_id: L01564
Orientation: Laser parallel to -b* (0 -1 0). Fiducial mark perpendicular to laser is parallel to c [0 0 1]
Raman shift (cm-1)	intensity
138.598	0
143.522	42.1871
148.444	70.9174
153.363	84.9147
158.279	43.7212
163.193	50.4582
168.104	26.3119
173.013	13.0201
177.92	45.4199
182.823	45.2709
187.725	173.296
192.623	259.333
197.52	309.686
202.413	533.636
207.305	755.799
212.193	936.97
217.079	944.707
221.963	725.215
226.844	499.472
231.723	392.359
236.599	271.904
241.472	131.201
246.343	70.279
251.211	50.1273
256.077	65.3663
260.94	88.0376
265.801	41.9895
270.66	113.893
275.515	183.143
280.368	193.334
285.219	353.961
290.067	732.846
294.913	1068.76
299.756	1171.57
304.596	864.251
309.434	568.122
314.27	543.373
319.102	625.385
323.933	545.835
328.76	554.977
333.586	573.258
338.408	459.42
343.229	331.558
348.046	235.776
352.861	184.727
357.674	136.293
362.484	110.666
367.291	93.8671
372.096	8.88928
376.898	28.7173
381.698	12.74
386.495	9.79175
391.29	5.19714
396.082	5.49243
400.872	4.47412
405.659	20.3954
410.443	33.2333
415.225	54.7168
420.005	65.8977
424.782	149.976
429.556	168.021
434.328	122.899
439.097	148.578
443.864	2.05139
448.628	123.265
453.389	62.2617
458.148	149.032
462.905	153.594
467.659	134.981
472.41	155.157
477.159	165.118
481.905	137.859
486.649	92.3793
491.39	88.6661
496.129	159.722
500.865	125.552
505.598	170.156
510.329	220.321
515.057	270.377
519.783	342.676
524.506	363.277
529.227	531.743
533.945	836.225
538.661	948.357
543.374	649.823
548.084	332.084
552.792	220.489
557.498	183.773
562.2	215.757
566.901	211.839
571.598	253.254
576.293	237.297
580.986	327.58
585.676	326.582
590.363	331.065
595.048	369.344
599.731	534.737
604.41	510.061
609.088	463.232
613.762	398.266
618.434	421.072
623.104	535.656
627.771	378.779
632.435	230.583
637.097	212.446
641.756	256.173
646.413	344.727
651.067	249.097
655.719	154.304
660.368	40.3688
665.014	16.2885
669.658	27.0523
674.299	70.9283
678.938	18.4835
683.574	5.64746
688.208	1.52881
692.839	54.9091
697.468	18.663
702.094	75.6379
706.717	23.0258
711.338	5.43921
715.956	0.766235
720.572	90.0253
725.185	38.2422
729.795	71.4558
734.403	132.069
739.009	133.869
743.611	133.46
748.212	163.343
752.809	183.61
757.405	181.908
761.997	254.248
766.587	338.64
771.174	371.103
775.759	325.658
780.342	482.346
784.921	572.226
789.498	700.288
794.073	908.66
798.645	1069.02
803.215	1584.39
807.781	2620.18
812.346	5098.76
816.907	10369.9
821.467	14155.5
826.023	10983.3
830.577	8269.74
835.129	8507.96
839.678	11600.1
844.224	20209.3
848.768	34433.3
853.309	41876.7
857.847	30331.7
862.383	16248.7
866.917	8643.99
871.448	5174.55
875.976	3807.01
880.502	3020.28
885.025	2151.72
889.545	1472.46
894.063	1207.47
898.579	1075.77
903.092	967.357
907.602	896.372
912.11	915.773
916.615	995.486
921.118	980.974
925.618	1130.14
930.115	1273.12
934.61	1614.8
939.102	2172
943.592	2926.61
948.079	4108.32
952.564	5064.56
957.046	5165.16
961.525	4317.12
966.002	2886.75
970.476	1801.09
974.948	964.506
979.417	612.708
983.883	337.088
988.347	260.521
992.809	152.322
997.268	179.282
1001.72	329.391
1006.18	85.3144
1010.63	3.30933
1015.08	69.4563
1019.52	83.0527
1023.97	99.7576
1028.41	91.5659
1032.85	36.4731
1037.28	5.53369
1041.71	19.4673
1046.14	13.3296
1050.57	36.314
1055	13.0102
1059.42	7.04468
1063.84	33.5142
1068.26	0.745117
1072.67	23.103
1077.09	51.187
1081.5	70.0708
1085.9	111.614
1090.31	35.1487
1094.71	27.6692
1099.11	48.5745
1103.51	9.00464
1107.9	119.263
1112.29	29.479
1116.68	6.62085
1121.07	56.6643
1125.45	66.9644
1129.84	82.5815
1134.21	13.4487
1138.59	71.2256
1142.96	70.1987
1147.34	53.8101
1151.7	77.3013
1156.07	95.7185
1160.43	92.0606
1164.79	125.326
1169.15	171.375
1173.51	39.7285
1177.86	83.7317
1182.21	64.0837
1186.56	21.356
1190.91	58.1897
1195.25	7.61548
1199.59	36.811
1203.93	18.5928
1208.26	5.59668
1212.6	46.8003
1216.92	75.168
1221.25	36.5076
1225.58	78.8208
1229.9	72.9138
1234.22	28.8757
1238.54	93.0503
1242.85	24.219
1247.16	91.6909
1251.47	62.8994
1255.78	104.146
1260.08	57.3972
1264.38	154.975
1268.68	227.229
1272.98	182.685
1277.28	215.68
1281.57	109.974
1285.86	141.283
1290.14	103.608
1294.42	135.965
1298.71	153.16
1302.98	186.477
1307.26	201.912
1311.53	234.454
1315.8	258.402
1320.07	286.105
1324.34	155.916
1328.6	140.612
1332.86	98.1443
1337.12	40.6387
1341.38	97.2749
1345.63	57.9646
1349.88	70.7097
1354.13	68.5095
1358.37	24.9578
1362.61	17.9062
1366.85	82.9648
1371.09	88.8079
1375.33	59.4114
1379.56	128.515
1383.79	81.7747
1388.01	67.1846
1392.24	52.8694
1396.46	1.44824
1400.68	54.1079
1404.9	55.8718
1409.11	92.6877
1413.32	22.2883
1417.53	9.97241
1421.74	6.5603
1425.94	57.1189
1430.14	106.737
1434.34	205.29
1438.54	250.262
1442.73	450.55
1446.92	480.482
1451.11	565.62
1455.3	619.944
1459.48	506.378
1463.66	448.698
1467.84	373.404
1472.01	260.179
1476.19	235.871
1480.36	172.617
1484.53	167.161
1488.69	53.0605
1492.85	10.9416
1497.01	15.6365
1501.17	15.1755
1505.33	11.165
1509.48	48.6882
1513.63	15.3538
1517.78	47.1743
1521.92	107.131
1526.06	98.2734
1530.2	83.0984
1534.34	68.821
1538.47	37.2415
1542.6	48.6536
1546.73	78.3953
1550.86	41.1255
1554.98	43.2087
1559.11	53.3789
1563.22	0.01416
