Measurement: Raman, 514 nm, ccw, Raman Data Processed
Mineral: Forsterite
Rruff sample: R050117
Ideal chemistry: Mg_2_SiO_4_
Locality: Sapat, Gilgit, Pakistan
Source: Farooq and Nazia Sawal
Description: Fragment of a green crystal
Measured chemistry: (Mg_1.81_Fe_0.18_Ni_0.01_)_Î£=2_Si_1.00_O_4_
Pin_id: M00435
Orientation: Laser parallel to a* (1 0 0). Fiducial mark perpendicular to laser is parallel to -b [0 -1 0]
Raman shift (cm-1)	intensity
46.644	0
50.85	224.419
55.054	508.85
59.255	976.498
63.454	1809.08
67.652	2298.58
71.847	2366.25
76.04	2768.43
80.232	2007.14
84.421	1362.68
88.608	539.351
92.793	197.958
96.976	66.772
101.157	47.05
105.336	36.865
109.513	252.176
113.688	307.746
117.861	123.875
122.032	90.101
126.201	76.541
130.367	66.771
134.532	67.801
138.695	66.639
142.856	94.65
147.014	55.985
151.171	52.266
155.325	40.315
159.478	28.931
163.629	27.808
167.777	2.466
171.924	3.419
176.068	38.308
180.211	5.893
184.351	2.098
188.49	21.886
192.626	43.338
196.761	29.587
200.893	2.264
205.024	1.588
209.152	24.325
213.279	194.855
217.403	515.246
221.526	784.306
225.646	907.705
229.765	743.945
233.881	665.818
237.996	655.94
242.108	580.245
246.219	473.014
250.328	426.178
254.434	387.648
258.539	397.015
262.641	396.643
266.742	381.366
270.84	375.059
274.937	394.926
279.032	429.977
283.125	484.011
287.215	486.124
291.304	642.841
295.391	1007.92
299.476	1813.25
303.558	2277.74
307.639	1517.94
311.718	1107.33
315.795	1116.86
319.87	1035.2
323.943	1220.66
328.014	1189.68
332.083	935.863
336.15	880.833
340.215	745.559
344.279	519.782
348.34	413.377
352.399	380.792
356.457	365.432
360.512	342.234
364.565	321.898
368.617	519.299
372.666	503.527
376.714	355.219
380.76	253.827
384.803	205.879
388.845	184.993
392.885	180.151
396.923	121.786
400.959	227.281
404.993	372.325
409.025	482.188
413.055	516.827
417.084	718.317
421.11	707.406
425.134	866.356
429.157	1409.05
433.177	1535.9
437.196	1299.83
441.213	776.805
445.227	374.149
449.24	177.038
453.251	127.246
457.26	95.183
461.267	75.046
465.272	65.834
469.276	73.533
473.277	89.151
477.276	60.707
481.274	72.202
485.27	63.658
489.263	52.543
493.255	59.846
497.245	30.66
501.233	59.2
505.219	64.738
509.203	55.99
513.186	77.305
517.166	84.726
521.145	110.416
525.121	112.373
529.096	139.172
533.069	247.687
537.04	469.105
541.009	874.435
544.976	776.813
548.941	405.163
552.905	246.536
556.866	187.801
560.826	201.71
564.784	292.7
568.74	376.098
572.694	588.485
576.646	1056.88
580.596	1693.28
584.544	2143.7
588.491	2103.13
592.435	1615.58
596.378	1342.05
600.319	1502.54
604.258	1835.04
608.195	1813.37
612.131	1300.35
616.064	811.582
619.995	499.592
623.925	317.689
627.853	217.654
631.779	146.784
635.703	95.025
639.625	76.187
643.546	33.462
647.464	2.636
651.381	4.115
655.296	12.948
659.209	28.82
663.12	8.636
667.029	14.683
670.937	20.715
674.842	30.829
678.746	16.753
682.648	39.488
686.548	40.247
690.447	9.871
694.343	3.965
698.238	22.965
702.13	15.947
706.021	7.95
709.91	13.05
713.798	52.08
717.683	16.142
721.567	26.23
725.448	73.333
729.328	115.455
733.206	112.594
737.083	114.753
740.957	127.94
744.83	149.156
748.701	169.696
752.57	233.673
756.437	231.971
760.302	279.323
764.166	331.413
768.027	344.181
771.887	431.677
775.745	497.24
779.602	547.936
783.456	643.743
787.309	746.623
791.16	905.578
795.009	1138.62
798.856	1433.75
802.702	1892.38
806.545	2823.51
810.387	4439.05
814.227	7680.57
818.065	15744.2
821.902	29677.3
825.737	26617.8
829.569	15358.3
833.401	10132.3
837.23	8570.11
841.057	8948.23
844.883	11315.1
848.707	19032.7
852.529	34078
856.35	40594.5
860.168	26431.9
863.985	14660.1
867.8	8608.48
871.613	5641.05
875.425	5006.71
879.234	6324.5
883.042	6275.34
886.848	3411.28
890.653	1876.62
894.455	1290.02
898.256	1097.06
902.055	945.374
905.852	957.781
909.648	1166.13
913.442	1874.61
917.233	5138.45
921.024	3378.22
924.812	1400.09
928.599	783.973
932.384	568.815
936.167	457.748
939.948	444.902
943.728	591.007
947.506	720.334
951.282	844.256
955.056	1103.65
958.829	1409.28
962.6	1435
966.369	1176.12
970.136	813.126
973.902	557.255
977.666	360.54
981.428	211.988
985.188	142.578
988.947	85.306
992.704	83.177
996.459	69.163
1000.21	61.232
1003.96	37.395
1007.71	25.687
1011.46	20.088
1015.21	10.577
1018.95	3.153
1022.7	1.793
1026.44	1.489
1030.18	8.293
1033.91	9.4
1037.65	40.37
1041.39	33.314
1045.12	35.288
1048.85	44.287
1052.58	25.316
1056.31	4.616
1060.03	34.526
1063.76	30.467
1067.48	495.568
1071.2	245.626
1074.92	14.29
1078.63	21.271
1082.35	27.385
1086.06	0.432
1089.78	1.226
1093.49	18.982
1097.19	33.688
1100.9	9.646
1104.61	11.985
1108.31	28.626
1112.01	31.275
1115.71	57.926
1119.41	24.574
1123.11	45.303
1126.8	103.022
1130.5	54.075
1134.19	48.144
1137.88	77.103
1141.57	37.583
1145.25	59.957
1148.94	117.033
1152.62	90.691
1156.3	106.506
1159.98	98.899
1163.66	62.045
1167.34	102.141
1171.01	110.22
1174.68	77.39
1178.36	92.661
1182.02	102.146
1185.69	90.582
1189.36	65.569
1193.02	88.724
1196.69	105.171
1200.35	102.218
1204.01	121.348
1207.66	134.823
1211.32	138.974
1214.98	157.482
1218.63	154.196
1222.28	163.967
1225.93	137.443
1229.58	150.95
1233.22	138.204
1236.87	125.858
1240.51	147.721
1244.15	124.207
1247.79	105.275
1251.43	68.661
1255.07	62.003
1258.7	53.285
1262.33	60.233
1265.96	61.371
1269.59	59.396
1273.22	57.318
1276.85	22.134
1280.47	43.88
1284.1	1.259
1287.72	23.305
1291.34	4.805
1294.95	6.23
1298.57	22.664
1302.19	22.131
1305.8	4.637
1309.41	8.454
1313.02	32.505
1316.63	11.502
1320.23	13.341
1323.84	13.116
1327.44	29.55
1331.05	24.113
1334.64	17.692
1338.24	53.222
1341.84	54.699
1345.43	32.195
1349.03	32.623
1352.62	52.961
1356.21	24.284
1359.8	66.999
1363.39	46.258
1366.97	58.486
1370.56	39.818
1374.14	34.861
1377.72	28.745
1381.3	66.206
1384.87	75.712
1388.45	46.179
1392.02	68.59
1395.6	50.762
1399.17	57.027
1402.74	72.483
1406.3	67.888
1409.87	41.7
1413.43	60.465
1417	40.57
1420.56	43.716
1424.12	24.585
1427.67	30.823
1431.23	28.283
1434.79	36.261
1438.34	17.739
1441.89	10.6
1445.44	13.402
1448.99	52.574
1452.54	46.707
1456.08	38.509
1459.62	27.11
1463.17	18.656
1466.71	40.586
1470.24	35.846
1473.78	36.591
1477.32	48.015
1480.85	64.317
1484.38	4.407
1487.91	72.284
1491.44	44.698
1494.97	70.269
1498.5	31.96
1502.02	41.331
1505.54	38.895
1509.07	0.273
1512.59	10.509
1516.1	0
