Measurement: Raman, 514 nm, ccw, Raman Data Processed
Mineral: Forsterite
Rruff sample: R040057
Ideal chemistry: Mg_2_SiO_4_
Locality: Trudy's mine, San Carlos, Gila County, Arizona, USA
Source: Bob Downs
Description: Dark green crystal fragments from xenoliths in a basalt flow
Measured chemistry: (Mg_1.67_Fe_0.32_Ni_0.01_)_Î£=2_Si_1.00_O_4_; trace amounts of Mn and Ca
Pin_id: L00083
Orientation: Laser parallel to c* (0 0 1). Fiducial mark perpendicular to laser is parallel to b [0 1 0]
Raman shift (cm-1)	intensity
91.981	0
96.161	3.847
100.34	1.767
104.516	56.224
108.691	59.553
112.864	76.883
117.034	304.37
121.203	106.534
125.369	64.198
129.534	76.386
133.696	10.286
137.857	144.981
142.016	139.054
146.172	188.128
150.327	222.42
154.48	224.098
158.63	193.962
162.779	209.007
166.926	148.181
171.07	172.393
175.213	151.601
179.354	97.804
183.493	31.017
187.63	16.094
191.765	5.997
195.898	3.719
200.029	13.494
204.158	49.447
208.285	49.306
212.41	195.039
216.533	326.639
220.654	370.115
224.773	383.391
228.891	406.582
233.006	417.504
237.119	446.693
241.231	418.948
245.34	330.615
249.448	215.192
253.553	167.672
257.657	187.276
261.758	172.699
265.858	171.354
269.956	197.106
274.052	250.874
278.146	330.88
282.237	518.056
286.327	979.196
290.416	1905.53
294.502	3345.76
298.586	4647.39
302.668	3971.52
306.749	2654.84
310.827	1953.81
314.903	1760.48
318.978	1587.12
323.051	1177.47
327.121	763.94
331.19	480.945
335.257	334.997
339.322	221.041
343.385	154.146
347.446	100.007
351.505	104.305
355.563	126.408
359.618	74.844
363.672	32.769
367.723	84.895
371.773	56.922
375.821	79.95
379.866	94.765
383.91	57.437
387.952	97.995
391.992	173.436
396.031	242.752
400.067	510.26
404.101	957.037
408.134	1675.01
412.165	1857.87
416.193	1252.62
420.22	796.247
424.245	609.762
428.268	369.158
432.289	248.432
436.309	120.58
440.326	39.598
444.342	23.541
448.355	30.947
452.367	28.736
456.377	45.92
460.385	4.51
464.391	23.586
468.395	68.457
472.398	31.168
476.398	62.71
480.397	82.099
484.394	75.345
488.389	96.448
492.382	87.412
496.373	70.24
500.362	74.078
504.349	90.459
508.335	135.931
512.319	109.293
516.3	145.416
520.28	154.21
524.259	149.104
528.235	142.897
532.209	126.217
536.182	146.538
540.152	202.291
544.121	221.06
548.088	249.833
552.053	242.589
556.017	276.189
559.978	281.637
563.938	377.934
567.895	460.082
571.851	608.083
575.805	788.941
579.758	1077.59
583.708	1456.23
587.657	2223.67
591.603	3477.98
595.548	5432.15
599.491	7098.45
603.432	7148.28
607.372	5610.14
611.309	3708.26
615.245	2337.12
619.179	1576.11
623.111	952.083
627.041	689.976
630.97	490.008
634.896	282.97
638.821	201.593
642.744	127.243
646.665	81.787
650.584	21.556
654.502	59.135
658.418	16.321
662.331	86.024
666.244	27.684
670.154	33.815
674.062	98.028
677.969	77.628
681.874	14.533
685.777	13.048
689.678	17.386
693.577	57.698
697.475	25.001
701.371	36.709
705.265	133.439
709.157	138.193
713.047	78.976
716.936	142.793
720.823	166.648
724.708	146.548
728.591	217.495
732.472	293.497
736.352	221.557
740.23	285.68
744.106	393.871
747.98	481.135
751.853	513.477
755.723	562.911
759.592	639.474
763.459	805.249
767.325	811.333
771.188	956.781
775.05	1085.6
778.91	1247.66
782.768	1412.94
786.625	1601.41
790.479	2082.02
794.332	2577.77
798.183	3268.67
802.033	4489.8
805.88	6836.12
809.726	10933.6
813.57	19998.5
817.413	38999.2
821.253	54861
825.092	42065.8
828.929	25770.3
832.764	17355.3
836.598	15089.3
840.429	16367.9
844.259	22168.7
848.088	35712.7
851.914	51511.6
855.739	49471.3
859.562	32193.1
863.383	18732.2
867.203	11005.5
871.02	6920.99
874.836	4556.67
878.65	3264.55
882.463	2396.63
886.274	1696.91
890.083	1194.39
893.89	936.072
897.695	782.952
901.499	609.031
905.301	550.308
909.102	467.233
912.9	467.909
916.697	402.098
920.492	422.36
924.285	387.03
928.077	466.873
931.867	571.706
935.655	654.684
939.442	987.739
943.226	1519.76
947.009	2383.67
950.791	3814.22
954.57	5351.71
958.348	6032.78
962.124	5618.14
965.899	4721.82
969.671	3488.75
973.442	2403.77
977.211	1724.36
980.979	1264.86
984.745	980.181
988.509	885.781
992.271	751.295
996.032	603.955
999.791	441.76
1003.55	348.708
1007.3	324.779
1011.06	289.931
1014.81	240.302
1018.56	229.654
1022.31	192.095
1026.06	239.61
1029.8	165.188
1033.55	204.827
1037.29	160.514
1041.03	132.664
1044.77	73.042
1048.5	43.875
1052.24	14.766
1055.97	15.32
1059.7	2.858
1063.43	24.491
1067.16	22.673
1070.89	22.041
1074.61	10.694
1078.34	13.56
1082.06	54.57
1085.78	13.747
1089.5	22.438
1093.21	8.665
1096.93	4.681
1100.64	39.152
1104.35	10.857
1108.06	10.329
1111.77	18.78
1115.48	10.355
1119.18	25.793
1122.89	141.016
1126.59	86.741
1130.29	89.413
1133.99	31.095
1137.68	55.582
1141.38	79.983
1145.07	159.777
1148.76	75.907
1152.45	99.521
1156.14	89.967
1159.83	83.988
1163.51	137.22
1167.19	122.397
1170.88	149.816
1174.56	113.021
1178.23	130.226
1181.91	153.554
1185.59	108.688
1189.26	179.849
1192.93	202.038
1196.6	186.673
1200.27	235.399
1203.94	273.877
1207.6	216.336
1211.27	335.762
1214.93	312.064
1218.59	313.39
1222.25	206.5
1225.9	272.62
1229.56	282.41
1233.21	287.331
1236.86	264.719
1240.51	265.117
1244.16	172.934
1247.81	124.647
1251.45	175.416
1255.1	126.188
1258.74	149.678
1262.38	117.401
1266.02	61.105
1269.66	53.751
1273.29	78.252
1276.93	49.073
1280.56	65.901
1284.19	66.83
1287.82	47.846
1291.45	12.332
1295.07	49.353
1298.7	40.918
1302.32	100.347
1305.94	39.677
1309.56	2.226
1313.18	31.136
1316.8	30.834
1320.41	39.709
1324.02	77.48
1327.63	30.154
1331.24	30.732
1334.85	32.224
1338.46	16.356
1342.06	34.964
1345.67	13.209
1349.27	9.6
1352.87	59.535
1356.47	43.666
1360.07	109.981
1363.66	158.235
1367.25	110.678
1370.85	101.157
1374.44	143.446
1378.03	74.799
1381.61	100.605
1385.2	113.885
1388.78	87.346
1392.37	115.86
1395.95	36.328
1399.53	127.7
1403.1	66.91
1406.68	61.59
1410.26	91.931
1413.83	103.613
1417.4	39.563
1420.97	91.308
1424.54	105.549
1428.1	78.813
1431.67	110.67
1435.23	157.035
1438.8	156.006
1442.36	95.082
1445.91	144.695
1449.47	132.144
1453.03	144.54
1456.58	161.892
1460.13	174.828
1463.68	156.587
1467.23	108.202
1470.78	130.215
1474.33	142.591
1477.87	121.313
1481.42	121.413
1484.96	100.747
1488.5	55.231
1492.04	118.988
1495.57	122.252
1499.11	4.86
1502.64	247.704
1506.17	30.147
1509.71	25.879
1513.23	66.422
1516.76	50.708
1520.29	0
