Measurement: Raman, 514 nm, ccw, Raman Data Processed
Mineral: Forsterite
Rruff sample: R050117
Ideal chemistry: Mg_2_SiO_4_
Locality: Sapat, Gilgit, Pakistan
Source: Farooq and Nazia Sawal
Description: Fragment of a green crystal
Measured chemistry: (Mg_1.81_Fe_0.18_Ni_0.01_)_Î£=2_Si_1.00_O_4_
Pin_id: M00216
Orientation: Laser parallel to b* (0 1 0). Fiducial mark perpendicular to laser is parallel to c [0 0 1]
Raman shift (cm-1)	intensity
46.644	0
50.85	158.843
55.054	512.26
59.255	1404.94
63.454	2006.4
67.652	1938.26
71.847	2324.2
76.04	1880.78
80.232	1144.27
84.421	554.74
88.608	130.035
92.793	81.177
96.976	69.656
101.157	38.173
105.336	19.305
109.513	89.667
113.688	102.605
117.861	30.121
122.032	19.532
126.201	69.87
130.367	29.464
134.532	51.615
138.695	107.283
142.856	70.614
147.014	93.006
151.171	95.117
155.325	58.063
159.478	63.11
163.629	86.639
167.777	74.397
171.924	97.352
176.068	158.96
180.211	145.332
184.351	88.49
188.49	27.461
192.626	16.315
196.761	52.849
200.893	35.394
205.024	44.986
209.152	1.631
213.279	77.789
217.403	364.803
221.526	721.037
225.646	817.448
229.765	771.733
233.881	735.52
237.996	692.198
242.108	612.612
246.219	487.978
250.328	398.535
254.434	422.039
258.539	372.476
262.641	400.907
266.742	409.454
270.84	434.899
274.937	405.69
279.032	460.143
283.125	565.216
287.215	722.606
291.304	1131.84
295.391	2375.12
299.476	5004.32
303.558	5740.75
307.639	2994.9
311.718	1596.28
315.795	1153.59
319.87	1157.96
323.943	1316.68
328.014	1022.87
332.083	630.413
336.15	435.749
340.215	315.708
344.279	292.827
348.34	230.294
352.399	256.947
356.457	214.52
360.512	191.026
364.565	155.376
368.617	136.514
372.666	131.93
376.714	117.852
380.76	124.38
384.803	148.268
388.845	176.061
392.885	138.133
396.923	146.526
400.959	194.597
404.993	340.486
409.025	593.381
413.055	1253.9
417.084	1522.59
421.11	870.756
425.134	406.772
429.157	256.735
433.177	228.793
437.196	190.078
441.213	121.306
445.227	48.321
449.24	28.458
453.251	0.456
457.26	3.686
461.267	30.955
465.272	3.613
469.276	42.056
473.277	43.382
477.276	20.601
481.274	34.732
485.27	38.779
489.263	42.747
493.255	47.641
497.245	17.86
501.233	44.924
505.219	18.598
509.203	28.9
513.186	55.858
517.166	44.878
521.145	71.417
525.121	36.545
529.096	38.02
533.069	61.613
537.04	75.357
541.009	142.16
544.976	168.528
548.941	149.725
552.905	179.995
556.866	191.264
560.826	188.571
564.784	237.597
568.74	293.625
572.694	387.601
576.646	526.538
580.596	736.443
584.544	1045.32
588.491	1362.18
592.435	2200.01
596.378	3765.82
600.319	6259.11
604.258	8466.69
608.195	7574.13
612.131	4904.97
616.064	2789.84
619.995	1549.49
623.925	959.415
627.853	620.597
631.779	443.014
635.703	268.59
639.625	191.288
643.546	120.166
647.464	74.048
651.381	73.175
655.296	19.328
659.209	41.438
663.12	47.389
667.029	49.666
670.937	37.82
674.842	9.166
678.746	42.364
682.648	39.911
686.548	22.817
690.447	9.659
694.343	9.237
698.238	0.407
702.13	18.063
706.021	39.832
709.91	54.666
713.798	41.569
717.683	96.548
721.567	88.597
725.448	124.718
729.328	171.913
733.206	174.186
737.083	188.539
740.957	240.974
744.83	271.496
748.701	375.105
752.57	334.806
756.437	396.628
760.302	472.6
764.166	491.74
768.027	620.093
771.887	718.668
775.745	777.477
779.602	854.536
783.456	1020.83
787.309	1299.33
791.16	1597.03
795.009	1955.92
798.856	2578.96
802.702	3573.15
806.545	5406.48
810.387	8803.54
814.227	15896.1
818.065	32827.1
821.902	54338.3
825.737	41829.9
829.569	23021.2
833.401	14431
837.23	11601.1
841.057	12155.8
844.883	16780.3
848.707	31397.4
852.529	54795.1
856.35	56284.3
860.168	32553.6
863.985	16423.2
867.8	9322.85
871.613	6074.77
875.425	4688.85
879.234	4402.1
883.042	3662.51
886.848	2298.09
890.653	1490.82
894.455	1124.71
898.256	886.769
902.055	680.983
905.852	507.929
909.648	498.363
913.442	437.954
917.233	393.082
921.024	384.543
924.812	370.293
928.599	355.412
932.384	365.357
936.167	490.332
939.948	672.01
943.728	1032.73
947.506	1609.54
951.282	2719.28
955.056	4644.43
958.829	7351.23
962.6	8124.67
966.369	6600.29
970.136	4338.88
973.902	2653.59
977.666	1601.48
981.428	1104.55
985.188	821.811
988.947	716.258
992.704	572.851
996.459	467.582
1000.21	370.42
1003.96	308.788
1007.71	257.358
1011.46	214.45
1015.21	182.618
1018.95	188.844
1022.7	145.133
1026.44	120.483
1030.18	125.884
1033.91	119.326
1037.65	117.817
1041.39	88.338
1045.12	53.889
1048.85	51.483
1052.58	7.101
1056.31	27.272
1060.03	18.698
1063.76	32.197
1067.48	32.817
1071.2	26.632
1074.92	29.633
1078.63	57.829
1082.35	43.265
1086.06	33.899
1089.78	12.704
1093.49	19.346
1097.19	27.291
1100.9	31.159
1104.61	1.982
1108.31	13.757
1112.01	13.499
1115.71	36.202
1119.41	43.872
1123.11	75.507
1126.8	67.101
1130.5	80.651
1134.19	58.154
1137.88	75.605
1141.57	87.201
1145.25	84.847
1148.94	140.396
1152.62	126.281
1156.3	106.087
1159.98	116.195
1163.66	137.679
1167.34	111.167
1171.01	157.4
1174.68	146.755
1178.36	131.005
1182.02	135.929
1185.69	144.544
1189.36	136.403
1193.02	119.387
1196.69	165.974
1200.35	173.424
1204.01	217.639
1207.66	242.802
1211.32	226.157
1214.98	215.616
1218.63	227.24
1222.28	197.069
1225.93	226.016
1229.58	233.985
1233.22	251.611
1236.87	218.299
1240.51	180.062
1244.15	168.507
1247.79	127.054
1251.43	115.576
1255.07	108.656
1258.7	98.62
1262.33	96.789
1265.96	75.889
1269.59	79.949
1273.22	71.874
1276.85	35.706
1280.47	51.469
1284.1	10.157
1287.72	10.753
1291.34	11.285
1294.95	22.421
1298.57	10.905
1302.19	19.323
1305.8	0.609
1309.41	9.814
1313.02	12.034
1316.63	13.915
1320.23	1.094
1323.84	19.041
1327.44	59.933
1331.05	29.771
1334.64	49.57
1338.24	30.287
1341.84	1.946
1345.43	15.563
1349.03	5.845
1352.62	5.743
1356.21	43.347
1359.8	26.998
1363.39	39.816
1366.97	47.666
1370.56	9.576
1374.14	40.547
1377.72	26.177
1381.3	57.979
1384.87	56.831
1388.45	43.663
1392.02	49.459
1395.6	25.214
1399.17	42.938
1402.74	51.171
1406.3	34.259
1409.87	15.77
1413.43	31.72
1417	17.828
1420.56	13.788
1424.12	24.013
1427.67	54.036
1431.23	44.128
1434.79	19.783
1438.34	12.633
1441.89	41.54
1445.44	74.228
1448.99	29.92
1452.54	19.548
1456.08	0.006
1459.62	15.174
1463.17	14.094
1466.71	37.426
1470.24	30.036
1473.78	30.913
1477.32	24.501
1480.85	61.745
1484.38	33.405
1487.91	50.937
1491.44	43.764
1494.97	30.633
1498.5	19.785
1502.02	22.368
1505.54	4.395
1509.07	27.17
1512.59	0.079
