Measurement: Raman, 514 nm, ccw, Raman Data Processed
Mineral: Forsterite
Rruff sample: R040052
Ideal chemistry: Mg_2_SiO_4_
Locality: Synthetic, Czochralski method
Source: Hideki Kanazawa of Kyoto University, Japan
Description: Colorless crystal fragments obtained from a boule.
Measured chemistry: Mg_2.00_Si_1.00_O_4_
Pin_id: L00074
Orientation: Laser parallel to c* (0 0 1). Fiducial mark perpendicular to laser is parallel to a [1 0 0]
Raman shift (cm-1)	intensity
100.216	0
104.405	18.896
108.592	23.353
112.777	45.039
116.959	299.576
121.14	528.202
125.318	101.98
129.495	64.629
133.669	83.911
137.841	90.835
142.011	132.465
146.179	58.008
150.345	65.392
154.509	51.895
158.671	44.593
162.83	40.063
166.988	10.867
171.144	28.907
175.297	13.425
179.449	9.02
183.598	19.801
187.745	142.058
191.891	13.455
196.034	12.248
200.175	10.837
204.314	4.459
208.451	36.715
212.586	33.263
216.719	29.793
220.85	21.71
224.979	114.773
229.105	849.611
233.23	602.566
237.353	44.087
241.474	2.261
245.592	14.637
249.709	3.777
253.823	10.351
257.936	31.2
262.046	26.932
266.155	60.299
270.261	67.132
274.365	100.265
278.468	110.144
282.568	97.521
286.666	90.935
290.762	110.17
294.857	128.57
298.949	153.93
303.039	341.847
307.127	1285.62
311.213	704.399
315.297	231.615
319.379	449.018
323.46	412.485
327.538	274.689
331.614	770.035
335.688	631.604
339.76	458.362
343.83	654.754
347.898	256.728
351.964	144.947
356.028	125.084
360.09	106.959
364.15	98.483
368.208	111.036
372.264	99.422
376.318	95.614
380.37	104.879
384.42	114.921
388.468	130.874
392.514	101.925
396.558	74.897
400.6	65.088
404.641	78.519
408.679	76.177
412.715	83.923
416.749	88.673
420.781	137.714
424.811	261.466
428.84	232.055
432.866	323.374
436.89	1282.84
440.913	902.332
444.933	206.208
448.951	80.539
452.968	66.807
456.982	68.104
460.995	71.154
465.005	57.272
469.014	67.36
473.02	61.423
477.025	47.456
481.027	56.438
485.028	54.36
489.027	37.248
493.024	45.106
497.019	57.946
501.012	65.547
505.002	40.098
508.992	50.397
512.979	54.712
516.964	55.161
520.947	47.59
524.928	53.254
528.907	26.588
532.885	38.775
536.86	82.478
540.834	151.106
544.805	415.488
548.775	1021.21
552.742	461.786
556.708	189.119
560.672	105.959
564.634	98.531
568.594	103.318
572.552	108.849
576.508	185.379
580.462	316.902
584.414	491.422
588.365	458.932
592.313	340.411
596.26	315.7
600.204	344.973
604.147	514.261
608.088	1051.42
612.026	1613.02
615.963	1296.66
619.898	643.804
623.832	314.98
627.763	231.047
631.692	181.173
635.619	174.231
639.545	96.504
643.469	64.756
647.39	58.917
651.31	79.161
655.228	73.521
659.144	1.15
663.058	1.105
666.97	12.354
670.881	28.551
674.789	21.162
678.696	30.873
682.6	29.624
686.503	40.404
690.404	2.778
694.303	42.05
698.2	31.902
702.095	4.767
705.989	14.626
709.88	64.513
713.77	18.659
717.658	15.814
721.543	39.978
725.427	51.58
729.31	62.337
733.19	69.533
737.068	79.744
740.945	70.971
744.819	92.214
748.692	128.477
752.563	109.76
756.432	89.067
760.299	110.395
764.165	153.747
768.028	164.122
771.89	163.522
775.749	200.95
779.607	228.406
783.463	262.892
787.318	310.409
791.17	411.953
795.02	489.522
798.869	517.057
802.716	686.601
806.561	890.933
810.404	1377.67
814.245	2197.37
818.085	3359.46
821.922	6817.04
825.758	17382.3
829.592	21558.3
833.424	10193.8
837.254	5164.94
841.083	3939.87
844.909	3218.66
848.734	2895.69
852.557	4334.79
856.378	9244.93
860.197	17502.1
864.015	10809.3
867.83	5572.6
871.644	3855.91
875.456	2106.26
879.266	1294.66
883.074	883.118
886.881	631.628
890.686	451.271
894.488	378.891
898.29	331.564
902.089	282.279
905.886	198.038
909.682	132.853
913.476	115.838
917.268	118.153
921.058	125.405
924.846	150.4
928.633	92.453
932.418	104.508
936.201	103.62
939.982	118.757
943.761	184.938
947.539	229.333
951.315	253.617
955.089	442.96
958.861	718.361
962.631	1320.82
966.4	2975.33
970.167	4302.91
973.932	2102.52
977.695	1022.91
981.456	584.6
985.216	297.343
988.974	201.178
992.73	144.964
996.484	115.78
1000.24	87.625
1003.99	114.789
1007.74	70.689
1011.48	37.164
1015.23	22.829
1018.97	31.809
1022.72	35.684
1026.45	34.202
1030.19	1.556
1033.93	8.632
1037.66	5.729
1041.4	21.072
1045.13	11.73
1048.86	4.567
1052.59	0.234
1056.31	2.063
1060.04	3.682
1063.76	31.555
1067.48	28.738
1071.2	17.958
1074.92	2.162
1078.63	11.636
1082.35	20.567
1086.06	48.776
1089.77	31.988
1093.47	26.495
1097.18	24.416
1100.89	27.628
1104.59	12.818
1108.29	33.005
1111.99	17.149
1115.69	29.301
1119.38	3.406
1123.08	18.585
1126.77	35.713
1130.46	32.846
1134.15	11.047
1137.84	23.043
1141.53	20.13
1145.21	0.789
1148.89	14.681
1152.57	15.964
1156.25	0.855
1159.93	16.704
1163.61	12.327
1167.28	14.24
1170.95	4.494
1174.62	3.967
1178.29	51.696
1181.96	37.454
1185.62	49.789
1189.28	6.165
1192.95	4.888
1196.61	22.607
1200.26	9.211
1203.92	77.772
1207.58	35.376
1211.23	57.847
1214.88	78.618
1218.53	74.083
1222.18	53.712
1225.82	23.116
1229.47	69.584
1233.11	47.927
1236.75	63.227
1240.39	114.995
1244.03	70.723
1247.66	65.39
1251.3	42.497
1254.93	24.794
1258.56	32.007
1262.19	39.151
1265.82	27.919
1269.45	37.96
1273.07	22.08
1276.69	56.438
1280.31	3.195
1283.93	16.097
1287.55	19.257
1291.16	9.057
1294.78	12.405
1298.39	8.843
1302	21.632
1305.61	22.244
1309.22	40.879
1312.82	48.336
1316.43	18.873
1320.03	7.374
1323.63	10.653
1327.23	41.129
1330.83	47.723
1334.42	26.957
1338.02	29.308
1341.61	30.628
1345.2	41.904
1348.79	35.134
1352.38	42.33
1355.96	19.493
1359.55	36.622
1363.13	29.717
1366.71	0.793
1370.29	6.163
1373.86	46.849
1377.44	21.858
1381.01	49.232
1384.59	9.339
1388.16	14.233
1391.72	26.037
1395.29	2.772
1398.86	11.364
1402.42	52.093
1405.98	40.698
1409.55	24.321
1413.11	71.296
1416.66	40.503
1420.22	43.198
1423.77	53.213
1427.32	66.058
1430.88	41.108
1434.42	62.055
1437.97	67.498
1441.52	119.163
1445.06	179.935
1448.61	157.509
1452.15	154.78
1455.68	152.263
1459.22	196.721
1462.76	152.217
1466.29	138.658
1469.83	84.161
1473.36	106.267
1476.89	111.547
1480.41	84.769
1483.94	80.891
1487.47	84.92
1490.99	94.888
1494.51	51.815
1498.03	59.785
1501.55	34.907
1505.07	12.917
1508.58	2.728
1512.09	20.546
1515.61	37.642
1519.12	24.32
1522.62	25.64
1526.13	10.524
