Measurement: Raman, 514 nm, ccw, Raman Data Processed
Mineral: Forsterite
Rruff sample: R040057
Ideal chemistry: Mg_2_SiO_4_
Locality: Trudy's mine, San Carlos, Gila County, Arizona, USA
Source: Bob Downs
Description: Dark green crystal fragments from xenoliths in a basalt flow
Measured chemistry: (Mg_1.67_Fe_0.32_Ni_0.01_)_Î£=2_Si_1.00_O_4_; trace amounts of Mn and Ca
Pin_id: L00449
Orientation: Laser parallel to b* (0 1 0). Fiducial mark perpendicular to laser is parallel to a [1 0 0]
Raman shift (cm-1)	intensity
94.768	0
98.947	11.904
103.124	11.202
107.3	120.589
111.473	189.313
115.644	425.234
119.813	319.847
123.981	177.494
128.146	51.971
132.309	99.199
136.47	114.077
140.63	180.469
144.787	213.783
148.942	196.513
153.096	252.81
157.247	202.6
161.396	136.784
165.544	142.314
169.689	53.126
173.833	127.13
177.974	89.277
182.114	115.406
186.251	65.536
190.387	55.956
194.52	24.082
198.652	24.738
202.782	17.94
206.909	72.191
211.035	83.469
215.159	259.685
219.281	352.876
223.4	353.028
227.518	403.073
231.634	345.635
235.748	345.081
239.86	271.085
243.97	229.96
248.079	196.736
252.185	123.441
256.289	173.067
260.391	164.152
264.492	113.728
268.59	113.027
272.687	192.627
276.781	267.436
280.874	420.828
284.964	598.491
289.053	1232.58
293.14	2442.32
297.225	3809.87
301.308	3531.28
305.389	2344.78
309.468	1607.56
313.545	1418.46
317.62	1350.64
321.693	1092.4
325.765	697.928
329.834	458.399
333.902	236.622
337.967	198.448
342.031	194.854
346.093	153.419
350.153	150.394
354.21	87.327
358.267	150.077
362.321	37.191
366.373	4.988
370.423	68.216
374.471	128.325
378.518	69.791
382.563	102.037
386.605	92.186
390.646	144.162
394.685	165.907
398.722	401.533
402.757	694.027
406.79	1298.39
410.821	1646.62
414.851	1180.72
418.878	666.68
422.904	534.504
426.927	415.213
430.949	196.799
434.969	193.253
438.987	62.57
443.003	62.661
447.018	27.49
451.03	20.001
455.041	83.803
459.049	23.112
463.056	25.202
467.061	35.216
471.064	64.981
475.065	48.551
479.064	22.274
483.062	88.109
487.057	117.062
491.051	133.833
495.043	110.55
499.032	50.928
503.02	70.765
507.007	116.83
510.991	169.274
514.973	200.311
518.954	169.062
522.933	138.229
526.91	186.152
530.885	99.53
534.858	113.846
538.829	155.942
542.799	139.05
546.766	165.689
550.732	247.357
554.696	240.327
558.658	317.562
562.618	315.583
566.576	387.391
570.533	516.987
574.488	659.374
578.44	878.553
582.391	1211.53
586.341	1690.3
590.288	2674.87
594.233	4172.23
598.177	5660.17
602.119	6014.71
606.059	4973.54
609.997	3306
613.933	2244.71
617.868	1476.42
621.801	996.812
625.731	591.698
629.66	415.174
633.588	315.92
637.513	79.908
641.437	206.313
645.358	198.215
649.278	142.951
653.196	134.614
657.113	2.242
661.027	35.512
664.94	70.722
668.851	34.671
672.76	25.208
676.667	17.076
680.572	42.003
684.476	30.847
688.378	33.1
692.278	179.505
696.176	34.116
700.072	115.632
703.967	14.218
707.86	68.164
711.751	138.325
715.64	17.79
719.527	130.236
723.413	80.669
727.297	101.096
731.179	110.522
735.059	212.955
738.937	318.398
742.814	339.859
746.689	340.343
750.562	383.881
754.433	480.453
758.303	449.135
762.17	638.903
766.036	797.838
769.901	857.92
773.763	857.237
777.624	1100.77
781.482	1075.47
785.339	1378.28
789.195	1646.2
793.048	1958.21
796.9	2612.44
800.75	3354.8
804.598	4821.4
808.445	7726.09
812.289	13542
816.132	27162.3
819.973	44716.5
823.813	38540.8
827.65	22840.2
831.486	14976.5
835.32	12364.5
839.152	12478.5
842.983	16201.6
846.812	25864
850.639	40843.4
854.464	43520.6
858.288	29429.3
862.11	16922.5
865.93	10129.3
869.748	6050.39
873.564	4042.66
877.379	3045.16
881.192	2047.91
885.004	1553.88
888.813	1091.06
892.621	773.449
896.427	620.036
900.232	494.524
904.034	392.497
907.835	412.689
911.634	516.044
915.432	314.586
919.227	356.868
923.021	372.778
926.813	258.348
930.604	448.108
934.393	542.539
938.18	554.536
941.965	1027.43
945.749	1802.25
949.53	2655.78
953.311	3735.6
957.089	4815.35
960.866	4668.06
964.641	3955.71
968.414	3003.43
972.185	2225.59
975.955	1514.67
979.723	1088.13
983.49	742.108
987.254	579.745
991.017	515.888
994.779	495.77
998.538	291.48
1002.3	484.811
1006.05	405.24
1009.81	321.84
1013.56	223.224
1017.31	267.803
1021.06	297.146
1024.81	242.335
1028.55	280.855
1032.3	160.296
1036.04	158.332
1039.78	249.662
1043.52	216.115
1047.26	53.847
1050.99	280.545
1054.73	0.81
1058.46	39.878
1062.19	31.468
1065.92	17.984
1069.65	41.497
1073.37	94.928
1077.1	80.727
1080.82	177.391
1084.54	55.432
1088.26	71.378
1091.97	37.787
1095.69	0.169
1099.4	125.31
1103.12	88.475
1106.83	83.354
1110.54	69.896
1114.24	5.159
1117.95	80.319
1121.65	454.785
1125.35	12.504
1129.06	126.128
1132.75	29.271
1136.45	51.813
1140.15	59.898
1143.84	4.266
1147.53	91.606
1151.22	20.765
1154.91	191.452
1158.6	49.699
1162.28	86.993
1165.97	231.761
1169.65	111.988
1173.33	57.294
1177.01	46.664
1180.69	89.357
1184.36	38.296
1188.04	83.521
1191.71	266.872
1195.38	285.88
1199.05	240.865
1202.71	189.678
1206.38	257.15
1210.04	381.919
1213.71	295.026
1217.37	326.549
1221.03	366.627
1224.68	382.768
1228.34	355.115
1231.99	393.524
1235.65	433.488
1239.3	397.896
1242.95	301.67
1246.59	241.428
1250.24	253.877
1253.88	209.515
1257.53	245.194
1261.17	296.416
1264.81	143.501
1268.45	222.054
1272.08	119.482
1275.72	136.783
1279.35	67.605
1282.98	101.378
1286.61	95.667
1290.24	175.86
1293.87	73.757
1297.49	59.901
1301.11	68.443
1304.73	21.879
1308.36	37.08
1311.97	6.042
1315.59	153.564
1319.2	8.109
1322.82	28.957
1326.43	122.641
1330.04	230.967
1333.65	23.868
1337.26	113.101
1340.86	146.382
1344.47	119.552
1348.07	99.537
1351.67	325.474
1355.27	235.534
1358.87	159.536
1362.46	150.605
1366.06	176.357
1369.65	207.054
1373.24	151.857
1376.83	279.143
1380.42	210.266
1384	181.164
1387.59	252.98
1391.17	228.95
1394.75	153.608
1398.33	156.639
1401.91	246.954
1405.49	265.965
1409.06	241.968
1412.64	232.909
1416.21	387.461
1419.78	220.607
1423.35	268.908
1426.91	294.466
1430.48	28.559
1434.05	363.534
1437.61	235.455
1441.17	436.844
1444.73	377.45
1448.29	551.443
1451.84	426.173
1455.4	385.641
1458.95	339.688
1462.5	324.398
1466.05	485.865
1469.6	389.376
1473.15	403.714
1476.69	272.923
1480.24	468.168
1483.78	250.625
1487.32	173.412
1490.86	269.426
1494.39	207.27
1497.93	278.229
1501.46	4.374
1505	180.841
1508.53	72.221
1512.06	142.958
1515.59	279.761
1519.11	139.312
