Measurement: Raman, 514 nm, ccw, Raman Data Processed
Mineral: Forsterite
Rruff sample: R060535
Ideal chemistry: Mg_2_SiO_4_
Locality: unknown
Source: Gemological Institute of America
Description: Transparent brown gemstone
Measured chemistry: (Mg_1.81_Fe_0.18_Ni_0.01_)_Î£=2_Si_1.00_O_4_
Pin_id: L01261
Orientation: Laser parallel to b* (0 1 0). Fiducial mark perpendicular to laser is parallel to c [0 0 1]
Raman shift (cm-1)	intensity
200.256	0
205.16	13.43
210.061	85.0858
214.959	211.652
219.854	390.555
224.747	619.842
229.636	554.544
234.523	452.458
239.407	357.616
244.288	261.602
249.166	113.152
254.042	126.09
258.915	132.661
263.784	87.9512
268.651	111.878
273.516	107.002
278.377	130.507
283.236	246.223
288.092	584.013
292.945	1391.81
297.795	2846.18
302.642	4009.27
307.487	2510.19
312.329	1198.1
317.168	800.99
322.004	817.826
326.838	744.37
331.668	342.965
336.496	196.299
341.321	103.278
346.144	38.6242
350.963	37.839
355.78	11.1616
360.594	17.2002
365.405	1.45923
370.214	17.2754
375.019	7.52649
379.822	45.5574
384.622	8.53027
389.42	31.2602
394.215	12.1151
399.006	43.928
403.795	141.685
408.582	413.536
413.365	872.431
418.146	1008.43
422.924	578.394
427.7	394.187
432.472	320.74
437.242	191.993
442.009	108.021
446.774	78.6681
451.535	9.66296
456.294	52.7469
461.05	3.599
465.804	8.97278
470.554	28.5945
475.302	52.1759
480.047	59.4168
484.79	29.4539
489.529	30.3207
494.266	53.2179
499.001	24.0878
503.732	76.2964
508.461	39.6917
513.187	109.97
517.911	61.5279
522.631	50.5642
527.349	68.844
532.065	53.4781
536.777	50.0575
541.487	182.584
546.194	171.907
550.898	171.513
555.6	213.659
560.299	274.268
564.995	328.981
569.689	386.817
574.38	545.316
579.068	721.14
583.754	941.973
588.437	1399.59
593.117	2183.31
597.794	4025.07
602.469	6213.47
607.141	6604.65
611.81	4525.26
616.477	2432.45
621.141	1284.36
625.802	760.742
630.461	526.206
635.117	273.951
639.77	164.578
644.421	181.85
649.069	100.874
653.714	80.0439
658.357	75.5425
662.997	7.54199
667.634	61.4006
672.269	71.6609
676.901	17.8159
681.53	5.03845
686.157	57.0519
690.781	6.34631
695.402	86.6196
700.021	38.0944
704.637	26.7944
709.251	75.4434
713.861	109.695
718.469	136.971
723.075	151.281
727.678	114.636
732.278	241.051
736.876	239.575
741.47	345.267
746.063	375.133
750.652	468.175
755.239	492.335
759.824	503.613
764.406	525.023
768.985	648.571
773.561	880.263
778.135	1137.11
782.706	1228.13
787.275	1100.37
791.841	1405.94
796.404	1789.84
800.965	2525.57
805.523	3964.26
810.079	6985.59
814.632	14921.4
819.182	32396.3
823.73	43327.8
828.275	27278.8
832.818	13864.1
837.358	9991.61
841.895	11139.8
846.43	18571.4
850.962	35341.3
855.491	47171.6
860.018	32217.2
864.543	14718
869.064	7196.19
873.583	4422.69
878.1	3336.49
882.614	2897.6
887.125	1697.01
891.634	906.738
896.14	556.768
900.644	373.102
905.145	257.737
909.644	106.672
914.14	55.9028
918.633	107.955
923.124	106.452
927.612	38.0107
932.098	100.767
936.581	210.142
941.061	415.704
945.539	710.2
950.015	1553.78
954.487	3047.84
958.958	5330.52
963.425	6066.28
967.89	4541.93
972.353	2746.06
976.813	1474.35
981.271	901.407
985.726	612.974
990.178	453.1
994.628	397.397
999.075	273.752
1003.52	229.208
1007.96	135.758
1012.4	125.413
1016.84	112.153
1021.27	92.4082
1025.71	105.895
1030.13	100.822
1034.56	101.79
1038.99	62.7942
1043.41	61.825
1047.83	54.8718
1052.24	30.9329
1056.66	77.1497
1061.07	57.5591
1065.48	14.8591
1069.89	52.1282
1074.29	10.4707
1078.69	127.176
1083.09	33.5037
1087.49	14.9592
1091.88	54.9368
1096.28	19.3799
1100.66	37.6768
1105.05	13.5706
1109.43	76.2908
1113.82	34.8799
1118.2	92.3198
1122.57	113.633
1126.95	127.826
1131.32	81.8931
1135.69	110.845
1140.05	115.67
1144.42	100.04
1148.78	111.643
1153.14	204.532
1157.5	129.857
1161.85	207.037
1166.2	196.071
1170.55	169.117
1174.9	147.872
1179.24	123.538
1183.58	161.475
1187.92	142.315
1192.26	48.0564
1196.6	172.393
1200.93	160.819
1205.26	156.602
1209.58	225.56
1213.91	209.91
1218.23	216.093
1222.55	151.251
1226.87	226.164
1231.18	218.223
1235.49	155.114
1239.8	117.159
1244.11	98.866
1248.41	133.275
1252.72	158.115
1257.02	58.8389
1261.32	52.5598
1265.61	123.037
1269.9	22.3628
1274.19	115.846
1278.48	86.2842
1282.77	70.9077
1287.05	57.2546
1291.33	48.5867
1295.61	79.8555
1299.88	22.092
1304.15	142.523
1308.42	17.6731
1312.69	25.7688
1316.96	28.9763
1321.22	46.1406
1325.48	64.5183
1329.74	18.9983
1334	45.6101
1338.25	17.4041
1342.5	0.567871
1346.75	53.501
1351	57.5789
1355.24	2.69556
1359.48	36.7893
1363.72	24.8953
1367.96	47.0745
1372.19	33.2822
1376.42	44.4333
1380.65	83.5913
1384.88	10.7583
1389.11	14.0627
1393.33	33.1775
1397.55	43.7048
1401.76	11.8809
1405.98	59.1113
1410.19	29.5068
1414.4	67.4702
1418.61	75.0818
1422.82	44.4605
1427.02	88.0205
1431.22	22.0776
1435.42	57.0845
1439.61	14.2534
1443.81	117.789
1448	101.18
1452.18	49.5029
1456.37	130.01
1460.56	69.5342
1464.74	72.0371
1468.92	31.644
1473.09	43.2642
1477.27	15.7165
1481.44	24.3179
1485.61	109.77
1489.78	18.648
1493.94	4.96704
1498.1	96.8401
1502.26	44.1782
1506.42	56.5354
1510.58	99.1299
1514.73	34.7004
1518.88	44.2219
1523.03	74.6057
1527.17	16.5691
1531.32	25.2678
1535.46	15.5435
1539.6	0.064453
1543.73	20.4512
1547.87	19.9763
1552	31.898
1556.13	43.2109
1560.26	19.9019
