Measurement: Raman, 514 nm, ccw, Raman Data Processed
Mineral: Forsterite
Rruff sample: R040018
Ideal chemistry: Mg_2_SiO_4_
Locality: Trudy's mine, San Carlos, Gila County, Arizona, USA
Source: Bob Downs
Description: Green fragments from xenoliths in a basalt flow
Measured chemistry: (Mg_1.81_Fe_0.18_Ni_0.01_)_Î£=2_Si_1.00_O_4_; trace amounts of Mn and Ca
Pin_id: M00002
Orientation: Laser parallel to -b* (0 -1 0). Fiducial mark perpendicular to laser is parallel to c [0 0 1]
Raman shift (cm-1)	intensity
49.365	0
53.566	116.092
57.765	266.992
61.962	408.213
66.157	450.76
70.349	406.921
74.54	301.178
78.729	159.36
82.916	31.516
87.101	24.705
91.284	12.148
95.465	22.526
99.644	107.542
103.82	155.459
107.995	169.22
112.168	447.257
116.339	381.143
120.508	269.715
124.675	249.62
128.84	209.897
133.003	158.265
137.164	167.326
141.323	142.014
145.48	174.937
149.635	151.835
153.788	151.572
157.939	158.569
162.088	131.429
166.235	145.703
170.38	97.84
174.523	113.668
178.664	103.591
182.803	91.66
186.94	125.797
191.076	110.03
195.209	71.227
199.34	70.482
203.47	77.755
207.597	93.039
211.722	184.325
215.846	251.875
219.967	456.413
224.087	636.521
228.204	546.192
232.32	434.184
236.434	329.847
240.545	263.988
244.655	178.74
248.763	106.908
252.869	48.281
256.973	18.883
261.075	22.965
265.175	28.18
269.273	8.817
273.369	0.732
277.463	2.418
281.556	38.08
285.646	49.476
289.734	77.973
293.821	103.58
297.905	275.864
301.988	511.37
306.069	513.994
310.147	334.665
314.224	380.524
318.299	388.961
322.372	440.803
326.443	690.918
330.512	733.976
334.579	629.718
338.645	630.237
342.708	452.734
346.769	233.07
350.829	83.792
354.887	76.302
358.942	93.596
362.996	146.737
367.048	279.056
371.098	493.47
375.146	351.372
379.192	173.286
383.236	59.122
387.279	12.935
391.319	7.509
395.358	2.071
399.394	23.564
403.429	74.015
407.462	228.441
411.493	186.831
415.522	100.939
419.549	93.972
423.575	141.842
427.598	243.748
431.619	321.572
435.639	238.4
439.657	132.275
443.673	62.25
447.687	11.424
451.699	1.425
455.709	6.022
459.717	11.761
463.724	25.357
467.728	16.634
471.731	18.279
475.732	15.865
479.731	24.509
483.728	11.687
487.723	3.094
491.716	7.098
495.708	11.177
499.697	18.935
503.685	15.753
507.671	21.549
511.655	50.813
515.637	100.892
519.617	101.724
523.596	153.635
527.572	156.447
531.547	183.269
535.52	397.719
539.491	800.347
543.46	1439.46
547.427	1023.53
551.393	472.873
555.356	276.948
559.318	174.022
563.278	149.189
567.236	153.446
571.192	210.624
575.147	288.728
579.099	398.757
583.05	647.715
586.999	1062.6
590.946	1465.42
594.891	1042.16
598.834	539.833
602.776	431.435
606.715	420.67
610.653	378.641
614.589	249.779
618.523	196.909
622.456	137.765
626.386	122.771
630.315	78.548
634.242	103.411
638.167	33.014
642.09	42.902
646.012	49.163
649.931	7.224
653.849	3.041
657.765	6.809
661.679	8.218
665.592	7.219
669.502	42.836
673.411	7.074
677.318	3.118
681.223	39.585
685.126	19.824
689.028	26.579
692.927	37.152
696.825	29.96
700.721	0.967
704.616	51.893
708.508	32.76
712.399	15.591
716.288	24.398
720.175	79.182
724.06	47.941
727.944	73.677
731.825	78.397
735.705	74.105
739.584	127.799
743.46	109.482
747.334	116.163
751.207	118.841
755.078	125.512
758.947	187.199
762.815	233.885
766.68	281.584
770.544	281.316
774.406	289.127
778.267	354.001
782.125	424.938
785.982	493.9
789.837	542.896
793.69	645.274
797.542	835.303
801.391	1101.49
805.239	1556.69
809.085	2238.19
812.93	3610.58
816.772	6642.34
820.613	14346.2
824.452	23049.7
828.29	17168.3
832.125	9287.67
835.959	6039.06
839.791	5151.31
843.621	5391.85
847.45	7144.34
851.277	12079
855.102	19938.3
858.925	19929.9
862.746	11670.7
866.566	6451.9
870.384	3779.08
874.2	2381.33
878.015	1737.66
881.828	1558.32
885.639	1303.88
889.448	959.886
893.256	713.561
897.061	621.535
900.865	556.31
904.668	666.311
908.468	820.749
912.267	1256.86
916.064	2614.06
919.86	5207.62
923.653	3250.85
927.445	1289.86
931.236	745.593
935.024	689.23
938.811	675.933
942.596	744.247
946.379	896.123
950.161	1187.6
953.94	1824.33
957.719	2554.47
961.495	3009.07
965.27	2737.65
969.043	1887.02
972.814	1192.58
976.583	737.056
980.351	370.719
984.117	232.255
987.882	142.209
991.644	95.399
995.405	22.749
999.165	18.239
1002.92	65.848
1006.68	66.569
1010.43	4.376
1014.18	5.725
1017.93	17.238
1021.68	32.281
1025.43	40.402
1029.18	71.77
1032.92	65.423
1036.66	15.283
1040.4	15.081
1044.14	8.33
1047.88	24.772
1051.62	44.748
1055.35	54.337
1059.08	11.133
1062.81	19.769
1066.54	16.549
1070.27	15.852
1073.99	17.145
1077.72	23.569
1081.44	24.294
1085.16	31.065
1088.88	29.118
1092.59	10.69
1096.31	6.475
1100.02	32.353
1103.73	26.141
1107.44	39.902
1111.15	62.672
1114.86	44.437
1118.57	19.596
1122.27	9.537
1125.97	28.517
1129.67	59.229
1133.37	94.223
1137.07	65.638
1140.76	52.535
1144.45	39.275
1148.15	24.056
1151.84	42.031
1155.53	95.229
1159.21	75.715
1162.9	110.663
1166.58	82.694
1170.26	82.58
1173.94	11.448
1177.62	9.796
1181.3	60.715
1184.97	60.785
1188.65	105.707
1192.32	79.145
1195.99	70.144
1199.66	52.657
1203.33	19.899
1206.99	62.847
1210.65	88.748
1214.32	89.184
1217.98	103.279
1221.64	136.004
1225.29	183.303
1228.95	99.41
1232.6	88.496
1236.26	105.104
1239.91	107.913
1243.56	130.237
1247.2	121.744
1250.85	101.656
1254.49	83.205
1258.13	84.341
1261.78	69.741
1265.41	44.214
1269.05	14.828
1272.69	58.27
1276.32	58.798
1279.95	103.411
1283.59	96.093
1287.21	49.229
1290.84	72.13
1294.47	50.875
1298.09	11.598
1301.72	6.198
1305.34	20.667
1308.96	25
1312.58	110.221
1316.19	133.358
1319.81	107.232
1323.42	122.805
1327.03	81.715
1330.64	39.449
1334.25	4.745
1337.86	14.669
1341.46	76.089
1345.07	74.496
1348.67	69.665
1352.27	77.03
1355.87	91.746
1359.46	69.989
1363.06	91.088
1366.65	41.141
1370.25	13.346
1373.84	51.716
1377.43	77.222
1381.02	98.015
1384.6	130.041
1388.18	160.419
1391.77	155.827
1395.35	91.727
1398.93	91.541
1402.51	33.837
1406.08	80.802
1409.66	59.909
1413.23	49.827
1416.8	133.145
1420.37	145.73
1423.94	155.007
1427.51	129.897
1431.08	128.11
1434.64	80.248
1438.2	50.953
1441.76	63.358
1445.32	72.818
1448.88	76.431
1452.43	120.487
1455.99	106.538
1459.54	178.159
1463.09	209.638
1466.64	186.406
1470.19	146.18
1473.74	122.47
1477.28	55.072
1480.83	103.38
1484.37	107.566
1487.91	31.1
1491.45	95.184
1494.98	80.144
1498.52	76.062
1502.05	130.414
1505.59	137.599
1509.12	170.109
1512.65	107.854
1516.17	134.52
1519.7	23.603
1523.23	0.313
