Measurement: Raman, 514 nm, ccw, Raman Data Processed
Mineral: Gahnite
Rruff sample: R040027
Ideal chemistry: ZnAl_2_O_4_
Locality: Rowe, Franklin County, Massachusetts, USA
Source: University of Arizona Mineral Museum
Description: Dark blue octahedral single crystals embedded in quartz matrix
Measured chemistry: (Zn_0.83_Fe_0.11_Mg_0.06_)_Σ=1_(Al_0.96_Fe_0.04_)_Σ=2_O_4_
Pin_id: L00146
Orientation: Laser parallel to -c* (0 0 -1). Fiducial mark perpendicular to laser is parallel to -a [-1 0 0]
Raman shift (cm-1)	intensity
277.784	0
281.885	105.373
285.983	39.257
290.08	123.367
294.174	2.284
298.267	160.393
302.357	42.208
306.446	51.565
310.532	3.364
314.617	10.561
318.699	76.111
322.78	50.926
326.858	125.954
330.934	18.162
335.009	103.546
339.081	63.115
343.152	122.813
347.22	142.621
351.286	210.131
355.351	241.399
359.413	225.679
363.473	266.983
367.532	243.317
371.588	299.69
375.643	279.119
379.695	209.607
383.745	276.157
387.794	455.771
391.84	691.057
395.884	946.776
399.927	1393.56
403.967	2083.41
408.006	3924.34
412.042	10984.1
416.077	16542
420.109	5205.05
424.14	1700.99
428.168	976.305
432.195	615.854
436.22	461.501
440.242	362.207
444.263	293.992
448.282	206.776
452.298	95.823
456.313	37.438
460.326	21.539
464.337	160.706
468.346	175.934
472.353	226.22
476.358	309.562
480.361	154.96
484.362	113.409
488.361	177.91
492.358	204.458
496.353	105.051
500.346	14.313
504.337	2.637
508.327	103.081
512.314	105.844
516.3	111.652
520.283	189.505
524.265	176.401
528.244	262.341
532.222	178.324
536.198	51.072
540.171	19.252
544.143	1.812
548.113	78.875
552.081	39.965
556.047	190.061
560.011	301.137
563.974	397.248
567.934	545.396
571.892	414.588
575.849	390.828
579.803	425.119
583.756	549.995
587.706	503.845
591.655	622.277
595.602	729.762
599.547	968.312
603.49	1018.91
607.431	1125.58
611.37	1501.28
615.307	2280.03
619.243	3021.83
623.176	3309.69
627.108	3318.62
631.037	2606.6
634.965	1875.62
638.891	1454.7
642.815	1354.69
646.737	1375.49
650.657	1544.71
654.575	1963.95
658.491	1876.21
662.406	1018.49
666.318	328.776
670.229	124.079
674.138	14.393
678.045	27.314
681.95	26.915
685.853	131.766
689.754	290.197
693.653	651.404
697.551	1049.62
701.446	1367.4
705.34	1369.2
709.232	1349.46
713.122	995.813
717.01	730.758
720.896	578.263
724.78	452.273
728.663	528.99
732.543	603.622
736.422	733.4
740.299	834.031
744.174	1061.6
748.047	1453.37
751.918	1994.28
755.787	2211.67
759.655	2047.25
763.52	1663.22
767.384	1356.78
771.246	1218.94
775.106	1037.8
778.964	905.054
782.821	725.642
786.675	663.037
790.528	535.268
794.379	510.081
798.228	478.729
802.075	414.401
805.92	348.01
809.764	314.658
813.605	512.162
817.445	238.204
821.283	184.115
825.119	136.126
828.953	108.354
832.785	171.256
836.616	125.149
840.445	126.304
844.272	124.194
848.097	75.885
851.92	28.616
855.741	39.014
859.561	62.31
863.378	11.525
867.194	30.603
871.008	17.339
874.821	27.483
878.631	28.595
882.44	12.291
886.247	57.738
890.052	23.077
893.855	9.701
897.656	83.616
901.456	9.722
905.253	15.926
909.049	6.331
912.843	37.138
916.636	16.568
920.426	15.902
924.215	16.274
928.002	24.488
931.787	58.193
935.57	43.834
939.352	77.312
943.131	48.681
946.909	97.049
950.685	81.209
954.46	97.291
958.232	128.534
962.003	86.401
965.772	95.336
969.539	64.455
973.304	30.977
977.068	101.464
980.83	55.684
984.589	31.901
988.348	81.019
992.104	129.377
995.859	143.236
999.612	95.746
1003.36	103.569
1007.11	82.93
1010.86	45.937
1014.61	37.315
1018.35	154.182
1022.09	171.468
1025.83	120.543
1029.57	113.81
1033.31	121.191
1037.04	106.388
1040.78	118.569
1044.51	111.3
1048.24	94.537
1051.96	100.919
1055.69	70.573
1059.42	80.028
1063.14	62.657
1066.86	76.831
1070.58	97.806
1074.3	190.838
1078.01	95.588
1081.73	65.939
1085.44	71.842
1089.15	85.837
1092.86	124.861
1096.56	59.817
1100.27	93.325
1103.97	102.848
1107.67	70.184
1111.38	71.738
1115.07	90.793
1118.77	14.888
1122.46	98.12
1126.16	34.312
1129.85	81.442
1133.54	57.497
1137.23	111.52
1140.91	17.395
1144.6	14.147
1148.28	44.795
1151.96	38.677
1155.64	6.403
1159.32	17.238
1162.99	5.81
1166.67	40.646
1170.34	42.846
1174.01	68.489
1177.68	38.643
1181.35	57.778
1185.01	107.435
1188.67	132.183
1192.34	58.476
1196	101.068
1199.65	91.451
1203.31	86.393
1206.97	59.976
1210.62	34.216
1214.27	17.332
1217.92	59.536
1221.57	9.019
1225.22	33.23
1228.86	120.059
1232.5	55.497
1236.14	61.57
1239.79	21.054
1243.42	52.751
1247.06	154.398
1250.69	147.784
1254.33	149.315
1257.96	145.694
1261.59	171.139
1265.21	110.491
1268.84	152.441
1272.47	136.856
1276.09	90.763
1279.71	56.646
1283.33	32.336
1286.95	37.082
1290.56	14.906
1294.18	31.022
1297.79	29.422
1301.4	35.737
1305.01	2.567
1308.62	38.962
1312.22	48.706
1315.83	3.52
1319.43	60.356
1323.03	35.225
1326.63	43.847
1330.23	57.372
1333.82	36.938
1337.42	49.311
1341.01	62.56
1344.6	57.175
1348.19	12.379
1351.78	5.088
1355.36	53.17
1358.95	62.304
1362.53	86.175
1366.11	67.344
1369.69	62.93
1373.27	95.863
1376.84	66.562
1380.42	137.118
1383.99	108.431
1387.56	124.127
1391.13	118.125
1394.7	110.304
1398.26	73.635
1401.83	103.847
1405.39	120.524
1408.95	110.926
1412.51	104.121
1416.07	107.887
1419.62	79.37
1423.18	79.867
1426.73	74.418
1430.28	26.744
1433.83	3.32
1437.38	49.589
1440.93	39.169
1444.47	85.179
1448.02	2.454
1451.56	24.877
1455.1	81.185
1458.63	88.503
1462.17	59.734
1465.7	15.896
1469.24	71.124
1472.77	30.48
1476.3	40.474
1479.83	44.138
1483.35	24.589
1486.88	78.783
1490.4	44.956
1493.92	59.134
1497.44	1.072
1500.96	17.573
1504.48	52.52
1507.99	2.626
1511.51	6.694
1515.02	24.556
1518.53	0.385
