Measurement: Raman, 514 nm, ccw, Raman Data Processed
Mineral: Gahnite
Rruff sample: R040027
Ideal chemistry: ZnAl_2_O_4_
Locality: Rowe, Franklin County, Massachusetts, USA
Source: University of Arizona Mineral Museum
Description: Dark blue octahedral single crystals embedded in quartz matrix
Measured chemistry: (Zn_0.83_Fe_0.11_Mg_0.06_)_Σ=1_(Al_0.96_Fe_0.04_)_Σ=2_O_4_
Pin_id: L00146
Orientation: Laser parallel to -c* (0 0 -1). Fiducial mark perpendicular to laser is parallel to -a [-1 0 0]
Raman shift (cm-1)	intensity
270.945	0
275.049	17.75
279.151	104.794
283.251	155.268
287.349	94.444
291.445	105.653
295.539	53.148
299.631	133.495
303.72	77.779
307.808	5.326
311.894	35.217
315.978	42.863
320.06	81.227
324.139	60.406
328.217	34.824
332.293	131.852
336.367	68.784
340.438	28.643
344.508	54.465
348.576	94.301
352.641	74.177
356.705	27.091
360.767	60.352
364.826	109.121
368.884	122.602
372.94	14.906
376.994	43.412
381.045	15.103
385.095	19.672
389.143	60.297
393.188	99.976
397.232	257.683
401.274	418.329
405.314	634.03
409.352	1632.93
413.387	4628.78
417.421	4248.06
421.453	985.405
425.483	338.983
429.511	110.594
433.537	130.218
437.561	143.843
441.583	160.472
445.603	58.104
449.621	16.282
453.637	21.75
457.651	66.22
461.663	32.713
465.673	48.798
469.682	70.288
473.688	92.667
477.692	129.089
481.694	80.884
485.695	160.104
489.693	249.668
493.69	254.286
497.684	62.956
501.677	165.681
505.667	376.458
509.656	451.186
513.643	289.881
517.628	234.175
521.611	244.668
525.591	316.887
529.57	177.842
533.547	119.868
537.523	34.962
541.496	13.873
545.467	6.362
549.436	81.668
553.404	139.964
557.369	224.493
561.332	372.011
565.294	450.594
569.254	565.24
573.211	569.951
577.167	411.727
581.121	436.575
585.073	593.506
589.023	635.52
592.971	751.315
596.917	844.365
600.861	937.782
604.804	993.731
608.744	1256.77
612.683	1885.32
616.619	2688.99
620.554	3198.77
624.487	3646.68
628.418	3588.69
632.347	2751.81
636.274	2135.04
640.199	2012.38
644.122	2312.8
648.044	3255.31
651.963	5951.91
655.881	9707.59
659.796	9183.35
663.71	4157.2
667.622	1796.16
671.532	907.197
675.44	482.304
679.347	279.474
683.251	270.602
687.153	337.881
691.054	439.228
694.953	661.635
698.849	893.094
702.744	1164.6
706.637	1177.16
710.529	1026.77
714.418	713.419
718.305	501.458
722.191	428.889
726.075	399.074
729.956	362.079
733.836	458.115
737.714	587.126
741.591	799.6
745.465	1069.21
749.337	1636.95
753.208	2028.13
757.077	2208.77
760.944	1888.47
764.809	1557.4
768.672	1231.97
772.533	1066.03
776.392	908.226
780.25	768.49
784.106	567.544
787.96	491.692
791.812	444.875
795.662	373.41
799.51	304.448
803.357	281.441
807.201	220.742
811.044	126.186
814.885	167.295
818.724	115.389
822.562	150.512
826.397	20.366
830.231	81.059
834.062	43.706
837.892	57.884
841.72	30.822
845.547	38.292
849.371	65.989
853.194	29.051
857.015	13.326
860.834	12.484
864.651	4.404
868.466	1.406
872.279	31.515
876.091	19.657
879.901	41.018
883.709	0.542
887.515	3.171
891.32	31.907
895.122	16.773
898.923	4.188
902.722	18.996
906.519	30.31
910.314	68.81
914.108	45.39
917.899	60.77
921.689	0.195
925.477	17.706
929.264	83.552
933.048	15.63
936.831	61.887
940.612	44.3
944.391	29.877
948.168	39.803
951.944	78.997
955.717	26.184
959.489	82.72
963.259	73.602
967.028	75.304
970.794	104.848
974.559	118.001
978.322	92.617
982.083	89.952
985.842	121.279
989.6	145.346
993.356	85.875
997.11	162.974
1000.86	140.892
1004.61	98.916
1008.36	64.175
1012.11	165.154
1015.85	134.455
1019.6	100.232
1023.34	67.987
1027.08	69.782
1030.82	118.711
1034.55	70.599
1038.29	104.771
1042.02	112.643
1045.75	124.391
1049.48	106.301
1053.21	122.01
1056.93	98.904
1060.66	109.285
1064.38	151.306
1068.1	129.407
1071.82	140.259
1075.54	124.301
1079.25	107.059
1082.96	92.379
1086.67	62.136
1090.38	60.43
1094.09	98.01
1097.8	91.583
1101.5	105.009
1105.21	121.944
1108.91	112.649
1112.61	43.87
1116.31	23.02
1120	71.099
1123.7	63.111
1127.39	91.064
1131.08	60.959
1134.77	46.803
1138.45	23.575
1142.14	51.21
1145.82	106.927
1149.51	10.643
1153.19	61.475
1156.87	19.307
1160.54	20.25
1164.22	42.74
1167.89	39.315
1171.56	6.138
1175.23	46.414
1178.9	58.579
1182.57	54.258
1186.23	93.923
1189.89	125.453
1193.56	146.884
1197.22	93.883
1200.87	75.038
1204.53	77.406
1208.18	14.516
1211.84	53.423
1215.49	49.619
1219.14	30.804
1222.79	37.217
1226.43	17.629
1230.08	78.427
1233.72	100.621
1237.36	113.836
1241	102.486
1244.63	165.996
1248.27	117.339
1251.9	125.813
1255.54	136.202
1259.17	159.539
1262.8	107.486
1266.42	146.222
1270.05	162.256
1273.67	155.282
1277.3	66.069
1280.92	78.885
1284.54	27.925
1288.15	65.322
1291.77	38.037
1295.38	40.462
1298.99	45.072
1302.6	67.285
1306.21	45.982
1309.82	29.63
1313.42	23.343
1317.03	26.86
1320.63	59.306
1324.23	0.963
1327.83	71.637
1331.43	42.806
1335.02	55.023
1338.62	24.164
1342.21	45.624
1345.8	40.752
1349.39	30.699
1352.97	27.749
1356.56	68.879
1360.14	69.009
1363.72	63.157
1367.31	72.024
1370.88	103.792
1374.46	91.272
1378.04	110.721
1381.61	107.971
1385.18	121.581
1388.75	118.808
1392.32	137.458
1395.89	66.916
1399.45	122.856
1403.02	140.997
1406.58	128.277
1410.14	140.059
1413.7	181.77
1417.26	194.347
1420.81	161.651
1424.36	104.726
1427.92	99.329
1431.47	25.417
1435.02	94.56
1438.56	95.456
1442.11	79.339
1445.65	45.427
1449.19	12.473
1452.74	20.466
1456.28	75.43
1459.81	129.406
1463.35	37.418
1466.88	19.34
1470.41	86.171
1473.95	81.949
1477.48	81.721
1481	1.89
1484.53	32.584
1488.05	1.651
1491.58	15.715
1495.1	42.705
1498.62	72.506
1502.13	16.694
1505.65	6.789
1509.17	26.768
1512.68	25.979
1516.19	25.039
1519.7	14.16
1523.21	2.062
