Measurement: Raman, 514 nm, ccw, Raman Data Processed
Mineral: Gahnite
Rruff sample: R040027
Ideal chemistry: ZnAl_2_O_4_
Locality: Rowe, Franklin County, Massachusetts, USA
Source: University of Arizona Mineral Museum
Description: Dark blue octahedral single crystals embedded in quartz matrix
Measured chemistry: (Zn_0.83_Fe_0.11_Mg_0.06_)_Σ=1_(Al_0.96_Fe_0.04_)_Σ=2_O_4_
Pin_id: L00146
Orientation: Laser parallel to -c* (0 0 -1). Fiducial mark perpendicular to laser is parallel to -a [-1 0 0]
Raman shift (cm-1)	intensity
270.945	0
275.049	112.114
279.151	115.192
283.251	151.419
287.349	120.582
291.445	148.682
295.539	51.169
299.631	106.682
303.72	116.012
307.808	75.023
311.894	74.607
315.978	147.624
320.06	72.991
324.139	159.659
328.217	98.595
332.293	115.915
336.367	147.451
340.438	90.24
344.508	156.398
348.576	198.559
352.641	225.734
356.705	292.962
360.767	277.264
364.826	295.65
368.884	331.127
372.94	298.697
376.994	231.363
381.045	306.123
385.095	413.977
389.143	524.156
393.188	722.117
397.232	1154.17
401.274	1603.32
405.314	2220.7
409.352	5235.71
413.387	14683
417.421	15157.9
421.453	3911.8
425.483	1480.14
429.511	789.735
433.537	680.525
437.561	525.478
441.583	420.569
445.603	343.784
449.621	275.107
453.637	62.531
457.651	97.045
461.663	65.644
465.673	154.322
469.682	249.075
473.688	409.901
477.692	246.794
481.694	142.752
485.695	163.772
489.693	145.849
493.69	220.982
497.684	18.171
501.677	20.588
505.667	15.691
509.656	45.018
513.643	151.399
517.628	178.834
521.611	202.321
525.591	216.858
529.57	219.444
533.547	83.007
537.523	11.401
541.496	1.169
545.467	11.461
549.436	19.737
553.404	83.985
557.369	227.711
561.332	315.477
565.294	351.307
569.254	460.201
573.211	394.154
577.167	388.162
581.121	388.021
585.073	487.344
589.023	570.513
592.971	733.739
596.917	746.041
600.861	847.397
604.804	914.813
608.744	1217.29
612.683	1736.85
616.619	2460.46
620.554	3110.2
624.487	3472.86
628.418	3393.64
632.347	2424.46
636.274	1705.33
640.199	1300.23
644.122	1459.16
648.044	1418.3
651.963	1633.29
655.881	1855.31
659.796	1571.34
663.71	695.399
667.622	209.473
671.532	37.565
675.44	6.341
679.347	56.389
683.251	34.76
687.153	175.178
691.054	378.437
694.953	687.447
698.849	1122.46
702.744	1417.48
706.637	1503.89
710.529	1341.28
714.418	926.631
718.305	633.296
722.191	527.461
726.075	565.25
729.956	564.531
733.836	577.085
737.714	763.496
741.591	892.136
745.465	1154.95
749.337	1712.04
753.208	2102.46
757.077	2241.41
760.944	1950.12
764.809	1651.14
768.672	1368.2
772.533	1148.55
776.392	996.631
780.25	958.683
784.106	701.985
787.96	576.612
791.812	489.665
795.662	449.369
799.51	375.069
803.357	390.605
807.201	310.293
811.044	229.658
814.885	234.53
818.724	147.702
822.562	140.256
826.397	126.285
830.231	70.747
834.062	106.235
837.892	81.715
841.72	18.272
845.547	27.805
849.371	30.188
853.194	27.483
857.015	59.687
860.834	23.79
864.651	37.934
868.466	34.166
872.279	28.306
876.091	10.323
879.901	55.175
883.709	65.539
887.515	39.085
891.32	11.041
895.122	1.879
898.923	14.351
902.722	26.262
906.519	34.749
910.314	11.093
914.108	13.315
917.899	17.575
921.689	8.568
925.477	51.487
929.264	62.231
933.048	16.862
936.831	61.385
940.612	55.067
944.391	43.581
948.168	14.783
951.944	37.929
955.717	85.292
959.489	100.577
963.259	121.524
967.028	113.268
970.794	68.097
974.559	97.631
978.322	60.954
982.083	78.267
985.842	110.258
989.6	122.368
993.356	106.02
997.11	136.801
1000.86	103.983
1004.61	53.283
1008.36	76.48
1012.11	96.25
1015.85	131.616
1019.6	119.215
1023.34	115.221
1027.08	114.381
1030.82	96.988
1034.55	86.735
1038.29	103.458
1042.02	92.108
1045.75	126.1
1049.48	32.348
1053.21	64.586
1056.93	52.267
1060.66	79.851
1064.38	93.856
1068.1	77.837
1071.82	61.978
1075.54	106.327
1079.25	94.948
1082.96	53.051
1086.67	52.417
1090.38	22.153
1094.09	57.26
1097.8	81.023
1101.5	21.871
1105.21	78.313
1108.91	57.901
1112.61	34.369
1116.31	53.828
1120	43.221
1123.7	32.896
1127.39	51.801
1131.08	39.997
1134.77	63.993
1138.45	20.98
1142.14	6.018
1145.82	71.636
1149.51	20.405
1153.19	56.467
1156.87	7.795
1160.54	17.258
1164.22	90.909
1167.89	16.96
1171.56	50.502
1175.23	74.06
1178.9	79.161
1182.57	90.971
1186.23	116.676
1189.89	136.208
1193.56	53.844
1197.22	63.559
1200.87	100.444
1204.53	42.907
1208.18	27.957
1211.84	74.263
1215.49	80.441
1219.14	74.313
1222.79	33.245
1226.43	55.081
1230.08	85.977
1233.72	58.524
1237.36	80.262
1241	88.884
1244.63	95.337
1248.27	105.628
1251.9	190.924
1255.54	136.955
1259.17	162.224
1262.8	138.297
1266.42	121.52
1270.05	160.484
1273.67	152.446
1277.3	139.462
1280.92	108.636
1284.54	53.218
1288.15	49.258
1291.77	71.4
1295.38	69.908
1298.99	30.24
1302.6	26.553
1306.21	22.181
1309.82	1.711
1313.42	22.927
1317.03	83.403
1320.63	18.643
1324.23	0.302
1327.83	2.605
1331.43	70.44
1335.02	108.292
1338.62	41.771
1342.21	33.524
1345.8	37.447
1349.39	15.435
1352.97	43.316
1356.56	38.904
1360.14	101.405
1363.72	136.746
1367.31	88.878
1370.88	77.819
1374.46	133.559
1378.04	114.075
1381.61	119.189
1385.18	140.038
1388.75	129.625
1392.32	181.922
1395.89	153.98
1399.45	146.7
1403.02	173.548
1406.58	173.276
1410.14	154.975
1413.7	163.894
1417.26	148.354
1420.81	143.096
1424.36	112.842
1427.92	91.002
1431.47	58.369
1435.02	36.397
1438.56	37.521
1442.11	37.484
1445.65	60.012
1449.19	65.455
1452.74	75.86
1456.28	73.18
1459.81	26.457
1463.35	49.747
1466.88	21.952
1470.41	50.982
1473.95	62.169
1477.48	19.436
1481	28.557
1484.53	79.38
1488.05	23.428
1491.58	6.511
1495.1	7.893
1498.62	35.528
1502.13	4.663
1505.65	17.544
1509.17	62.714
1512.68	37.224
1516.19	17.975
1519.7	57.829
1523.21	37.455
