Measurement: Raman, 514.5, ccw, Raman Data Processed
Mineral: Galuskinite
Rruff sample: R130076
Ideal chemistry: Ca_7_(SiO_4_)_3_(CO_3_)
Locality: Birkhin gabbro massif, Eastern Siberia, Russia
Source: Thomas Ambruster
Description: Thin veins cutting calcio-olivine skarn (image). Colourless, white, pale grey. Associated with pavlovskyite. Data from Lazic et al (2011)
Measured chemistry: (Ca_6.936_Na_0.086_)_Σ=7.022_(Si_2.983_P_0.018_S_0.004_)_Σ=3.005_O_12_(CO_3_)
Raman shift (cm-1)	intensity
99.7014	0
103.683	27.3098
107.665	28.5745
111.646	13.377
115.628	29.0948
119.61	57.5067
123.591	111.939
127.573	35.0081
131.555	9.35117
135.536	8.66157
139.518	21.5873
143.5	31.5843
147.481	11.3766
151.463	33.8588
155.445	106.881
159.426	140.783
163.408	177.226
167.39	100.121
171.371	77.2587
175.353	85.9457
179.335	56.5712
183.316	80.4236
187.298	80.7797
191.28	31.656
195.261	21.0069
199.243	26.7039
203.225	31.3393
207.206	86.8659
211.188	105.929
215.17	113.404
219.151	141.103
223.133	120.269
227.115	41.24
231.096	12.5268
235.078	16.9288
239.06	16.1011
243.041	14.4334
247.023	57.3188
251.005	94.9797
254.986	94.5125
258.968	114.755
262.95	141.079
266.931	144.316
270.913	81.2264
274.895	34.8504
278.876	33.2204
282.858	18.1674
286.84	28.644
290.821	17.7323
294.803	12.9654
298.785	7.9399
302.766	13.3371
306.748	5.52354
310.73	2.9928
314.711	8.6537
318.693	15.6886
322.675	0.21283
326.656	6.82932
330.638	10.0819
334.62	0.866592
338.601	0.501526
342.583	1.17416
346.565	1.7292
350.546	5.72907
354.528	24.5017
358.51	21.8501
362.491	30.2573
366.473	33.7716
370.454	42.3589
374.436	45.1274
378.418	35.5515
382.399	43.1996
386.381	69.4243
390.363	133.948
394.344	160.628
398.326	157.576
402.308	123.644
406.289	83.2957
410.271	55.211
414.253	27.0178
418.235	21.681
422.216	31.6469
426.198	27.949
430.18	33.9945
434.161	33.1526
438.143	67.5616
442.125	73.5499
446.106	39.5206
450.088	20.8277
454.07	6.66139
458.051	1.5872
462.033	0.865738
466.014	3.60017
469.996	2.44367
473.978	1.38219
477.959	1.67545
481.941	9.97371
485.923	4.88474
489.904	0.253479
493.886	7.39726
497.868	18.727
501.849	28.1104
505.831	35.1806
509.813	18.57
513.794	15.2713
517.776	13.8658
521.758	31.2543
525.739	38.0673
529.721	42.9955
533.703	51.6034
537.684	73.0936
541.666	78.612
545.648	65.9712
549.629	78.7296
553.611	99.0499
557.593	109.032
561.574	104.308
565.556	80.5586
569.538	69.0896
573.519	51.2461
577.501	27.9069
581.483	8.83606
585.464	7.32902
589.446	5.25665
593.428	9.60347
597.409	5.86687
601.391	3.32056
605.373	3.20578
609.354	3.23705
613.336	1.31781
617.318	3.24443
621.299	4.58841
625.281	7.60918
629.263	4.15721
633.244	7.13594
637.226	9.50198
641.208	14.6016
645.189	17.0873
649.171	25.0614
653.153	37.6193
657.134	51.4764
661.116	85.8752
665.098	154.018
669.079	151.896
673.061	76.3932
677.043	39.9798
681.024	26.7396
685.006	15.6258
688.988	14.6125
692.969	9.29466
696.951	16.359
700.933	75.8448
704.914	135.916
708.896	52.255
712.878	22.8169
716.859	10.7742
720.841	2.69792
724.823	0.990463
728.804	13.2398
732.786	6.91405
736.768	7.2567
740.749	11.9688
744.731	1.36821
748.713	8.17606
752.694	10.7655
756.676	3.86557
760.658	9.58939
764.639	13.3517
768.621	3.79863
772.602	5.20381
776.584	10.0028
780.566	9.18013
784.548	11.9317
788.529	9.12505
792.511	7.28021
796.492	14.2592
800.474	19.2307
804.456	34.5705
808.438	69.3547
812.419	201.193
816.401	378.418
820.383	208.887
824.364	89.683
828.346	79.5417
832.327	94.5225
836.309	173.361
840.291	535.855
844.273	1045.54
848.254	1020.29
852.236	1308.72
856.217	1070.29
860.199	907.762
864.181	1518.53
868.163	372.309
872.144	98.8277
876.126	50.5662
880.107	46.1083
884.089	59.0335
888.071	28.5281
892.053	19.7249
896.034	16.3946
900.016	38.3101
903.997	14.9479
907.979	0.886719
911.961	0.83844
915.942	43.9847
919.924	96.2695
923.906	77.5795
927.887	21.5006
931.869	8.48996
935.851	4.97281
939.832	3.47308
943.814	14.388
947.796	6.9845
951.777	35.4017
955.759	13.3305
959.741	2.22226
963.722	32.232
967.704	111.081
971.686	185.612
975.667	124.066
979.649	49.7484
983.631	38.2363
987.612	64.9319
991.594	79.8217
995.576	31.0322
999.557	0.056793
1003.54	7.81537
1007.52	10.7822
1011.5	14.226
1015.48	2.75256
1019.47	2.3912
1023.45	1.46115
1027.43	3.26834
1031.41	5.1048
1035.39	6.11627
1039.37	1.1727
1043.36	11.0834
1047.34	0.437866
1051.32	4.4404
1055.3	19.4104
1059.28	33.3716
1063.26	27.7249
1067.25	27.4005
1071.23	78.0789
1075.21	443.647
1079.19	2023.7
1083.17	540.27
1087.15	115.987
1091.14	48.2537
1095.12	29.9282
1099.1	24.8859
1103.08	17.3237
1107.06	20.0875
1111.04	24.1959
1115.03	18.6751
1119.01	15.7975
1122.99	17.2815
1126.97	10.611
1130.95	10.6864
1134.93	12.0096
1138.92	17.0854
1142.9	10.6473
1146.88	0.929535
1150.86	2.02695
1154.84	6.32251
1158.82	5.63251
1162.81	12.9294
1166.79	10.3975
1170.77	0.1539
1174.75	14.0162
1178.73	14.4868
1182.71	5.86334
1186.69	5.91141
1190.68	5.22287
1194.66	8.80566
1198.64	4.68832
1202.62	9.13644
1206.6	5.47372
1210.59	6.39304
1214.57	6.98654
1218.55	3.43329
1222.53	5.69162
1226.51	0.664734
1230.49	5.93872
1234.47	12.5825
1238.46	9.68286
1242.44	8.92487
1246.42	7.6922
1250.4	10.3362
1254.38	6.4061
1258.37	12.7855
1262.35	9.28677
1266.33	19.9784
1270.31	23.3978
1274.29	22.9993
1278.27	16.2567
1282.26	11.9675
1286.24	9.95126
1290.22	16.2556
1294.2	19.8679
1298.18	18.4626
1302.16	29.3716
1306.14	30.6814
1310.13	21.8452
1314.11	19.776
1318.09	21.3027
1322.07	31.0695
1326.05	27.818
1330.04	8.83896
1334.02	9.01498
1338	20.1591
1341.98	30.0016
1345.96	30.734
1349.94	29.0389
1353.92	30.1707
1357.91	22.1956
1361.89	23.8062
1365.87	30.4042
1369.85	28.8666
1373.83	34.9201
1377.82	31.055
1381.8	32.1782
1385.78	32.4665
1389.76	36.8281
1393.74	31.5893
1397.72	29.3394
1401.7	19.9094
1405.69	19.868
1409.67	22.5
1413.65	23.5693
1417.63	17.9748
1421.61	21.0135
1425.6	18.5756
1429.58	15.3081
1433.56	11.7685
1437.54	10.8644
1441.52	15.8707
1445.5	13.6449
1449.48	7.31815
1453.47	11.3443
1457.45	9.86597
1461.43	4.79852
1465.41	10.3941
1469.39	8.65952
1473.38	12.9886
1477.36	2.42606
1481.34	6.06998
1485.32	15.2138
1489.3	8.12521
1493.28	3.48523
1497.27	16.8108
