Measurement: Raman, 514 nm, ccw, Raman Data Processed
Mineral: Gaspeite
Rruff sample: R040157
Ideal chemistry: NiCO_3_
Locality: Lemieux Township, Gaspe Nord County, Gaspe Peninsula, Quebec, Canada
Source: University of Arizona Mineral Museum
Description: Green massive
Measured chemistry: (Ni_0.54_Mg_0.31_Fe_0.15_Ca_0.01_Co_0.01_)C_1.00_O_3_; = the gray bands. Light grey bands are also gaspeite: (Ni_0.57_Mg_0.41_Fe_0.08_)C_0.97_O_3_; Dark grey bands, magnesite: (Mg_0.98_Fe_0.04_Ni_0.03_)C_0.97_O_3_
Pin_id: M00309
Raman shift (cm-1)	intensity
85.706	0
89.89	179.904
94.071	364.705
98.251	129.385
102.428	24.542
106.604	274.397
110.777	357.321
114.949	1151.99
119.119	488.338
123.286	263.533
127.452	224.027
131.615	394.311
135.777	386.87
139.937	599.134
144.094	555.946
148.25	498.33
152.403	444.579
156.555	465.394
160.705	448.962
164.853	508.858
168.998	576.373
173.142	546.604
177.284	556.642
181.424	504.102
185.562	413.335
189.698	431.239
193.831	489.454
197.963	512.627
202.093	606.929
206.221	727.873
210.347	1337.93
214.472	2263.63
218.594	3639.75
222.714	4538.28
226.832	3474.39
230.948	1243.85
235.063	236.912
239.175	55.472
243.286	65.179
247.394	203.604
251.501	165.29
255.605	20.579
259.708	11.985
263.808	96.943
267.907	108.96
272.004	246.235
276.099	315.391
280.192	391.053
284.283	425.481
288.372	512.067
292.459	588.178
296.544	622.812
300.627	759.206
304.709	822.956
308.788	947.729
312.865	1280.64
316.941	1932.46
321.015	3334.47
325.086	7337.53
329.156	15897.2
333.224	21441.2
337.29	16629.1
341.354	8614.03
345.416	4266.36
349.476	2658.08
353.534	1933.37
357.591	1530.8
361.645	1332.62
365.698	1161.69
369.748	1138.74
373.797	1041.05
377.844	1071.44
381.889	1056.82
385.932	1062.65
389.973	950.179
394.012	983.534
398.049	923.149
402.084	963.3
406.118	895.436
410.15	738.935
414.179	614.381
418.207	538.294
422.233	511.721
426.257	470.903
430.279	460.071
434.299	412.143
438.318	477.08
442.334	361.42
446.349	271.331
450.361	333.005
454.372	332.685
458.381	333.293
462.388	400.551
466.394	463.269
470.397	393.383
474.398	379.251
478.398	305.026
482.396	428.42
486.391	440.804
490.385	441.265
494.377	562.208
498.368	546.279
502.356	561.057
506.342	473.434
510.327	445.092
514.31	544.846
518.291	438.564
522.27	369.189
526.247	398.911
530.222	391.03
534.196	363.441
538.167	376.099
542.137	229.711
546.105	231.791
550.071	245.271
554.035	180.977
557.998	217.018
561.958	170.434
565.917	131.315
569.874	153.485
573.829	110.374
577.782	100.822
581.733	69.25
585.683	138.774
589.63	115.227
593.576	68.191
597.52	22.518
601.462	7.96
605.402	77.055
609.341	43.848
613.277	60.69
617.212	37.062
621.145	33.776
625.076	31.734
629.006	31.875
632.933	60.154
636.859	14.372
640.783	1.439
644.705	45.733
648.625	6.865
652.543	1.336
656.46	2.379
660.375	18.883
664.288	3.018
668.199	70.582
672.108	37.362
676.016	84.377
679.921	61.025
683.825	17.768
687.727	165.598
691.628	51.118
695.526	137.706
699.423	133
703.318	140.498
707.211	181.896
711.102	179.205
714.992	111.716
718.879	232.817
722.765	332.966
726.649	589.229
730.532	888.032
734.412	1369.32
738.291	2383.84
742.168	2196.27
746.043	1475.81
749.916	902.698
753.788	580.573
757.658	339.708
761.526	133.031
765.392	219.652
769.257	107.865
773.119	110.532
776.98	68.916
780.839	30.425
784.697	31.404
788.552	27.834
792.406	9.526
796.258	58.403
800.108	27.398
803.957	27.67
807.804	22.246
811.649	57.142
815.492	10.369
819.333	39.945
823.173	13.914
827.011	41.399
830.847	4.218
834.681	101.602
838.514	47.348
842.345	13.697
846.174	19.963
850.001	64.665
853.827	74.156
857.651	22.487
861.473	100.676
865.293	106.665
869.112	234.667
872.928	261.58
876.744	198.406
880.557	122.145
884.369	38.8
888.178	11.37
891.987	96.814
895.793	136.083
899.598	41.163
903.401	59.034
907.202	3.791
911.001	61.546
914.799	26.928
918.595	39.545
922.389	31.682
926.182	82.364
929.972	102.258
933.761	117.917
937.549	85.08
941.334	39.133
945.118	182.771
948.9	58.449
952.681	32.368
956.459	122.723
960.236	211.981
964.012	142.299
967.785	129.646
971.557	114.59
975.327	137.971
979.095	127.585
982.862	121.335
986.627	143.994
990.39	169.381
994.152	106.957
997.912	171.297
1001.67	171.95
1005.43	148.484
1009.18	155.822
1012.93	128.255
1016.68	273.122
1020.43	226.078
1024.18	220.075
1027.93	291.112
1031.67	372.204
1035.42	370.256
1039.16	511.599
1042.9	578.94
1046.63	565.287
1050.37	630.664
1054.11	701.167
1057.84	980.896
1061.57	1387.77
1065.3	1924.6
1069.03	2867.21
1072.75	4409.16
1076.47	6981.93
1080.2	12075.1
1083.92	21867.9
1087.64	36730.9
1091.36	48244
1095.07	45337.5
1098.79	31210.7
1102.5	18453.8
1106.21	11087
1109.92	7100.33
1113.62	4763.71
1117.33	3207.21
1121.04	2310.86
1124.74	2005.75
1128.44	1137.28
1132.14	841.258
1135.83	621.902
1139.53	567.184
1143.22	498.838
1146.92	386.083
1150.61	243.688
1154.3	125.068
1157.98	126.069
1161.67	128.248
1165.35	165.437
1169.04	88.861
1172.72	103.694
1176.4	151.567
1180.07	152.594
1183.75	154.499
1187.42	134.067
1191.1	63.232
1194.77	66.453
1198.44	85.991
1202.1	158.577
1205.77	79.652
1209.43	24.313
1213.1	103.886
1216.76	138.345
1220.42	107.444
1224.07	148.921
1227.73	169.777
1231.38	124.422
1235.04	134.718
1238.69	40.228
1242.34	46.984
1245.99	146.815
1249.63	120.452
1253.28	95.941
1256.92	220.323
1260.56	138.6
1264.2	74.724
1267.84	124.678
1271.48	33.44
1275.11	29.073
1278.74	36.139
1282.38	100.083
1286.01	47.218
1289.63	12.084
1293.26	144.999
1296.89	70.411
1300.51	40.396
1304.13	111.017
1307.75	4.731
1311.37	2.813
1314.99	36.172
1318.6	6.158
1322.22	34.195
1325.83	100.914
1329.44	135.305
1333.05	28.386
1336.66	29.115
1340.26	47.434
1343.87	1.129
1347.47	11.603
1351.07	16.663
1354.67	59.562
1358.27	64.638
1361.86	112.97
1365.46	44.333
1369.05	65.55
1372.64	146.206
1376.23	37.062
1379.82	57.593
1383.41	28.174
1386.99	138.176
1390.57	178.666
1394.16	209.271
1397.74	242.632
1401.32	287.479
1404.89	420.473
1408.47	539.868
1412.04	1041.71
1415.61	1904.99
1419.18	2578.54
1422.75	3193.35
1426.32	3600.36
1429.89	3849.65
1433.45	3721.61
1437.01	3256
1440.58	2847.09
1444.13	2202.33
1447.69	1775.72
1451.25	1280.46
1454.81	1013.51
1458.36	747.257
1461.91	560.426
1465.46	515.146
1469.01	409.167
1472.56	522.073
1476.1	334.105
1479.64	495.754
1483.19	557.032
1486.73	378.724
1490.27	461.877
1493.81	496.112
1497.34	271
1500.88	186.146
1504.41	41.466
1507.94	177.387
1511.47	104.464
1515	112.987
1518.53	72.923
1522.05	124.82
1525.57	179.642
1529.1	48.632
1532.62	68.706
1536.14	0
