Measurement: Raman, 514 nm, ccw, Raman Data Processed
Mineral: Gaspeite
Rruff sample: R040157
Ideal chemistry: NiCO_3_
Locality: Lemieux Township, Gaspe Nord County, Gaspe Peninsula, Quebec, Canada
Source: University of Arizona Mineral Museum
Description: Green massive
Measured chemistry: (Ni_0.54_Mg_0.31_Fe_0.15_Ca_0.01_Co_0.01_)C_1.00_O_3_; = the gray bands. Light grey bands are also gaspeite: (Ni_0.57_Mg_0.41_Fe_0.08_)C_0.97_O_3_; Dark grey bands, magnesite: (Mg_0.98_Fe_0.04_Ni_0.03_)C_0.97_O_3_
Pin_id: M00309
Raman shift (cm-1)	intensity
84.311	0
88.496	120.065
92.678	261.719
96.858	212.139
101.036	4.039
105.212	37.903
109.387	299.094
113.559	407.75
117.729	608.177
121.897	300.543
126.063	222.275
130.228	236.839
134.39	321.59
138.55	434.707
142.709	382.646
146.865	330.493
151.019	312.083
155.171	328.937
159.322	320.858
163.47	335.109
167.617	487.319
171.761	427.022
175.904	374.173
180.044	297.172
184.183	390
188.319	388.016
192.454	359.771
196.586	377.033
200.717	473.828
204.846	605.279
208.972	1013.52
213.097	1859.25
217.22	2847.2
221.341	3773.4
225.46	3492.97
229.577	1540.15
233.692	451.588
237.805	94.029
241.916	14.046
246.025	73.943
250.132	52.03
254.237	31.361
258.34	39.998
262.442	18.481
266.541	54.824
270.639	96.111
274.734	234.107
278.828	218.54
282.919	240.936
287.009	275.574
291.097	375.858
295.183	406.681
299.266	421.962
303.348	590.536
307.428	743.389
311.507	857.051
315.583	1187.15
319.657	1969.29
323.729	4090.07
327.8	9901.35
331.868	15122.4
335.935	14179.5
339.999	8262.92
344.062	3798.29
348.123	2224.41
352.182	1502.25
356.239	1257.49
360.294	960.571
364.347	904.577
368.398	816.177
372.448	797.738
376.495	729.698
380.54	768.163
384.584	748.154
388.626	751.688
392.666	759.783
396.704	666.388
400.74	655.476
404.774	614.842
408.806	547.501
412.836	464.776
416.865	423.887
420.891	422.772
424.916	355.079
428.939	307.623
432.959	305.431
436.978	238.392
440.996	280.162
445.011	253.502
449.024	267.979
453.036	242.933
457.045	229.743
461.053	209.762
465.059	244.296
469.063	263.137
473.065	276.292
477.065	328.717
481.063	277.371
485.06	374.883
489.054	410.136
493.047	395.784
497.038	456.237
501.027	500.396
505.014	480.37
508.999	444.182
512.982	403.991
516.964	365.586
520.944	315.19
524.921	273.554
528.897	292.912
532.871	249.213
536.844	240.2
540.814	219.093
544.783	258.862
548.749	213.266
552.714	176.639
556.677	127.481
560.638	199.2
564.597	194.963
568.555	85.634
572.511	126.824
576.464	86.664
580.416	152.355
584.366	118.724
588.315	101.184
592.261	94.656
596.206	68.147
600.148	3.737
604.089	11.528
608.028	3.486
611.965	70.514
615.901	78.468
619.834	3.708
623.766	28.165
627.696	6.317
631.624	39.978
635.551	3.089
639.475	58.116
643.398	100.08
647.318	114.589
651.237	35.285
655.155	25.597
659.07	60.713
662.984	61.041
666.895	53.153
670.805	96.347
674.713	36.296
678.62	84.309
682.524	129.246
686.427	130.303
690.328	65.128
694.227	113.578
698.124	97.374
702.02	139.648
705.913	158.611
709.805	204.314
713.695	212.192
717.584	199.907
721.47	304.525
725.355	511.982
729.238	654.618
733.119	1102.25
736.998	1874.19
740.876	2032.33
744.752	1539.01
748.626	938.914
752.498	526.748
756.368	372.859
760.237	286.5
764.104	138.367
767.969	155.217
771.832	56.475
775.693	21.78
779.553	50.528
783.411	21.104
787.267	34.438
791.122	34.798
794.974	74.709
798.825	37.724
802.674	22.55
806.522	37.479
810.367	13.415
814.211	39.426
818.053	52.507
821.893	20.409
825.732	61.189
829.568	36.115
833.403	7.537
837.236	63.922
841.068	69.334
844.898	22.55
848.726	22.649
852.552	54.245
856.376	83.034
860.199	42.668
864.02	20.193
867.839	119.645
871.656	83.033
875.472	212.356
879.286	70.617
883.098	74.816
886.909	36.045
890.717	37.942
894.524	10.166
898.33	128.526
902.133	49.033
905.935	36.438
909.735	105.003
913.533	89.055
917.33	49.299
921.124	44.499
924.918	42.9
928.709	28.156
932.499	35.617
936.286	106.605
940.073	98.343
943.857	39.394
947.64	97.305
951.421	119.817
955.2	127.149
958.978	129.978
962.753	138.649
966.527	71.537
970.3	161.035
974.071	140.453
977.84	109.102
981.607	107.781
985.372	161.747
989.136	184.345
992.898	182.577
996.659	206.997
1000.42	114.106
1004.17	180.566
1007.93	115.54
1011.68	119.059
1015.43	137.643
1019.18	200.568
1022.93	201.525
1026.68	230.532
1030.42	291.662
1034.17	220.933
1037.91	283.774
1041.65	469.663
1045.39	441.567
1049.12	540.905
1052.86	677.415
1056.59	677.881
1060.33	889.564
1064.06	1445.18
1067.78	2048.72
1071.51	3190.17
1075.23	5135.62
1078.96	8560.03
1082.68	15275.4
1086.4	25991.1
1090.12	38147
1093.83	40912.8
1097.55	30439.1
1101.26	18485
1104.97	11031
1108.68	6727.29
1112.39	4474.75
1116.1	3041.09
1119.8	2064.34
1123.5	1985.32
1127.2	1039.52
1130.9	748.502
1134.6	581.026
1138.3	445.58
1141.99	307.438
1145.69	234.512
1149.38	264.275
1153.07	186.245
1156.76	212.21
1160.44	108.754
1164.13	73.511
1167.81	140.814
1171.49	49.145
1175.17	79.89
1178.85	38.793
1182.52	5.718
1186.2	97.305
1189.87	48.46
1193.54	36.164
1197.21	44.289
1200.88	72.317
1204.55	3.511
1208.21	98.262
1211.88	81.451
1215.54	171.499
1219.2	112.042
1222.86	81.007
1226.51	75.045
1230.17	37.228
1233.82	93.484
1237.47	84.34
1241.12	76.048
1244.77	147.823
1248.42	66.763
1252.06	18.566
1255.71	19.449
1259.35	20.105
1262.99	58.57
1266.63	54.932
1270.26	97.184
1273.9	18.283
1277.53	44.222
1281.16	29.977
1284.8	29.481
1288.42	34.294
1292.05	13.403
1295.68	13.205
1299.3	23.534
1302.92	12.434
1306.55	77.67
1310.16	33.191
1313.78	12.95
1317.4	24.365
1321.01	7.194
1324.62	30.766
1328.24	21.235
1331.85	22.257
1335.45	12.862
1339.06	18.177
1342.66	74.53
1346.27	4.431
1349.87	102.05
1353.47	17.669
1357.07	24.983
1360.66	24.125
1364.26	98.231
1367.85	126.116
1371.44	7.972
1375.04	91.316
1378.62	114.956
1382.21	117.345
1385.8	16.351
1389.38	139.036
1392.96	131.401
1396.54	94.268
1400.12	253.128
1403.7	266.087
1407.28	371.892
1410.85	601.191
1414.42	1147.58
1417.99	1582.11
1421.56	2216.59
1425.13	2442.36
1428.7	2611.48
1432.26	2610.24
1435.83	2339.62
1439.39	1995.42
1442.95	1641.63
1446.51	1304.5
1450.06	1065.26
1453.62	829.941
1457.17	654.312
1460.73	528.973
1464.28	579.133
1467.83	451.995
1471.37	323.102
1474.92	340.823
1478.46	327.896
1482.01	314.606
1485.55	399.747
1489.09	404.662
1492.63	292.568
1496.16	404.14
1499.7	322.069
1503.23	232.425
1506.76	191.24
1510.29	170.933
1513.82	118.943
1517.35	58.403
1520.88	43.614
1524.4	4.622
1527.92	158.826
1531.44	177.085
1534.96	119.343
