Measurement: Raman, 514 nm, ccw, Raman Data Processed
Mineral: Gaspeite
Rruff sample: R040157
Ideal chemistry: NiCO_3_
Locality: Lemieux Township, Gaspe Nord County, Gaspe Peninsula, Quebec, Canada
Source: University of Arizona Mineral Museum
Description: Green massive
Measured chemistry: (Ni_0.54_Mg_0.31_Fe_0.15_Ca_0.01_Co_0.01_)C_1.00_O_3_; = the gray bands. Light grey bands are also gaspeite: (Ni_0.57_Mg_0.41_Fe_0.08_)C_0.97_O_3_; Dark grey bands, magnesite: (Mg_0.98_Fe_0.04_Ni_0.03_)C_0.97_O_3_
Pin_id: M00309
Raman shift (cm-1)	intensity
89.89	0
94.071	308.25
98.251	213.63
102.428	33.754
106.604	214.654
110.777	305.691
114.949	1016.01
119.119	652.659
123.286	215.62
127.452	174.075
131.615	314.365
135.777	403.891
139.937	454.327
144.094	576.912
148.25	633.441
152.403	534.501
156.555	541.977
160.705	540.192
164.853	458.364
168.998	433.229
173.142	447.23
177.284	442.748
181.424	466.241
185.562	411.824
189.698	473.329
193.831	500.581
197.963	545.625
202.093	599.318
206.221	682.707
210.347	1222.97
214.472	2244.77
218.594	3359.6
222.714	4205.34
226.832	3100.14
230.948	1097.15
235.063	304.912
239.175	92.661
243.286	76.708
247.394	113.659
251.501	94.161
255.605	65.108
259.708	27.384
263.808	8.948
267.907	82.053
272.004	139.173
276.099	250.476
280.192	240.979
284.283	367.987
288.372	409.384
292.459	549.477
296.544	522.477
300.627	625.612
304.709	750.677
308.788	928.4
312.865	1194.38
316.941	1817.66
321.015	3150.73
325.086	6845.99
329.156	14786.2
333.224	20342
337.29	16091.9
341.354	8316.13
345.416	3987.47
349.476	2493.38
353.534	1787.22
357.591	1410.05
361.645	1206.88
365.698	1111.22
369.748	988.059
373.797	1002.16
377.844	916.378
381.889	945.058
385.932	969.34
389.973	875.934
394.012	853.437
398.049	794.849
402.084	774.665
406.118	701.965
410.15	606.662
414.179	569.923
418.207	563.7
422.233	478.587
426.257	393.197
430.279	384.668
434.299	324.146
438.318	342.488
442.334	325.367
446.349	275.504
450.361	246.99
454.372	296.562
458.381	322.681
462.388	261.784
466.394	239.263
470.397	274.687
474.398	345.183
478.398	395.52
482.396	389
486.391	414.464
490.385	503.276
494.377	488.688
498.368	509.111
502.356	526.787
506.342	537.598
510.327	470.896
514.31	459.23
518.291	389.799
522.27	371.274
526.247	336.858
530.222	331.148
534.196	283.338
538.167	285.067
542.137	205.315
546.105	210.118
550.071	261.356
554.035	203.579
557.998	224.292
561.958	187.819
565.917	122.415
569.874	99.862
573.829	128.581
577.782	188.643
581.733	57.733
585.683	51.005
589.63	94.439
593.576	89.498
597.52	98.151
601.462	12.134
605.402	52.403
609.341	111.129
613.277	24.175
617.212	64.143
621.145	26.821
625.076	13.21
629.006	9.158
632.933	12.904
636.859	79.732
640.783	42.59
644.705	37.529
648.625	21.584
652.543	7.537
656.46	46.398
660.375	64.593
664.288	29.187
668.199	127.049
672.108	34.248
676.016	54.11
679.921	3.454
683.825	80.418
687.727	31.256
691.628	102.856
695.526	122.065
699.423	148.048
703.318	170.352
707.211	119.995
711.102	194.077
714.992	222.633
718.879	258.422
722.765	299.338
726.649	527.871
730.532	838.213
734.412	1225.32
738.291	1862.74
742.168	1866.62
746.043	1292.14
749.916	744.811
753.788	462.666
757.658	312.919
761.526	204.793
765.392	108.365
769.257	126.567
773.119	132.583
776.98	20.988
780.839	67.194
784.697	39.067
788.552	28.871
792.406	43.911
796.258	50.618
800.108	61.952
803.957	15.038
807.804	21.044
811.649	36.824
815.492	23.868
819.333	2.136
823.173	17.693
827.011	2.526
830.847	35.248
834.681	72.603
838.514	108.081
842.345	4.198
846.174	9.43
850.001	14.47
853.827	35.321
857.651	140.03
861.473	104.538
865.293	139.996
869.112	187.375
872.928	198.721
876.744	164.895
880.557	88.045
884.369	28.119
888.178	11.618
891.987	37.754
895.793	90.332
899.598	63.844
903.401	62.269
907.202	29.583
911.001	52.809
914.799	52.043
918.595	79.912
922.389	87.661
926.182	48.316
929.972	13.252
933.761	66.183
937.549	0.206
941.334	106.846
945.118	125.995
948.9	108.083
952.681	54.271
956.459	51.667
960.236	44.563
964.012	79.831
967.785	55.589
971.557	145.895
975.327	66.525
979.095	58.195
982.862	158.009
986.627	197.129
990.39	90.172
994.152	142.069
997.912	146.347
1001.67	144.963
1005.43	179.855
1009.18	147.248
1012.93	141.263
1016.68	171.713
1020.43	198.19
1024.18	192.682
1027.93	294.284
1031.67	298.958
1035.42	337.572
1039.16	410.847
1042.9	496.996
1046.63	516.951
1050.37	556.784
1054.11	649.818
1057.84	720.464
1061.57	1175.29
1065.3	1564.85
1069.03	2384.05
1072.75	3703.47
1076.47	5838.55
1080.2	10052.2
1083.92	18197.5
1087.64	30621.8
1091.36	40267.1
1095.07	37412.6
1098.79	25778.2
1102.5	15323.8
1106.21	9239.53
1109.92	5786.99
1113.62	3942.57
1117.33	2609.23
1121.04	1906.16
1124.74	1572.45
1128.44	925.327
1132.14	689.257
1135.83	557.461
1139.53	480.58
1143.22	415.614
1146.92	322.102
1150.61	153.172
1154.3	140.978
1157.98	84.545
1161.67	134.112
1165.35	98.474
1169.04	120.117
1172.72	216.273
1176.4	120.154
1180.07	107.975
1183.75	48.439
1187.42	14.082
1191.1	136.054
1194.77	53.94
1198.44	70.775
1202.1	135.743
1205.77	170.834
1209.43	88.117
1213.1	131.649
1216.76	79.686
1220.42	126.31
1224.07	55.665
1227.73	154.729
1231.38	111.139
1235.04	151.191
1238.69	95.415
1242.34	113.228
1245.99	124.509
1249.63	38.657
1253.28	24.338
1256.92	183.548
1260.56	92.322
1264.2	36.971
1267.84	54.461
1271.48	1.246
1275.11	57.832
1278.74	4.312
1282.38	136.3
1286.01	12.502
1289.63	0.664
1293.26	100.745
1296.89	17.858
1300.51	60.689
1304.13	24.25
1307.75	54.497
1311.37	9.539
1314.99	5.155
1318.6	109.403
1322.22	86.679
1325.83	55.482
1329.44	53.735
1333.05	83.468
1336.66	52.285
1340.26	32.796
1343.87	41.142
1347.47	14.915
1351.07	19.915
1354.67	30.615
1358.27	51.129
1361.86	29.249
1365.46	70.367
1369.05	45.19
1372.64	63.102
1376.23	53.84
1379.82	45.012
1383.41	75.625
1386.99	87.757
1390.57	129.841
1394.16	195.132
1397.74	225.372
1401.32	270.571
1404.89	371.529
1408.47	526.883
1412.04	918.874
1415.61	1630.53
1419.18	2231.88
1422.75	2798.56
1426.32	3305.28
1429.89	3306.37
1433.45	3159.01
1437.01	3012.13
1440.58	2518.36
1444.13	1878.19
1447.69	1598.83
1451.25	1087.13
1454.81	813.323
1458.36	637.404
1461.91	533.183
1465.46	443.666
1469.01	389.157
1472.56	493.859
1476.1	299.103
1479.64	348.346
1483.19	293.922
1486.73	340.489
1490.27	260.489
1493.81	307.069
1497.34	184.01
1500.88	180.304
1504.41	179.489
1507.94	74.011
1511.47	9.887
1515	66.453
1518.53	95.519
1522.05	119.395
1525.57	115.366
1529.1	17.464
