Measurement: Raman, 514 nm, ccw, Raman Data Processed
Mineral: Gaylussite
Rruff sample: R040146
Ideal chemistry: Na_2_Ca(CO_3_)_2_5H_2_O
Locality: Searles Lake, Trona, San Bernardino County, California, USA
Source: University of Arizona Mineral Museum
Description: Colorless crystal fragments
Measured chemistry: Na_2.00_Ca_1.00_(C_1.00_O_3_)_2_Â·5H_2_O
Pin_id: L00275
Orientation: Laser parallel to b* (0 1 0). Fiducial mark perpendicular to laser is parallel to c [0 0 1]
Raman shift (cm-1)	intensity
99.453	0
103.636	83.85
107.817	231.76
111.996	1067.78
116.172	1660.03
120.347	605.127
124.519	604.502
128.69	1127.85
132.858	1151.67
137.025	649.8
141.189	512.833
145.352	563.69
149.512	783.502
153.67	1216.68
157.827	2030.35
161.981	3014.91
166.133	2955.42
170.283	2822.89
174.431	3163.49
178.577	2805.12
182.721	1881.61
186.863	908.105
191.003	428.764
195.141	276.676
199.277	162.162
203.411	55.896
207.543	85.157
211.673	54.608
215.801	33.858
219.927	59.445
224.051	26.736
228.173	82.337
232.292	172.22
236.41	167.951
240.526	116.76
244.64	167.839
248.752	256.274
252.861	364.371
256.969	404.081
261.075	382.336
265.179	312.113
269.281	189.485
273.38	79.429
277.478	89.393
281.574	92.102
285.668	129.102
289.76	63.084
293.85	26.914
297.937	23.78
302.023	45.128
306.107	64.117
310.189	13.685
314.269	24.034
318.347	57.891
322.423	52.525
326.497	2.284
330.569	74.363
334.639	50.069
338.707	26.492
342.773	48.746
346.837	48.889
350.899	26.562
354.96	8.232
359.018	30.867
363.074	43.491
367.128	19.733
371.181	5.044
375.231	25.396
379.28	32.364
383.326	16.462
387.37	8.504
391.413	17.482
395.454	36.63
399.492	17.51
403.529	3.584
407.564	40.327
411.596	74.934
415.627	40.452
419.656	7.856
423.683	45.166
427.708	2.617
431.731	67.599
435.752	14.827
439.772	5.991
443.789	44.404
447.804	90.459
451.817	61.476
455.829	83.44
459.838	30.192
463.846	11.377
467.852	19.671
471.855	42.57
475.857	2.771
479.857	86.762
483.855	70.642
487.851	35.897
491.845	75.426
495.837	113.333
499.828	24.137
503.816	31.103
507.802	59.984
511.787	121.787
515.77	98.507
519.75	112.147
523.729	59.696
527.706	161.148
531.681	156.042
535.654	138.13
539.625	65.273
543.595	81.705
547.562	124.347
551.527	174.537
555.491	178.959
559.453	55.261
563.412	191.182
567.37	140.149
571.326	216.309
575.28	167.334
579.233	223.145
583.183	171.008
587.131	180.227
591.078	176.413
595.022	95.806
598.965	43.788
602.906	160.757
606.845	84.594
610.782	87.131
614.718	94.633
618.651	71.55
622.582	54.529
626.512	36.543
630.44	89.37
634.366	63.359
638.29	13.329
642.212	88.143
646.132	89.6
650.05	126.165
653.967	65.076
657.882	68.807
661.794	143.621
665.705	65.139
669.614	86.452
673.522	96.625
677.427	61.482
681.331	176.372
685.232	190.065
689.132	245.234
693.03	285.269
696.926	190.249
700.82	142.724
704.713	171.707
708.603	106.605
712.492	194.335
716.379	209.92
720.264	461.708
724.147	237.478
728.028	55.249
731.908	58.992
735.785	104.708
739.661	40.393
743.535	116.06
747.407	58.708
751.278	74.352
755.146	11.85
759.013	93.334
762.878	88.957
766.741	40.552
770.602	89.125
774.461	55.329
778.319	70.083
782.174	52.12
786.028	94.249
789.88	50.721
793.73	40.714
797.579	42.931
801.425	8.333
805.27	137.542
809.113	70.652
812.954	60.721
816.794	16.237
820.631	113.647
824.467	124.627
828.301	70.592
832.133	104.332
835.963	9.46
839.792	6.382
843.618	19.29
847.443	114.859
851.266	25.758
855.088	94.541
858.907	11.273
862.725	11.004
866.541	204.549
870.355	140.279
874.167	142.015
877.978	108.1
881.787	165.549
885.594	174.326
889.399	317.119
893.202	318.128
897.004	237.991
900.803	154.585
904.601	175.449
908.398	165.989
912.192	188.898
915.985	197.632
919.776	55.562
923.565	76.374
927.352	31.241
931.138	114.157
934.922	159.12
938.704	127.088
942.484	120.77
946.262	15.863
950.039	81.829
953.814	85.653
957.587	107.762
961.359	118.476
965.128	47.677
968.896	14.761
972.662	14.85
976.427	18.021
980.189	16.258
983.95	94.821
987.709	115.805
991.467	19.951
995.222	25.733
998.976	109.698
1002.73	87.12
1006.48	76.176
1010.23	63.602
1013.97	115.096
1017.72	149.477
1021.46	107.43
1025.2	189.944
1028.94	192.961
1032.68	231.922
1036.42	255.109
1040.15	199.565
1043.89	248.838
1047.62	211.938
1051.35	595.316
1055.07	635.298
1058.8	885.423
1062.52	1348.19
1066.25	3044.68
1069.97	19473.1
1073.69	29971.5
1077.4	4480.19
1081.12	1474.31
1084.83	737.449
1088.55	474.7
1092.26	358.423
1095.96	386.547
1099.67	188.791
1103.38	174.29
1107.08	265.041
1110.78	230.319
1114.48	177.458
1118.18	144.328
1121.88	54.762
1125.57	56.971
1129.27	111.878
1132.96	65.399
1136.65	106.939
1140.34	56.384
1144.02	46.545
1147.71	81.795
1151.39	43.319
1155.07	0.008
1158.75	173.069
1162.43	242.295
1166.11	158.616
1169.78	125.676
1173.45	32.028
1177.12	58.571
1180.79	19.401
1184.46	45.617
1188.13	97.282
1191.79	198.441
1195.45	170.519
1199.11	78.35
1202.77	94.666
1206.43	5.438
1210.09	55.859
1213.74	140.351
1217.39	196.764
1221.05	257.265
1224.69	318.679
1228.34	258.108
1231.99	124.354
1235.63	43.07
1239.27	169.868
1242.91	124.351
1246.55	148.656
1250.19	263.855
1253.83	294.902
1257.46	317.803
1261.09	192.537
1264.72	53.942
1268.35	18.757
1271.98	21.286
1275.61	96.053
1279.23	113.609
1282.85	133.217
1286.47	196.263
1290.09	130.982
1293.71	237.514
1297.33	33.609
1300.94	29.203
1304.55	84.88
1308.16	19.954
1311.77	228.902
1315.38	198.518
1318.99	214.142
1322.59	184.374
1326.19	120.213
1329.79	70.826
1333.39	31.265
1336.99	2.501
1340.59	37.325
1344.18	247.206
1347.77	166.712
1351.37	249.788
1354.95	157.093
1358.54	375.03
1362.13	229.009
1365.71	154.979
1369.3	111.746
1372.88	41.186
1376.46	114.676
1380.04	79.44
1383.61	299.849
1387.19	399.859
1390.76	509.101
1394.33	497.807
1397.9	552.658
1401.47	430.928
1405.04	222.324
1408.6	150.612
1412.16	191.007
1415.72	336.183
1419.29	219.922
1422.84	392.808
1426.4	649.395
1429.96	531.828
1433.51	720.538
1437.06	588.104
1440.61	271.053
1444.16	372.395
1447.71	186.714
1451.25	149.259
1454.8	221.425
1458.34	243.061
1461.88	244.065
1465.42	454.868
1468.96	375.702
1472.49	506.755
1476.03	468.072
1479.56	319.768
1483.09	182.295
1486.62	14.282
1490.15	119.575
1493.67	114.104
1497.2	149.666
1500.72	236.628
1504.24	371.213
1507.76	421.056
1511.28	504.985
1514.8	477.439
1518.31	190.179
