Measurement: Raman, 514 nm, ccw, Raman Data Processed
Mineral: Gaylussite
Rruff sample: R040146
Ideal chemistry: Na_2_Ca(CO_3_)_2_5H_2_O
Locality: Searles Lake, Trona, San Bernardino County, California, USA
Source: University of Arizona Mineral Museum
Description: Colorless crystal fragments
Measured chemistry: Na_2.00_Ca_1.00_(C_1.00_O_3_)_2_Â·5H_2_O
Pin_id: L00275
Orientation: Laser parallel to b* (0 1 0). Fiducial mark perpendicular to laser is parallel to c [0 0 1]
Raman shift (cm-1)	intensity
100.848	0
105.03	41.602
109.21	183.697
113.388	1104.39
117.564	827.177
121.738	640.95
125.91	1185.94
130.08	1806.05
134.248	1188.79
138.413	706.486
142.577	598.013
146.739	419.345
150.898	453.582
155.056	598.192
159.212	1007.18
163.365	1406.16
167.517	1682.61
171.666	2057.81
175.813	1873.65
179.959	1407.54
184.102	832.439
188.244	393.406
192.383	187.352
196.52	104.507
200.656	92.995
204.789	149.914
208.92	180.737
213.049	147.255
217.176	110.707
221.302	10.917
225.425	116.229
229.546	205.177
233.665	298.223
237.782	363.968
241.898	516.199
246.011	864.461
250.122	1836.21
254.231	2905.1
258.338	3555.71
262.443	3648.59
266.546	3024.81
270.647	1718.69
274.747	924.021
278.844	705.802
282.939	556.657
287.032	425.108
291.123	314.354
295.212	177.46
299.3	167.415
303.385	41.003
307.468	42.22
311.549	0.785
315.629	6.236
319.706	4.002
323.781	16.571
327.855	27.301
331.926	7.466
335.995	1.88
340.063	45.344
344.128	36.384
348.192	4.849
352.253	4.309
356.313	5.669
360.37	9.748
364.426	19.674
368.479	43.489
372.531	1.708
376.581	31.449
380.629	72.328
384.674	43.406
388.718	42.306
392.76	6.158
396.8	2.49
400.838	37.666
404.874	53.434
408.908	43.182
412.94	20.736
416.97	2.448
420.999	38.925
425.025	15.879
429.049	14.013
433.072	26.956
437.092	32.866
441.111	14.472
445.127	78.377
449.142	53.792
453.155	64.71
457.166	76.09
461.175	99.672
465.181	50.162
469.186	76.93
473.19	110.998
477.191	86.082
481.19	88.067
485.187	58.565
489.183	26.806
493.176	60.559
497.168	65.123
501.157	94.381
505.145	51.521
509.131	61.78
513.115	77.653
517.097	115.169
521.077	71.203
525.055	45.53
529.031	116.456
533.006	75.344
536.978	9.911
540.949	89.125
544.917	76.688
548.884	49.707
552.849	74.937
556.812	73.131
560.773	74.579
564.732	77.509
568.689	63.37
572.644	49.582
576.598	67.082
580.55	193.987
584.499	128.149
588.447	80.418
592.393	73.496
596.337	138.805
600.279	100.756
604.219	105.365
608.158	67.433
612.094	72.659
616.029	63.437
619.962	71.464
623.892	97.204
627.821	89.819
631.749	128.874
635.674	51.707
639.597	95.34
643.519	73.66
647.438	125.736
651.356	112.509
655.272	133.445
659.186	160.702
663.098	99.541
667.009	196.151
670.917	204.747
674.824	169.578
678.728	225.066
682.631	158.706
686.532	363.651
690.432	403.234
694.329	319.162
698.224	242.525
702.118	156.661
706.01	105.329
709.9	114.604
713.788	332.844
717.674	855.021
721.558	1308.4
725.441	759.357
729.322	290.224
733.201	194.417
737.078	126.485
740.953	54.511
744.826	22.437
748.698	25.514
752.567	65.375
756.435	112.485
760.301	83.198
764.165	70.326
768.028	122.852
771.888	117.637
775.747	120.227
779.604	77.693
783.459	0.814
787.312	31.718
791.164	22.696
795.013	67.641
798.861	47.794
802.707	42.373
806.551	48.724
810.394	5.969
814.234	26.261
818.073	112.502
821.91	85.545
825.745	61.745
829.578	51.498
833.41	41.66
837.24	88.375
841.068	21.58
844.894	119.69
848.718	21.55
852.54	3.625
856.361	82.661
860.18	152.781
863.997	80.76
867.812	173.812
871.626	133.86
875.438	161.923
879.248	135.994
883.056	162.095
886.862	173.209
890.667	110.329
894.469	126.183
898.27	193.317
902.07	187.88
905.867	265.325
909.663	206.511
913.457	6.771
917.249	98.036
921.039	127.071
924.827	109.202
928.614	84.637
932.399	65.791
936.182	9.896
939.964	16.998
943.744	9.57
947.521	128.653
951.298	124.95
955.072	113.301
958.845	32.659
962.615	2.917
966.384	9.134
970.152	34.818
973.917	101.144
977.681	56.596
981.443	5.995
985.203	18.637
988.962	50.293
992.719	37.864
996.474	26.303
1000.23	23.641
1003.98	166.927
1007.73	97.467
1011.48	43.25
1015.22	68.99
1018.97	84.174
1022.71	161.907
1026.45	278.14
1030.19	207.416
1033.93	115.903
1037.66	193.875
1041.4	198.054
1045.13	316.292
1048.86	501.664
1052.59	696.213
1056.32	535.154
1060.04	748.324
1063.77	1542.64
1067.49	5086.96
1071.21	37592.4
1074.93	17857.6
1078.64	3122.68
1082.36	1186.93
1086.07	603.058
1089.78	460.674
1093.49	345.461
1097.2	276.112
1100.91	336.437
1104.61	200.341
1108.32	271.226
1112.02	110.967
1115.72	12.325
1119.41	13.038
1123.11	101.411
1126.8	252.268
1130.5	108.214
1134.19	213.338
1137.88	7.161
1141.56	173.991
1145.25	114.786
1148.93	158.852
1152.62	181.131
1156.3	75.202
1159.98	233.603
1163.65	81.156
1167.33	111.871
1171	12.567
1174.68	85.493
1178.35	60.757
1182.02	186.521
1185.68	216.252
1189.35	245.363
1193.01	96.582
1196.67	25.825
1200.33	24.709
1203.99	188.872
1207.65	228.211
1211.31	211.479
1214.96	263.131
1218.61	287.971
1222.26	288.57
1225.91	191.911
1229.56	138.785
1233.2	195.542
1236.85	145.883
1240.49	288.317
1244.13	308.424
1247.77	319.391
1251.4	215.22
1255.04	206.85
1258.67	102.339
1262.3	112.396
1265.93	130.133
1269.56	147.867
1273.19	237.383
1276.82	138.612
1280.44	166.916
1284.06	70.029
1287.68	78.457
1291.3	75.505
1294.92	61.259
1298.53	98.683
1302.14	92.574
1305.76	118.227
1309.37	212.416
1312.98	199.139
1316.58	20.859
1320.19	3.984
1323.79	10.742
1327.39	7.576
1330.99	21.088
1334.59	78.301
1338.19	71.005
1341.79	83.223
1345.38	213.555
1348.97	185.75
1352.56	114.012
1356.15	4.127
1359.74	60.362
1363.32	11.099
1366.91	52.773
1370.49	104.302
1374.07	165.195
1377.65	236.284
1381.23	320.274
1384.8	305.561
1388.38	409.479
1391.95	443.799
1395.52	512.184
1399.09	645.966
1402.66	568.957
1406.22	458.794
1409.79	474.332
1413.35	461.975
1416.91	421.976
1420.47	428.182
1424.03	432.376
1427.59	463.732
1431.14	360.63
1434.69	507.337
1438.24	609.59
1441.8	472.714
1445.34	385.134
1448.89	507.885
1452.43	434.26
1455.98	410.157
1459.52	505.301
1463.06	309.582
1466.6	183.679
1470.14	187.847
1473.67	122.17
1477.2	37.021
1480.74	102.458
1484.27	159.091
1487.8	316.218
1491.32	303.687
1494.85	291.978
1498.37	291.489
1501.9	302.572
1505.42	155.507
1508.94	111.205
1512.45	74.497
1515.97	1.104
1519.49	0
