Measurement: Raman, 514 nm, ccw, Raman Data Processed
Mineral: Gaylussite
Rruff sample: R040146
Ideal chemistry: Na_2_Ca(CO_3_)_2_5H_2_O
Locality: Searles Lake, Trona, San Bernardino County, California, USA
Source: University of Arizona Mineral Museum
Description: Colorless crystal fragments
Measured chemistry: Na_2.00_Ca_1.00_(C_1.00_O_3_)_2_Â·5H_2_O
Pin_id: L00282
Orientation: Laser parallel to (1 0 1). Fiducial mark perpendicular to laser is parallel to -b [0 -1 0]
Raman shift (cm-1)	intensity
96.663	0
100.848	339.203
105.03	594.154
109.21	354.89
113.388	1047.69
117.564	1065.38
121.738	640.532
125.91	611.143
130.08	603.427
134.248	508.448
138.413	482.587
142.577	367.394
146.739	157.27
150.898	141.824
155.056	144.7
159.212	163.821
163.365	299.063
167.517	303.674
171.666	254.485
175.813	57.188
179.959	8.619
184.102	17
188.244	5.599
192.383	6.637
196.52	9.695
200.656	7.499
204.789	44.989
208.92	0.922
213.049	50.808
217.176	70.338
221.302	114.344
225.425	162.611
229.546	272.161
233.665	340.144
237.782	444.489
241.898	720.565
246.011	1201.14
250.122	2092.33
254.231	3521.77
258.338	5068.86
262.443	6676.75
266.546	5953.44
270.647	3405.68
274.747	1797.1
278.844	1059.44
282.939	702.691
287.032	419.181
291.123	332.043
295.212	254.448
299.3	185.695
303.385	82.759
307.468	53.828
311.549	19.297
315.629	22.24
319.706	26.616
323.781	43.114
327.855	23.69
331.926	7.774
335.995	27.496
340.063	21.744
344.128	5.423
348.192	37.712
352.253	26.756
356.313	12.694
360.37	13.537
364.426	36.056
368.479	38.995
372.531	22.974
376.581	14.894
380.629	10.23
384.674	31.335
388.718	17.4
392.76	29.167
396.8	8.023
400.838	3.238
404.874	64.153
408.908	61.265
412.94	23.152
416.97	61.874
420.999	7.497
425.025	54.027
429.049	29.593
433.072	24.083
437.092	14.384
441.111	28.834
445.127	54.894
449.142	41.173
453.155	86.283
457.166	69.319
461.175	8.319
465.181	60.237
469.186	36.088
473.19	90.83
477.191	102.492
481.19	64.919
485.187	98.412
489.183	45.826
493.176	64.811
497.168	74.051
501.157	96.974
505.145	63.916
509.131	94.927
513.115	138.854
517.097	116.417
521.077	148.881
525.055	97.576
529.031	100.797
533.006	93.966
536.978	97.888
540.949	108.001
544.917	63.423
548.884	32.371
552.849	57.711
556.812	86.458
560.773	142.659
564.732	47.723
568.689	68.056
572.644	59.825
576.598	90.132
580.55	136.471
584.499	78.295
588.447	74.362
592.393	31.202
596.337	68.092
600.279	62.147
604.219	56.29
608.158	75.188
612.094	107.319
616.029	105.984
619.962	111.376
623.892	134.293
627.821	127.166
631.749	151.764
635.674	105.224
639.597	140.011
643.519	136.611
647.438	108.551
651.356	190.754
655.272	228.917
659.186	218.207
663.098	252.412
667.009	240.429
670.917	223.39
674.824	306.313
678.728	280.057
682.631	307.006
686.532	359.755
690.432	418.59
694.329	276.389
698.224	73.199
702.118	125.891
706.01	58.867
709.9	56.06
713.788	163.442
717.674	116.126
721.558	78.891
725.441	72.537
729.322	46.16
733.201	67.739
737.078	71.279
740.953	53.749
744.826	51.167
748.698	46.326
752.567	58.131
756.435	106.565
760.301	72.958
764.165	30.22
768.028	14.56
771.888	111.839
775.747	86.03
779.604	74.135
783.459	5.183
787.312	44.199
791.164	3.806
795.013	108.155
798.861	105.095
802.707	67.987
806.551	84.425
810.394	1.267
814.234	92.148
818.073	114.556
821.91	59.267
825.745	35.703
829.578	10.575
833.41	75.509
837.24	64.808
841.068	41.602
844.894	95.558
848.718	16.179
852.54	4.793
856.361	97.412
860.18	136.032
863.997	71.448
867.812	115.081
871.626	167.661
875.438	172.319
879.248	181.987
883.056	248.658
886.862	295.343
890.667	173.768
894.469	274.5
898.27	287.117
902.07	281.823
905.867	301.409
909.663	223.585
913.457	168.211
917.249	132.952
921.039	163.554
924.827	106.663
928.614	100.621
932.399	54.082
936.182	46.854
939.964	101.701
943.744	80.032
947.521	73.905
951.298	144.259
955.072	97.896
958.845	53.902
962.615	57.761
966.384	21.19
970.152	35.069
973.917	12.792
977.681	2.679
981.443	32.584
985.203	23.265
988.962	6.886
992.719	2.156
996.474	104.609
1000.23	49.83
1003.98	135.986
1007.73	84.308
1011.48	17.672
1015.22	113.348
1018.97	101.857
1022.71	173.768
1026.45	159.088
1030.19	114.897
1033.93	165.146
1037.66	148.131
1041.4	163.069
1045.13	285.357
1048.86	505.669
1052.59	787.095
1056.32	652.158
1060.04	933.534
1063.77	1981.26
1067.49	6264.42
1071.21	47897.6
1074.93	19920.9
1078.64	3215.33
1082.36	1211.73
1086.07	625.534
1089.78	471.235
1093.49	335.833
1097.2	297.289
1100.91	251.532
1104.61	146.824
1108.32	137.842
1112.02	105.218
1115.72	31.097
1119.41	51.397
1123.11	171.645
1126.8	222.303
1130.5	137.193
1134.19	62.25
1137.88	30.249
1141.56	3.134
1145.25	142.371
1148.93	160.707
1152.62	180.997
1156.3	209.402
1159.98	206.187
1163.65	62.068
1167.33	16.504
1171	40.817
1174.68	59.11
1178.35	62.394
1182.02	122.195
1185.68	91.983
1189.35	147.425
1193.01	68.254
1196.67	29.538
1200.33	2.339
1203.99	94.647
1207.65	100.715
1211.31	197.258
1214.96	218.942
1218.61	160.896
1222.26	121.235
1225.91	53.488
1229.56	68.174
1233.2	97.926
1236.85	104.609
1240.49	179.727
1244.13	198.402
1247.77	232.947
1251.4	150.344
1255.04	73.577
1258.67	53.657
1262.3	105.563
1265.93	113.263
1269.56	151.718
1273.19	210.992
1276.82	163.988
1280.44	94.735
1284.06	84.118
1287.68	50.112
1291.3	17.023
1294.92	75.63
1298.53	9.074
1302.14	147.121
1305.76	89.901
1309.37	143.091
1312.98	163.076
1316.58	29.751
1320.19	1.813
1323.79	37.89
1327.39	5.138
1330.99	0.461
1334.59	142.203
1338.19	84.202
1341.79	140.003
1345.38	152.38
1348.97	69.748
1352.56	121.074
1356.15	72.213
1359.74	75.574
1363.32	76.445
1366.91	75.027
1370.49	2.543
1374.07	135.446
1377.65	126.215
1381.23	286.479
1384.8	336.837
1388.38	297.949
1391.95	329.769
1395.52	577.146
1399.09	719.856
1402.66	708.591
1406.22	504.386
1409.79	521.12
1413.35	427.349
1416.91	490.052
1420.47	404.188
1424.03	521.083
1427.59	511.232
1431.14	608.852
1434.69	606.812
1438.24	612.559
1441.8	500.909
1445.34	512.7
1448.89	448.688
1452.43	490.027
1455.98	417.085
1459.52	374.455
1463.06	242.168
1466.6	197.466
1470.14	93.505
1473.67	59.863
1477.2	48.441
1480.74	45.547
1484.27	148.295
1487.8	245.72
1491.32	157.358
1494.85	303.445
1498.37	264.896
1501.9	243.151
1505.42	148.803
1508.94	62.789
1512.45	4.47
1515.97	36.441
1519.49	0.157
