Measurement: Raman, 514 nm, ccw, Raman Data Processed
Mineral: Gaylussite
Rruff sample: R040146
Ideal chemistry: Na_2_Ca(CO_3_)_2_5H_2_O
Locality: Searles Lake, Trona, San Bernardino County, California, USA
Source: University of Arizona Mineral Museum
Description: Colorless crystal fragments
Measured chemistry: Na_2.00_Ca_1.00_(C_1.00_O_3_)_2_Â·5H_2_O
Pin_id: L00288
Orientation: Laser parallel to a* (1 0 0). Fiducial mark perpendicular to laser is parallel to -b [0 -1 0]
Raman shift (cm-1)	intensity
91.081	0
95.268	1825.37
99.453	1173.45
103.636	1092.91
107.817	245.836
111.996	1353.16
116.172	3062.4
120.347	1548.02
124.519	582.026
128.69	155.976
132.858	26.564
137.025	130.031
141.189	61.446
145.352	103.615
149.512	527.654
153.67	1277.01
157.827	3140.33
161.981	6038.19
166.133	6638.27
170.283	3551
174.431	1847.73
178.577	1481.2
182.721	952.707
186.863	555.198
191.003	716.567
195.141	641.905
199.277	207.489
203.411	145.695
207.543	514.451
211.673	514.44
215.801	346.153
219.927	485.583
224.051	1108.33
228.173	2239.26
232.292	3317.25
236.41	2401.45
240.526	1186.32
244.64	640.556
248.752	457.581
252.861	694.221
256.969	543.562
261.075	321.335
265.179	155.688
269.281	243.53
273.38	239.583
277.478	476.214
281.574	702.48
285.668	761.111
289.76	553.896
293.85	350.95
297.937	262.223
302.023	113.514
306.107	8.361
310.189	32.038
314.269	3.637
318.347	45.845
322.423	48.123
326.497	19.498
330.569	36.687
334.639	48.582
338.707	45.173
342.773	86.511
346.837	35.116
350.899	70.241
354.96	11.674
359.018	30.199
363.074	48.522
367.128	21.766
371.181	7.39
375.231	30.58
379.28	25.899
383.326	37.999
387.37	13.69
391.413	52.962
395.454	87.643
399.492	67.821
403.529	6.443
407.564	63.688
411.596	106.595
415.627	86.161
419.656	1.572
423.683	6.597
427.708	100.021
431.731	153.311
435.752	60.299
439.772	82.952
443.789	105.293
447.804	115.391
451.817	59.194
455.829	6.675
459.838	123.819
463.846	215.757
467.852	109.82
471.855	141.973
475.857	192.571
479.857	258.196
483.855	276.347
487.851	224.949
491.845	161.497
495.837	306.013
499.828	303.792
503.816	628.349
507.802	742.623
511.787	404.997
515.77	359.479
519.75	378.709
523.729	390.244
527.706	419.693
531.681	353.553
535.654	359.094
539.625	308.317
543.595	307.323
547.562	337.91
551.527	445.07
555.491	444.656
559.453	343.044
563.412	474.599
567.37	600.992
571.326	682.635
575.28	668.414
579.233	603.057
583.183	727.985
587.131	694.711
591.078	587.545
595.022	473.246
598.965	351.587
602.906	370.975
606.845	384.146
610.782	311.88
614.718	197.791
618.651	150.425
622.582	320.562
626.512	347.094
630.44	318.069
634.366	149.442
638.29	195.788
642.212	360.292
646.132	365.408
650.05	305.957
653.967	285.5
657.882	300.929
661.794	400.563
665.705	312.476
669.614	274.831
673.522	250.159
677.427	260.516
681.331	322.93
685.232	332.469
689.132	196.089
693.03	140.79
696.926	188.053
700.82	279.945
704.713	243.901
708.603	92.874
712.492	39.85
716.379	208.833
720.264	304.858
724.147	132.905
728.028	65.963
731.908	1.047
735.785	152.143
739.661	186.263
743.535	152.375
747.407	158.482
751.278	65.599
755.146	22.74
759.013	135.858
762.878	126.913
766.741	23.966
770.602	42.95
774.461	46.889
778.319	84.093
782.174	106.02
786.028	124.948
789.88	61.89
793.73	40.155
797.579	19.932
801.425	67.355
805.27	250.163
809.113	73.979
812.954	56.19
816.794	44.433
820.631	258.509
824.467	220.793
828.301	186.803
832.133	104.55
835.963	52.667
839.792	124.44
843.618	175.618
847.443	315.13
851.266	116.919
855.088	29.711
858.907	171.512
862.725	331.416
866.541	567.168
870.355	435.368
874.167	385.125
877.978	307.017
881.787	239.739
885.594	194.454
889.399	343.153
893.202	345.73
897.004	196.563
900.803	73.544
904.601	41.617
908.398	234.794
912.192	331.188
915.985	275.774
919.776	102.044
923.565	87.953
927.352	89.627
931.138	265.125
934.922	231.464
938.704	161.835
942.484	131.193
946.262	27.623
950.039	9.308
953.814	158.453
957.587	204.782
961.359	217.225
965.128	91.42
968.896	49.528
972.662	37.087
976.427	31.367
980.189	130.839
983.95	185.264
987.709	59.726
991.467	11.838
995.222	58.48
998.976	61.845
1002.73	247.782
1006.48	259.516
1010.23	168.946
1013.97	81.74
1017.72	11.708
1021.46	192.244
1025.2	327.906
1028.94	377.478
1032.68	347.71
1036.42	248.931
1040.15	248.418
1043.89	142.932
1047.62	135.594
1051.35	654.481
1055.07	778.549
1058.8	952.831
1062.52	1235.63
1066.25	2974.82
1069.97	20422.2
1073.69	32569.5
1077.4	4896.69
1081.12	1674.2
1084.83	1015.47
1088.55	670.571
1092.26	359.871
1095.96	262.604
1099.67	252.304
1103.38	377.526
1107.08	473.444
1110.78	466.593
1114.48	329.008
1118.18	98.748
1121.88	81.299
1125.57	200.638
1129.27	229.766
1132.96	289.755
1136.65	378.765
1140.34	237.582
1144.02	123.622
1147.71	146.555
1151.39	6.811
1155.07	187.674
1158.75	231.372
1162.43	453.148
1166.11	342.491
1169.78	262.291
1173.45	0.486
1177.12	22.698
1180.79	14.816
1184.46	68.091
1188.13	193.555
1191.79	366.904
1195.45	301.175
1199.11	228.497
1202.77	73.129
1206.43	16.466
1210.09	8.082
1213.74	176.723
1217.39	281.37
1221.05	375.454
1224.69	429.709
1228.34	294.051
1231.99	178.001
1235.63	107.55
1239.27	184.973
1242.91	148.296
1246.55	281.544
1250.19	384.697
1253.83	447.752
1257.46	420.64
1261.09	223.403
1264.72	125.976
1268.35	41.528
1271.98	120.806
1275.61	272.939
1279.23	234.711
1282.85	396.209
1286.47	377.495
1290.09	308.682
1293.71	169.675
1297.33	70.068
1300.94	90.558
1304.55	100.896
1308.16	60.719
1311.77	350.583
1315.38	449.95
1318.99	515.694
1322.59	344.536
1326.19	151.729
1329.79	30.106
1333.39	18.234
1336.99	25.223
1340.59	150.965
1344.18	123.439
1347.77	468.212
1351.37	455.587
1354.95	371.58
1358.54	311.778
1362.13	149.63
1365.71	77.183
1369.3	44.924
1372.88	92.132
1376.46	269.953
1380.04	477.683
1383.61	744.425
1387.19	1034.62
1390.76	1063.43
1394.33	1332.82
1397.9	1397.35
1401.47	996.136
1405.04	614.069
1408.6	264.746
1412.16	371.867
1415.72	549.475
1419.29	623.77
1422.84	676.748
1426.4	830.579
1429.96	708.201
1433.51	732.73
1437.06	473.858
1440.61	287.534
1444.16	302.063
1447.71	315.63
1451.25	289.994
1454.8	434.584
1458.34	538.665
1461.88	772.226
1465.42	675.33
1468.96	618.193
1472.49	611.378
1476.03	395.87
1479.56	290.944
1483.09	66.959
1486.62	16.345
1490.15	180.787
1493.67	298.535
1497.2	507.381
1500.72	547.71
1504.24	599.239
1507.76	604.732
1511.28	628.826
1514.8	593.253
1518.31	260.088
1521.83	28.441
