Measurement: Raman, 514 nm, ccw, Raman Data Processed
Mineral: Gaylussite
Rruff sample: R040146
Ideal chemistry: Na_2_Ca(CO_3_)_2_5H_2_O
Locality: Searles Lake, Trona, San Bernardino County, California, USA
Source: University of Arizona Mineral Museum
Description: Colorless crystal fragments
Measured chemistry: Na_2.00_Ca_1.00_(C_1.00_O_3_)_2_Â·5H_2_O
Pin_id: L00288
Orientation: Laser parallel to a* (1 0 0). Fiducial mark perpendicular to laser is parallel to -b [0 -1 0]
Raman shift (cm-1)	intensity
95.268	0
99.453	50.71
103.636	396.366
107.817	290.896
111.996	560.839
116.172	975.208
120.347	681.384
124.519	393.544
128.69	298.911
132.858	333.419
137.025	663.306
141.189	860.836
145.352	570.369
149.512	406.574
153.67	481.127
157.827	778.087
161.981	1237.29
166.133	1618.82
170.283	2047.49
174.431	2143.96
178.577	1129.14
182.721	448.167
186.863	223.105
191.003	36.277
195.141	51.692
199.277	22.445
203.411	73.448
207.543	185.669
211.673	166.385
215.801	88.369
219.927	42.236
224.051	54.454
228.173	65.762
232.292	153.556
236.41	244.95
240.526	290.699
244.64	394.403
248.752	680.785
252.861	1286.9
256.969	2434.71
261.075	4309.77
265.179	5011.84
269.281	3442.14
273.38	1801.85
277.478	1182.73
281.574	957.572
285.668	810.135
289.76	587.327
293.85	416.706
297.937	260.973
302.023	129.771
306.107	132.889
310.189	90.979
314.269	82.206
318.347	9.806
322.423	1.791
326.497	12.48
330.569	34.271
334.639	39.964
338.707	20.645
342.773	31.082
346.837	19.788
350.899	34.479
354.96	17.855
359.018	25.208
363.074	28.343
367.128	14.103
371.181	16.398
375.231	1.069
379.28	4.593
383.326	2.96
387.37	10.039
391.413	2.341
395.454	27.396
399.492	47.399
403.529	3.46
407.564	29.114
411.596	45.645
415.627	14.224
419.656	11.159
423.683	59.891
427.708	44.167
431.731	36.993
435.752	7.879
439.772	2.296
443.789	7.799
447.804	26.438
451.817	26.029
455.829	17.262
459.838	74.22
463.846	57.532
467.852	29.767
471.855	37.895
475.857	67.936
479.857	147.904
483.855	129.783
487.851	105.646
491.845	121.978
495.837	102.175
499.828	112.034
503.816	81.448
507.802	102.568
511.787	91.689
515.77	106.889
519.75	109.542
523.729	87.519
527.706	101.14
531.681	103.987
535.654	92.936
539.625	41.655
543.595	75.634
547.562	73.773
551.527	42.804
555.491	33.132
559.453	41.041
563.412	75.387
567.37	90.879
571.326	66.631
575.28	42.591
579.233	51.959
583.183	79.052
587.131	63.678
591.078	76.324
595.022	65.299
598.965	31.903
602.906	69.432
606.845	39.888
610.782	26.512
614.718	31.696
618.651	81.817
622.582	82.959
626.512	109.66
630.44	85.135
634.366	70.472
638.29	130.369
642.212	193.902
646.132	153.699
650.05	144.375
653.967	127.691
657.882	174.277
661.794	181.621
665.705	136.888
669.614	123.466
673.522	169.029
677.427	134.048
681.331	195.591
685.232	196.775
689.132	165.964
693.03	179.188
696.926	98.398
700.82	128.743
704.713	100.226
708.603	68.16
712.492	104.174
716.379	350.345
720.264	858.621
724.147	606.811
728.028	214.008
731.908	94.378
735.785	120.831
739.661	111.104
743.535	68.156
747.407	2.639
751.278	35.029
755.146	22.305
759.013	47.461
762.878	29.84
766.741	25.99
770.602	22.781
774.461	7.502
778.319	33.891
782.174	70.125
786.028	43.367
789.88	20.72
793.73	11.913
797.579	43.105
801.425	41.596
805.27	35.777
809.113	6.072
812.954	25.919
816.794	9.71
820.631	82.843
824.467	65.723
828.301	51.834
832.133	35.929
835.963	26.846
839.792	40.209
843.618	71.265
847.443	95.41
851.266	45.471
855.088	89.543
858.907	147.624
862.725	160.719
866.541	118.828
870.355	178.956
874.167	76.099
877.978	32.262
881.787	99.476
885.594	104.719
889.399	179.979
893.202	79.905
897.004	46.239
900.803	69.308
904.601	84.698
908.398	147.108
912.192	131.394
915.985	110.688
919.776	36.912
923.565	61.721
927.352	49.535
931.138	103.125
934.922	75.738
938.704	109.375
942.484	63.243
946.262	21.929
950.039	55.641
953.814	83.379
957.587	81.225
961.359	95.948
965.128	5.922
968.896	16.726
972.662	55.167
976.427	1.097
980.189	78.046
983.95	90.531
987.709	55.829
991.467	34.848
995.222	23.177
998.976	21.26
1002.73	98.378
1006.48	113.519
1010.23	114.699
1013.97	72.968
1017.72	121.41
1021.46	111.768
1025.2	173.281
1028.94	190.367
1032.68	242.96
1036.42	185.792
1040.15	185.466
1043.89	277.551
1047.62	366.11
1051.35	776.879
1055.07	722.665
1058.8	990.627
1062.52	1786.21
1066.25	4297.69
1069.97	28192.8
1073.69	44673.8
1077.4	6564.79
1081.12	2003.77
1084.83	925.953
1088.55	614.111
1092.26	393.158
1095.96	244.339
1099.67	256.738
1103.38	238.697
1107.08	230.124
1110.78	199.46
1114.48	187.783
1118.18	80.634
1121.88	108.14
1125.57	127.179
1129.27	109.702
1132.96	116.211
1136.65	226.723
1140.34	136.261
1144.02	39.537
1147.71	59.917
1151.39	23.321
1155.07	59.676
1158.75	147.522
1162.43	188.067
1166.11	116.815
1169.78	80.436
1173.45	70.097
1177.12	52.412
1180.79	4.331
1184.46	81.417
1188.13	100.575
1191.79	120.506
1195.45	97.487
1199.11	88.55
1202.77	24.205
1206.43	39.774
1210.09	3.674
1213.74	115.349
1217.39	142.98
1221.05	134.112
1224.69	186.702
1228.34	68.127
1231.99	57.332
1235.63	59.809
1239.27	101.151
1242.91	76.391
1246.55	110.332
1250.19	177.425
1253.83	131.223
1257.46	179.938
1261.09	83.601
1264.72	38.586
1268.35	16.034
1271.98	87.577
1275.61	64.127
1279.23	127.529
1282.85	161.854
1286.47	140.102
1290.09	101.083
1293.71	59.934
1297.33	75.614
1300.94	10.199
1304.55	70.613
1308.16	23.836
1311.77	202.753
1315.38	155.66
1318.99	171.344
1322.59	132.257
1326.19	17.547
1329.79	1.006
1333.39	13.793
1336.99	40.917
1340.59	82.079
1344.18	35.945
1347.77	179.626
1351.37	166.484
1354.95	87.597
1358.54	84.083
1362.13	40.913
1365.71	71.307
1369.3	0.735
1372.88	36.293
1376.46	83.188
1380.04	81.984
1383.61	201.512
1387.19	221.564
1390.76	172.43
1394.33	189.176
1397.9	199.082
1401.47	210.146
1405.04	62.15
1408.6	115.314
1412.16	120.125
1415.72	225.39
1419.29	220.461
1422.84	198.823
1426.4	314.671
1429.96	169.913
1433.51	244.605
1437.06	159.041
1440.61	81.576
1444.16	87.835
1447.71	127.619
1451.25	147.203
1454.8	200.63
1458.34	188.142
1461.88	366.478
1465.42	232.57
1468.96	244.411
1472.49	278.502
1476.03	243.272
1479.56	169.125
1483.09	92.668
1486.62	127.826
1490.15	126.422
1493.67	101.538
1497.2	266.803
1500.72	247.578
1504.24	224.255
1507.76	205.929
1511.28	304.525
1514.8	224.564
1518.31	36.279
1521.83	0.325
