Measurement: Raman, 514 nm, ccw, Raman Data Processed
Mineral: Gaylussite
Rruff sample: R040146
Ideal chemistry: Na_2_Ca(CO_3_)_2_5H_2_O
Locality: Searles Lake, Trona, San Bernardino County, California, USA
Source: University of Arizona Mineral Museum
Description: Colorless crystal fragments
Measured chemistry: Na_2.00_Ca_1.00_(C_1.00_O_3_)_2_Â·5H_2_O
Pin_id: L00282
Orientation: Laser parallel to (1 0 1). Fiducial mark perpendicular to laser is parallel to -b [0 -1 0]
Raman shift (cm-1)	intensity
93.873	0
98.058	682.908
102.242	6493.15
106.423	4880.03
110.603	1282.62
114.78	1577.83
118.956	2041.09
123.129	3238.88
127.3	2087.01
131.469	466.21
135.636	10.203
139.801	108.991
143.964	429.446
148.125	876.49
152.284	1096.32
156.441	1648.87
160.596	3300.22
164.749	4657.68
168.9	3486.83
173.049	1222.42
177.195	394.021
181.34	118.301
185.483	125.116
189.624	153.104
193.762	140.763
197.899	32.251
202.034	219.812
206.166	640.026
210.297	714.429
214.425	406.412
218.552	436.625
222.676	665.104
226.799	673.009
230.919	937.055
235.038	1051.45
239.154	838.331
243.269	770.294
247.381	970.546
251.492	1624.97
255.6	2771.09
259.707	3888.34
263.811	4483.46
267.914	3468.87
272.014	2171.97
276.113	1532.57
280.209	1113.26
284.304	871.209
288.396	523.706
292.487	287.729
296.575	211.046
300.662	114.15
304.746	123.058
308.829	37.234
312.909	49.047
316.988	42.638
321.065	57.968
325.139	40.037
329.212	90.848
333.283	110.396
337.351	214.694
341.418	217.749
345.483	158.563
349.546	97.089
353.606	41.32
357.665	27.112
361.722	24.147
365.777	44.244
369.83	43.542
373.881	20.526
377.93	54.971
381.977	38.227
386.023	50.134
390.066	7.707
394.107	10.799
398.146	41.285
402.184	24.353
406.219	12.954
410.252	56.391
414.284	57.425
418.313	40.182
422.341	80.708
426.367	50.113
430.39	79.268
434.412	96.105
438.432	93.629
442.45	70.818
446.466	128.926
450.48	139.801
454.492	185.17
458.502	135.139
462.51	192.789
466.517	238.549
470.521	292.868
474.523	280.389
478.524	246.75
482.523	364.594
486.519	256.258
490.514	291.419
494.507	370.68
498.498	453.379
502.487	478.908
506.474	600.205
510.459	676.897
514.442	807.739
518.424	879.058
522.403	870.816
526.381	723.724
530.356	565.418
534.33	451.632
538.302	408.183
542.272	220.771
546.24	262.774
550.206	191.312
554.17	189.638
558.132	203.171
562.093	218.213
566.051	222.926
570.008	232.883
573.963	299.479
577.915	248.989
581.866	126.289
585.815	170.337
589.763	200.42
593.708	185.462
597.651	123.104
601.593	39.358
605.532	101.132
609.47	130.333
613.406	159.616
617.34	108.114
621.272	31.485
625.202	96.582
629.131	181.757
633.057	208.749
636.982	153.364
640.905	146.373
644.825	278.911
648.744	314.716
652.662	346.438
656.577	407.642
660.49	399.367
664.402	522.697
668.312	571.011
672.219	364.257
676.125	459.48
680.03	234.89
683.932	292.947
687.832	394.496
691.731	426.872
695.628	276.955
699.522	173.575
703.415	224.223
707.307	174.655
711.196	164.965
715.083	29.253
718.969	121.497
722.853	146.711
726.735	143.888
730.615	60.019
734.493	40.917
738.37	114.982
742.244	21.703
746.117	101.318
749.988	74.858
753.857	110.304
757.724	30.558
761.59	22.713
765.453	105.578
769.315	69.567
773.175	33.574
777.033	112.794
780.889	7.254
784.744	116.221
788.596	92.673
792.447	39.034
796.296	26.109
800.143	16.874
803.989	1.973
807.832	20.368
811.674	89.316
815.514	156.736
819.352	131.165
823.189	117.804
827.023	86.441
830.856	167.414
834.687	166.313
838.516	73.88
842.343	70.945
846.169	95.277
849.992	79.772
853.814	98.696
857.634	116.773
861.453	176.601
865.269	172.347
869.084	176.65
872.897	272.197
876.708	143.728
880.517	100.206
884.325	119.415
888.13	214.979
891.934	178.687
895.737	249.465
899.537	223.135
903.336	241.304
907.132	145.104
910.928	210.884
914.721	109.223
918.512	229.19
922.302	249.654
926.09	123.678
929.876	89.002
933.66	92.182
937.443	53.399
941.224	180.311
945.003	73.938
948.78	107.818
952.556	19.432
956.33	3.178
960.102	120.556
963.872	169.974
967.64	71.63
971.407	39.071
975.172	39.564
978.935	33.218
982.697	47.403
986.456	194.891
990.214	194.67
993.971	96.969
997.725	7.89
1001.48	21.427
1005.23	29.984
1008.98	79.804
1012.73	168.586
1016.47	174.926
1020.22	218.561
1023.96	86.286
1027.7	205.385
1031.44	109.051
1035.17	267.823
1038.91	180.831
1042.64	463.576
1046.37	357.1
1050.1	652.759
1053.83	660.132
1057.56	826.699
1061.28	1343.52
1065.01	2870.35
1068.73	11717.5
1072.45	51754.3
1076.16	9660.9
1079.88	2197.77
1083.6	1014.23
1087.31	690.826
1091.02	527.18
1094.73	533.551
1098.44	289.672
1102.14	135.031
1105.85	150.807
1109.55	127.687
1113.25	193.17
1116.95	194.852
1120.65	289.981
1124.34	155.918
1128.04	30.202
1131.73	44.15
1135.42	44.671
1139.11	272.712
1142.79	178.273
1146.48	155.498
1150.16	90.663
1153.84	187.125
1157.52	183.312
1161.2	88.57
1164.88	118.751
1168.56	177.278
1172.23	382.164
1175.9	300.46
1179.57	239.867
1183.24	96.471
1186.9	181.818
1190.57	2.345
1194.23	154.446
1197.89	127.888
1201.55	313.882
1205.21	318.841
1208.87	261.051
1212.52	77.258
1216.18	78.912
1219.83	140.136
1223.48	141.374
1227.13	221.783
1230.77	312.271
1234.42	382.106
1238.06	201.652
1241.7	240.437
1245.34	108.53
1248.98	146.421
1252.62	34.124
1256.25	201.603
1259.88	298.592
1263.51	405.164
1267.14	381.894
1270.77	278.178
1274.4	63.833
1278.02	148.997
1281.65	131.477
1285.27	25.822
1288.89	99.536
1292.51	65.79
1296.12	76.123
1299.74	208.582
1303.35	190.933
1306.96	47.145
1310.57	195.769
1314.18	125.042
1317.79	42.104
1321.39	151.55
1324.99	191.006
1328.59	389.544
1332.19	238.262
1335.79	225.61
1339.39	122.999
1342.98	33.832
1346.58	26.212
1350.17	121.059
1353.76	52.21
1357.35	124.225
1360.93	450.246
1364.52	347.626
1368.1	323.676
1371.68	180.735
1375.26	136.446
1378.84	101.992
1382.42	148.596
1385.99	289.442
1389.57	548.808
1393.14	639.461
1396.71	1138.12
1400.28	1155.96
1403.85	1030.99
1407.41	653.404
1410.98	426.475
1414.54	339.595
1418.1	247.733
1421.66	410.276
1425.21	420.037
1428.77	784.317
1432.33	887.424
1435.88	1016.37
1439.43	866.407
1442.98	933.069
1446.53	719.217
1450.07	554.963
1453.62	291.645
1457.16	260.228
1460.7	167.507
1464.24	263.554
1467.78	228.698
1471.32	344.293
1474.85	371.223
1478.38	409.149
1481.91	568.164
1485.44	487.902
1488.97	308.321
1492.5	339.189
1496.03	11.492
1499.55	123.597
1503.07	14.374
1506.59	218.234
1510.11	288.818
1513.63	333.012
1517.14	536.641
1520.66	0
