Measurement: Raman, 514 nm, ccw, Raman Data Processed
Mineral: Gaylussite
Rruff sample: R040146
Ideal chemistry: Na_2_Ca(CO_3_)_2_5H_2_O
Locality: Searles Lake, Trona, San Bernardino County, California, USA
Source: University of Arizona Mineral Museum
Description: Colorless crystal fragments
Measured chemistry: Na_2.00_Ca_1.00_(C_1.00_O_3_)_2_Â·5H_2_O
Pin_id: L00275
Orientation: Laser parallel to b* (0 1 0). Fiducial mark perpendicular to laser is parallel to c [0 0 1]
Raman shift (cm-1)	intensity
99.453	0
103.636	22.168
107.817	186.537
111.996	568.923
116.172	1035.02
120.347	713.056
124.519	646.416
128.69	950.069
132.858	876.457
137.025	816.947
141.189	840.467
145.352	624.019
149.512	484.154
153.67	525.928
157.827	652.341
161.981	1104.82
166.133	1554.09
170.283	2102.05
174.431	2117.86
178.577	1234.18
182.721	599.692
186.863	425.325
191.003	280.114
195.141	204.225
199.277	168.756
203.411	196.813
207.543	411.382
211.673	355.436
215.801	228.354
219.927	185.043
224.051	147.832
228.173	167.344
232.292	287.594
236.41	299.922
240.526	352.687
244.64	480.054
248.752	831.556
252.861	1495.11
256.969	2467.77
261.075	3044.88
265.179	2945.84
269.281	1939.47
273.38	1108.63
277.478	786.996
281.574	705.921
285.668	608.209
289.76	443.524
293.85	344.211
297.937	254.253
302.023	146.905
306.107	81.867
310.189	12.166
314.269	57.896
318.347	11.98
322.423	36.268
326.497	16.362
330.569	0.752
334.639	27.229
338.707	18.466
342.773	12.446
346.837	14.429
350.899	32.603
354.96	27.345
359.018	23.181
363.074	20.614
367.128	22.893
371.181	36.049
375.231	63.919
379.28	13.542
383.326	40.989
387.37	24.878
391.413	22.664
395.454	39.739
399.492	12.801
403.529	23.13
407.564	10.241
411.596	16.695
415.627	7.177
419.656	3.464
423.683	16.256
427.708	73.74
431.731	10.259
435.752	20.794
439.772	8.498
443.789	18.73
447.804	102.368
451.817	16.479
455.829	21.474
459.838	31.042
463.846	7.818
467.852	31.587
471.855	83.827
475.857	68.451
479.857	135.99
483.855	91.483
487.851	138.036
491.845	87.132
495.837	139.416
499.828	64.387
503.816	70.414
507.802	102.578
511.787	80.842
515.77	86.124
519.75	57.975
523.729	107.618
527.706	88.647
531.681	68.397
535.654	93.048
539.625	100.931
543.595	42.146
547.562	61.409
551.527	64.419
555.491	81.197
559.453	31.174
563.412	55.501
567.37	39.502
571.326	114.293
575.28	38.007
579.233	44.112
583.183	140.589
587.131	97.278
591.078	36.281
595.022	23.8
598.965	41.261
602.906	101.346
606.845	51.065
610.782	133.844
614.718	1.287
618.651	80.018
622.582	80.162
626.512	134.793
630.44	77.557
634.366	70.845
638.29	78.979
642.212	124.075
646.132	113.875
650.05	118.651
653.967	133.32
657.882	65.412
661.794	151.187
665.705	148.737
669.614	149.666
673.522	143.316
677.427	60.495
681.331	60.468
685.232	141.346
689.132	160.43
693.03	102.444
696.926	204.421
700.82	168.293
704.713	120.711
708.603	174.788
712.492	223.089
716.379	571.152
720.264	1578.64
724.147	1106.89
728.028	441.275
731.908	235.102
735.785	195.407
739.661	118.129
743.535	154.009
747.407	198.949
751.278	48.068
755.146	62.777
759.013	90.849
762.878	74.951
766.741	6.946
770.602	61.873
774.461	1.006
778.319	50.918
782.174	57.752
786.028	79.043
789.88	67.87
793.73	24.743
797.579	14.436
801.425	13.224
805.27	70.995
809.113	82.748
812.954	48.441
816.794	40.841
820.631	173.82
824.467	49.449
828.301	162.562
832.133	87.733
835.963	23.147
839.792	38.64
843.618	90.303
847.443	93.147
851.266	39.049
855.088	45.701
858.907	84.365
862.725	91.065
866.541	208.817
870.355	214.599
874.167	60.404
877.978	152.237
881.787	86.093
885.594	116.029
889.399	164.985
893.202	147.819
897.004	55.497
900.803	84.492
904.601	43.551
908.398	55.675
912.192	145.828
915.985	92.044
919.776	24.049
923.565	69.017
927.352	67.752
931.138	103.075
934.922	89.146
938.704	129.561
942.484	88.026
946.262	23.527
950.039	5.979
953.814	58.25
957.587	120.854
961.359	87.055
965.128	24.759
968.896	38.927
972.662	46.682
976.427	2.53
980.189	128.289
983.95	66.085
987.709	133.209
991.467	44.062
995.222	25.805
998.976	141.604
1002.73	125.122
1006.48	153.03
1010.23	91.01
1013.97	155.692
1017.72	214.035
1021.46	108.326
1025.2	141.724
1028.94	174.49
1032.68	298.164
1036.42	237.694
1040.15	292.176
1043.89	250.175
1047.62	303.058
1051.35	768.084
1055.07	688.232
1058.8	992.48
1062.52	1591.6
1066.25	3833.11
1069.97	23872.6
1073.69	38661.5
1077.4	5780.63
1081.12	1828.66
1084.83	982.7
1088.55	569.704
1092.26	395.719
1095.96	358.781
1099.67	177.102
1103.38	307.315
1107.08	319.634
1110.78	227.946
1114.48	277.175
1118.18	122.303
1121.88	83.701
1125.57	174.029
1129.27	163.832
1132.96	19.601
1136.65	203.282
1140.34	150.823
1144.02	62.342
1147.71	48.149
1151.39	120.093
1155.07	122.925
1158.75	111.129
1162.43	274.668
1166.11	186.823
1169.78	134.469
1173.45	10.584
1177.12	18.569
1180.79	110.486
1184.46	21.627
1188.13	183.689
1191.79	246.66
1195.45	248.424
1199.11	188.021
1202.77	26.387
1206.43	42.539
1210.09	43.377
1213.74	99.208
1217.39	169.755
1221.05	203.079
1224.69	126.258
1228.34	168.131
1231.99	125.04
1235.63	166.784
1239.27	215.707
1242.91	84.098
1246.55	172.12
1250.19	242.146
1253.83	231.976
1257.46	285.695
1261.09	113.3
1264.72	55.814
1268.35	58.335
1271.98	79.769
1275.61	133.729
1279.23	131.413
1282.85	243.037
1286.47	289.117
1290.09	82.107
1293.71	89.82
1297.33	18.34
1300.94	40.326
1304.55	56.763
1308.16	9.979
1311.77	187.29
1315.38	272.407
1318.99	233.001
1322.59	262.371
1326.19	118.885
1329.79	5.814
1333.39	16.79
1336.99	36.276
1340.59	21.842
1344.18	109.301
1347.77	157.842
1351.37	259.572
1354.95	276.059
1358.54	375.422
1362.13	104.554
1365.71	131.213
1369.3	62.693
1372.88	25.961
1376.46	134.249
1380.04	93.277
1383.61	333.051
1387.19	342.665
1390.76	373.659
1394.33	545.619
1397.9	486.996
1401.47	328.219
1405.04	239.43
1408.6	105.505
1412.16	81.293
1415.72	346.479
1419.29	156.482
1422.84	380.071
1426.4	465.385
1429.96	439.449
1433.51	526.57
1437.06	332.225
1440.61	307.047
1444.16	260.385
1447.71	246.422
1451.25	266.445
1454.8	168.412
1458.34	242.659
1461.88	346.92
1465.42	440.312
1468.96	391.966
1472.49	284.693
1476.03	338.287
1479.56	242.562
1483.09	137.002
1486.62	61.457
1490.15	56.918
1493.67	173.316
1497.2	240.514
1500.72	219.014
1504.24	318.955
1507.76	430.97
1511.28	375.703
1514.8	356.122
1518.31	184.838
1521.83	193.504
