Measurement: Raman, 514 nm, ccw, Raman Data Processed
Mineral: Gaylussite
Rruff sample: R040146
Ideal chemistry: Na_2_Ca(CO_3_)_2_5H_2_O
Locality: Searles Lake, Trona, San Bernardino County, California, USA
Source: University of Arizona Mineral Museum
Description: Colorless crystal fragments
Measured chemistry: Na_2.00_Ca_1.00_(C_1.00_O_3_)_2_Â·5H_2_O
Pin_id: L00282
Orientation: Laser parallel to (1 0 1). Fiducial mark perpendicular to laser is parallel to -b [0 -1 0]
Raman shift (cm-1)	intensity
92.477	0
96.663	832.177
100.848	846.879
105.03	915.29
109.21	232.962
113.388	2159.46
117.564	2074.3
121.738	1075.55
125.91	603.29
130.08	99.268
134.248	15.931
138.413	113.56
142.577	155.325
146.739	312.995
150.898	713.748
155.056	1401.3
159.212	2960.11
163.365	4497.51
167.517	3670.66
171.666	1898.51
175.813	1129.49
179.959	999.205
184.102	683.311
188.244	523.646
192.383	636.185
196.52	398.951
200.656	197.632
204.789	287.266
208.92	454.14
213.049	493.098
217.176	419.954
221.302	531.146
225.425	1105.29
229.546	2169.08
233.665	2461.08
237.782	1446.66
241.898	702.444
246.011	450.119
250.122	467.218
254.231	581.596
258.338	407.898
262.443	260.515
266.546	191.114
270.647	152.848
274.747	163.738
278.844	410.297
282.939	519.822
287.032	456.681
291.123	354.651
295.212	207.983
299.3	56.082
303.385	72.773
307.468	27.231
311.549	75.84
315.629	55.49
319.706	1.489
323.781	41.992
327.855	46.687
331.926	16.495
335.995	96.557
340.063	127.513
344.128	48.303
348.192	58.955
352.253	74.462
356.313	126.816
360.37	12.994
364.426	21.674
368.479	17.63
372.531	47.957
376.581	43.955
380.629	62.299
384.674	27.184
388.718	16.574
392.76	11.29
396.8	9.834
400.838	80.03
404.874	82.838
408.908	98.163
412.94	10.19
416.97	48.832
420.999	40.268
425.025	81.667
429.049	46.894
433.072	10.772
437.092	48.367
441.111	81.718
445.127	48.875
449.142	102.793
453.155	109.464
457.166	78.877
461.175	123.084
465.181	110.224
469.186	158.223
473.19	169.646
477.191	243.513
481.19	125.802
485.187	148.401
489.183	142.445
493.176	197.743
497.168	169.967
501.157	195.263
505.145	252.382
509.131	268.312
513.115	287.012
517.097	325.803
521.077	315.41
525.055	429.453
529.031	428.925
533.006	333.617
536.978	349.129
540.949	328.118
544.917	336.76
548.884	396.381
552.849	304.035
556.812	293.796
560.773	495.564
564.732	529.871
568.689	438.713
572.644	423.618
576.598	585.468
580.55	650.299
584.499	576.94
588.447	455.666
592.393	349.217
596.337	395.07
600.279	321.139
604.219	256.014
608.158	260.581
612.094	265.007
616.029	273.844
619.962	226.286
623.892	265.521
627.821	276.043
631.749	175.37
635.674	111.709
639.597	211.795
643.519	167.916
647.438	216.148
651.356	215.201
655.272	220.467
659.186	400.726
663.098	194.754
667.009	242.476
670.917	305.206
674.824	228.02
678.728	182.734
682.631	257.646
686.532	213.295
690.432	211.939
694.329	256.854
698.224	120.83
702.118	183.654
706.01	131.656
709.9	66.415
713.788	290.184
717.674	208.925
721.558	53.698
725.441	111.529
729.322	36.33
733.201	132.101
737.078	113.757
740.953	36.235
744.826	26.273
748.698	25.319
752.567	137.146
756.435	118.641
760.301	120.081
764.165	91.508
768.028	173.108
771.888	204.507
775.747	175.807
779.604	96.88
783.459	38.011
787.312	8.988
791.164	9.936
795.013	160.882
798.861	206.104
802.707	156.945
806.551	67.77
810.394	48.584
814.234	179.841
818.073	250.553
821.91	18.61
825.745	42.224
829.578	73.334
833.41	76.622
837.24	305.325
841.068	221.279
844.894	205.95
848.718	6.677
852.54	47.978
856.361	238.435
860.18	408.902
863.997	339.243
867.812	249.627
871.626	199.9
875.438	310.075
879.248	300.285
883.056	330.346
886.862	388.901
890.667	104.416
894.469	178.437
898.27	126.738
902.07	256.906
905.867	397.051
909.663	147.195
913.457	95.827
917.249	165.928
921.039	246.279
924.827	134.455
928.614	149.596
932.399	113.127
936.182	203.306
939.964	93.414
943.744	73.531
947.521	253.619
951.298	292.9
955.072	243.006
958.845	75.148
962.615	15.017
966.384	103.201
970.152	243.793
973.917	93.873
977.681	184.003
981.443	94.424
985.203	145.618
988.962	65.84
992.719	203.964
996.474	184.229
1000.23	263.376
1003.98	363.05
1007.73	52.823
1011.48	92.358
1015.22	132.443
1018.97	162.713
1022.71	453.07
1026.45	389.016
1030.19	289.931
1033.93	140.491
1037.66	201.351
1041.4	232.135
1045.13	472.87
1048.86	563.87
1052.59	827.462
1056.32	588.505
1060.04	530.611
1063.77	1321.81
1067.49	4323.45
1071.21	31214.6
1074.93	13665.6
1078.64	2516.2
1082.36	957.208
1086.07	557.92
1089.78	608.893
1093.49	409.209
1097.2	469.599
1100.91	475.414
1104.61	296.437
1108.32	317.515
1112.02	58.003
1115.72	2.518
1119.41	89.365
1123.11	230.291
1126.8	411.042
1130.5	349.963
1134.19	208.795
1137.88	135.896
1141.56	93.931
1145.25	150.007
1148.93	253.98
1152.62	400.932
1156.3	374.41
1159.98	404.633
1163.65	74.485
1167.33	150.405
1171	34.854
1174.68	174.233
1178.35	266.713
1182.02	286.481
1185.68	392.731
1189.35	499.745
1193.01	268.271
1196.67	23.271
1200.33	134.062
1203.99	223.882
1207.65	480.252
1211.31	396.02
1214.96	561.192
1218.61	574.142
1222.26	278.908
1225.91	193.363
1229.56	196.018
1233.2	359.934
1236.85	423.018
1240.49	376.338
1244.13	559.049
1247.77	331.604
1251.4	473.953
1255.04	224.153
1258.67	275.761
1262.3	216.796
1265.93	287.89
1269.56	328
1273.19	458.386
1276.82	367.961
1280.44	227.514
1284.06	166.519
1287.68	165.058
1291.3	26.924
1294.92	29.166
1298.53	168.005
1302.14	204.832
1305.76	341.062
1309.37	356.285
1312.98	421.522
1316.58	73.242
1320.19	25.199
1323.79	8.155
1327.39	48.611
1330.99	113.936
1334.59	306.26
1338.19	408.406
1341.79	306.775
1345.38	418.602
1348.97	299.615
1352.56	199.354
1356.15	140.057
1359.74	87.605
1363.32	122.43
1366.91	372.768
1370.49	262.754
1374.07	492.756
1377.65	447.383
1381.23	693.996
1384.8	679.443
1388.38	503.424
1391.95	676.59
1395.52	968.408
1399.09	1022.71
1402.66	894.189
1406.22	729.561
1409.79	814.232
1413.35	791.816
1416.91	568.691
1420.47	619.451
1424.03	521.111
1427.59	300.43
1431.14	412.32
1434.69	233.764
1438.24	338.094
1441.8	477.123
1445.34	363.203
1448.89	495.637
1452.43	727.09
1455.98	788.02
1459.52	807.498
1463.06	315.803
1466.6	224.131
1470.14	263.273
1473.67	153.533
1477.2	65.031
1480.74	218.162
1484.27	313.533
1487.8	489.834
1491.32	578.062
1494.85	579.27
1498.37	624.314
1501.9	480.025
1505.42	475.832
1508.94	231.234
1512.45	87.01
1515.97	0
