Measurement: Raman, 514 nm, ccw, Raman Data Processed
Mineral: Gaylussite
Rruff sample: R040146
Ideal chemistry: Na_2_Ca(CO_3_)_2_5H_2_O
Locality: Searles Lake, Trona, San Bernardino County, California, USA
Source: University of Arizona Mineral Museum
Description: Colorless crystal fragments
Measured chemistry: Na_2.00_Ca_1.00_(C_1.00_O_3_)_2_Â·5H_2_O
Pin_id: L00288
Orientation: Laser parallel to a* (1 0 0). Fiducial mark perpendicular to laser is parallel to -b [0 -1 0]
Raman shift (cm-1)	intensity
93.873	0
98.058	392.389
102.242	3488.79
106.423	2759.61
110.603	591.2
114.78	758.711
118.956	1169.3
123.129	1593.72
127.3	1089.63
131.469	800.242
135.636	618.361
139.801	383.867
143.964	128.767
148.125	356.531
152.284	1028.99
156.441	2879.43
160.596	7508.24
164.749	13398.2
168.9	10818.9
173.049	5161.3
177.195	2305.4
181.34	883.551
185.483	141.338
189.624	33.013
193.762	51.363
197.899	173.781
202.034	57.572
206.166	177.37
210.297	310.557
214.425	161.715
218.552	43.119
222.676	72.657
226.799	277.91
230.919	545.729
235.038	615.302
239.154	406.158
243.269	195.968
247.381	285.61
251.492	490.437
255.6	1197.88
259.707	2186.45
263.811	2825.92
267.914	2440.18
272.014	1748.31
276.113	1440.11
280.209	1447.95
284.304	1272.06
288.396	785.448
292.487	412.626
296.575	169.756
300.662	99.686
304.746	29.265
308.829	59.997
312.909	87.658
316.988	13.963
321.065	42.72
325.139	47.905
329.212	32.521
333.283	31.416
337.351	26.947
341.418	104.14
345.483	77.026
349.546	75.604
353.606	1.135
357.665	21.302
361.722	22.096
365.777	13.849
369.83	9.962
373.881	23.187
377.93	23.715
381.977	44.752
386.023	28.466
390.066	44.765
394.107	40.573
398.146	116.89
402.184	45.791
406.219	95.292
410.252	76.454
414.284	53.268
418.313	103.734
422.341	78.936
426.367	73.943
430.39	99.675
434.412	155.105
438.432	160.228
442.45	139.039
446.466	170.525
450.48	192.813
454.492	175.659
458.502	149.188
462.51	170.423
466.517	273.578
470.521	228.158
474.523	193.339
478.524	197.544
482.523	318.021
486.519	222.54
490.514	245.182
494.507	285.066
498.498	326.281
502.487	326.886
506.474	362.257
510.459	444.809
514.442	447.366
518.424	550.802
522.403	547.249
526.381	383.773
530.356	357.013
534.33	284.356
538.302	299.419
542.272	170.466
546.24	187.728
550.206	226.037
554.17	228.864
558.132	141.36
562.093	146.599
566.051	167.336
570.008	200.195
573.963	225.49
577.915	190.77
581.866	116.992
585.815	142.701
589.763	181.676
593.708	174.745
597.651	84.792
601.593	141.464
605.532	87.633
609.47	107.739
613.406	87.84
617.34	87.551
621.272	68.664
625.202	60.227
629.131	129.136
633.057	160.313
636.982	139.882
640.905	182.462
644.825	168.262
648.744	265.831
652.662	281.513
656.577	294.076
660.49	274.489
664.402	380.411
668.312	434.988
672.219	338.749
676.125	235.324
680.03	242.887
683.932	219.684
687.832	250.388
691.731	244.317
695.628	158.331
699.522	105.318
703.415	103.261
707.307	149.139
711.196	118.014
715.083	175.883
718.969	338.758
722.853	575.653
726.735	341.568
730.615	162.5
734.493	45.431
738.37	25.638
742.244	2.271
746.117	91.19
749.988	49.107
753.857	84.994
757.724	45.864
761.59	42.875
765.453	35.592
769.315	69.446
773.175	29.222
777.033	57.096
780.889	14.463
784.744	57.044
788.596	105.577
792.447	28.022
796.296	2.45
800.143	19.142
803.989	2.225
807.832	92.539
811.674	56.284
815.514	5.784
819.352	43.923
823.189	2.005
827.023	50.012
830.856	91.004
834.687	5.996
838.516	46.916
842.343	89.995
846.169	68.65
849.992	164.828
853.814	136.652
857.634	57.478
861.453	87.258
865.269	51.875
869.084	124.62
872.897	249.348
876.708	155.063
880.517	109.779
884.325	80.512
888.13	147.099
891.934	157.563
895.737	208.06
899.537	113.651
903.336	102.257
907.132	63.006
910.928	71.658
914.721	120.168
918.512	112.516
922.302	114.954
926.09	126.539
929.876	28.73
933.66	74.083
937.443	134.688
941.224	229.257
945.003	41.531
948.78	69.859
952.556	63.283
956.33	34.693
960.102	30.387
963.872	182.003
967.64	42.372
971.407	16.647
975.172	88.772
978.935	55.266
982.697	34.681
986.456	155.916
990.214	104.29
993.971	62.6
997.725	7.102
1001.48	63.932
1005.23	65.114
1008.98	129.358
1012.73	212.656
1016.47	189.262
1020.22	127.9
1023.96	134.653
1027.7	159.45
1031.44	114.895
1035.17	255.771
1038.91	318.405
1042.64	283.656
1046.37	327.912
1050.1	468.006
1053.83	631.888
1057.56	730.738
1061.28	1307.64
1065.01	2611.42
1068.73	10972.4
1072.45	50215.4
1076.16	10057
1079.88	2177.06
1083.6	999.909
1087.31	689.891
1091.02	499.187
1094.73	407.95
1098.44	276.684
1102.14	140.703
1105.85	150.787
1109.55	152.816
1113.25	151.237
1116.95	179.534
1120.65	190.069
1124.34	164.064
1128.04	64.412
1131.73	85.171
1135.42	99.917
1139.11	154.178
1142.79	224.233
1146.48	198.567
1150.16	69.33
1153.84	97.995
1157.52	55.955
1161.2	0.525
1164.88	121.214
1168.56	164.615
1172.23	204.108
1175.9	171.569
1179.57	161.405
1183.24	84.736
1186.9	5.925
1190.57	57.646
1194.23	120.236
1197.89	190.79
1201.55	240.665
1205.21	275.339
1208.87	199.136
1212.52	46.557
1216.18	6.313
1219.83	131.067
1223.48	109.201
1227.13	162.666
1230.77	288.846
1234.42	300.254
1238.06	193.063
1241.7	195.274
1245.34	64.946
1248.98	44.534
1252.62	103.034
1256.25	129.451
1259.88	237.782
1263.51	282.194
1267.14	277.349
1270.77	220.371
1274.4	96.361
1278.02	121.317
1281.65	69.739
1285.27	51.029
1288.89	130.083
1292.51	238.979
1296.12	272.583
1299.74	158.922
1303.35	140.036
1306.96	31.204
1310.57	74.427
1314.18	46.196
1317.79	54.765
1321.39	176.54
1324.99	206.493
1328.59	247.768
1332.19	170.062
1335.79	41.885
1339.39	115.542
1342.98	23.01
1346.58	77.994
1350.17	36.534
1353.76	135.763
1357.35	143.715
1360.93	276.978
1364.52	233.432
1368.1	255.477
1371.68	103.25
1375.26	29.266
1378.84	9.766
1382.42	49.074
1385.99	186.439
1389.57	287.455
1393.14	368.364
1396.71	598.788
1400.28	503.729
1403.85	416.205
1407.41	351.151
1410.98	157.948
1414.54	128.367
1418.1	76.233
1421.66	197.459
1425.21	126.154
1428.77	376.629
1432.33	361.29
1435.88	415.105
1439.43	340.846
1442.98	351.312
1446.53	350.285
1450.07	254.583
1453.62	188.417
1457.16	185.114
1460.7	144.088
1464.24	334.359
1467.78	124.93
1471.32	267.66
1474.85	352.1
1478.38	308.738
1481.91	405.433
1485.44	360.117
1488.97	197.154
1492.5	108.795
1496.03	35.618
1499.55	2.69
1503.07	8.958
1506.59	73.919
1510.11	186.667
1513.63	216.989
1517.14	326.158
1520.66	365.271
1524.17	0
