Measurement: Raman, 514 nm, ccw, Raman Data Processed
Mineral: Gehlenite
Rruff sample: R060841
Ideal chemistry: Ca_2_Al(SiAl)O_7_
Locality: Monzoni, Tyrol, Italy
Source: Michael Scott
Description: Brown rectangular prism
Measured chemistry: lighter phase: (Ca_1.92_Na_0.07_K_0.01_)_Σ=2_(Al_0.62_Mg_0.25_Fe^2+^_0.13_)_Σ=1_(Si_1.46_Al_0.54_)O_7_ ; darker phase: calcite
Pin_id: L00662
Orientation: Laser parallel to a* (1 0 0). Fiducial mark perpendicular to laser is parallel to c [0 0 1]
Raman shift (cm-1)	intensity
174.095	0
179.009	223.387
183.919	207.131
188.827	1401.56
193.732	2593.26
198.634	3857.99
203.534	4364.52
208.43	4201.88
213.324	4248.13
218.215	4765.33
223.104	5960.18
227.99	7474.32
232.872	8246.11
237.753	8681.55
242.63	9186.79
247.504	9321.7
252.376	9176.5
257.245	8991.32
262.112	9026.39
266.975	7412.92
271.836	6811.45
276.694	6512.52
281.549	7215.45
286.402	8691.24
291.252	11284.7
296.099	14452.8
300.943	17438.9
305.785	18758
310.624	16955
315.46	13070
320.293	9601.03
325.124	6927.95
329.952	5167.43
334.777	4112.71
339.599	3284.48
344.419	2820.16
349.236	2540.83
354.05	2330.73
358.862	1915.24
363.67	1370.11
368.476	795.167
373.28	137.326
378.08	11.6348
382.878	18.4268
387.673	340.219
392.466	451.476
397.255	455.343
402.042	422.905
406.827	440.851
411.608	305.937
416.387	125.734
421.163	39.8066
425.936	409.254
430.707	455.143
435.475	602.961
440.24	531.286
445.003	451.491
449.763	666.372
454.52	992.406
459.274	1151.93
464.026	1712.24
468.775	1969.82
473.522	2241.4
478.265	2549.89
483.006	2379.42
487.744	2437.91
492.48	2243.01
497.213	2126.85
501.943	2516.84
506.671	2695.5
511.395	2902.26
516.117	3389.45
520.837	3893.86
525.554	4197.65
530.268	3383.18
534.979	2453.23
539.688	1830.49
544.394	1447.04
549.097	1305.54
553.798	1439.25
558.496	1893.99
563.191	2615.75
567.884	2750.47
572.574	2834.21
577.261	3234.47
581.945	3777.62
586.627	5023.25
591.307	7405.62
595.983	10995.6
600.657	16648.2
605.329	25007.7
609.997	34867.9
614.663	41992.9
619.326	39763
623.987	32855.7
628.645	27442.7
633.3	23638.9
637.953	19673.8
642.603	16611
647.25	18286.1
651.895	26141.6
656.537	34034.7
661.176	32599.6
665.813	25685
670.447	18237.9
675.079	12592.8
679.708	8512.23
684.334	6025.38
688.957	4430.14
693.578	3433.39
698.196	2763.78
702.812	2580.47
707.425	2260.97
712.035	2223.62
716.643	2611.49
721.248	4316.63
725.85	6929.03
730.45	8434.68
735.047	7406.53
739.642	5015.53
744.234	2814.68
748.823	1321.99
753.41	308.482
757.994	361.194
762.575	841.011
767.154	1227.91
771.73	1109.49
776.304	638.068
780.875	313.438
785.443	1463.6
790.009	2979.08
794.572	5145.9
799.132	6607.07
803.69	6543.62
808.245	5353.54
812.798	4881.8
817.348	4654.38
821.896	4506.28
826.44	4750.92
830.983	5184.8
835.522	6511.29
840.059	7694.55
844.594	8442.94
849.125	8683.42
853.655	8446.42
858.181	8270.18
862.705	8268.82
867.227	8049.02
871.746	7798.85
876.262	7844.19
880.776	9287.81
885.287	12414.7
889.795	16047.8
894.301	19745.6
898.804	24488.8
903.305	29465.5
907.803	30033.2
912.299	27319.3
916.792	24084.7
921.282	22671.4
925.77	22967
930.255	21936.4
934.738	18968.5
939.218	15240.5
943.695	13084.2
948.17	12595.6
952.643	12868.5
957.112	12698.3
961.58	11270.6
966.044	9423.41
970.506	8547.42
974.966	8001.4
979.423	7987.74
983.877	7740.74
988.329	8234.64
992.778	8862.99
997.225	8889.97
1001.67	8052.67
1006.11	6986.06
1010.55	5846.03
1014.99	4709.03
1019.42	3919.96
1023.85	3192.29
1028.28	2699.83
1032.71	2299.18
1037.13	2083.3
1041.55	1843.34
1045.97	1613.45
1050.39	1251.83
1054.8	1060.07
1059.21	905.391
1063.62	773.227
1068.03	638.825
1072.43	605.876
1076.83	426.394
1081.23	187.04
1085.62	52.9033
1090.02	119.686
1094.41	307.329
1098.8	244.128
1103.18	353.774
1107.56	237.158
1111.94	206.731
1116.32	103.247
1120.7	32.6631
1125.07	36.8745
1129.44	68.9438
1133.81	2.96728
1138.17	45.9297
1142.54	119.718
1146.9	195.632
1151.26	149.635
1155.61	209.317
1159.96	327.084
1164.32	387.368
1168.66	422.568
1173.01	415.242
1177.35	442.498
1181.69	445.085
1186.03	485.24
1190.36	551.82
1194.7	611.106
1199.03	656.269
1203.36	680.468
1207.68	682.31
1212	700.566
1216.32	745.729
1220.64	630.159
1224.96	671.748
1229.27	556.998
1233.58	544.953
1237.89	418.656
1242.19	445.948
1246.49	377.854
1250.8	329.641
1255.09	345.802
1259.39	342.511
1263.68	238.242
1267.97	242.634
1272.26	295.924
1276.54	109.201
1280.83	245.028
1285.11	168.688
1289.38	155.625
1293.66	195.911
1297.93	64.1816
1302.2	173.226
1306.47	161.737
1310.74	201.642
1315	164.026
1319.26	189.566
1323.52	172.647
1327.78	79.5649
1332.03	194.196
1336.28	153.172
1340.53	114.163
1344.77	185.727
1349.02	81.5791
1353.26	93.4443
1357.49	161.481
1361.73	152.554
1365.96	70.8213
1370.19	19.7114
1374.42	70.3496
1378.65	74.6211
1382.87	18.1016
1387.09	23.3447
1391.31	121.997
1395.53	40.8257
1399.74	40.9111
1403.95	87.2217
1408.16	81.9624
1412.37	100.328
1416.57	11.2412
1420.78	109.676
1424.97	53.2978
1429.17	129.043
1433.37	17.5991
1437.56	174.873
1441.75	61.2793
1445.93	78.7056
1450.12	148.703
1454.3	70.6641
1458.48	96.5679
1462.66	16.6606
1466.83	63.5659
1471	167.414
1475.17	161.508
1479.34	133.202
1483.51	97.3227
1487.67	13.1274
1491.83	59.0991
1495.99	87.8965
1500.14	30.2036
1504.29	91.8721
1508.44	119.059
1512.59	76.6699
1516.74	13.1738
1520.88	74.2085
1525.02	83.6025
1529.16	58.2544
1533.3	62.2056
1537.43	61.1011
1541.56	35.5625
1545.69	59.9956
1549.82	78.4482
1553.94	371.158
1558.06	28.6265
1562.18	16.1436
