Measurement: Raman, 514 nm, ccw, Raman Data Processed
Mineral: Gehlenite
Rruff sample: R060841
Ideal chemistry: Ca_2_Al(SiAl)O_7_
Locality: Monzoni, Tyrol, Italy
Source: Michael Scott
Description: Brown rectangular prism
Measured chemistry: lighter phase: (Ca_1.92_Na_0.07_K_0.01_)_Σ=2_(Al_0.62_Mg_0.25_Fe^2+^_0.13_)_Σ=1_(Si_1.46_Al_0.54_)O_7_ ; darker phase: calcite
Pin_id: L01166
Orientation: Laser parallel to c* (0 0 1). Fiducial mark perpendicular to laser is parallel to b [0 1 0]
Raman shift (cm-1)	intensity
185.146	0
190.053	268.262
194.958	792.072
199.859	1085.71
204.758	868.082
209.654	431.75
214.547	817.217
219.438	1518.05
224.326	2464.48
229.211	3343.91
234.093	3642.26
238.972	3361.11
243.849	3088.34
248.723	2617
253.594	2145.14
258.462	1889.51
263.328	1424.53
268.191	935.742
273.051	756.66
277.908	767.061
282.763	1073.82
287.615	1195.92
292.464	1853.24
297.31	2343.68
302.154	2398.31
306.995	2398.64
311.833	2027.22
316.668	1956.37
321.501	1865.58
326.331	1849.51
331.158	1931.66
335.983	1928.27
340.804	2178.77
345.623	2018.77
350.44	1991.45
355.253	2080.81
360.064	1585.24
364.872	922.152
369.677	406.181
374.48	205.172
379.28	119.987
384.077	144.086
388.872	246.215
393.663	417.139
398.452	458.053
403.239	402.982
408.022	423.83
412.803	46.1523
417.581	238.096
422.357	1016.95
427.129	1529.38
431.899	1928.59
436.667	1704.19
441.431	1481.02
446.193	1478.73
450.952	1577.56
455.709	1808.06
460.463	2338.25
465.214	2764.15
469.962	3136.81
474.708	3587.5
479.451	3913.87
484.191	3663.44
488.929	3284.38
493.663	3038.72
498.396	2885.79
503.125	3011.21
507.852	3651.99
512.576	4602.15
517.298	5120.55
522.016	5383.08
526.732	5468.04
531.446	4735.48
536.156	4384.18
540.865	3692.43
545.57	3389.37
550.273	2931.97
554.973	2395.7
559.67	2627.54
564.364	2862.75
569.056	2662.8
573.746	2681.2
578.432	2882.53
583.116	3445.88
587.798	4526.33
592.476	6959.22
597.152	10383.6
601.825	16251.3
606.496	24192.1
611.164	33112.4
615.829	38143.9
620.492	35974.7
625.152	29883.6
629.809	25099.2
634.464	21243.1
639.116	17976.9
643.765	15919.7
648.412	18841.2
653.056	26738.6
657.697	32355.2
662.336	30347.8
666.972	23770.2
671.605	17218.6
676.236	12886.6
680.864	9428.59
685.49	7336.78
690.113	5905.15
694.733	4684.29
699.351	4362
703.965	3578.6
708.578	2863.07
713.187	2319.41
717.794	1861.61
722.399	1984.63
727.001	2389.47
731.6	2556.09
736.196	2109.47
740.79	1147.61
745.381	500.467
749.97	64.0147
754.556	217.748
759.139	401.014
763.72	463.954
768.298	575.541
772.874	609.019
777.447	439.874
782.017	40.1074
786.585	519.699
791.15	1333.05
795.712	2425.04
800.272	3219.69
804.829	3794
809.384	4090.95
813.936	4226.54
818.485	4690.73
823.032	4929.52
827.576	5438.94
832.118	6250.25
836.657	7497.46
841.193	8636.37
845.727	9982.54
850.258	11360.9
854.787	12512.1
859.313	13340.1
863.836	13520.9
868.357	13264.7
872.875	12489.7
877.391	12223.5
881.904	12716.1
886.414	14613
890.922	16999.4
895.427	19630.6
899.93	23651.1
904.43	27114.7
908.927	27036.9
913.422	24421.8
917.914	21898.9
922.404	21158.2
926.891	21284.7
931.376	19821.9
935.858	16749.6
940.337	13392.9
944.814	10884.1
949.289	9350.67
953.76	8534.69
958.229	7656.12
962.696	6523.39
967.16	5745.06
971.621	5161.12
976.08	5069.17
980.537	4324.53
984.99	4095.99
989.442	3600.21
993.89	3033.95
998.336	2637.83
1002.78	2263.48
1007.22	1779.74
1011.66	1672.8
1016.1	1508.44
1020.53	1260.7
1024.96	1075.55
1029.39	913.497
1033.81	1010.44
1038.24	872.374
1042.66	952.932
1047.07	1025.19
1051.49	680.687
1055.9	518.315
1060.31	520.871
1064.72	552.537
1069.13	354.315
1073.53	320.301
1077.93	277.566
1082.33	430.175
1086.72	332.239
1091.12	24.3047
1095.51	36.8857
1099.89	189.25
1104.28	205.289
1108.66	63.5772
1113.04	131.297
1117.42	114.564
1121.79	54.6397
1126.16	122.905
1130.53	98.8477
1134.9	40.8525
1139.27	51.8291
1143.63	23.8057
1147.99	38.9141
1152.35	27.0391
1156.7	34.3457
1161.05	275.962
1165.4	126.167
1169.75	137.27
1174.09	111
1178.44	315.94
1182.78	357.754
1187.11	285.875
1191.45	263.442
1195.78	291.555
1200.11	432.467
1204.44	230.384
1208.76	278.698
1213.08	345.945
1217.4	460.705
1221.72	331.956
1226.03	384.239
1230.35	358.331
1234.66	250.383
1238.96	200.072
1243.27	192.484
1247.57	193.149
1251.87	178.369
1256.17	273.047
1260.46	167.634
1264.75	137.595
1269.04	252.874
1273.33	10.6025
1277.62	28.9297
1281.9	175.841
1286.18	4.86426
1290.45	59.5635
1294.73	128.303
1299	72.8506
1303.27	61.6611
1307.54	210.344
1311.8	226.366
1316.07	175.806
1320.33	55.8389
1324.58	35.335
1328.84	193.36
1333.09	161.385
1337.34	30.5762
1341.59	171.148
1345.83	229.296
1350.08	173.38
1354.32	278.999
1358.55	114.332
1362.79	170.874
1367.02	203.022
1371.25	312.804
1375.48	164.368
1379.71	174.836
1383.93	189.946
1388.15	207.717
1392.37	139.088
1396.58	31.7021
1400.8	99.2803
1405.01	55.2422
1409.21	162.77
1413.42	159.444
1417.62	78.0791
1421.83	206.948
1426.02	253.095
1430.22	150.943
1434.41	199.494
1438.61	207.094
1442.79	249.544
1446.98	56.2383
1451.16	173.003
1455.35	181.404
1459.52	187.125
1463.7	17.2715
1467.87	149.262
1472.05	214.56
1476.21	92.958
1480.38	122.561
1484.55	74.2168
1488.71	124.231
1492.87	8.55273
1497.03	26.8477
1501.18	125.494
1505.33	80.3486
1509.48	122.634
1513.63	154.278
1517.77	10.1318
1521.92	160.803
1526.06	90.1719
1530.19	170.014
1534.33	81.207
1538.46	187.837
1542.59	32.2461
1546.72	108.188
1550.85	171.074
1554.97	34.6855
1559.09	167.562
1563.21	6.21289
