Measurement: Raman, 514 nm, ccw, Raman Data Processed
Mineral: Gehlenite
Rruff sample: R060841
Ideal chemistry: Ca_2_Al(SiAl)O_7_
Locality: Monzoni, Tyrol, Italy
Source: Michael Scott
Description: Brown rectangular prism
Measured chemistry: lighter phase: (Ca_1.92_Na_0.07_K_0.01_)_Σ=2_(Al_0.62_Mg_0.25_Fe^2+^_0.13_)_Σ=1_(Si_1.46_Al_0.54_)O_7_ ; darker phase: calcite
Pin_id: L01166
Orientation: Laser parallel to c* (0 0 1). Fiducial mark perpendicular to laser is parallel to b [0 1 0]
Raman shift (cm-1)	intensity
169.179	0
174.095	1.96289
179.009	14.5234
183.919	149.059
188.827	572.996
193.732	1459.2
198.634	1875.46
203.534	1772.47
208.43	1285.21
213.324	1614.48
218.215	2072.82
223.104	2674.96
227.99	3921.35
232.872	4347.51
237.753	4210.02
242.63	4003.99
247.504	3738.71
252.376	3065.51
257.245	2825.21
262.112	2683.63
266.975	2242.37
271.836	2154.37
276.694	2448.9
281.549	2742.53
286.402	2534.45
291.252	1940.99
296.099	2091.41
300.943	2256.34
305.785	2075.7
310.624	2300.86
315.46	1902.11
320.293	2071.7
325.124	1978.97
329.952	1874.69
334.777	2040.06
339.599	2469.44
344.419	2178.46
349.236	2195.85
354.05	2222.32
358.862	1807.75
363.67	1246.08
368.476	694.289
373.28	527.305
378.08	267.723
382.878	171.277
387.673	59.0469
392.466	14.957
397.255	304.965
402.042	381.941
406.827	215.168
411.608	252.103
416.387	184.822
421.163	159.002
425.936	14.5469
430.707	189.346
435.475	162.15
440.24	349.037
445.003	489.785
449.763	783.773
454.52	1055.08
459.274	1593.27
464.026	1956.62
468.775	2273.66
473.522	3110.84
478.265	3360.91
483.006	3365.86
487.744	3176.98
492.48	3020.44
497.213	2846.33
501.943	3055.13
506.671	3372.06
511.395	3759.15
516.117	4216.29
520.837	4481.49
525.554	4702.23
530.268	4305.68
534.979	4082.56
539.688	3689.29
544.394	3563.59
549.097	3052.63
553.798	2546.95
558.496	2412.01
563.191	2525.62
567.884	2643.97
572.574	2407.52
577.261	2816.54
581.945	3016.12
586.627	3906.86
591.307	5271.24
595.983	8111.25
600.657	12141.9
605.329	18033.1
609.997	25507
614.663	31021.1
619.326	30391.4
623.987	25369.5
628.645	21448.5
633.3	18323.5
637.953	15534.1
642.603	13209.5
647.25	14536.4
651.895	20391.2
656.537	25773.8
661.176	25747.3
665.813	20756.7
670.447	15845.8
675.079	11616
679.708	8616.73
684.334	6679.91
688.957	5393
693.578	4440.41
698.196	3929.45
702.812	3096.26
707.425	2819.57
712.035	2702.8
716.643	2100.77
721.248	1929.49
725.85	2227.93
730.45	2382.09
735.047	2145.97
739.642	1319.55
744.234	527.254
748.823	174.809
753.41	267.754
757.994	228.959
762.575	341.394
767.154	456.975
771.73	448.068
776.304	281.668
780.875	99.4727
785.443	322.801
790.009	872.689
794.572	1392.24
799.132	2500.58
803.69	2666.61
808.245	2791.37
812.798	2895.88
817.348	3216.14
821.896	3633.15
826.44	3665.66
830.983	4601.35
835.522	5360.65
840.059	6562.77
844.594	7307.97
849.125	8270.42
853.655	9104
858.181	9732.71
862.705	10108.5
867.227	10071.6
871.746	9538.98
876.262	9312.68
880.776	9800.48
885.287	10851
889.795	12930.8
894.301	14720
898.804	17715.4
903.305	20729.9
907.803	21572.9
912.299	19678.8
916.792	17762.4
921.282	16964
925.77	17172.4
930.255	16210.4
934.738	14300
939.218	11497.1
943.695	9129.89
948.17	7837.26
952.643	7113.09
957.112	6291.79
961.58	5191.95
966.044	4233.23
970.506	3995.39
974.966	3687.44
979.423	3461.24
983.877	3056.97
988.329	2677.72
992.778	2278.94
997.225	1813.27
1001.67	1699.11
1006.11	1219.78
1010.55	1096.94
1014.99	845.023
1019.42	854.551
1023.85	732.402
1028.28	782.842
1032.71	574.789
1037.13	604.422
1041.55	627.672
1045.97	453.647
1050.39	549.207
1054.8	510.85
1059.21	335.066
1063.62	379.072
1068.03	320.557
1072.43	253.793
1076.83	154.935
1081.23	203.443
1085.62	122.481
1090.02	112.547
1094.41	44.2168
1098.8	1.23242
1103.18	11.6055
1107.56	2.36133
1111.94	73.9707
1116.32	86.334
1120.7	58.0684
1125.07	153.809
1129.44	180.725
1133.81	25.9199
1138.17	3.25
1142.54	64.7461
1146.9	8.94922
1151.26	24.2051
1155.61	159.469
1159.96	108.68
1164.32	267.369
1168.66	75.9219
1173.01	351.332
1177.35	241.168
1181.69	299.258
1186.03	302.955
1190.36	394.269
1194.7	301.156
1199.03	539.002
1203.36	120.701
1207.68	200.201
1212	350.748
1216.32	372.203
1220.64	370.328
1224.96	468.459
1229.27	474.588
1233.58	381.106
1237.89	436.9
1242.19	410.199
1246.49	469.615
1250.8	262.33
1255.09	447.293
1259.39	319.656
1263.68	388.65
1267.97	276.244
1272.26	200.824
1276.54	260.018
1280.83	60.9043
1285.11	183.492
1289.38	2.88281
1293.66	235.356
1297.93	264.498
1302.2	87.7324
1306.47	273.377
1310.74	160.014
1315	350.656
1319.26	394.897
1323.52	154.893
1327.78	292.606
1332.03	384.582
1336.28	193.857
1340.53	404.338
1344.77	399.115
1349.02	379.092
1353.26	468.074
1357.49	411.035
1361.73	169.627
1365.96	439.857
1370.19	181.205
1374.42	446.637
1378.65	480.734
1382.87	446.85
1387.09	271.863
1391.31	429.473
1395.53	245.69
1399.74	173.793
1403.95	460.51
1408.16	337.978
1412.37	336.496
1416.57	209.688
1420.78	146.4
1424.97	835.873
1429.17	300.309
1433.37	338.82
1437.56	285.359
1441.75	349.844
1445.93	284.113
1450.12	159.707
1454.3	210.117
1458.48	180.49
1462.66	395.002
1466.83	349.627
1471	230.924
1475.17	305.353
1479.34	63.6387
1483.51	382.844
1487.67	78.2773
1491.83	112.76
1495.99	16.8027
1500.14	226.184
1504.29	16.1074
1508.44	195.303
1512.59	132.137
1516.74	55.9238
1520.88	274.641
1525.02	57.3457
1529.16	217.191
1533.3	455.424
1537.43	167.635
1541.56	83.3262
1545.69	280.732
1549.82	177.144
1553.94	288.926
1558.06	281.674
1562.18	37.7148
