Measurement: Raman, 514 nm, ccw, Raman Data Processed
Mineral: Gehlenite
Rruff sample: R060841
Ideal chemistry: Ca_2_Al(SiAl)O_7_
Locality: Monzoni, Tyrol, Italy
Source: Michael Scott
Description: Brown rectangular prism
Measured chemistry: lighter phase: (Ca_1.92_Na_0.07_K_0.01_)_Σ=2_(Al_0.62_Mg_0.25_Fe^2+^_0.13_)_Σ=1_(Si_1.46_Al_0.54_)O_7_ ; darker phase: calcite
Pin_id: L01166
Orientation: Laser parallel to c* (0 0 1). Fiducial mark perpendicular to laser is parallel to b [0 1 0]
Raman shift (cm-1)	intensity
169.179	0
174.095	19.9004
179.009	7.50195
183.919	306.418
188.827	1069.98
193.732	1654.73
198.634	2134.35
203.534	2284.57
208.43	1958.52
213.324	2349.67
218.215	2908.28
223.104	4125.26
227.99	5402.16
232.872	6126.24
237.753	6037.56
242.63	5523.57
247.504	4681.62
252.376	4100.07
257.245	3535.57
262.112	3097.42
266.975	2855.02
271.836	2819.52
276.694	3254.33
281.549	3725.53
286.402	3949.25
291.252	4232.47
296.099	4282.01
300.943	4255.1
305.785	4241.3
310.624	3671.75
315.46	2828.7
320.293	2405.26
325.124	2028.78
329.952	1765.8
334.777	1729.7
339.599	1469.69
344.419	1287.35
349.236	1038.22
354.05	779.01
358.862	470.695
363.67	304.289
368.476	135.436
373.28	244.002
378.08	329.592
382.878	387.242
387.673	428.72
392.466	254.782
397.255	359.124
402.042	186.544
406.827	90.6631
411.608	522.688
416.387	1101.4
421.163	2001.38
425.936	3043.28
430.707	3358.06
435.475	3493.83
440.24	3049.9
445.003	2998.36
449.763	2840.73
454.52	3034.72
459.274	3581.68
464.026	3941.75
468.775	4653.61
473.522	4935.84
478.265	5082.93
483.006	4642.95
487.744	5119.69
492.48	3070.24
497.213	2355.77
501.943	2205.35
506.671	2200.74
511.395	2624.24
516.117	3391.15
520.837	3187.19
525.554	2891.72
530.268	2436.47
534.979	1969
539.688	1898.48
544.394	1713.43
549.097	1867.33
553.798	1885.16
558.496	2307.97
563.191	2774.99
567.884	3106.34
572.574	3219.12
577.261	3532.41
581.945	4401.22
586.627	5594.55
591.307	7948.22
595.983	11770.2
600.657	17673.7
605.329	27104.1
609.997	38701
614.663	48085.4
619.326	46731.3
623.987	39148.9
628.645	32595.1
633.3	27917.4
637.953	23356.1
642.603	19894.9
647.25	21402.6
651.895	30374.7
656.537	40363.7
661.176	40345.3
665.813	33809.7
670.447	23515
675.079	16578.1
679.708	11914.9
684.334	9187.15
688.957	7064.1
693.578	5798.5
698.196	5340.91
702.812	4666.66
707.425	4015.96
712.035	3464.78
716.643	2774.1
721.248	2833.91
725.85	3513.18
730.45	3900.88
735.047	3360.97
739.642	2227.42
744.234	1196.22
748.823	548.332
753.41	30.7246
757.994	268.178
762.575	321.248
767.154	612.44
771.73	625.358
776.304	533.645
780.875	495.31
785.443	110.263
790.009	736.423
794.572	1644.2
799.132	2435.03
803.69	2538.64
808.245	2421.71
812.798	2286.47
817.348	2348.12
821.896	2240.63
826.44	2567.99
830.983	3152.66
835.522	4049.97
840.059	4943.96
844.594	5823.54
849.125	6500.69
853.655	6872.26
858.181	7337.91
862.705	7589.53
867.227	7918.18
871.746	7580.81
876.262	7994.47
880.776	9441.21
885.287	12566.9
889.795	16550.1
894.301	20151.9
898.804	25466.8
903.305	31538.6
907.803	32359.2
912.299	29701.7
916.792	26358.2
921.282	24550
925.77	24888
930.255	23931.5
934.738	20380.7
939.218	16009.3
943.695	12420.6
948.17	10433.4
952.643	9327.82
957.112	8485.75
961.58	7017.73
966.044	5513.79
970.506	4641.5
974.966	4006.03
979.423	3626.83
983.877	3294.13
988.329	2952.31
992.778	2518.75
997.225	2048.36
1001.67	1985.33
1006.11	1803.34
1010.55	1634.92
1014.99	1359.08
1019.42	1380.65
1023.85	1632.6
1028.28	1290.32
1032.71	1173.3
1037.13	1135.1
1041.55	1028.16
1045.97	924.493
1050.39	780.896
1054.8	535.374
1059.21	344.171
1063.62	292.757
1068.03	241.765
1072.43	261.151
1076.83	244.948
1081.23	293.945
1085.62	513.586
1090.02	78.7695
1094.41	200.245
1098.8	214.022
1103.18	235.773
1107.56	172.54
1111.94	138.866
1116.32	7.00586
1120.7	6.37207
1125.07	132.532
1129.44	10.793
1133.81	22.9561
1138.17	84.5723
1142.54	13.9238
1146.9	70.7852
1151.26	150.248
1155.61	72.3398
1159.96	210.583
1164.32	239.717
1168.66	154.49
1173.01	243.985
1177.35	250.245
1181.69	252.279
1186.03	222.369
1190.36	310.482
1194.7	294.263
1199.03	333.74
1203.36	325.591
1207.68	335.475
1212	371.653
1216.32	428.424
1220.64	460.804
1224.96	385.147
1229.27	270.854
1233.58	378.914
1237.89	227.088
1242.19	331.485
1246.49	176.061
1250.8	134.935
1255.09	179.992
1259.39	231.673
1263.68	33.6748
1267.97	71.2647
1272.26	113.732
1276.54	66.3272
1280.83	66.0254
1285.11	12.4443
1289.38	18.1113
1293.66	130.164
1297.93	180.575
1302.2	144.379
1306.47	50.9629
1310.74	185.897
1315	110.134
1319.26	144.403
1323.52	129.584
1327.78	101.128
1332.03	319.422
1336.28	300.716
1340.53	118.522
1344.77	165.781
1349.02	183.866
1353.26	195.192
1357.49	132.755
1361.73	103.613
1365.96	302.136
1370.19	71.4902
1374.42	215.322
1378.65	144.335
1382.87	136.387
1387.09	216.924
1391.31	236.495
1395.53	142.335
1399.74	178.863
1403.95	101.221
1408.16	213.028
1412.37	163.038
1416.57	152.701
1420.78	241.349
1424.97	125.457
1429.17	223.485
1433.37	200.108
1437.56	126.959
1441.75	157.119
1445.93	107.601
1450.12	75.7148
1454.3	95.1016
1458.48	169.894
1462.66	107.822
1466.83	130.785
1471	122.917
1475.17	43.206
1479.34	225.366
1483.51	104.455
1487.67	103.529
1491.83	86.8496
1495.99	173.586
1500.14	28.5166
1504.29	21.8994
1508.44	180.801
1512.59	119.656
1516.74	19.0195
1520.88	143.114
1525.02	2.70312
1529.16	70.5352
1533.3	25.0537
1537.43	176.343
1541.56	9.88672
1545.69	175.971
1549.82	162.502
1553.94	327.96
1558.06	2.09375
1562.18	9.76562
