Measurement: Raman, 514 nm, ccw, Raman Data Processed
Mineral: Gehlenite
Rruff sample: R060841
Ideal chemistry: Ca_2_Al(SiAl)O_7_
Locality: Monzoni, Tyrol, Italy
Source: Michael Scott
Description: Brown rectangular prism
Measured chemistry: lighter phase: (Ca_1.92_Na_0.07_K_0.01_)_Σ=2_(Al_0.62_Mg_0.25_Fe^2+^_0.13_)_Σ=1_(Si_1.46_Al_0.54_)O_7_ ; darker phase: calcite
Pin_id: L00662
Orientation: Laser parallel to a* (1 0 0). Fiducial mark perpendicular to laser is parallel to c [0 0 1]
Raman shift (cm-1)	intensity
198.634	0
203.534	144.594
208.43	96.521
213.324	374.696
218.215	1012.98
223.104	2131.89
227.99	3193.85
232.872	4032.26
237.753	4219.31
242.63	3822.53
247.504	3399.47
252.376	2935.13
257.245	2490.81
262.112	2361.9
266.975	1885.93
271.836	1559.05
276.694	1348.53
281.549	1402.38
286.402	1640.79
291.252	2257.67
296.099	2780.62
300.943	3537.24
305.785	3710.82
310.624	3598.18
315.46	2986.62
320.293	2197.46
325.124	1817.36
329.952	1366.1
334.777	1073.92
339.599	895.316
344.419	693.628
349.236	476.345
354.05	466.748
358.862	328.317
363.67	218.471
368.476	162.876
373.28	7.06274
378.08	4.44897
382.878	127.928
387.673	121.914
392.466	136.417
397.255	91.8188
402.042	151.206
406.827	101.422
411.608	124.15
416.387	177.006
421.163	91.0132
425.936	62.156
430.707	45.3052
435.475	110.766
440.24	133.282
445.003	213.481
449.763	341.954
454.52	429.288
459.274	563.456
464.026	781.856
468.775	1080.09
473.522	1247.51
478.265	1270.28
483.006	1050.19
487.744	847.169
492.48	532.203
497.213	263.662
501.943	1.67578
506.671	20.6423
511.395	174.54
516.117	299.504
520.837	398.289
525.554	406.973
530.268	214.167
534.979	144.347
539.688	79.9365
544.394	251.615
549.097	721.934
553.798	1417.48
558.496	2448.69
563.191	3415.92
567.884	3868.08
572.574	3832.37
577.261	4115.02
581.945	4992.77
586.627	6388.35
591.307	8837.79
595.983	12739.6
600.657	18970.4
605.329	28042.2
609.997	39257.9
614.663	45819.6
619.326	44123.4
623.987	36515.1
628.645	30191.5
633.3	26285.9
637.953	21768.6
642.603	18598.5
647.25	19976.4
651.895	27774.5
656.537	35297.8
661.176	34169.7
665.813	26679.7
670.447	18444.8
675.079	12264.4
679.708	8138.16
684.334	5493.24
688.957	4031.66
693.578	3017.56
698.196	2609.82
702.812	2733.54
707.425	2612.58
712.035	2886.79
716.643	3793.92
721.248	6408.87
725.85	9974.64
730.45	12034.2
735.047	10978.5
739.642	7606.54
744.234	4618.36
748.823	2680.98
753.41	1216.39
757.994	109.637
762.575	709.685
767.154	1065.22
771.73	965.408
776.304	494.561
780.875	573.661
785.443	1798.63
790.009	3644.56
794.572	5741.46
799.132	6825.35
803.69	5736.24
808.245	4129.11
812.798	2648.97
817.348	1929.8
821.896	1830.72
826.44	2139.37
830.983	3174.22
835.522	4681.57
840.059	5728.36
844.594	6089.53
849.125	5725.8
853.655	4830.85
858.181	4049.94
862.705	3363.94
867.227	3104.08
871.746	2890.48
876.262	3692.07
880.776	5863.68
885.287	9363.25
889.795	13799.7
894.301	17781.9
898.804	22813.8
903.305	27964.2
907.803	28633.7
912.299	25261.1
916.792	22147
921.282	20650.1
925.77	20412.4
930.255	19662.8
934.738	16649.2
939.218	13339.6
943.695	11371.9
948.17	11315
952.643	11729
957.112	11793.5
961.58	10453.1
966.044	9033.53
970.506	8149.81
974.966	7851.33
979.423	7508.84
983.877	7940.25
988.329	8630.55
992.778	9614.43
997.225	9964.63
1001.67	9266.15
1006.11	7760.89
1010.55	6519.57
1014.99	5187.3
1019.42	4247.62
1023.85	3601.66
1028.28	2902.37
1032.71	2497.8
1037.13	2188.95
1041.55	1780.41
1045.97	1508.73
1050.39	1309.04
1054.8	1074.12
1059.21	1016.09
1063.62	799.735
1068.03	607.409
1072.43	637.047
1076.83	506.221
1081.23	299.291
1085.62	5.00977
1090.02	200.12
1094.41	281.19
1098.8	346.928
1103.18	272.834
1107.56	309.857
1111.94	223.866
1116.32	99.2825
1120.7	147.163
1125.07	149.227
1129.44	22.4929
1133.81	33.8945
1138.17	47.7214
1142.54	131.372
1146.9	132.809
1151.26	191.344
1155.61	231.313
1159.96	372.726
1164.32	374.997
1168.66	430.609
1173.01	471.964
1177.35	467.414
1181.69	523.025
1186.03	569.933
1190.36	612.51
1194.7	609.2
1199.03	600.918
1203.36	681.725
1207.68	721.85
1212	695.834
1216.32	759.99
1220.64	725.436
1224.96	658.557
1229.27	591.463
1233.58	548.26
1237.89	431.543
1242.19	355.36
1246.49	348.421
1250.8	308.461
1255.09	360.139
1259.39	317.032
1263.68	279.978
1267.97	295.436
1272.26	278.421
1276.54	286.661
1280.83	245.564
1285.11	193.888
1289.38	223.011
1293.66	186.742
1297.93	224.22
1302.2	209.555
1306.47	187.151
1310.74	173.814
1315	179.011
1319.26	156.195
1323.52	183.927
1327.78	177.099
1332.03	193.205
1336.28	157.428
1340.53	151.09
1344.77	107.68
1349.02	48.125
1353.26	123.32
1357.49	122.688
1361.73	89.9144
1365.96	82.5868
1370.19	74.7189
1374.42	66.4873
1378.65	36.126
1382.87	99.3572
1387.09	51.5851
1391.31	52.7527
1395.53	54.6539
1399.74	45.5911
1403.95	0.07312
1408.16	67.775
1412.37	5.24817
1416.57	30.5917
1420.78	20.3458
1424.97	10.9252
1429.17	37.0832
1433.37	3.89587
1437.56	13.7062
1441.75	29.884
1445.93	49.4137
1450.12	42.2766
1454.3	27.276
1458.48	3.42676
1462.66	33.089
1466.83	27.5637
1471	10.5228
1475.17	36.6229
1479.34	7.68921
1483.51	71.9989
1487.67	30.1155
1491.83	32.0934
1495.99	29.869
1500.14	2.10913
1504.29	36.9103
1508.44	41.3937
1512.59	21.5269
1516.74	38.0232
1520.88	24.4757
1525.02	20.9008
1529.16	23.115
1533.3	4.41736
1537.43	24.4457
1541.56	55.7913
1545.69	22.6228
1549.82	53.6321
1553.94	80.8682
1558.06	103.631
1562.18	0.05835
