Measurement: Raman, 514 nm, ccw, Raman Data Processed
Mineral: Gehlenite
Rruff sample: R060841
Ideal chemistry: Ca_2_Al(SiAl)O_7_
Locality: Monzoni, Tyrol, Italy
Source: Michael Scott
Description: Brown rectangular prism
Measured chemistry: lighter phase: (Ca_1.92_Na_0.07_K_0.01_)_Σ=2_(Al_0.62_Mg_0.25_Fe^2+^_0.13_)_Σ=1_(Si_1.46_Al_0.54_)O_7_ ; darker phase: calcite
Pin_id: L00662
Orientation: Laser parallel to a* (1 0 0). Fiducial mark perpendicular to laser is parallel to c [0 0 1]
Raman shift (cm-1)	intensity
174.095	0
179.009	341.567
183.919	154.77
188.827	963.824
193.732	1676.77
198.634	2010.34
203.534	2067.76
208.43	1556.79
213.324	1947.79
218.215	2455.11
223.104	3498
227.99	4329.41
232.872	4947.94
237.753	4659.2
242.63	4213.88
247.504	3545.1
252.376	3071
257.245	2647.62
262.112	2473.59
266.975	1836.75
271.836	1398.47
276.694	1559.09
281.549	1871.84
286.402	2259.33
291.252	3092.84
296.099	3196.53
300.943	3248.93
305.785	2856
310.624	2800.21
315.46	2220.26
320.293	2041
325.124	1977.05
329.952	1805.89
334.777	1793.29
339.599	1677.45
344.419	1769.29
349.236	1749.18
354.05	1505.56
358.862	1106.04
363.67	767.492
368.476	52.0684
373.28	53.3975
378.08	59.0967
382.878	361.7
387.673	317.914
392.466	490.015
397.255	458.005
402.042	524.586
406.827	253.761
411.608	71.6973
416.387	600.643
421.163	1535.15
425.936	2164.21
430.707	2393.93
435.475	2415.75
440.24	1893.63
445.003	1797.15
449.763	2004.4
454.52	2221.41
459.274	2812.23
464.026	3041.87
468.775	3770.22
473.522	3920.13
478.265	4284.08
483.006	4003.02
487.744	3677.42
492.48	2949.12
497.213	2676.23
501.943	2819.64
506.671	3182.15
511.395	3786.19
516.117	4538.42
520.837	4477.48
525.554	4407.28
530.268	4025.39
534.979	3581.36
539.688	3140.59
544.394	2814.19
549.097	2399.52
553.798	2211.14
558.496	2178.85
563.191	2613.66
567.884	2750.61
572.574	2585.79
577.261	2878.32
581.945	3367.23
586.627	4682.55
591.307	7022.25
595.983	10363.3
600.657	15953.8
605.329	24200.5
609.997	34442.7
614.663	41203.4
619.326	39636.1
623.987	33092.1
628.645	27116.8
633.3	23346.1
637.953	19796.4
642.603	17336
647.25	19561.1
651.895	26972.4
656.537	34508.9
661.176	33937.3
665.813	27239.2
670.447	20021.1
675.079	14445.4
679.708	10909.2
684.334	8384.26
688.957	6630.59
693.578	5418.3
698.196	4655.39
702.812	3855.66
707.425	3450.09
712.035	2496.67
716.643	2145.38
721.248	2159.18
725.85	2727.04
730.45	3024.93
735.047	2530.83
739.642	1506.69
744.234	777.08
748.823	179.203
753.41	11.5342
757.994	417.924
762.575	410.995
767.154	550.945
771.73	568.053
776.304	539.579
780.875	142.718
785.443	157.214
790.009	821.457
794.572	1801.44
799.132	2557.16
803.69	3118.59
808.245	3027.71
812.798	3196.49
817.348	3489.88
821.896	3796.89
826.44	4258.78
830.983	4935.45
835.522	5900.47
840.059	7061.57
844.594	7982.09
849.125	8748.84
853.655	9700.7
858.181	10126.6
862.705	10653.9
867.227	11006.6
871.746	10498.1
876.262	10463.4
880.776	11281.3
885.287	13813
889.795	16530.8
894.301	19500.9
898.804	23430.2
903.305	27894.6
907.803	28659
912.299	26299.2
916.792	23308.8
921.282	21975.1
925.77	22205.8
930.255	21184.9
934.738	17887.4
939.218	14217.3
943.695	11447.7
948.17	9928.43
952.643	9020.6
957.112	8023.79
961.58	6812.06
966.044	5540.16
970.506	4872.23
974.966	4458.62
979.423	4216.35
983.877	3884.17
988.329	3419.16
992.778	2929.11
997.225	2460.75
1001.67	2177.26
1006.11	1897.16
1010.55	1752.66
1014.99	1536.68
1019.42	1350.29
1023.85	1357.04
1028.28	1214.27
1032.71	1187.46
1037.13	1120.28
1041.55	920.595
1045.97	865.487
1050.39	658.19
1054.8	675.394
1059.21	528.65
1063.62	406.348
1068.03	243.31
1072.43	103.507
1076.83	37.5283
1081.23	117.399
1085.62	10.7705
1090.02	86.4189
1094.41	66.9365
1098.8	159.707
1103.18	152.36
1107.56	119.57
1111.94	115.723
1116.32	48.335
1120.7	61.0303
1125.07	37.0381
1129.44	40.3486
1133.81	48.8633
1138.17	45.8779
1142.54	29.8369
1146.9	50.3457
1151.26	97.7725
1155.61	187.269
1159.96	196.892
1164.32	144.831
1168.66	197.298
1173.01	243.453
1177.35	49.7568
1181.69	233.027
1186.03	264.307
1190.36	190.556
1194.7	327.803
1199.03	312.34
1203.36	345.254
1207.68	198.096
1212	380.917
1216.32	309.202
1220.64	312.206
1224.96	263.13
1229.27	363.38
1233.58	296.334
1237.89	266.96
1242.19	181.049
1246.49	314.423
1250.8	99.4941
1255.09	158.868
1259.39	215.466
1263.68	248.003
1267.97	141.86
1272.26	95.0283
1276.54	176.781
1280.83	128.128
1285.11	155.565
1289.38	33.5791
1293.66	4.97363
1297.93	12.46
1302.2	128.798
1306.47	56.2978
1310.74	45.0762
1315	108.03
1319.26	85.2061
1323.52	12.6191
1327.78	184.144
1332.03	153.19
1336.28	148.131
1340.53	139.436
1344.77	13.21
1349.02	88.2578
1353.26	224.505
1357.49	175.448
1361.73	83.4482
1365.96	29.4541
1370.19	7.73731
1374.42	217.478
1378.65	209.774
1382.87	156.043
1387.09	62.8857
1391.31	77.3203
1395.53	76.3477
1399.74	182.315
1403.95	89.4717
1408.16	190.716
1412.37	209.98
1416.57	156.068
1420.78	181.732
1424.97	247.638
1429.17	13.1553
1433.37	206.715
1437.56	199.491
1441.75	185.344
1445.93	110.862
1450.12	148.128
1454.3	159.391
1458.48	240.93
1462.66	102.519
1466.83	218.157
1471	161.655
1475.17	90.4004
1479.34	44.2998
1483.51	214.055
1487.67	126.509
1491.83	182.688
1495.99	87.3848
1500.14	53.6934
1504.29	34.8418
1508.44	112.333
1512.59	135.144
1516.74	166.297
1520.88	45.832
1525.02	151.311
1529.16	47.8203
1533.3	91.9727
1537.43	83.9844
1541.56	194.889
1545.69	123.245
1549.82	165.909
1553.94	69.5078
1558.06	154.847
1562.18	0.6875
