Measurement: Raman, 514 nm, ccw, Raman Data Processed
Mineral: Gmelinite-Na
Rruff sample: R050371
Ideal chemistry: Na_4_(Si_8_Al_4_)O_24_11H_2_O
Locality: Cairns Bay, Flinders Range, Australia
Source: Eugene Schlepp
Description: Colorless to pink crystals lining a basalt vug
Measured chemistry: Na_3.81_(Si_8.13_Al_3.88_)O_24_Â·4.27H_2_O
Pin_id: L01937
Orientation: Laser parallel to -c* (0 0 -1). Fiducial mark perpendicular to laser is parallel to a [1 0 0]
Raman shift (cm-1)	intensity
264.888	0
268.532	48.4502
272.174	45.0488
275.815	101.512
279.454	58.0996
283.092	36.4258
286.728	236.815
290.363	567.501
293.996	869.555
297.628	1219.59
301.258	1981.56
304.887	2657.46
308.514	3805.04
312.14	5430.8
315.764	7207.52
319.387	8775.12
323.008	9434.35
326.628	8842
330.246	7166.83
333.862	5364.63
337.478	3711.2
341.091	2541.46
344.703	1719.97
348.314	1094.68
351.923	677.379
355.531	625.533
359.137	440.719
362.742	401.676
366.345	620.456
369.947	844.214
373.547	1053.91
377.145	1422.72
380.743	1993.48
384.338	2599.89
387.932	3230.87
391.525	4055.42
395.116	5346.49
398.706	7202.07
402.294	9674.17
405.881	12597.1
409.466	14381.9
413.05	14348.6
416.632	11964.9
420.213	9132.97
423.792	6997.68
427.37	5530.86
430.946	4677.6
434.521	4331.15
438.094	4458.15
441.666	4750.9
445.236	5071.47
448.805	5795.27
452.372	6812.84
455.938	7562.01
459.502	8806.72
463.065	10906.2
466.627	13344.5
470.187	16213.2
473.745	20095.3
477.302	24765.9
480.857	30105.7
484.411	35942
487.964	41997.4
491.515	46502.6
495.064	48372.2
498.612	47114.8
502.159	41399.5
505.704	34045.4
509.247	25656.5
512.789	18123.7
516.33	12643.1
519.869	8641.6
523.407	6003.19
526.943	4268.86
530.478	2944.59
534.011	2225.8
537.543	1618.38
541.073	1053.15
544.602	799.82
548.129	608.37
551.655	385.241
555.179	194.121
558.702	142.23
562.223	61.0796
565.743	37.833
569.262	21.7964
572.779	77.9839
576.294	112.683
579.808	37.0147
583.321	106.394
586.832	73.6714
590.341	45.71
593.85	116.731
597.356	50.6826
600.862	108.567
604.365	62.459
607.868	47.2651
611.368	4.93213
614.868	66.4639
618.366	56.1191
621.862	44.0913
625.357	10.9458
628.85	3.26221
632.342	105.092
635.833	175.185
639.322	367.081
642.81	437.755
646.296	636.176
649.78	653.321
653.264	798.202
656.745	694.799
660.226	669.093
663.704	527.068
667.182	371.019
670.658	290.019
674.132	163.019
677.605	67.667
681.077	72.1231
684.547	64.6309
688.015	148.175
691.483	3.78857
694.948	137.909
698.413	85.4902
701.875	87.4902
705.337	108.149
708.797	210.113
712.255	322.193
715.712	400.488
719.167	226.21
722.621	381.377
726.074	410.211
729.525	500.72
732.975	551.213
736.423	604.425
739.87	590.853
743.315	660.739
746.759	851.19
750.202	984.069
753.643	1278.91
757.082	1487.83
760.52	1800.64
763.957	1922.16
767.392	1943.84
770.826	1765.94
774.258	1605.07
777.689	1542.25
781.118	1304.26
784.546	1287.09
787.973	1090.2
791.398	920.168
794.822	758.551
798.244	670.664
801.665	615.929
805.084	520.082
808.502	475.06
811.918	448.803
815.333	166.764
818.747	302.503
822.159	226.941
825.569	211.175
828.979	229.607
832.386	94.4473
835.793	129.368
839.198	91.2285
842.601	82.9155
846.003	98.6143
849.404	54.5273
852.803	24.0332
856.2	70.9595
859.597	8.20068
862.992	43.207
866.385	30.043
869.777	40.0669
873.167	1.17285
876.557	46.3018
879.944	3.98828
883.33	51.9438
886.715	26.5142
890.099	118.392
893.481	43.2466
896.861	30.5073
900.24	34.7866
903.618	56.1162
906.994	17.1182
910.369	3.23828
913.742	111.924
917.114	6.24463
920.485	90.2344
923.854	40.0786
927.221	17.2524
930.588	13.2944
933.952	124.059
937.316	131.572
940.678	111.845
944.038	107.887
947.397	218.669
950.755	98.4785
954.111	168.471
957.466	339.578
960.819	345.829
964.171	509.826
967.522	521.957
970.871	603.919
974.219	833.527
977.565	1070.84
980.91	1192.82
984.253	1359.59
987.595	1415.51
990.936	1561.54
994.275	1686.61
997.613	1933.71
1000.95	1919.85
1004.28	2026.77
1007.62	2118.45
1010.95	2262.44
1014.28	2226.42
1017.61	2081.09
1020.94	2292.83
1024.26	2154.69
1027.59	2047.74
1030.91	1845.04
1034.23	1759.57
1037.56	1720.91
1040.88	1632.43
1044.19	1522.39
1047.51	1466.7
1050.83	1437.85
1054.14	1500.49
1057.45	1581.2
1060.76	1806.51
1064.07	2196.01
1067.38	2470.83
1070.69	2936.64
1073.99	3369.5
1077.3	3677.66
1080.6	4211.06
1083.9	4734.51
1087.2	5097.1
1090.5	5218.51
1093.79	5979.34
1097.09	5871.81
1100.38	6162.27
1103.68	6379.56
1106.97	6280.47
1110.26	6126.6
1113.55	6109.15
1116.83	5959.56
1120.12	5851.12
1123.4	5500.06
1126.68	5114.97
1129.97	4881.65
1133.25	4535.78
1136.53	4238.94
1139.8	3764.29
1143.08	3525.89
1146.35	3315.78
1149.63	2868.87
1152.9	2552.22
1156.17	2320.86
1159.44	1919.75
1162.7	1632.89
1165.97	1418.25
1169.23	1209.79
1172.5	1081.46
1175.76	880.28
1179.02	650.266
1182.28	502.399
1185.54	370.655
1188.79	300.052
1192.05	378.632
1195.3	142.311
1198.55	162.084
1201.81	97.9419
1205.05	205.883
1208.3	53.9014
1211.55	119.992
1214.79	24.1509
1218.04	10.623
1221.28	25.3481
1224.52	67.939
1227.76	17.8252
1231	11.2988
1234.24	3.61279
1237.47	70.4526
1240.7	52.269
1243.94	49.7393
1247.17	8.68115
1250.4	23.9331
1253.63	18.3198
1256.86	4.5708
1260.08	69.9409
1263.31	1.36719
1266.53	22.9697
1269.75	42.3711
1272.97	130.964
1276.19	69.6558
1279.41	55.9292
1282.62	33.7368
1285.84	153.349
1289.05	70.375
1292.26	204.373
1295.47	181.638
1298.68	193.551
1301.89	309.707
1305.1	368.717
1308.3	316.875
1311.51	235.656
1314.71	329.956
1317.91	261.108
1321.11	396.873
1324.31	435.3
1327.5	225.673
1330.7	134.259
1333.89	317.611
1337.09	310.903
1340.28	333.959
1343.47	213.982
1346.65	291.622
1349.84	255.293
1353.03	128.049
1356.21	177.074
1359.4	148.796
1362.58	157.487
1365.76	114.878
1368.94	7.00195
1372.12	68.7808
1375.29	109.575
1378.47	123.818
1381.64	153.458
1384.81	118.384
1387.98	73.7676
1391.15	53.3125
1394.32	9.63086
1397.49	69.3828
1400.65	25.2666
1403.82	62.0498
1406.98	54.625
1410.14	0.140625
1413.3	96.2837
1416.46	175.241
1419.62	63.4263
1422.77	150.518
1425.93	41.1528
1429.08	170.179
1432.23	58.8052
1435.38	9.89746
1438.53	17.9019
1441.68	105.375
1444.82	74.5703
1447.97	148.592
1451.11	175.433
1454.26	48.0942
1457.4	118.577
1460.54	136.02
1463.67	179.568
1466.81	243.533
1469.95	59.895
1473.08	61.2192
1476.21	77.8501
1479.34	98.7881
1482.47	153.898
1485.6	102.89
1488.73	107.278
1491.86	79.2036
1494.98	29.4868
1498.1	12.2661
1501.23	42.5415
1504.35	142.072
1507.47	82.4707
1510.58	128.29
1513.7	172.883
1516.82	31.8657
1519.93	182.917
1523.04	204.686
1526.15	211.435
1529.26	171.049
1532.37	213.744
1535.48	248.173
1538.58	136.985
1541.69	117.589
1544.79	0.449219
1547.89	8.9956
1550.99	116.15
1554.09	203.115
1557.19	98.5801
1560.29	0.506836
