Measurement: Raman, 514 nm, ccw, Raman Data Processed
Mineral: Gmelinite-Na
Rruff sample: R050371
Ideal chemistry: Na_4_(Si_8_Al_4_)O_24_11H_2_O
Locality: Cairns Bay, Flinders Range, Australia
Source: Eugene Schlepp
Description: Colorless to pink crystals lining a basalt vug
Measured chemistry: Na_3.81_(Si_8.13_Al_3.88_)O_24_Â·4.27H_2_O
Pin_id: L01149
Orientation: Laser parallel to a* (1 0 0). Fiducial mark perpendicular to laser is parallel to c [0 0 1]
Raman shift (cm-1)	intensity
244.211	0
247.863	1.85156
251.514	3.78613
255.164	97.7832
258.812	48.9307
262.458	93.0078
266.103	203.633
269.746	254.195
273.388	16.7676
277.028	152.745
280.667	8.6543
284.304	110.02
287.94	31.1338
291.574	161.7
295.207	374.394
298.838	528.157
302.468	701.932
306.096	1148.62
309.723	1882.12
313.348	2572.28
316.972	3543.98
320.594	3961.45
324.215	3827.49
327.834	3209.19
331.451	2297.55
335.068	1669.6
338.682	1116.05
342.295	671.37
345.907	806.934
349.517	841.872
353.126	910.918
356.733	972.524
360.339	933.912
363.943	947.795
367.546	1145.42
371.147	1310.71
374.746	1575.64
378.345	1799.18
381.941	2160.32
385.537	2673.01
389.13	3289.57
392.722	4452.63
396.313	6027.9
399.902	8413.94
403.49	11209.7
407.076	13638.3
410.661	14250.8
414.244	12373.2
417.826	9395.34
421.406	6962.67
424.985	5275.71
428.562	4253.93
432.138	3927.57
435.712	3901.79
439.285	4245.23
442.856	4773.69
446.426	5755.69
449.994	6846.48
453.561	8694.06
457.126	10932.9
460.69	13541.4
464.253	15844.9
467.813	17935.7
471.373	20188.4
474.931	23297.8
478.487	27978.6
482.042	33817.2
485.596	40200.7
489.148	45947.3
492.698	50268.9
496.247	50966.7
499.795	47315.8
503.341	41124.1
506.885	32347.6
510.428	24041.3
513.97	16854.2
517.51	11755.2
521.049	8589.31
524.586	6168.6
528.121	4581
531.656	3414.88
535.188	2516.69
538.719	1883.13
542.249	1451.75
545.778	1236.27
549.304	831.027
552.83	695.976
556.354	498.179
559.876	379.406
563.397	194.514
566.916	128.97
570.434	113.222
573.951	33.3779
577.466	9.3623
580.979	51.7876
584.491	3.22266
588.002	29.3315
591.511	106.468
595.019	82.8687
598.525	31.0713
602.03	35.2871
605.533	2.34326
609.035	44.9741
612.535	98.2041
616.034	33.4126
619.531	26.521
623.027	69.4009
626.522	94.1616
630.014	233.751
633.506	204.147
636.996	412.394
640.485	462.394
643.972	696.159
647.457	946.676
650.942	893.903
654.424	912.819
657.906	649.409
661.385	538.655
664.864	389.126
668.341	249.061
671.816	105.189
675.29	2.88232
678.763	101.012
682.234	142.54
685.703	126.165
689.171	57.2398
692.638	9.4917
696.103	30.1777
699.567	9.89258
703.029	45.4131
706.49	178.274
709.949	223.323
713.407	203.744
716.864	323.617
720.319	326.077
723.772	384.888
727.225	321.556
730.675	379.671
734.124	313.945
737.572	420.455
741.019	448.12
744.463	535.217
747.907	578.925
751.349	917.472
754.789	912.81
758.228	1150.53
761.666	1256.98
765.102	1248.85
768.537	1042.35
771.97	996.008
775.402	1060.79
778.832	1189.65
782.261	1383.61
785.689	1667.76
789.115	2147.1
792.539	2426.37
795.963	2727.39
799.384	2775.53
802.804	2248.85
806.223	1766.33
809.641	1307.27
813.057	935.428
816.471	710.607
819.884	578.986
823.296	525.934
826.706	429.555
830.115	257.614
833.522	277.803
836.928	184.357
840.332	214.215
843.735	99.5898
847.137	170.204
850.537	12.0859
853.936	32.0044
857.333	21.9229
860.729	135.606
864.123	23.0933
867.516	33.4365
870.907	50.1406
874.297	31.6514
877.686	93.1646
881.073	115.665
884.459	19.0591
887.843	82.2612
891.226	72.2246
894.608	16.9829
897.988	24.5815
901.366	18.5674
904.743	2.97119
908.119	5.76514
911.493	72.9678
914.866	10.6831
918.238	3.11328
921.608	126.606
924.976	148.904
928.344	158.805
931.709	165.327
935.074	142.494
938.436	173.319
941.798	189.351
945.158	213.017
948.517	204.291
951.874	206.342
955.23	282.578
958.584	414.051
961.937	472.713
965.288	676.116
968.638	850.34
971.987	1043.45
975.334	1117.83
978.68	1285.4
982.025	1607.1
985.368	1613.92
988.709	1889.93
992.049	1973.63
995.388	2083.23
998.725	2352.29
1002.06	2465.8
1005.4	2575.51
1008.73	2635.08
1012.06	2647.52
1015.39	2887.51
1018.72	2866.25
1022.05	2870.58
1025.37	2885.98
1028.7	2902.53
1032.02	2701.52
1035.34	2626.61
1038.66	2561.56
1041.98	2361.88
1045.3	2302.4
1048.62	2188.31
1051.93	2206.67
1055.24	2241.01
1058.56	2249.07
1061.87	2496.57
1065.17	2931.75
1068.48	3268.13
1071.79	3572.99
1075.09	3999.99
1078.4	4584.01
1081.7	5052.33
1085	5466.85
1088.3	5892.52
1091.6	6241.41
1094.89	6601.01
1098.19	6763.34
1101.48	6998.53
1104.77	7150.89
1108.06	7133.95
1111.35	6925.02
1114.64	6835.21
1117.93	6946.57
1121.21	6986.7
1124.5	6659.96
1127.78	6180.71
1131.06	5807.05
1134.34	5458.44
1137.62	5269.17
1140.89	4822.6
1144.17	4587.31
1147.44	4125.14
1150.72	3827.9
1153.99	3423.59
1157.26	3021.39
1160.53	2673.47
1163.79	2299.8
1167.06	1939.33
1170.32	1571.06
1173.59	1313.05
1176.85	1068.25
1180.11	793.658
1183.37	993.007
1186.62	539.128
1189.88	394.1
1193.13	340.22
1196.39	313.468
1199.64	180.834
1202.89	66.3144
1206.14	80.9053
1209.38	64.5967
1212.63	43.3882
1215.88	5.72998
1219.12	17.7344
1222.36	52.3447
1225.6	43.5278
1228.84	4.53613
1232.08	16.6123
1235.31	28.2427
1238.55	6.03809
1241.78	45.4145
1245.02	143.705
1248.25	51.334
1251.47	16.3066
1254.7	61.2256
1257.93	12.0532
1261.15	55.4453
1264.38	69.4941
1267.6	26.6773
1270.82	20.8501
1274.04	130.904
1277.26	153.093
1280.48	21.6387
1283.69	97.5591
1286.91	127.513
1290.12	108.72
1293.33	103.878
1296.54	203.659
1299.75	302.351
1302.96	216.999
1306.16	301.247
1309.37	339.411
1312.57	333.741
1315.78	277.603
1318.97	356.854
1322.17	332.302
1325.37	260.857
1328.57	343.579
1331.76	331.193
1334.96	292.147
1338.15	286.121
1341.34	294.448
1344.53	256.509
1347.72	269.07
1350.9	223.967
1354.09	284.775
1357.27	435.291
1360.46	208.848
1363.64	109.084
1366.82	156.269
1370	50.5171
1373.17	109.741
1376.35	183.253
1379.52	80.3774
1382.7	12.6123
1385.87	107.237
1389.04	27.6436
1392.21	59.7417
1395.38	32.2466
1398.54	72.8726
1401.71	89.0249
1404.87	104.243
1408.03	102.201
1411.19	113.888
1414.35	107.125
1417.51	84.6582
1420.67	106.227
1423.82	87.0478
1426.98	107.684
1430.13	11.9395
1433.28	149.626
1436.43	36.0723
1439.58	80.5659
1442.73	45.9702
1445.87	8.11426
1449.02	47.0093
1452.16	54.6567
1455.3	94.04
1458.44	95.0772
1461.58	178.07
1464.72	49.8193
1467.86	158.064
1470.99	146.054
1474.12	106.137
1477.26	133.823
1480.39	63.6313
1483.52	46.023
1486.64	122.855
1489.77	77.0796
1492.9	52.6338
1496.02	27.6631
1499.14	32.334
1502.27	102.144
1505.39	123.491
1508.51	106.755
1511.62	66.0283
1514.74	161.99
1517.85	3.46533
1520.97	135.631
1524.08	150.593
1527.19	139.259
1530.3	142.801
1533.41	92.855
1536.51	56.9346
1539.62	238.09
1542.72	85.1748
1545.83	2.03809
1548.93	67.1787
1552.03	126.474
1555.13	236.624
1558.22	144.144
1561.32	47.169
