Measurement: Raman, 514 nm, ccw, Raman Data Processed
Mineral: Gmelinite-Na
Rruff sample: R050371
Ideal chemistry: Na_4_(Si_8_Al_4_)O_24_11H_2_O
Locality: Cairns Bay, Flinders Range, Australia
Source: Eugene Schlepp
Description: Colorless to pink crystals lining a basalt vug
Measured chemistry: Na_3.81_(Si_8.13_Al_3.88_)O_24_Â·4.27H_2_O
Pin_id: L01149
Orientation: Laser parallel to a* (1 0 0). Fiducial mark perpendicular to laser is parallel to c [0 0 1]
Raman shift (cm-1)	intensity
244.211	0
247.863	115.115
251.514	29.23
255.164	118.871
258.812	403.937
262.458	276.661
266.103	94.9517
269.746	24.2554
273.388	19.6919
277.028	36.6323
280.667	12.5894
284.304	151.052
287.94	519.393
291.574	1014.14
295.207	1425.16
298.838	1927.34
302.468	2644.55
306.096	3697.66
309.723	5619.59
313.348	7409.21
316.972	9323.39
320.594	10486.5
324.215	10343.1
327.834	8822.19
331.451	6881.71
335.068	4810.65
338.682	3308.97
342.295	2315.67
345.907	1568.38
349.517	1040.06
353.126	767.207
356.733	670.095
360.339	608.29
363.943	772.287
367.546	1048.12
371.147	1268.09
374.746	1551.48
378.345	2167.49
381.941	2780.11
385.537	3552.29
389.13	4358.27
392.722	5606.66
396.313	7632.32
399.902	10115.2
403.49	13314.2
407.076	16202.5
410.661	16925.1
414.244	14815.2
417.826	11665.2
421.406	8746.6
424.985	6688.23
428.562	5514.32
432.138	4768.36
435.712	4650.9
439.285	4708.98
442.856	4897.01
446.426	5249.27
449.994	5923.06
453.561	6883.27
457.126	8251.6
460.69	9943.81
464.253	12401.4
467.813	15263.9
471.373	18971.1
474.931	23451.4
478.487	29599.2
482.042	36189.6
485.596	43248.8
489.148	49852.5
492.698	53577.5
496.247	53396.7
499.795	49689.1
503.341	42014.8
506.885	32507.7
510.428	23561.8
513.97	16670.1
517.51	11216.6
521.049	7741.22
524.586	5473.04
528.121	3855.99
531.656	2806.14
535.188	2144.69
538.719	1514.74
542.249	1052.33
545.778	843.459
549.304	429.608
552.83	291.98
556.354	172.317
559.876	134.375
563.397	45.6768
566.916	62.8115
570.434	134.291
573.951	34.1938
577.466	7.37305
580.979	57.4565
584.491	41.5415
588.002	71.3906
591.511	94.6377
595.019	37.2319
598.525	41.105
602.03	0.647949
605.533	22.9971
609.035	0.156738
612.535	22.7954
616.034	76.7573
619.531	51.7188
623.027	36.4497
626.522	52.1255
630.014	28.5898
633.506	166.955
636.996	303.411
640.485	433.242
643.972	590.14
647.457	782.87
650.942	782.413
654.424	855.754
657.906	786.877
661.385	583.238
664.864	457.412
668.341	316.795
671.816	93.9106
675.29	104.365
678.763	33.5269
682.234	6.66016
685.703	2.28565
689.171	43.6926
692.638	36.0256
696.103	43.7825
699.567	92.9243
703.029	116.816
706.49	172.487
709.949	237.671
713.407	258.377
716.864	339.379
720.319	428.347
723.772	464.936
727.225	505.252
730.675	592.141
734.124	546.741
737.572	606.027
741.019	657.146
744.463	747.112
747.907	952.957
751.349	1206.39
754.789	1503.84
758.228	1882.58
761.666	2004.72
765.102	2027.35
768.537	1926.74
771.97	1696.17
775.402	1546.88
778.832	1363.56
782.261	1287.24
785.689	1255.1
789.115	974.505
792.539	935.561
795.963	811.185
799.384	764.553
802.804	572.18
806.223	450.395
809.641	280.532
813.057	293.305
816.471	236.664
819.884	243.461
823.296	109.895
826.706	163.133
830.115	100.921
833.522	120.081
836.928	67.563
840.332	68.8662
843.735	33.126
847.137	91.9841
850.537	63.3301
853.936	4.63989
857.333	57.7554
860.729	25.6294
864.123	28.0386
867.516	9.72681
870.907	5.02026
874.297	11.2263
877.686	22.0498
881.073	33.5127
884.459	7.37671
887.843	61.2681
891.226	9.43506
894.608	94.394
897.988	42.7529
901.366	39.449
904.743	2.84253
908.119	7.43018
911.493	35.3264
914.866	14.1426
918.238	29.9756
921.608	41.8149
924.976	67.2715
928.344	56.4075
931.709	81.2405
935.074	100.79
938.436	181.076
941.798	177.108
945.158	178.587
948.517	203.586
951.874	196.095
955.23	240.616
958.584	276.095
961.937	442.752
965.288	545.898
968.638	645.55
971.987	844.777
975.334	1079.12
978.68	1275.65
982.025	1391.87
985.368	1487.95
988.709	1555.96
992.049	1659.98
995.388	1760.52
998.725	1930.59
1002.06	2080.18
1005.4	2136.77
1008.73	2194.18
1012.06	2249.83
1015.39	2326.57
1018.72	2390.23
1022.05	2259.36
1025.37	2115.24
1028.7	2059.4
1032.02	1968.48
1035.34	1839.22
1038.66	1680.68
1041.98	1603.26
1045.3	1605.08
1048.62	1647.79
1051.93	1577.91
1055.24	1697.37
1058.56	1849.68
1061.87	2207.76
1065.17	2434.99
1068.48	2964.02
1071.79	3392.33
1075.09	3839.57
1078.4	4158.09
1081.7	4641.6
1085	5109.34
1088.3	5504.45
1091.6	5836.35
1094.89	6280.02
1098.19	6426.61
1101.48	6645.28
1104.77	6693.24
1108.06	6585.32
1111.35	6477.64
1114.64	6321.83
1117.93	6348.75
1121.21	6069.96
1124.5	5740.5
1127.78	5097.4
1131.06	4826.64
1134.34	4454.09
1137.62	4192.61
1140.89	3688.21
1144.17	3367.04
1147.44	3085.12
1150.72	2642.42
1153.99	2440.92
1157.26	2052.67
1160.53	1782.65
1163.79	1543.86
1167.06	1279.26
1170.32	1060.84
1173.59	907.559
1176.85	708.425
1180.11	564.411
1183.37	483.522
1186.62	380.762
1189.88	294.11
1193.13	204.559
1196.39	93.8494
1199.64	210.889
1202.89	105.544
1206.14	40.3323
1209.38	20.1311
1212.63	56.0388
1215.88	11.0059
1219.12	3.00488
1222.36	11.9316
1225.6	10.1289
1228.84	31.7905
1232.08	0.375
1235.31	27.4936
1238.55	13.0398
1241.78	17.5422
1245.02	0.39502
1248.25	36.1338
1251.47	47.8318
1254.7	11.6956
1257.93	5.33862
1261.15	1.2727
1264.38	15.9939
1267.6	52.1904
1270.82	26.7053
1274.04	37.0913
1277.26	95.7395
1280.48	81.4912
1283.69	82.0977
1286.91	63.4788
1290.12	133.296
1293.33	190.993
1296.54	186.052
1299.75	254.385
1302.96	217.478
1306.16	256.158
1309.37	317.261
1312.57	315.983
1315.78	314.903
1318.97	312.77
1322.17	274.575
1325.37	285.181
1328.57	304.23
1331.76	272.662
1334.96	228.096
1338.15	241.436
1341.34	215.857
1344.53	185.917
1347.72	143.044
1350.9	124.334
1354.09	185.273
1357.27	105.368
1360.46	134.261
1363.64	4.00171
1366.82	61.529
1370	120.343
1373.17	60.2256
1376.35	14.083
1379.52	80.2002
1382.7	56.2444
1385.87	26.8416
1389.04	67.0862
1392.21	61.5994
1395.38	76.5674
1398.54	80.5813
1401.71	45.3184
1404.87	29.8931
1408.03	37.3779
1411.19	32.751
1414.35	13.5757
1417.51	81.1321
1420.67	84.4273
1423.82	88.1953
1426.98	18.5249
1430.13	35.1797
1433.28	28.2881
1436.43	22.1091
1439.58	56.0366
1442.73	72.4402
1445.87	62.6721
1449.02	133.705
1452.16	74.5544
1455.3	17.2739
1458.44	137.834
1461.58	65.2158
1464.72	155.591
1467.86	58.1714
1470.99	64.8723
1474.12	70.675
1477.26	55.1367
1480.39	25.6604
1483.52	26.9651
1486.64	37.3677
1489.77	29.5674
1492.9	48.9341
1496.02	73.4043
1499.14	41.6431
1502.27	62.3154
1505.39	22.0879
1508.51	130.534
1511.62	43.7146
1514.74	68.5122
1517.85	106.68
1520.97	81.8418
1524.08	259.172
1527.19	59.9338
1530.3	29.1645
1533.41	23.5727
1536.51	37.1389
1539.62	25.915
1542.72	44.0413
1545.83	5.12964
1548.93	70.6768
1552.03	79.0225
1555.13	48.8127
1558.22	25.9084
1561.32	0.271973
