Measurement: Raman, 514 nm, ccw, Raman Data Processed
Mineral: Gmelinite-Na
Rruff sample: R060168
Ideal chemistry: Na_4_(Si_8_Al_4_)O_24_11H_2_O
Locality: Five Islands, Nova Scotia, Canada
Source: Guy Ouellet
Description: Salmon-red interpenetrating prismatic rhombohedral crystals
Measured chemistry: (Na_3.90_Ca_0.10_)_Σ=4_(Si_7.90_Al_4.10_)_Σ=12_O_24_·8.98H_2_O
Pin_id: M01916
Orientation: Laser parallel to a* (1 0 0). Fiducial mark perpendicular to laser is parallel to c [0 0 1]
Raman shift (cm-1)	intensity
234.896	0
238.569	69.6875
242.241	257.114
245.91	73.1494
249.578	1.70215
253.244	295.205
256.909	382.136
260.572	261.696
264.233	166.624
267.892	96.6416
271.55	22.7119
275.206	15.876
278.86	8.5791
282.513	242.799
286.164	521.981
289.813	904.043
293.461	1467.01
297.106	2158.73
300.751	2965.1
304.393	3914.01
308.034	5233.38
311.673	7159.82
315.31	9076.94
318.946	10712.6
322.58	11329.7
326.212	10246.4
329.843	8327.14
333.472	6217.59
337.099	4368.37
340.724	2881.36
344.348	1863.64
347.97	1013.67
351.591	694.358
355.21	492.71
358.827	465.044
362.443	450.359
366.056	568.652
369.669	765.56
373.279	996.06
376.888	1582.14
380.495	2253.39
384.101	2944.55
387.705	3678.16
391.307	4372.31
394.908	5420.16
398.507	7286.38
402.104	9923.69
405.7	13046.6
409.294	15745.7
412.886	16852.6
416.477	15600.9
420.066	12529.3
423.653	9542.71
427.239	6986.64
430.823	5414.71
434.405	5406.33
437.986	4620.62
441.566	4421.48
445.143	4719.38
448.719	5234.78
452.293	5989.42
455.866	6888.72
459.437	8134.41
463.007	9986.48
466.575	12163.9
470.141	15426.7
473.705	19202.9
477.268	24059.4
480.83	30297.2
484.389	37371.4
487.948	44898.9
491.504	50399.9
495.059	53075
498.612	51736.3
502.164	46184.8
505.714	37601.5
509.262	28382.9
512.809	20289.6
516.355	14170.9
519.898	9714.43
523.44	6963.14
526.981	4795.05
530.52	3643.31
534.057	2544.9
537.593	1943.4
541.127	1414.6
544.659	1057.07
548.19	880.785
551.719	611.4
555.247	459.91
558.773	273.506
562.298	222.33
565.821	56.0205
569.342	73.7481
572.862	42.2148
576.38	176.478
579.897	353.121
583.412	147.384
586.926	57.2246
590.438	24.3555
593.948	104.889
597.457	182.217
600.964	112.642
604.47	138.081
607.974	196.53
611.476	119.004
614.977	256.519
618.477	95.125
621.975	118.859
625.471	69.665
628.966	9.43945
632.459	98.0889
635.951	252.651
639.441	309.183
642.929	426.61
646.416	609.902
649.902	779.002
653.386	801.92
656.868	794.684
660.349	668.261
663.828	644.617
667.306	561.754
670.782	335.638
674.257	37.748
677.73	175.087
681.202	128.428
684.672	152.369
688.14	47.3945
691.607	1.7959
695.073	89.7305
698.537	164.144
701.999	22.4434
705.46	62.0117
708.919	132.963
712.377	213.853
715.834	189.977
719.288	312.803
722.742	227.564
726.194	339.095
729.644	267.411
733.093	376.188
736.54	361.114
739.986	397.348
743.43	463.51
746.873	701.731
750.314	790.798
753.754	961.282
757.192	1100.87
760.628	1427.88
764.064	1749.37
767.497	1885.92
770.93	1906.56
774.36	1767
777.79	1458.48
781.217	1522.47
784.644	1316.39
788.068	1096.67
791.492	983.953
794.913	902.238
798.334	832.306
801.752	755.09
805.17	571.41
808.586	570.175
812	496.624
815.413	316.425
818.824	420.446
822.234	232.941
825.643	253.558
829.05	169.685
832.455	218.078
835.859	99.9668
839.262	124.675
842.663	197.244
846.062	89.249
849.46	34.7422
852.857	89.1211
856.252	79.7461
859.646	132.597
863.038	154.072
866.429	142.007
869.819	46.4961
873.207	5.77832
876.593	428.25
879.978	165.72
883.362	14.4385
886.744	24.252
890.124	45.7695
893.504	39.2285
896.881	42.5185
900.258	34.3984
903.633	86.7803
907.006	56.665
910.378	126.99
913.749	57.6289
917.118	127.774
920.485	187.583
923.852	33.7793
927.216	155.617
930.58	57.9736
933.942	139.97
937.302	14.4404
940.661	5.76172
944.019	12.6289
947.375	72.2314
950.73	142.589
954.083	159.336
957.435	270.378
960.786	221.222
964.135	440.497
967.483	424.085
970.829	603.145
974.174	748.496
977.517	755.343
980.859	1104.16
984.2	1299.14
987.539	1366.36
990.877	1521.74
994.213	1509.97
997.548	1822.21
1000.88	2029.55
1004.21	1964.93
1007.54	1930.62
1010.87	2060.91
1014.2	2232.18
1017.53	2066.38
1020.85	1988.6
1024.18	1944.67
1027.5	1839.81
1030.82	1711.92
1034.14	1728.77
1037.46	1584.46
1040.78	1527.37
1044.09	1408.27
1047.4	1397.14
1050.72	1247.59
1054.03	1367.58
1057.34	1416.83
1060.65	1578.74
1063.95	1616.71
1067.26	1910.26
1070.56	2327.76
1073.87	2703.64
1077.17	3005.13
1080.47	3185.53
1083.77	3694.8
1087.07	4179.79
1090.36	4534.48
1093.65	4752.06
1096.95	5078.47
1100.24	5357.56
1103.53	5621.72
1106.82	5753.32
1110.11	5878.45
1113.39	6063.12
1116.68	6013.22
1119.96	6059.12
1123.25	5921.56
1126.53	5589.4
1129.81	5310.23
1133.09	4970.31
1136.36	4650.62
1139.64	4405.27
1142.91	4066.31
1146.18	3798.28
1149.46	3389.66
1152.73	3087.32
1155.99	2764.31
1159.26	2376.76
1162.53	2084.69
1165.79	1940
1169.06	1624.56
1172.32	1339.35
1175.58	1162.44
1178.84	972.273
1182.1	751.582
1185.36	572.463
1188.61	416.523
1191.86	211.828
1195.12	138.337
1198.37	164.055
1201.62	85.957
1204.87	152.051
1208.12	68.6836
1211.36	15.6621
1214.61	67.8369
1217.85	85.7519
1221.09	85.4834
1224.33	98.6846
1227.57	32.1172
1230.81	2.0459
1234.05	31.1299
1237.28	116.144
1240.52	92.2119
1243.75	58.6719
1246.98	221.624
1250.21	57.6943
1253.44	22.1172
1256.67	22.1582
1259.89	199.418
1263.12	249.968
1266.34	258.396
1269.57	350.208
1272.79	420.13
1276.01	359.149
1279.23	271.26
1282.44	461.45
1285.66	462.088
1288.87	606.102
1292.09	609.5
1295.3	766.269
1298.51	750.972
1301.72	799.739
1304.93	988.597
1308.13	1020.57
1311.34	955.066
1314.55	1150.56
1317.75	1015.1
1320.95	1120.68
1324.15	915.317
1327.35	979.993
1330.55	936.708
1333.74	788.463
1336.94	818.712
1340.13	765.669
1343.33	581.939
1346.52	545.153
1349.71	479.457
1352.9	461.562
1356.08	544.915
1359.27	332.316
1362.45	369.137
1365.64	273.326
1368.82	291.729
1372	275.782
1375.18	110.901
1378.36	247.712
1381.54	127.997
1384.72	129.477
1387.89	82.3594
1391.07	90.1582
1394.24	156.961
1397.41	105.602
1400.58	104.804
1403.75	218.667
1406.91	171.196
1410.08	89.3232
1413.24	98.2695
1416.41	51.7842
1419.57	65.2383
1422.73	107.31
1425.89	87.1992
1429.05	4.10742
1432.21	28.3408
1435.37	72.79
1438.52	490.732
1441.67	312.019
1444.83	186.881
1447.98	267.699
1451.13	277.468
1454.28	189.281
1457.42	431.1
1460.57	405.058
1463.71	211.206
1466.86	98.4551
1470	170.924
1473.14	242.431
1476.28	46.9482
1479.42	207.217
1482.56	104.247
1485.7	111.272
1488.83	146.438
1491.96	69.7842
1495.1	45.6045
1498.23	35.7637
1501.36	158.874
1504.49	108.676
1507.62	109.274
1510.74	176.618
1513.87	22.6553
1516.99	133.174
1520.12	13.5674
1523.24	227.838
1526.36	175.1
1529.48	55.8154
1532.6	69.915
1535.71	113.136
1538.83	69.1611
1541.94	180.533
1545.06	170.643
1548.17	13.6846
1551.28	190.266
1554.39	321.073
1557.5	188.331
1560.61	108.614
1563.71	0
