Measurement: Raman, 514 nm, ccw, Raman Data Processed
Mineral: Gmelinite-Na
Rruff sample: R060168
Ideal chemistry: Na_4_(Si_8_Al_4_)O_24_11H_2_O
Locality: Five Islands, Nova Scotia, Canada
Source: Guy Ouellet
Description: Salmon-red interpenetrating prismatic rhombohedral crystals
Measured chemistry: (Na_3.90_Ca_0.10_)_Σ=4_(Si_7.90_Al_4.10_)_Σ=12_O_24_·8.98H_2_O
Pin_id: M00975
Orientation: Laser parallel to c* (0 0 1). Fiducial mark perpendicular to laser is parallel to a [1 0 0]
Raman shift (cm-1)	intensity
242.241	0
245.91	9.02539
249.578	132.176
253.244	120.758
256.909	337.417
260.572	456.147
264.233	344.363
267.892	60.0996
271.55	14.4971
275.206	30.0322
278.86	73.293
282.513	351.873
286.164	425.25
289.813	907.129
293.461	1497.83
297.106	1976.85
300.751	2932.88
304.393	4001.78
308.034	5515.46
311.673	7327.8
315.31	9011.72
318.946	10361.7
322.58	10155.5
326.212	9248.89
329.843	7475.75
333.472	5510.69
337.099	3843.62
340.724	2650.27
344.348	1749.32
347.97	1195.3
351.591	691.115
355.21	573.77
358.827	526.238
362.443	465.502
366.056	510.554
369.669	974.387
373.279	1052.95
376.888	1585.22
380.495	2332.16
384.101	2897.75
387.705	3638.76
391.307	4440.41
394.908	5799.65
398.507	7776.22
402.104	10552.8
405.7	13430.7
409.294	16039.8
412.886	16070.6
416.477	14439.5
420.066	11620.2
423.653	8669.35
427.239	6640.11
430.823	5507.2
434.405	4662.09
437.986	4582.5
441.566	4711.27
445.143	5013.07
448.719	5647.33
452.293	6546.07
455.866	7492.27
459.437	9220.9
463.007	11137
466.575	13521.4
470.141	16897.2
473.705	21146.4
477.268	26420
480.83	32713
484.389	40246.6
487.948	46696.5
491.504	51675.9
495.059	52998.1
498.612	50790.6
502.164	44884.3
505.714	36044.3
509.262	27182.5
512.809	19193.9
516.355	13579.6
519.898	9354.36
523.44	6514.74
526.981	4726.51
530.52	3440.15
534.057	2541.4
537.593	1887.41
541.127	1320.64
544.659	939.99
548.19	683.786
551.719	522.496
555.247	240.745
558.773	290.815
562.298	12.0078
565.821	13.3242
569.342	102.489
572.862	93.5381
576.38	94.1523
579.897	95.1494
583.412	35.5654
586.926	67.7022
590.438	48.0205
593.948	135.249
597.457	193.737
600.964	179.779
604.47	188.732
607.974	213.611
611.476	254.418
614.977	218.199
618.477	129.947
621.975	45.7051
625.471	108.432
628.966	227.06
632.459	234.516
635.951	226.762
639.441	438.812
642.929	505.665
646.416	717.428
649.902	758.602
653.386	742.256
656.868	764.521
660.349	644.087
663.828	292.379
667.306	231.34
670.782	84.9463
674.257	49.1299
677.73	92.7285
681.202	123.939
684.672	60.0977
688.14	5.42773
691.607	93.8789
695.073	1.38184
698.537	13.9463
701.999	78.9082
705.46	6.08887
708.919	223.47
712.377	200.51
715.834	285.283
719.288	232.035
722.742	279.684
726.194	417.475
729.644	469.613
733.093	279.84
736.54	532.709
739.986	565.864
743.43	591.174
746.873	723.612
750.314	842.769
753.754	1081.23
757.192	1428.77
760.628	1699.75
764.064	1840.83
767.497	2104.54
770.93	2079.46
774.36	1796.61
777.79	1665.18
781.217	1455.84
784.644	1264.65
788.068	1160.75
791.492	1128.72
794.913	999.516
798.334	962.692
801.752	740.295
805.17	590.368
808.586	568.599
812	402.975
815.413	423.393
818.824	258.391
822.234	265.694
825.643	101.219
829.05	161.776
832.455	200.107
835.859	70.6719
839.262	103.022
842.663	33.2461
846.062	106.489
849.46	154.133
852.857	147.301
856.252	61.707
859.646	192.683
863.038	199.684
866.429	246.236
869.819	121.008
873.207	140.684
876.593	1.90527
879.978	94.6006
883.362	28.2061
886.744	17.6377
890.124	18.416
893.504	46.5449
896.881	84.1025
900.258	43.5772
903.633	62.7393
907.006	163.444
910.378	62.7275
913.749	107.528
917.118	142.925
920.485	75.9707
923.852	161.039
927.216	47.6475
930.58	94.7373
933.942	37.7715
937.302	4.59473
940.661	6.09473
944.019	50.6973
947.375	112.874
950.73	60.7041
954.083	30.5928
957.435	204.265
960.786	62.7109
964.135	222.85
967.483	353.284
970.829	540.786
974.174	700.578
977.517	742.154
980.859	1055.29
984.2	1121.84
987.539	1318.02
990.877	1572.73
994.213	1757.25
997.548	1921.95
1000.88	2254.1
1004.21	2134.85
1007.54	2186.98
1010.87	2211.07
1014.2	2080.42
1017.53	2159.41
1020.85	2081.97
1024.18	2157.62
1027.5	2126.91
1030.82	1755.37
1034.14	1829.9
1037.46	1751.8
1040.78	1620.1
1044.09	1582.25
1047.4	1448.1
1050.72	1377.28
1054.03	1436.36
1057.34	1506.25
1060.65	1617.98
1063.95	1910.02
1067.26	2153.74
1070.56	2358.33
1073.87	2854.28
1077.17	3310.48
1080.47	3719.19
1083.77	4143.98
1087.07	4343.87
1090.36	4940.87
1093.65	5303.65
1096.95	5509.62
1100.24	5827.32
1103.53	6103.39
1106.82	6310.4
1110.11	6320.67
1113.39	6380.55
1116.68	6336.23
1119.96	6385.66
1123.25	6356.05
1126.53	6026.41
1129.81	5723.89
1133.09	5364.5
1136.36	5000.25
1139.64	4565.17
1142.91	4379.27
1146.18	3768.57
1149.46	3458.07
1152.73	3096.05
1155.99	2765.84
1159.26	2464.19
1162.53	2123.87
1165.79	1895.87
1169.06	1769.06
1172.32	1447.44
1175.58	1113.03
1178.84	975.678
1182.1	783.846
1185.36	648.992
1188.61	339.328
1191.86	329.815
1195.12	197.47
1198.37	117.332
1201.62	13.3037
1204.87	39.6406
1208.12	30.502
1211.36	13.7197
1214.61	159.077
1217.85	21.4463
1221.09	89.0713
1224.33	110.658
1227.57	8.21875
1230.81	82.7422
1234.05	45.7266
1237.28	105.513
1240.52	69.2686
1243.75	1.69043
1246.98	152.023
1250.21	155.553
1253.44	107.215
1256.67	81.0449
1259.89	203.987
1263.12	386.137
1266.34	357.659
1269.57	318.183
1272.79	424.488
1276.01	542.689
1279.23	451.136
1282.44	331.637
1285.66	386.298
1288.87	522.476
1292.09	701.164
1295.3	696.755
1298.51	705.519
1301.72	782.602
1304.93	1092.3
1308.13	897.719
1311.34	986.172
1314.55	1323.58
1317.75	973.014
1320.95	1059.47
1324.15	969.96
1327.35	789.47
1330.55	689.313
1333.74	536.44
1336.94	385.713
1340.13	507.087
1343.33	495.61
1346.52	379.61
1349.71	246.158
1352.9	322.831
1356.08	161.358
1359.27	223.272
1362.45	169.264
1365.64	121.991
1368.82	8.00391
1372	255.672
1375.18	140.217
1378.36	39.5918
1381.54	201.619
1384.72	117.994
1387.89	44.3818
1391.07	68.7812
1394.24	0.5
1397.41	7.22754
1400.58	13.5771
1403.75	110.515
1406.91	141.643
1410.08	188.689
1413.24	172.756
1416.41	124.395
1419.57	209.023
1422.73	135.555
1425.89	194.497
1429.05	12.084
1432.21	54.7852
1435.37	273.956
1438.52	362.706
1441.67	408.06
1444.83	483.644
1447.98	649.203
1451.13	864.813
1454.28	555.464
1457.42	512.152
1460.57	555.974
1463.71	592.078
1466.86	326.743
1470	260.734
1473.14	323.751
1476.28	148.391
1479.42	277.218
1482.56	199.933
1485.7	196.619
1488.83	78.3223
1491.96	71.3633
1495.1	19.7031
1498.23	59.5586
1501.36	161.345
1504.49	96.9824
1507.62	281.638
1510.74	13.1738
1513.87	246.587
1516.99	248.145
1520.12	309.765
1523.24	31.3281
1526.36	376.888
1529.48	445.44
1532.6	326.621
1535.71	151.635
1538.83	237.945
1541.94	97.9756
1545.06	155.23
1548.17	27.5176
1551.28	40.0723
1554.39	107.428
1557.5	110.381
1560.61	211.715
1563.71	0
