Measurement: Raman, 514 nm, ccw, Raman Data Processed
Mineral: Gmelinite-Na
Rruff sample: R050371
Ideal chemistry: Na_4_(Si_8_Al_4_)O_24_11H_2_O
Locality: Cairns Bay, Flinders Range, Australia
Source: Eugene Schlepp
Description: Colorless to pink crystals lining a basalt vug
Measured chemistry: Na_3.81_(Si_8.13_Al_3.88_)O_24_Â·4.27H_2_O
Pin_id: L01937
Orientation: Laser parallel to -c* (0 0 -1). Fiducial mark perpendicular to laser is parallel to a [1 0 0]
Raman shift (cm-1)	intensity
246.646	0
250.298	83.4824
253.947	178.391
257.596	304.372
261.243	529.163
264.888	190.97
268.532	92.5088
272.174	20.1885
275.815	23.9277
279.454	104.935
283.092	175.588
286.728	316.272
290.363	730.26
293.996	1189
297.628	1743.45
301.258	2235.45
304.887	2921.77
308.514	4311.23
312.14	5680.72
315.764	7764.09
319.387	9687.19
323.008	10207.3
326.628	9391.12
330.246	7482.48
333.862	5539.08
337.478	4077.34
341.091	2874.5
344.703	1941.82
348.314	1362.2
351.923	911.414
355.531	857.423
359.137	697.221
362.742	880.753
366.345	983.342
369.947	1108.81
373.547	1455.02
377.145	1886.9
380.743	2411.44
384.338	3159.62
387.932	3920.41
391.525	4761.49
395.116	6014.11
398.706	8005.12
402.294	11252.8
405.881	14363.5
409.466	16822.6
413.05	16415.2
416.632	13849.3
420.213	10243.8
423.792	7733.12
427.37	5877.46
430.946	5036.59
434.521	4730.71
438.094	4850.12
441.666	4941.21
445.236	5349.11
448.805	6109.41
452.372	6826.74
455.938	7900.57
459.502	9309.86
463.065	11259.6
466.627	13800.7
470.187	17150.3
473.745	20923.3
477.302	25586.5
480.857	31539.9
484.411	38525.3
487.964	45228.9
491.515	50584.6
495.064	52976.6
498.612	51436
502.159	45812.6
505.704	37167.5
509.247	27882.6
512.789	19583.9
516.33	13543.5
519.869	9551.2
523.407	6541.13
526.943	4586.22
530.478	3337.47
534.011	2422.88
537.543	1720.62
541.073	1270.8
544.602	958.454
548.129	571.711
551.655	453.41
555.179	270.637
558.702	57.8223
562.223	50.0444
565.743	72.9351
569.262	88.4932
572.779	225.515
576.294	145.31
579.808	86.644
583.321	55.8565
586.832	17.6753
590.341	109.841
593.85	130.418
597.356	134.144
600.862	155.924
604.365	51.7559
607.868	143.708
611.368	176.728
614.868	82.8403
618.366	56.0615
621.862	89.9072
625.357	26.1104
628.85	2.67285
632.342	196.394
635.833	207.981
639.322	360.479
642.81	535.83
646.296	709.992
649.78	874.976
653.264	971.757
656.745	891.315
660.226	723.639
663.704	642.707
667.182	425.508
670.658	285.378
674.132	109.34
677.605	106.095
681.077	66.1421
684.547	71.8311
688.015	33.1841
691.483	15.7261
694.948	14.3862
698.413	74.0723
701.875	116.398
705.337	203.882
708.797	270.419
712.255	271.809
715.712	306.665
719.167	334.12
722.621	354.135
726.074	414.563
729.525	419.335
732.975	446.566
736.423	554.992
739.87	589.103
743.315	692.73
746.759	819.485
750.202	1052.25
753.643	1308.3
757.082	1496.03
760.52	1850.52
763.957	2017.27
767.392	2031.69
770.826	1976.34
774.258	1727.48
777.689	1608.52
781.118	1383.28
784.546	1228.63
787.973	1232.54
791.398	1156.84
794.822	1068.29
798.244	818.255
801.665	675.04
805.084	594.475
808.502	489.928
811.918	339.474
815.333	375.598
818.747	314.295
822.159	338.023
825.569	127.259
828.979	211.985
832.386	46.9873
835.793	21.2749
839.198	63.7568
842.601	27.3086
846.003	36.7153
849.404	97.8247
852.803	39.8691
856.2	83.686
859.597	83.0459
862.992	22.0918
866.385	32.0855
869.777	71.3706
873.167	43.3154
876.557	10.604
879.944	59.7251
883.33	23.7236
886.715	88.0352
890.099	21.9595
893.481	87.5415
896.861	21.8686
900.24	26.1553
903.618	10.3706
906.994	33.5161
910.369	23.8936
913.742	88.7217
917.114	119.112
920.485	85.0874
923.854	94.6372
927.221	9.79883
930.588	80.5869
933.952	203.02
937.316	75.1304
940.678	181.923
944.038	179.419
947.397	131.227
950.755	158.571
954.111	330.952
957.466	182.564
960.819	360.486
964.171	470.057
967.522	643.05
970.871	819.082
974.219	951.443
977.565	1124.61
980.91	1302.99
984.253	1635.23
987.595	1561.4
990.936	1670.49
994.275	1718.88
997.613	1884.18
1000.95	2022.61
1004.28	2067.96
1007.62	2230.69
1010.95	2353.62
1014.28	2380.46
1017.61	2370.8
1020.94	2335.27
1024.26	2234.38
1027.59	2228.52
1030.91	2096.81
1034.23	2025.82
1037.56	1741.37
1040.88	1706.79
1044.19	1517.27
1047.51	1461.56
1050.83	1489.75
1054.14	1622.46
1057.45	1847.31
1060.76	1998.9
1064.07	2231.51
1067.38	2690.16
1070.69	3152.91
1073.99	3597.13
1077.3	3920.06
1080.6	4389
1083.9	4940.83
1087.2	5420.16
1090.5	5708.97
1093.79	6121.98
1097.09	6414.67
1100.38	6636.74
1103.68	6802.96
1106.97	6730.5
1110.26	6695.45
1113.55	6618.86
1116.83	6502.2
1120.12	6467.11
1123.4	6096.34
1126.68	5639.34
1129.97	5358.66
1133.25	4909.23
1136.53	4559.09
1139.8	4198.27
1143.08	3736.76
1146.35	3380.62
1149.63	3051.79
1152.9	2713.31
1156.17	2456.16
1159.44	2073.28
1162.7	1802.78
1165.97	1504.57
1169.23	1257.79
1172.5	1074.27
1175.76	883.643
1179.02	646.058
1182.28	460.331
1185.54	389.819
1188.79	317.508
1192.05	158.378
1195.3	175.426
1198.55	180.64
1201.81	1.00684
1205.05	46.5478
1208.3	37.2315
1211.55	133.036
1214.79	29.9307
1218.04	35.1162
1221.28	35.0855
1224.52	49.0117
1227.76	116.934
1231	19.9194
1234.24	33.8394
1237.47	20.2334
1240.7	25.7192
1243.94	14.7041
1247.17	68.6416
1250.4	0.407715
1253.63	13.2769
1256.86	158.898
1260.08	177.155
1263.31	220.082
1266.53	141.75
1269.75	198.762
1272.97	253.537
1276.19	351.401
1279.41	311.742
1282.62	373.797
1285.84	492.973
1289.05	408.853
1292.26	501.191
1295.47	613.971
1298.68	661.791
1301.89	626.37
1305.1	867.342
1308.3	840.038
1311.51	842.956
1314.71	832.113
1317.91	890.751
1321.11	883.876
1324.31	794.306
1327.5	727.869
1330.7	787.136
1333.89	617.869
1337.09	578.982
1340.28	601.168
1343.47	540.605
1346.65	444.701
1349.84	344.608
1353.03	335.649
1356.21	297.119
1359.4	178.761
1362.58	239.412
1365.76	171.44
1368.94	132.822
1372.12	174.821
1375.29	110.144
1378.47	117.51
1381.64	62.7485
1384.81	88.7671
1387.98	16.1431
1391.15	56.8887
1394.32	13.0625
1397.49	52.1431
1400.65	95.1894
1403.82	113.744
1406.98	32.7705
1410.14	12.813
1413.3	42.2974
1416.46	56.3975
1419.62	0.703613
1422.77	25.4204
1425.93	156.661
1429.08	44.4243
1432.23	24.0669
1435.38	6.6167
1438.53	1.23389
1441.68	23.6108
1444.82	54.8272
1447.97	54.8857
1451.11	103.743
1454.26	83.5137
1457.4	27.4194
1460.54	99.0977
1463.67	151.042
1466.81	205.087
1469.95	89.3018
1473.08	143.957
1476.21	112.401
1479.34	108.998
1482.47	121.181
1485.6	9.33594
1488.73	17.7051
1491.86	55.7685
1494.98	122.562
1498.1	37.7207
1501.23	87.7788
1504.35	93.8618
1507.47	97.3789
1510.58	35.0581
1513.7	156.411
1516.82	147.465
1519.93	72.5239
1523.04	44.3267
1526.15	130.994
1529.26	59.6611
1532.37	103.742
1535.48	104.713
1538.58	61.7114
1541.69	72.1226
1544.79	185.352
1547.89	138.314
1550.99	54.6265
1554.09	165.564
1557.19	136.51
1560.29	105.026
