Measurement: Raman, 514 nm, ccw, Raman Data Processed
Mineral: Gmelinite-Na
Rruff sample: R060168
Ideal chemistry: Na_4_(Si_8_Al_4_)O_24_11H_2_O
Locality: Five Islands, Nova Scotia, Canada
Source: Guy Ouellet
Description: Salmon-red interpenetrating prismatic rhombohedral crystals
Measured chemistry: (Na_3.90_Ca_0.10_)_Σ=4_(Si_7.90_Al_4.10_)_Σ=12_O_24_·8.98H_2_O
Pin_id: M01916
Orientation: Laser parallel to a* (1 0 0). Fiducial mark perpendicular to laser is parallel to c [0 0 1]
Raman shift (cm-1)	intensity
249.578	0
253.244	175.568
256.909	146.765
260.572	288.692
264.233	243.755
267.892	176.29
271.55	142.237
275.206	199.701
278.86	411.032
282.513	359.014
286.164	712.359
289.813	1026.46
293.461	1384.26
297.106	1364.16
300.751	1476.38
304.393	1661.44
308.034	1669.96
311.673	1793.72
315.31	1964.39
318.946	1879.46
322.58	1600.3
326.212	1091.21
329.843	706.702
333.472	382.587
337.099	57.6748
340.724	12.7578
344.348	53.293
347.97	159.605
351.591	84.4522
355.21	201.863
358.827	65.2451
362.443	47.9268
366.056	297.187
369.669	637.465
373.279	1244.71
376.888	1572.66
380.495	2502.11
384.101	3019.45
387.705	3977.68
391.307	4844.78
394.908	6142.2
398.507	8289.72
402.104	10507
405.7	12363.9
409.294	13231.5
412.886	12496
416.477	10259.5
420.066	7646.66
423.653	5751.24
427.239	4499.36
430.823	3767.28
434.405	3611.21
437.986	3945.32
441.566	4259.65
445.143	5243.67
448.719	6671.96
452.293	8246.21
455.866	11026.4
459.437	13841.3
463.007	16677
466.575	18801.5
470.141	20421.5
473.705	23017.1
477.268	26587.2
480.83	31758.5
484.389	37649.7
487.948	43408.6
491.504	46280.8
495.059	46246.4
498.612	43038.6
502.164	36542.1
505.714	29006.5
509.262	22076.8
512.809	16325.6
516.355	11760.2
519.898	8602.19
523.44	6323.64
526.981	4967.58
530.52	3978.51
534.057	3261.88
537.593	2729.2
541.127	2216.88
544.659	2209.65
548.19	2286.21
551.719	2057.86
555.247	1628.25
558.773	1252.34
562.298	851.98
565.821	624.07
569.342	688.224
572.862	375.661
576.38	326.628
579.897	219.796
583.412	218.755
586.926	425.362
590.438	238.666
593.948	552.687
597.457	663.443
600.964	725.751
604.47	976.019
607.974	926.963
611.476	678.823
614.977	797.963
618.477	761.453
621.975	500.533
625.471	508.837
628.966	534.475
632.459	583.958
635.951	646.47
639.441	594.466
642.929	811.972
646.416	994.671
649.902	1167.51
653.386	1196.49
656.868	958.535
660.349	992.667
663.828	734.882
667.306	565.079
670.782	556.246
674.257	322.366
677.73	295.423
681.202	101.392
684.672	303.263
688.14	172.019
691.607	41.6465
695.073	163.525
698.537	29.3906
701.999	12.5371
705.46	107.203
708.919	147.685
712.377	140.408
715.834	15.8438
719.288	59.4473
722.742	75.1231
726.194	158.664
729.644	145.653
733.093	203.345
736.54	35.6895
739.986	108.727
743.43	8.42285
746.873	94.5332
750.314	163.819
753.754	260.791
757.192	152.398
760.628	370.011
764.064	464.384
767.497	97.5664
770.93	264.502
774.36	475.206
777.79	519.667
781.217	781.216
784.644	1171.1
788.068	1739.75
791.492	2205.06
794.913	2816.28
798.334	2927.32
801.752	2711.9
805.17	2305.52
808.586	1655.48
812	1290.58
815.413	977.431
818.824	793.738
822.234	521.264
825.643	890.119
829.05	563.303
832.455	383.592
835.859	268.393
839.262	298.425
842.663	348.69
846.062	235.48
849.46	188.449
852.857	233.224
856.252	358.234
859.646	100.506
863.038	88.2256
866.429	122.904
869.819	30.9932
873.207	127.936
876.593	51.8711
879.978	122.106
883.362	4.05762
886.744	137.017
890.124	36.6123
893.504	95.0938
896.881	11.6533
900.258	187.128
903.633	31.0664
907.006	127.581
910.378	136.115
913.749	131.102
917.118	33.3447
920.485	148.886
923.852	17.2656
927.216	12.9053
930.58	7.50586
933.942	208.512
937.302	81.9639
940.661	112.984
944.019	92.5791
947.375	229.754
950.73	133.546
954.083	111.974
957.435	211.07
960.786	278.845
964.135	447.334
967.483	345.901
970.829	501.498
974.174	668.963
977.517	752.479
980.859	662.844
984.2	893.402
987.539	1076.63
990.877	1252.16
994.213	1171.25
997.548	1326.32
1000.88	1387.07
1004.21	1490.84
1007.54	1428.32
1010.87	1361.69
1014.2	1549.91
1017.53	1500.19
1020.85	1585.8
1024.18	1780.86
1027.5	1858.61
1030.82	1719.43
1034.14	1503.79
1037.46	1730
1040.78	1610.11
1044.09	1660.73
1047.4	1456.2
1050.72	1230.34
1054.03	1508.15
1057.34	1211.57
1060.65	1284.01
1063.95	1455.58
1067.26	1653.16
1070.56	1898.81
1073.87	2134.11
1077.17	2127.52
1080.47	2538.23
1083.77	2923.98
1087.07	3037.6
1090.36	3314.91
1093.65	3530.08
1096.95	3981.17
1100.24	3936.18
1103.53	4098.74
1106.82	3947.55
1110.11	4036.61
1113.39	4018.94
1116.68	3982.55
1119.96	4110.44
1123.25	3887.62
1126.53	3831.13
1129.81	3622.61
1133.09	3387.31
1136.36	3138.75
1139.64	2812.02
1142.91	2614.46
1146.18	2477.34
1149.46	2285.61
1152.73	1979.32
1155.99	1860.48
1159.26	1703.76
1162.53	1558.27
1165.79	1102.82
1169.06	967.861
1172.32	653.646
1175.58	478.943
1178.84	544.67
1182.1	328.883
1185.36	187.494
1188.61	279.56
1191.86	19
1195.12	43.2188
1198.37	16.1094
1201.62	43.709
1204.87	66.0039
1208.12	69.9883
1211.36	57.7207
1214.61	61.791
1217.85	89.4629
1221.09	326.467
1224.33	110.402
1227.57	74.9941
1230.81	111.697
1234.05	303.998
1237.28	287.166
1240.52	140.047
1243.75	408.348
1246.98	340.969
1250.21	538.904
1253.44	418.188
1256.67	864.799
1259.89	853.736
1263.12	962.984
1266.34	971.529
1269.57	1110.99
1272.79	1206.12
1276.01	1423.54
1279.23	1626.22
1282.44	1809.76
1285.66	1918.43
1288.87	2021.64
1292.09	2272.31
1295.3	2426.19
1298.51	2769.62
1301.72	2636.85
1304.93	2674.64
1308.13	2853.01
1311.34	2981.86
1314.55	2982.87
1317.75	2887.1
1320.95	2487.15
1324.15	2865.57
1327.35	2420.1
1330.55	2171.82
1333.74	2180.32
1336.94	1867.28
1340.13	1693.63
1343.33	1614.5
1346.52	1420.46
1349.71	1245.93
1352.9	1188.23
1356.08	1065.14
1359.27	896.979
1362.45	860.104
1365.64	855.42
1368.82	556.766
1372	473.943
1375.18	429.115
1378.36	487.445
1381.54	326.144
1384.72	183.838
1387.89	250.732
1391.07	194.41
1394.24	260.256
1397.41	236.029
1400.58	166.648
1403.75	172.916
1406.91	72.4062
1410.08	53.1113
1413.24	5.61719
1416.41	85.5723
1419.57	107.924
1422.73	77.8223
1425.89	50.8887
1429.05	54.0977
1432.21	62.8145
1435.37	1.93945
1438.52	79.2109
1441.67	60.8301
1444.83	178.551
1447.98	248.565
1451.13	196.303
1454.28	156.352
1457.42	278.818
1460.57	32.6582
1463.71	295.662
1466.86	53.5039
1470	134.078
1473.14	133.744
1476.28	107.424
1479.42	43.1895
1482.56	416.123
1485.7	275.117
1488.83	92.3281
1491.96	34.498
1495.1	136.559
1498.23	332.557
1501.36	359.766
1504.49	3.39258
1507.62	253.008
1510.74	161.516
1513.87	256.334
1516.99	200.147
1520.12	232.81
1523.24	279.16
1526.36	270.363
1529.48	181.81
1532.6	277.769
1535.71	144.59
1538.83	165.135
1541.94	132.25
1545.06	249.393
1548.17	165.326
1551.28	285.109
1554.39	449.324
1557.5	237.773
1560.61	769.592
1563.71	0
