Measurement: Raman, 514 nm, ccw, Raman Data Processed
Mineral: Gmelinite-Na
Rruff sample: R060168
Ideal chemistry: Na_4_(Si_8_Al_4_)O_24_11H_2_O
Locality: Five Islands, Nova Scotia, Canada
Source: Guy Ouellet
Description: Salmon-red interpenetrating prismatic rhombohedral crystals
Measured chemistry: (Na_3.90_Ca_0.10_)_Σ=4_(Si_7.90_Al_4.10_)_Σ=12_O_24_·8.98H_2_O
Pin_id: M00975
Orientation: Laser parallel to c* (0 0 1). Fiducial mark perpendicular to laser is parallel to a [1 0 0]
Raman shift (cm-1)	intensity
248.356	0
252.023	41.8594
255.688	187.038
259.351	301.316
263.013	283.884
266.673	175.91
270.331	102.281
273.988	33.4424
277.643	99.6572
281.296	169.543
284.947	340.637
288.597	672.367
292.245	1101.08
295.891	1691.25
299.536	2372.84
303.179	3254.77
306.82	4226.83
310.46	5878.84
314.098	7605.65
317.734	8411.11
321.369	8789.13
325.001	8306.11
328.633	7163.69
332.262	5446.74
335.89	3747.09
339.516	2597.6
343.14	1649.95
346.763	992.359
350.384	725.153
354.004	490.729
357.622	409.007
361.238	186.977
364.852	369.633
368.465	535.962
372.076	888.953
375.685	1366.59
379.293	1783.85
382.899	2332.7
386.504	3029.14
390.106	3761.14
393.708	4760.14
397.307	6177.88
400.905	8015.62
404.501	10478.4
408.096	12648.8
411.689	13979.8
415.28	13369.4
418.869	11462.1
422.457	8596.4
426.044	6537.9
429.628	5166.49
433.211	4264.43
436.793	3892.06
440.373	3953.45
443.951	4023.36
447.527	4522.51
451.102	5221.39
454.675	5990.8
458.247	7376.6
461.817	8757.81
465.385	10658.4
468.952	13154.4
472.517	16368.8
476.081	20192.5
479.643	25093.6
483.203	31249
486.762	36876.8
490.319	42669.9
493.874	45290.3
497.428	44363.9
500.98	40775.8
504.531	33734
508.08	26251.4
511.627	19179
515.173	13335.8
518.717	9363.76
522.26	6510.94
525.801	4618.29
529.34	3259.79
532.878	2352.71
536.414	1750.56
539.949	1242.91
543.482	1050.93
547.013	772.266
550.543	511.484
554.071	385.291
557.598	263.925
561.123	173.088
564.647	117.508
568.169	37.4355
571.689	102.086
575.208	122.876
578.725	212.255
582.241	138.337
585.755	52.0908
589.267	29.0166
592.778	0.495117
596.287	122.518
599.795	55.4824
603.301	239.502
606.806	220.622
610.309	296.85
613.811	189.09
617.311	220.403
620.809	155.728
624.306	50.0098
627.801	114.257
631.295	154.477
634.787	257.601
638.278	218.66
641.767	295.596
645.254	517.37
648.74	668.974
652.225	730.372
655.708	596.558
659.189	509.489
662.669	458.238
666.147	375.573
669.624	252.936
673.099	129.058
676.572	24.4731
680.045	20.062
683.515	43.9141
686.984	49.3257
690.452	21.8535
693.918	21.1968
697.382	0.872559
700.845	42.0454
704.307	92.9399
707.766	139.751
711.225	106.768
714.682	90.8066
718.137	203.277
721.591	290.76
725.043	406.657
728.494	184.911
731.943	208.326
735.391	314.576
738.837	396.5
742.282	443
745.725	466.11
749.167	593.472
752.607	704.643
756.046	1003.05
759.483	1099.92
762.919	1370.66
766.353	1519.34
769.786	1530.32
773.217	1495.58
776.647	1375.73
780.075	1300.4
783.502	1147.92
786.927	1055.7
790.351	1049.17
793.773	748.115
797.194	697.268
800.613	673.8
804.031	562.268
807.447	440.773
810.862	336.543
814.275	352.321
817.687	201.368
821.098	204.566
824.507	232.348
827.914	75.6343
831.32	28.0102
834.725	45.0483
838.128	0.454102
841.529	113.295
844.929	59.5459
848.328	112.368
851.725	89.1338
855.121	43.3569
858.515	97.1352
861.908	85.7764
865.299	85.7109
868.689	81.0732
872.077	52.9907
875.464	70.4658
878.85	116.66
882.234	24.6396
885.617	43.2856
888.998	56.5825
892.377	53.5889
895.756	23.209
899.133	42.3418
902.508	0.12207
905.882	7.41797
909.254	0.762695
912.625	71.4141
915.995	34.6406
919.363	180.476
922.73	128.95
926.095	72.0977
929.459	182.922
932.821	113.442
936.182	57.6675
939.542	82.5981
942.9	141.25
946.257	184.372
949.612	230.924
952.966	143.188
956.318	179.054
959.669	254.962
963.019	307.851
966.367	454.468
969.714	586.827
973.059	587.991
976.403	973.023
979.745	987.287
983.086	1130.22
986.426	1333.41
989.764	1462.37
993.101	1692.47
996.437	1563.71
999.771	1836.79
1003.1	1877.16
1006.43	1879.72
1009.76	1883.71
1013.09	1879.71
1016.42	1895.21
1019.75	1811.05
1023.07	1750.93
1026.39	1767.14
1029.71	1557.14
1033.03	1543.71
1036.35	1488.91
1039.67	1480.86
1042.99	1416.13
1046.3	1255.08
1049.61	1172.4
1052.92	1300.1
1056.23	1305.49
1059.54	1479.64
1062.85	1559.37
1066.16	1715.18
1069.46	2082.04
1072.77	2314.9
1076.07	2653.26
1079.37	2912.32
1082.67	3259.33
1085.97	3515.83
1089.26	3871.68
1092.56	4167.05
1095.85	4570.28
1099.14	4695.49
1102.43	5127.24
1105.72	5244.78
1109.01	5316.24
1112.3	5526.77
1115.59	5483.55
1118.87	5730.13
1122.15	5763.34
1125.43	5338.77
1128.71	4845.39
1131.99	4461.34
1135.27	4172.62
1138.55	3944.98
1141.82	3579.13
1145.09	3246.36
1148.37	2991.02
1151.64	2500.01
1154.91	2325.38
1158.17	2109.17
1161.44	1791.35
1164.71	1463.82
1167.97	1394.67
1171.23	1142.02
1174.49	983.203
1177.75	816.949
1181.01	608.971
1184.27	510.231
1187.53	413.685
1190.78	390.329
1194.03	121.158
1197.29	100.17
1200.54	213.358
1203.79	249.202
1207.03	1.27441
1210.28	42.042
1213.53	45.6514
1216.77	27.3467
1220.01	58.8516
1223.25	7.02441
1226.49	19.9766
1229.73	45.1504
1232.97	70.168
1236.2	76.8232
1239.44	8.9082
1242.67	26.7598
1245.9	15.4766
1249.13	33.9443
1252.37	118.808
1255.59	116.37
1258.82	44.2578
1262.05	194.062
1265.27	187.94
1268.49	149.137
1271.71	286.546
1274.93	367.444
1278.15	399.89
1281.37	335.356
1284.59	423.916
1287.8	450.944
1291.02	559.986
1294.23	686.086
1297.44	696.164
1300.65	644.819
1303.86	717.016
1307.07	925.769
1310.27	1297.51
1313.48	1016.65
1316.68	928.364
1319.88	901.261
1323.08	910.037
1326.28	859.839
1329.48	685.663
1332.68	572.51
1335.87	573.359
1339.07	489.471
1342.26	475.886
1345.45	385.509
1348.64	354.545
1351.83	255.519
1355.02	215.144
1358.21	178.352
1361.39	209.178
1364.58	31.3193
1367.76	189.905
1370.94	183.31
1374.12	160.799
1377.3	82.9941
1380.48	51.2871
1383.66	99.7861
1386.83	61.5938
1390.01	8.33594
1393.18	86.7676
1396.35	54.873
1399.52	9.75488
1402.69	83.7598
1405.86	27.1143
1409.03	66.2881
1412.19	79.4658
1415.36	47.374
1418.52	35.9424
1421.68	44.6953
1424.84	45.582
1428	7.2666
1431.16	26.3672
1434.31	45.543
1437.47	40.0615
1440.62	126.389
1443.78	76.5244
1446.93	166.569
1450.08	229.515
1453.23	229.426
1456.38	162.546
1459.52	125.786
1462.67	297.159
1465.81	63.7588
1468.95	166.364
1472.1	77.9033
1475.24	115.218
1478.38	211.309
1481.51	247.186
1484.65	186.789
1487.79	140.221
1490.92	72.2285
1494.05	159.931
1497.18	52.2725
1500.32	107.1
1503.45	55.4443
1506.57	26.5088
1509.7	54.2422
1512.83	85.3428
1515.95	183.173
1519.08	57.0098
1522.2	38.5859
1525.32	197.68
1528.44	94.9707
1531.56	7.00098
1534.67	29.1855
1537.79	109.491
1540.9	85.375
1544.02	13.3477
1547.13	105.058
1550.24	43.082
1553.35	361.965
1556.46	253.43
1559.57	62.8027
1562.67	0.671875
