Measurement: Raman, 514 nm, ccw, Raman Data Processed
Mineral: Gmelinite-Na
Rruff sample: R060168
Ideal chemistry: Na_4_(Si_8_Al_4_)O_24_11H_2_O
Locality: Five Islands, Nova Scotia, Canada
Source: Guy Ouellet
Description: Salmon-red interpenetrating prismatic rhombohedral crystals
Measured chemistry: (Na_3.90_Ca_0.10_)_Σ=4_(Si_7.90_Al_4.10_)_Σ=12_O_24_·8.98H_2_O
Pin_id: M01916
Orientation: Laser parallel to a* (1 0 0). Fiducial mark perpendicular to laser is parallel to c [0 0 1]
Raman shift (cm-1)	intensity
249.578	0
253.244	1.55469
256.909	140.805
260.572	726.711
264.233	88.8125
267.892	148.619
271.55	70.7031
275.206	173.803
278.86	98.8418
282.513	108.748
286.164	446.195
289.813	658.481
293.461	990.852
297.106	1326.8
300.751	1643.44
304.393	1960.59
308.034	2582.99
311.673	3327.4
315.31	4122.64
318.946	4776.55
322.58	5069.96
326.212	4052.11
329.843	3220.68
333.472	2400.69
337.099	1711.92
340.724	1020.14
344.348	898.422
347.97	654.857
351.591	517.135
355.21	620.967
358.827	500.348
362.443	546.273
366.056	586.838
369.669	723.746
373.279	947.398
376.888	1314.6
380.495	1673.29
384.101	2210.43
387.705	2729.02
391.307	3348.03
394.908	4225.91
398.507	5915.4
402.104	8054.29
405.7	10548.6
409.294	11996.8
412.886	11922.5
416.477	10406.5
420.066	7841.98
423.653	5961.01
427.239	4226.3
430.823	3687.99
434.405	3282.1
437.986	3226.5
441.566	3518.56
445.143	4104.25
448.719	4354.93
452.293	5525.94
455.866	6682.38
459.437	8136.2
463.007	10068.4
466.575	12159.9
470.141	13604.7
473.705	16090.9
477.268	19270.4
480.83	23447.1
484.389	28684.3
487.948	33748.8
491.504	37670.6
495.059	39069.3
498.612	37216.2
502.164	32400.3
505.714	25922.5
509.262	19623.9
512.809	13892.4
516.355	9815.03
519.898	6872.79
523.44	5027.65
526.981	3585.6
530.52	2895.64
534.057	2086.75
537.593	1634.93
541.127	1248.38
544.659	920.189
548.19	843.129
551.719	495.668
555.247	564.984
558.773	629.918
562.298	91.2285
565.821	155.643
569.342	62.9785
572.862	50.6055
576.38	79.7676
579.897	39.4688
583.412	226.184
586.926	45.7422
590.438	94.1211
593.948	110.674
597.457	56.7344
600.964	217.348
604.47	383.791
607.974	383.602
611.476	272.953
614.977	239.768
618.477	290.045
621.975	96.2461
625.471	173.404
628.966	240.539
632.459	543.664
635.951	439.639
639.441	594.432
642.929	624.369
646.416	900.502
649.902	844.715
653.386	1011.7
656.868	961.432
660.349	813.106
663.828	784.416
667.306	689.426
670.782	402.125
674.257	455.51
677.73	307.557
681.202	168.016
684.672	233.019
688.14	118.391
691.607	115.152
695.073	110.969
698.537	184.961
701.999	38.4121
705.46	184.123
708.919	141.055
712.377	63.502
715.834	77.293
719.288	64.5488
722.742	157.982
726.194	95.9316
729.644	183.375
733.093	189.596
736.54	94.0019
739.986	310.336
743.43	280.965
746.873	239.057
750.314	138.529
753.754	429.059
757.192	574.998
760.628	784.504
764.064	839.988
767.497	907.43
770.93	938.734
774.36	899.785
777.79	812.457
781.217	959.941
784.644	929.373
788.068	1065.85
791.492	1092.49
794.913	1325.02
798.334	1373.19
801.752	1313.67
805.17	1069.73
808.586	866.957
812	607.305
815.413	429.938
818.824	336.824
822.234	341.885
825.643	291.481
829.05	196.627
832.455	61.4297
835.859	152.773
839.262	48.75
842.663	200.188
846.062	133.441
849.46	24.7266
852.857	33.2363
856.252	26.6504
859.646	164.273
863.038	258.871
866.429	134.871
869.819	26.4629
873.207	87.7676
876.593	53.0879
879.978	37.6582
883.362	61.9375
886.744	211.775
890.124	101.674
893.504	11.7793
896.881	3.5332
900.258	35.4492
903.633	82.5176
907.006	74.5449
910.378	45.959
913.749	14.2461
917.118	7.07422
920.485	99.5352
923.852	9.61133
927.216	50.8477
930.58	166.969
933.942	137.594
937.302	119.137
940.661	63.5684
944.019	193.572
947.375	97.1992
950.73	168.588
954.083	323.879
957.435	319.32
960.786	409.482
964.135	370.766
967.483	550.75
970.829	478.018
974.174	626.135
977.517	989.236
980.859	915.602
984.2	1024.18
987.539	1286.33
990.877	1364.2
994.213	1456
997.548	1538.23
1000.88	1897.03
1004.21	1946.8
1007.54	1911.21
1010.87	1941.21
1014.2	1851.05
1017.53	1907.07
1020.85	1973.31
1024.18	2005.05
1027.5	1994.34
1030.82	1928.26
1034.14	1854.21
1037.46	1881.2
1040.78	1733.39
1044.09	1463.23
1047.4	1397.48
1050.72	1356.44
1054.03	1414.55
1057.34	1453.26
1060.65	1658.62
1063.95	1510.53
1067.26	1691.2
1070.56	2011.06
1073.87	2338.62
1077.17	2638.14
1080.47	2927.83
1083.77	3243.32
1087.07	3576.05
1090.36	4026.43
1093.65	4330.41
1096.95	4446.26
1100.24	4829.87
1103.53	4770.05
1106.82	4993.27
1110.11	5188.27
1113.39	5209.55
1116.68	5352.8
1119.96	5552.94
1123.25	5367.08
1126.53	5250.99
1129.81	4785.32
1133.09	4590.93
1136.36	4365.79
1139.64	4170.91
1142.91	3978.28
1146.18	3779.97
1149.46	3665.99
1152.73	3350.39
1155.99	3200.23
1159.26	2555.52
1162.53	2279.23
1165.79	2009.37
1169.06	1921.14
1172.32	1545.02
1175.58	1215.37
1178.84	957.045
1182.1	751.996
1185.36	455.19
1188.61	346.637
1191.86	457.799
1195.12	237.4
1198.37	105.676
1201.62	38.4082
1204.87	192.881
1208.12	184.762
1211.36	198.211
1214.61	140.543
1217.85	21.1875
1221.09	88.25
1224.33	5.19336
1227.57	36.4922
1230.81	76.6953
1234.05	28.7793
1237.28	28.3086
1240.52	176.469
1243.75	36.791
1246.98	223.416
1250.21	557.838
1253.44	365.424
1256.67	201.754
1259.89	453.268
1263.12	602.191
1266.34	571.357
1269.57	669.514
1272.79	827.451
1276.01	1041.71
1279.23	819.803
1282.44	844.514
1285.66	1050.18
1288.87	1216.23
1292.09	1379.34
1295.3	1742.48
1298.51	1624.6
1301.72	1811.45
1304.93	2014.75
1308.13	2026.31
1311.34	2177.94
1314.55	2189.62
1317.75	2067.4
1320.95	1854.28
1324.15	1768.25
1327.35	1887.32
1330.55	1822.49
1333.74	1667.77
1336.94	1818.24
1340.13	1455.68
1343.33	986.711
1346.52	905.641
1349.71	924.967
1352.9	1074.85
1356.08	697.773
1359.27	528.484
1362.45	581.367
1365.64	425.801
1368.82	540.438
1372	339.562
1375.18	166.031
1378.36	203.188
1381.54	290.363
1384.72	136.025
1387.89	259.543
1391.07	280.43
1394.24	75.3828
1397.41	33.1797
1400.58	0.779297
1403.75	130.711
1406.91	220.92
1410.08	100.359
1413.24	88.3672
1416.41	29.8457
1419.57	51.4688
1422.73	4.6582
1425.89	100.377
1429.05	170.371
1432.21	48.291
1435.37	143.916
1438.52	87.6856
1441.67	233.92
1444.83	327.789
1447.98	383.697
1451.13	562.666
1454.28	329.223
1457.42	289.549
1460.57	393.592
1463.71	198.387
1466.86	228.715
1470	381.402
1473.14	268.785
1476.28	316.984
1479.42	261.633
1482.56	116.551
1485.7	73.5254
1488.83	156.457
1491.96	13.6914
1495.1	0.570313
1498.23	77.2344
1501.36	183.012
1504.49	108.252
1507.62	67.5215
1510.74	93.7598
1513.87	99.7969
1516.99	70.4883
1520.12	93.7461
1523.24	218.494
1526.36	290.615
1529.48	452.188
1532.6	78.2695
1535.71	357.166
1538.83	14.5176
1541.94	249.678
1545.06	171.084
1548.17	68.7754
1551.28	94.0195
1554.39	168.143
1557.5	181.076
1560.61	305.693
1563.71	0
