Measurement: Raman, 514 nm, ccw, Raman Data Processed
Mineral: Gmelinite-Na
Rruff sample: R050371
Ideal chemistry: Na_4_(Si_8_Al_4_)O_24_11H_2_O
Locality: Cairns Bay, Flinders Range, Australia
Source: Eugene Schlepp
Description: Colorless to pink crystals lining a basalt vug
Measured chemistry: Na_3.81_(Si_8.13_Al_3.88_)O_24_Â·4.27H_2_O
Pin_id: L01149
Orientation: Laser parallel to a* (1 0 0). Fiducial mark perpendicular to laser is parallel to c [0 0 1]
Raman shift (cm-1)	intensity
233.245	0
236.902	89.9277
240.557	18.165
244.211	106.773
247.863	102.983
251.514	75.4053
255.164	335.486
258.812	316.24
262.458	421.599
266.103	596.805
269.746	599.702
273.388	528.542
277.028	468.566
280.667	335.163
284.304	252.293
287.94	254.615
291.574	435.782
295.207	496.157
298.838	530.067
302.468	548.176
306.096	581.967
309.723	937.676
313.348	1727.29
316.972	1393.83
320.594	1326.22
324.215	1327.4
327.834	885.297
331.451	323.866
335.068	118.06
338.682	50.2915
342.295	16.2417
345.907	11.7695
349.517	142.859
353.126	108.497
356.733	14.6753
360.339	1.41211
363.943	228.865
367.546	367.407
371.147	465.134
374.746	791.487
378.345	1014.88
381.941	1367.06
385.537	1770.84
389.13	2484.92
392.722	3557.19
396.313	4854.68
399.902	6857.3
403.49	9399.15
407.076	11452.2
410.661	11688.3
414.244	9958.37
417.826	7378.65
421.406	5362.08
424.985	3817.71
428.562	3259.65
432.138	3008.56
435.712	3060.41
439.285	3447.15
442.856	3998.93
446.426	4938.1
449.994	6257.89
453.561	8204.65
457.126	10603
460.69	13407.7
464.253	15860.8
467.813	17292.3
471.373	19123
474.931	21394.2
478.487	25288.6
482.042	30280.6
485.596	36128.7
489.148	41980.4
492.698	45548.5
496.247	46441.5
499.795	43238.6
503.341	37155.4
506.885	29425.4
510.428	21612.7
513.97	15604.3
517.51	11079.3
521.049	8222.55
524.586	6007.08
528.121	4623.89
531.656	3531.95
535.188	2826.27
538.719	2216.82
542.249	1991.32
545.778	1496.33
549.304	1183.22
552.83	1146.98
556.354	896.35
559.876	769.469
563.397	607.109
566.916	524.017
570.434	478.087
573.951	426.521
577.466	469.212
580.979	280.323
584.491	238.81
588.002	251.881
591.511	280.651
595.019	351.187
598.525	396.776
602.03	444.584
605.533	361.313
609.035	267.252
612.535	366.353
616.034	391.62
619.531	259.07
623.027	190.759
626.522	378.814
630.014	306.319
633.506	219.712
636.996	386.698
640.485	692.443
643.972	757.339
647.457	740.255
650.942	896.181
654.424	659.114
657.906	692.02
661.385	530.894
664.864	443.72
668.341	287.481
671.816	197.164
675.29	167.762
678.763	3.73877
682.234	39.416
685.703	69.4976
689.171	84.0317
692.638	112.022
696.103	75.2998
699.567	27.9277
703.029	17.5781
706.49	20.582
709.949	43.9136
713.407	58.5327
716.864	29.1826
720.319	148.685
723.772	131.057
727.225	109.409
730.675	91.6143
734.124	156.382
737.572	170.046
741.019	207.331
744.463	262.966
747.907	277.832
751.349	368.255
754.789	462.802
758.228	578.969
761.666	581.131
765.102	486.405
768.537	455.92
771.97	474.425
775.402	597.582
778.832	751.339
782.261	1061.62
785.689	1641.11
789.115	2311.78
792.539	2742.79
795.963	3070.5
799.384	2882.78
802.804	2645.16
806.223	1896.51
809.641	1399.51
813.057	937.145
816.471	703.788
819.884	594.218
823.296	503.119
826.706	336.853
830.115	327.652
833.522	307.678
836.928	222.393
840.332	154.018
843.735	46.2783
847.137	138.404
850.537	1.27539
853.936	85.8716
857.333	43.5786
860.729	11.9263
864.123	38.4175
867.516	15.1313
870.907	71.2505
874.297	72.5688
877.686	37.123
881.073	30.3096
884.459	72.9282
887.843	28.9326
891.226	50.6065
894.608	54.7788
897.988	23.1773
901.366	28.3672
904.743	45.3574
908.119	14.876
911.493	39.0591
914.866	9.52441
918.238	64.687
921.608	52.4873
924.976	119.902
928.344	90.959
931.709	57.6895
935.074	126.124
938.436	167.319
941.798	188.297
945.158	115.055
948.517	245.546
951.874	64.7798
955.23	157.838
958.584	251.812
961.937	263.812
965.288	330.842
968.638	467.592
971.987	662.877
975.334	853.748
978.68	930.68
982.025	1031.71
985.368	1088.21
988.709	1174.2
992.049	1357.57
995.388	1284.24
998.725	1365.9
1002.06	1435.21
1005.4	1597.62
1008.73	1504.01
1012.06	1746.99
1015.39	1780.52
1018.72	1848.02
1022.05	1852.81
1025.37	1989.46
1028.7	1915.44
1032.02	1729.68
1035.34	1727.65
1038.66	1817.88
1041.98	1762.22
1045.3	1774.08
1048.62	1741.44
1051.93	1662.55
1055.24	1704.57
1058.56	1681.35
1061.87	1787.99
1065.17	1982.51
1068.48	2296.86
1071.79	2596.65
1075.09	2938.36
1078.4	3171.3
1081.7	3342.43
1085	3657.32
1088.3	3943.34
1091.6	4233.71
1094.89	4425.35
1098.19	4550.76
1101.48	4706.68
1104.77	4599.19
1108.06	4482.2
1111.35	4354.97
1114.64	4220.43
1117.93	4265.4
1121.21	4032.52
1124.5	3797.72
1127.78	3451.18
1131.06	3329.89
1134.34	3061.81
1137.62	2902.93
1140.89	2695.25
1144.17	2383.75
1147.44	2198.44
1150.72	1905.31
1153.99	1839.33
1157.26	1567.59
1160.53	1330.11
1163.79	1180.89
1167.06	1047.99
1170.32	790.294
1173.59	656.823
1176.85	530.504
1180.11	469.372
1183.37	279.436
1186.62	183.669
1189.88	270.045
1193.13	195.531
1196.39	187.122
1199.64	59.1558
1202.89	17.876
1206.14	50.665
1209.38	8.7124
1212.63	110.894
1215.88	71.5801
1219.12	30.3398
1222.36	78.8369
1225.6	71.793
1228.84	22.5806
1232.08	56.9287
1235.31	2.28516
1238.55	34.624
1241.78	47.7368
1245.02	83.0396
1248.25	53.1748
1251.47	80.4473
1254.7	127.454
1257.93	41.1582
1261.15	75.3608
1264.38	154.941
1267.6	163.213
1270.82	220.65
1274.04	217.887
1277.26	253.154
1280.48	301.565
1283.69	335.124
1286.91	401.961
1290.12	398.041
1293.33	378.025
1296.54	504.841
1299.75	564.258
1302.96	585.881
1306.16	548.605
1309.37	694.146
1312.57	613.908
1315.78	635.974
1318.97	580.087
1322.17	544.339
1325.37	645.49
1328.57	459.232
1331.76	592.456
1334.96	532.182
1338.15	486.059
1341.34	565.558
1344.53	509.972
1347.72	306.844
1350.9	350.089
1354.09	366.433
1357.27	355.486
1360.46	193.258
1363.64	103.973
1366.82	291.029
1370	205.897
1373.17	202.188
1376.35	65.4526
1379.52	42.7334
1382.7	6.91162
1385.87	125.103
1389.04	153.02
1392.21	80.8555
1395.38	128.581
1398.54	87.2441
1401.71	200.833
1404.87	42.5562
1408.03	217.757
1411.19	6.57373
1414.35	55.5654
1417.51	67.7119
1420.67	87.7305
1423.82	128.212
1426.98	79.4575
1430.13	130.35
1433.28	88.9609
1436.43	65.5698
1439.58	10.1401
1442.73	118.057
1445.87	55.1929
1449.02	81.4878
1452.16	122.883
1455.3	115.211
1458.44	10.5562
1461.58	53.1753
1464.72	151.818
1467.86	154.366
1470.99	162.698
1474.12	170.968
1477.26	121.414
1480.39	47.2676
1483.52	66.2285
1486.64	19.793
1489.77	55.0952
1492.9	76.8247
1496.02	133.429
1499.14	141.102
1502.27	182.148
1505.39	55.8965
1508.51	22.5068
1511.62	104.152
1514.74	146.962
1517.85	131.809
1520.97	85.7642
1524.08	55.5088
1527.19	12.1914
1530.3	181.982
1533.41	162.397
1536.51	103.68
1539.62	80.3413
1542.72	110.347
1545.83	92.5903
1548.93	147.81
1552.03	173.798
1555.13	185.317
1558.22	49.3286
1561.32	5.43115
