Measurement: Raman, 514 nm, ccw, Raman Data Processed
Mineral: Gmelinite-Na
Rruff sample: R050371
Ideal chemistry: Na_4_(Si_8_Al_4_)O_24_11H_2_O
Locality: Cairns Bay, Flinders Range, Australia
Source: Eugene Schlepp
Description: Colorless to pink crystals lining a basalt vug
Measured chemistry: Na_3.81_(Si_8.13_Al_3.88_)O_24_Â·4.27H_2_O
Pin_id: L01937
Orientation: Laser parallel to -c* (0 0 -1). Fiducial mark perpendicular to laser is parallel to a [1 0 0]
Raman shift (cm-1)	intensity
264.888	0
268.532	266.751
272.174	9.94434
275.815	4.60254
279.454	10.5527
283.092	19.3682
286.728	338.305
290.363	547.394
293.996	785.679
297.628	1096.73
301.258	1894.47
304.887	2491.93
308.514	3455.25
312.14	5083.13
315.764	6595.15
319.387	8252.92
323.008	8822.15
326.628	8194.61
330.246	6632.09
333.862	4750.4
337.478	3429.37
341.091	2189.95
344.703	1481.7
348.314	932.152
351.923	668.404
355.531	420.247
359.137	473.063
362.742	504.594
366.345	530.838
369.947	712.789
373.547	972.475
377.145	1341.96
380.743	1835.22
384.338	2390.1
387.932	3060.56
391.525	3961.58
395.116	5039.15
398.706	6877.21
402.294	9327.85
405.881	12325.1
409.466	14114
413.05	13545.4
416.632	11565.8
420.213	8588.48
423.792	6489.84
427.37	5128.45
430.946	4332.72
434.521	3966.39
438.094	3930.72
441.666	4208.03
445.236	4405.02
448.805	5147.91
452.372	5722.39
455.938	6965.69
459.502	8057.26
463.065	9530.36
466.627	11735.8
470.187	14360.7
473.745	17796
477.302	22261.4
480.857	27218.4
484.411	33130.1
487.964	39038
491.515	43364.9
495.064	45663.1
498.612	44171.4
502.159	39493.9
505.704	31898.6
509.247	23772.4
512.789	16636.4
516.33	11567.6
519.869	7996.88
523.407	5686.29
526.943	4063.8
530.478	2780.57
534.011	1876.04
537.543	1373.95
541.073	964.435
544.602	839.182
548.129	448.618
551.655	366.615
555.179	157.803
558.702	93.9678
562.223	36.708
565.743	78.292
569.262	81.0469
572.779	87.9307
576.294	42.3086
579.808	59.1035
583.321	101.74
586.832	5.29102
590.341	32.2617
593.85	1.79297
597.356	104.106
600.862	41.9609
604.365	47.1201
607.868	181.024
611.368	101.702
614.868	47.6172
618.366	27.3115
621.862	14.9502
625.357	158.556
628.85	39.0488
632.342	58.3506
635.833	163.591
639.322	431.614
642.81	437.406
646.296	699.977
649.78	831.319
653.264	830.426
656.745	695.321
660.226	578.951
663.704	439.297
667.182	290.348
670.658	21.166
674.132	138.909
677.605	89.7422
681.077	25.168
684.547	27.4609
688.015	11.3242
691.483	24.9775
694.948	35.7275
698.413	49.3906
701.875	74.6367
705.337	240.423
708.797	407.918
712.255	233.062
715.712	386.526
719.167	296.556
722.621	388.225
726.074	411.748
729.525	469.185
732.975	494.169
736.423	386.466
739.87	645.761
743.315	553.874
746.759	844.364
750.202	878.433
753.643	1119.76
757.082	1479.44
760.52	1665.78
763.957	1742.53
767.392	1831.09
770.826	1683.3
774.258	1624.97
777.689	1461.07
781.118	1201.47
784.546	1042.21
787.973	928.882
791.398	958.302
794.822	908.469
798.244	709.628
801.665	600.398
805.084	471.451
808.502	450.144
811.918	481.515
815.333	338.161
818.747	203.899
822.159	232.16
825.569	135.897
828.979	144.951
832.386	188.878
835.793	99.0615
839.198	53.2334
842.601	147.291
846.003	26.7666
849.404	59.6318
852.803	33.3809
856.2	8.05762
859.597	3.29883
862.992	33.2715
866.385	103.679
869.777	7.37695
873.167	96.0176
876.557	64.4287
879.944	94.6055
883.33	86.2451
886.715	56.5967
890.099	36.083
893.481	26.9062
896.861	58.7178
900.24	41.8955
903.618	40.0156
906.994	24.3916
910.369	551.662
913.742	452.482
917.114	24.8428
920.485	11.0654
923.854	93.6934
927.221	41.8935
930.588	80.1397
933.952	21.9062
937.316	148.418
940.678	114.685
944.038	102.656
947.397	199.111
950.755	149.868
954.111	245.03
957.466	359.42
960.819	368.684
964.171	424.882
967.522	569.917
970.871	588.683
974.219	870.249
977.565	1065.39
980.91	1032.41
984.253	1338.42
987.595	1347.48
990.936	1335.08
994.275	1568.72
997.613	1621.41
1000.95	1787.24
1004.28	1869.84
1007.62	1901.65
1010.95	1970.56
1014.28	1934.7
1017.61	2048.44
1020.94	1982.4
1024.26	1872.81
1027.59	1877.13
1030.91	1791.72
1034.23	1600.23
1037.56	1481.71
1040.88	1482.66
1044.19	1376.1
1047.51	1309.61
1050.83	1319.14
1054.14	1334.65
1057.45	1555.55
1060.76	1703.49
1064.07	2094.83
1067.38	2477.68
1070.69	2810.78
1073.99	3181.8
1077.3	3445.94
1080.6	3857.54
1083.9	4342.86
1087.2	4711.48
1090.5	5084.56
1093.79	5395.62
1097.09	5574.98
1100.38	5808.92
1103.68	5939.68
1106.97	5980.57
1110.26	5780.72
1113.55	5801.15
1116.83	5718.6
1120.12	5476.6
1123.4	5478.55
1126.68	4936.85
1129.97	4565.31
1133.25	4254.97
1136.53	3975.86
1139.8	3715.08
1143.08	3323.61
1146.35	2936.22
1149.63	2613.24
1152.9	2377.53
1156.17	2133.07
1159.44	1809.86
1162.7	1542.78
1165.97	1309.49
1169.23	1115.24
1172.5	877.303
1175.76	649.555
1179.02	357.951
1182.28	300.507
1185.54	289.221
1188.79	328.095
1192.05	286.176
1195.3	106.419
1198.55	268.789
1201.81	120.284
1205.05	76.9082
1208.3	48.6562
1211.55	50.415
1214.79	6.50195
1218.04	123.557
1221.28	84.2764
1224.52	16.1855
1227.76	5.85449
1231	62.6553
1234.24	86.2812
1237.47	126.013
1240.7	15.0918
1243.94	43.0986
1247.17	35.0068
1250.4	50.8174
1253.63	5.8291
1256.86	38.4824
1260.08	11.5527
1263.31	31.4902
1266.53	65.0478
1269.75	138.25
1272.97	89.8467
1276.19	99.0869
1279.41	129.743
1282.62	311.938
1285.84	238.505
1289.05	315.682
1292.26	347.272
1295.47	355.723
1298.68	344.044
1301.89	424.284
1305.1	474.651
1308.3	504.927
1311.51	513.928
1314.71	522.902
1317.91	580.271
1321.11	549.434
1324.31	548.403
1327.5	513.991
1330.7	372.094
1333.89	578.027
1337.09	382.941
1340.28	203.819
1343.47	329.979
1346.65	158.269
1349.84	456.072
1353.03	440.926
1356.21	367.964
1359.4	320.038
1362.58	297.464
1365.76	265.829
1368.94	317.253
1372.12	142.97
1375.29	173.606
1378.47	31.999
1381.64	190.079
1384.81	71.8867
1387.98	81.2559
1391.15	153.804
1394.32	184.34
1397.49	2.09766
1400.65	111.478
1403.82	34.3252
1406.98	98.8232
1410.14	132.339
1413.3	211.672
1416.46	5.42676
1419.62	51.8262
1422.77	38.1025
1425.93	60.6494
1429.08	178.111
1432.23	59.373
1435.38	232.516
1438.53	130.779
1441.68	222.789
1444.82	236.668
1447.97	238.451
1451.11	188.115
1454.26	186.666
1457.4	179.141
1460.54	142.818
1463.67	265.094
1466.81	112.184
1469.95	221.203
1473.08	154.633
1476.21	279.941
1479.34	236.969
1482.47	249.615
1485.6	227.949
1488.73	11.9277
1491.86	43.1309
1494.98	91.3984
1498.1	60.8496
1501.23	136.227
1504.35	100.658
1507.47	22.2051
1510.58	241.492
1513.7	224.81
1516.82	98.7266
1519.93	104.654
1523.04	127.436
1526.15	474.047
1529.26	162.043
1532.37	89.2031
1535.48	116.039
1538.58	28.5918
1541.69	44.873
1544.79	152.711
1547.89	223.463
1550.99	247.301
1554.09	136.695
1557.19	150.861
1560.29	138.949
