Measurement: Raman, 514 nm, ccw, Raman Data Processed
Mineral: Gmelinite-Na
Rruff sample: R060168
Ideal chemistry: Na_4_(Si_8_Al_4_)O_24_11H_2_O
Locality: Five Islands, Nova Scotia, Canada
Source: Guy Ouellet
Description: Salmon-red interpenetrating prismatic rhombohedral crystals
Measured chemistry: (Na_3.90_Ca_0.10_)_Σ=4_(Si_7.90_Al_4.10_)_Σ=12_O_24_·8.98H_2_O
Pin_id: M00975
Orientation: Laser parallel to c* (0 0 1). Fiducial mark perpendicular to laser is parallel to a [1 0 0]
Raman shift (cm-1)	intensity
242.241	0
245.91	116.049
249.578	294.351
253.244	62.2773
256.909	323.958
260.572	487.983
264.233	190.507
267.892	66.5527
271.55	166.816
275.206	8.30859
278.86	128.487
282.513	321.998
286.164	625.578
289.813	1055.86
293.461	1648.16
297.106	2274.08
300.751	2999.22
304.393	4211.37
308.034	5354.36
311.673	7246.04
315.31	9000.28
318.946	10039.5
322.58	9988.52
326.212	8890.02
329.843	7229.99
333.472	5268.8
337.099	3698.86
340.724	2406.18
344.348	1574.35
347.97	938.685
351.591	590.799
355.21	420.45
358.827	323.782
362.443	264.736
366.056	523.303
369.669	717.469
373.279	1158.21
376.888	1439.52
380.495	2242.37
384.101	2735.74
387.705	3448.77
391.307	4318.29
394.908	5579.69
398.507	7835.43
402.104	10397.9
405.7	13627
409.294	15679.4
412.886	16006.3
416.477	14057.4
420.066	11163.7
423.653	8460.93
427.239	6344.04
430.823	5070.45
434.405	4421.57
437.986	4258.73
441.566	4330.93
445.143	4733.07
448.719	5175.95
452.293	5918.39
455.866	7037.6
459.437	8564.19
463.007	10284.1
466.575	12615.4
470.141	15619.5
473.705	19567.1
477.268	24379.4
480.83	30558
484.389	37165
487.948	44271.2
491.504	49101.7
495.059	50674.4
498.612	48304.3
502.164	42115.5
505.714	34156.9
509.262	25386.4
512.809	18284.2
516.355	12790.1
519.898	8860.16
523.44	6322.38
526.981	4417.73
530.52	3078.22
534.057	2254.38
537.593	1676.13
541.127	1326.94
544.659	930.151
548.19	759.861
551.719	604.152
555.247	418.636
558.773	303.945
562.298	119.193
565.821	102.884
569.342	116.95
572.862	167.082
576.38	25.4541
579.897	65.4912
583.412	58.7305
586.926	98.6992
590.438	5.68359
593.948	65.5732
597.457	111.44
600.964	317.343
604.47	253.292
607.974	404.307
611.476	306.469
614.977	255.727
618.477	83.0566
621.975	86.9873
625.471	104.803
628.966	136.328
632.459	137.703
635.951	221.097
639.441	333.379
642.929	517.526
646.416	706.495
649.902	732.27
653.386	706.843
656.868	701.204
660.349	682.33
663.828	448.206
667.306	359.825
670.782	150.173
674.257	106.389
677.73	91.2485
681.202	86.4429
684.672	63.2056
688.14	10.7695
691.607	96.8325
695.073	17.5088
698.537	43.8359
701.999	115.353
705.46	105.221
708.919	360.045
712.377	146.348
715.834	205.051
719.288	249.528
722.742	290.513
726.194	169.982
729.644	231.608
733.093	406.09
736.54	325.466
739.986	340.894
743.43	537.015
746.873	588.289
750.314	653.619
753.754	926.445
757.192	1180.5
760.628	1393.6
764.064	1617.67
767.497	1764.69
770.93	1668.33
774.36	1598.04
777.79	1518.68
781.217	1226.58
784.644	1085.39
788.068	1077.48
791.492	970.616
794.913	917.039
798.334	749.269
801.752	581.137
805.17	454.318
808.586	367.655
812	357.378
815.413	317.581
818.824	252.394
822.234	253.502
825.643	306.168
829.05	89.5112
832.455	140.95
835.859	266.537
839.262	38.0078
842.663	108.078
846.062	25.2393
849.46	100.778
852.857	104.393
856.252	19.7979
859.646	89.4624
863.038	21.0151
866.429	88.7456
869.819	67.2056
873.207	30.917
876.593	50.7373
879.978	48.2685
883.362	69.3603
886.744	17.0796
890.124	5.97998
893.504	73.0371
896.881	40.6055
900.258	78.0288
903.633	43.6392
907.006	73.2886
910.378	15.1021
913.749	33.9697
917.118	62.6895
920.485	65.3227
923.852	69.8687
927.216	141
930.58	155.74
933.942	145.118
937.302	87.145
940.661	116.83
944.019	69.1343
947.375	192.007
950.73	146.529
954.083	313.041
957.435	232.191
960.786	334.108
964.135	284.565
967.483	574.028
970.829	732.906
974.174	810.744
977.517	898.355
980.859	1113.99
984.2	1300.08
987.539	1478.4
990.877	1599.87
994.213	1725.86
997.548	1747.54
1000.88	1881.52
1004.21	2005
1007.54	2084.46
1010.87	1992.53
1014.2	2239.31
1017.53	2050.85
1020.85	1914.7
1024.18	1980.19
1027.5	1762.57
1030.82	1791.88
1034.14	1627.57
1037.46	1621.77
1040.78	1375.94
1044.09	1446.69
1047.4	1466.25
1050.72	1421.98
1054.03	1365.2
1057.34	1408.68
1060.65	1543.23
1063.95	1764.16
1067.26	1894.04
1070.56	2213.62
1073.87	2614.81
1077.17	2925.97
1080.47	3416.85
1083.77	3574.69
1087.07	4265.4
1090.36	4482.59
1093.65	4583.58
1096.95	5005
1100.24	5320.38
1103.53	5572.47
1106.82	5651.57
1110.11	5795.08
1113.39	5695.47
1116.68	5834.07
1119.96	5976.89
1123.25	5855.94
1126.53	5435.22
1129.81	5027.72
1133.09	4575.55
1136.36	4387.62
1139.64	4050.94
1142.91	3667.57
1146.18	3439.55
1149.46	2973.96
1152.73	2780.87
1155.99	2467.18
1159.26	2179.95
1162.53	1987.07
1165.79	1616.62
1169.06	1492.6
1172.32	1179.91
1175.58	927.545
1178.84	700.55
1182.1	502.789
1185.36	435.247
1188.61	335.917
1191.86	253.811
1195.12	177.719
1198.37	99.2764
1201.62	29.6709
1204.87	75.5303
1208.12	73.5459
1211.36	30.5059
1214.61	64.3144
1217.85	28.0479
1221.09	0.238281
1224.33	3.35156
1227.57	17.9238
1230.81	127.461
1234.05	81.0391
1237.28	35.6016
1240.52	59
1243.75	123.672
1246.98	31.46
1250.21	108.423
1253.44	173.541
1256.67	210.798
1259.89	250.185
1263.12	194.832
1266.34	410.478
1269.57	333.24
1272.79	433.838
1276.01	545.298
1279.23	660.448
1282.44	691.046
1285.66	651.818
1288.87	828.046
1292.09	1002.65
1295.3	1004.99
1298.51	1087.99
1301.72	1187.44
1304.93	1298.03
1308.13	1416.97
1311.34	1483.95
1314.55	1434.63
1317.75	1464.15
1320.95	1473.03
1324.15	1332.62
1327.35	1150.27
1330.55	1064.4
1333.74	1120.14
1336.94	919.177
1340.13	851.003
1343.33	750.857
1346.52	681.494
1349.71	679.671
1352.9	566.282
1356.08	366.905
1359.27	344.16
1362.45	259.61
1365.64	242.059
1368.82	167.155
1372	136.832
1375.18	166.898
1378.36	179.247
1381.54	101.276
1384.72	154.299
1387.89	23.3311
1391.07	52.6328
1394.24	112.501
1397.41	44.2236
1400.58	16.6719
1403.75	9.0332
1406.91	131.741
1410.08	125.043
1413.24	6.23633
1416.41	64.3769
1419.57	65.0322
1422.73	116.439
1425.89	139.504
1429.05	38.0391
1432.21	99.1611
1435.37	26.5977
1438.52	51.4365
1441.67	111.255
1444.83	84.7705
1447.98	199.178
1451.13	178.47
1454.28	165.765
1457.42	36.1543
1460.57	143.669
1463.71	199.461
1466.86	171.415
1470	188.382
1473.14	314.225
1476.28	67.0156
1479.42	95.5859
1482.56	111.181
1485.7	176.815
1488.83	145.123
1491.96	118.603
1495.1	55.8721
1498.23	67.7432
1501.36	16.5312
1504.49	59.3965
1507.62	147.184
1510.74	132.372
1513.87	95.4951
1516.99	161.344
1520.12	110.772
1523.24	181.344
1526.36	101.459
1529.48	165.759
1532.6	137.747
1535.71	107.725
1538.83	110.727
1541.94	148.727
1545.06	81.3731
1548.17	26.2256
1551.28	318.42
1554.39	345.985
1557.5	170.98
1560.61	28.8428
1563.71	0
