Measurement: Raman, 514 nm, ccw, Raman Data Processed
Mineral: Goethite
Rruff sample: R050142
Ideal chemistry: FeO(OH)
Locality: Park County, Colorado, USA
Source: Dave Bunk Minerals
Description: Radiating spray of black to brown platy crystals
Measured chemistry: FeO(OH)
Pin_id: M00090
Orientation: Laser parallel to b* (0 1 0). Fiducial mark perpendicular to laser is parallel to -c [0 0 -1]
Raman shift (cm-1)	intensity
164.853	0
168.998	152.75
173.142	107.896
177.284	25.668
181.424	223.777
185.562	238.857
189.698	295.562
193.831	277.852
197.963	375.699
202.093	649.981
206.221	815.444
210.347	854.977
214.472	700.167
218.594	649.5
222.714	508.14
226.832	715.469
230.948	407.985
235.063	555.992
239.175	540.953
243.286	756.165
247.394	1153.36
251.501	1153.41
255.605	1052.02
259.708	1252.28
263.808	838.508
267.907	658.428
272.004	497.516
276.099	398.964
280.192	409.254
284.283	324.646
288.372	167.104
292.459	217.021
296.544	454.244
300.627	828.686
304.709	728.419
308.788	318.711
312.865	46.679
316.941	80.007
321.015	82.266
325.086	223.69
329.156	70.875
333.224	101.71
337.29	12.223
341.354	1.963
345.416	141.503
349.476	239.676
353.534	385.215
357.591	473.347
361.645	286.839
365.698	426.691
369.748	435.15
373.797	505.273
377.844	685.515
381.889	530.074
385.932	704.154
389.973	1000.87
394.012	1398.21
398.049	2295.1
402.084	2878.37
406.118	2827.74
410.15	2355.15
414.179	3047.68
418.207	4976.19
422.233	5274.23
426.257	3117.5
430.279	1902.07
434.299	1301.99
438.318	1075.84
442.334	940.429
446.349	863.72
450.361	804.443
454.372	670.659
458.381	736.686
462.388	752.366
466.394	705.777
470.397	747.428
474.398	756.348
478.398	769.077
482.396	826.937
486.391	772.443
490.385	648.087
494.377	539.702
498.368	531.319
502.356	557.3
506.342	502.727
510.327	484.625
514.31	555.419
518.291	610.678
522.27	666.525
526.247	807.227
530.222	962.476
534.196	1125.86
538.167	1440.56
542.137	1940.14
546.105	2677.53
550.071	3242.95
554.035	3261.95
557.998	2802.82
561.958	2044.02
565.917	1530.6
569.874	1243.56
573.829	1013.93
577.782	764.854
581.733	553.189
585.683	397.408
589.63	404.94
593.576	243.428
597.52	172.184
601.462	262.311
605.402	114.322
609.341	235.974
613.277	208.886
617.212	109.293
621.145	97.709
625.076	198.647
629.006	243.436
632.933	280.443
636.859	273.042
640.783	261.152
644.705	393.034
648.625	540.399
652.543	608.015
656.46	854.97
660.375	1145.66
664.288	1477.65
668.199	1840.95
672.108	2184.02
676.016	2675.69
679.921	3065.38
683.825	3356.7
687.727	3514.76
691.628	3005
695.526	2501.15
699.423	1966.96
703.318	1467.37
707.211	1104.96
711.102	842.514
714.992	593.493
718.879	512.787
722.765	387.839
726.649	307.553
730.532	311.618
734.412	228.132
738.291	242.903
742.168	162.908
746.043	150.735
749.916	44.577
753.788	15.96
757.658	75.4
761.526	37.378
765.392	45.298
769.257	40.985
773.119	85.523
776.98	5.842
780.839	33.714
784.697	44.13
788.552	5.86
792.406	38.463
796.258	50.391
800.108	26.504
803.957	19.536
807.804	1.709
811.649	17.96
815.492	45.553
819.333	101.643
823.173	29.642
827.011	19.463
830.847	34.936
834.681	33.69
838.514	4.413
842.345	5.877
846.174	27.684
850.001	8.535
853.827	9.275
857.651	38.142
861.473	13.205
865.293	86.408
869.112	48.462
872.928	32.367
876.744	107.13
880.557	64.759
884.369	64.251
888.178	57.512
891.987	96.707
895.793	39.395
899.598	14.194
903.401	0.967
907.202	134.041
911.001	120.33
914.799	81.518
918.595	177.344
922.389	142.01
926.182	178.843
929.972	181.168
933.761	196.495
937.549	207.017
941.334	233.127
945.118	230.877
948.9	118.279
952.681	184.212
956.459	221.645
960.236	312.165
964.012	333.915
967.785	232.64
971.557	254.95
975.327	276.967
979.095	302.145
982.862	452.817
986.627	551.069
990.39	728.523
994.152	976.362
997.912	1137.27
1001.67	1224.2
1005.43	1184.54
1009.18	1044.08
1012.93	771.242
1016.68	642.27
1020.43	601.394
1024.18	398.962
1027.93	360.97
1031.67	339.705
1035.42	301.95
1039.16	237.805
1042.9	182.442
1046.63	134.693
1050.37	104.243
1054.11	217.009
1057.84	286.612
1061.57	237.225
1065.3	165.813
1069.03	195.209
1072.75	147.819
1076.47	237.36
1080.2	193.033
1083.92	347.716
1087.64	198.406
1091.36	219.107
1095.07	192.836
1098.79	276.62
1102.5	257.425
1106.21	250.276
1109.92	296.16
1113.62	264.104
1117.33	210.106
1121.04	241.221
1124.74	186.402
1128.44	205.685
1132.14	121.153
1135.83	145.793
1139.53	145.535
1143.22	80.323
1146.92	112.199
1150.61	72.171
1154.3	33.279
1157.98	20.556
1161.67	2.391
1165.35	33.245
1169.04	19.132
1172.72	81.058
1176.4	12.077
1180.07	11.078
1183.75	58.931
1187.42	20.979
1191.1	24.944
1194.77	77.132
1198.44	111.241
1202.1	131.395
1205.77	209.592
1209.43	156.825
1213.1	223.089
1216.76	228.379
1220.42	336.69
1224.07	320.021
1227.73	389.364
1231.38	446.716
1235.04	384.076
1238.69	446.447
1242.34	561.854
1245.99	515.296
1249.63	497.321
1253.28	552.833
1256.92	694.378
1260.56	737.973
1264.2	739.675
1267.84	772.258
1271.48	861.245
1275.11	875.65
1278.74	851.475
1282.38	940.209
1286.01	929.469
1289.63	1064.35
1293.26	1045.44
1296.89	1047.11
1300.51	1082.98
1304.13	1021.58
1307.75	960.986
1311.37	991.71
1314.99	837.731
1318.6	942.655
1322.22	863.884
1325.83	806.086
1329.44	739.895
1333.05	738.65
1336.66	688.002
1340.26	676.487
1343.87	623.991
1347.47	541.704
1351.07	513.086
1354.67	472.896
1358.27	418.943
1361.86	335.301
1365.46	265.208
1369.05	269.005
1372.64	198.918
1376.23	171.009
1379.82	171.575
1383.41	170.879
1386.99	195.216
1390.57	106.571
1394.16	111.955
1397.74	143.586
1401.32	55.42
1404.89	90.4
1408.47	62.364
1412.04	21.288
1415.61	55.254
1419.18	83.591
1422.75	77.837
1426.32	53.388
1429.89	30.997
1433.45	78.708
1437.01	145.485
1440.58	86.291
1444.13	88.208
1447.69	123.307
1451.25	65.667
1454.81	73.216
1458.36	14.364
1461.91	182.285
1465.46	192.86
1469.01	160.365
1472.56	84.558
1476.1	45.308
1479.64	152.258
1483.19	131.869
1486.73	133.934
1490.27	125.573
1493.81	12.416
1497.34	103.839
1500.88	3.932
1504.41	58.016
1507.94	60.371
1511.47	93.132
1515	48.437
1518.53	3.377
