Measurement: Raman, 514 nm, ccw, Raman Data Processed
Mineral: Goethite
Rruff sample: R050142
Ideal chemistry: FeO(OH)
Locality: Park County, Colorado, USA
Source: Dave Bunk Minerals
Description: Radiating spray of black to brown platy crystals
Measured chemistry: FeO(OH)
Pin_id: M00090
Orientation: Laser parallel to b* (0 1 0). Fiducial mark perpendicular to laser is parallel to -c [0 0 -1]
Raman shift (cm-1)	intensity
164.853	0
168.998	291.885
173.142	40.295
177.284	35.725
181.424	328.635
185.562	451.916
189.698	482.742
193.831	775.648
197.963	628.811
202.093	729.145
206.221	811.846
210.347	795.514
214.472	820.207
218.594	627.832
222.714	778.213
226.832	846.75
230.948	505.586
235.063	584.309
239.175	426.163
243.286	442.938
247.394	629.606
251.501	636.06
255.605	636.049
259.708	584.769
263.808	533.178
267.907	393.85
272.004	385.421
276.099	243.613
280.192	183.733
284.283	90.809
288.372	214.587
292.459	724.643
296.544	2251.7
300.627	4177.76
304.709	2962.62
308.788	1194.22
312.865	442.823
316.941	64.845
321.015	8.5
325.086	276.082
329.156	130.934
333.224	178.105
337.29	20.937
341.354	156.504
345.416	149.375
349.476	85.083
353.534	292.369
357.591	444.683
361.645	770.141
365.698	647.947
369.748	749.066
373.797	821.689
377.844	988.757
381.889	1281.24
385.932	1829.6
389.973	2815.77
394.012	4815.64
398.049	8490.71
402.084	10112.9
406.118	7430.23
410.15	4320.05
414.179	2905.16
418.207	2395.81
422.233	2040.7
426.257	1460.85
430.279	1186.3
434.299	1020.7
438.318	957.322
442.334	811.835
446.349	838.769
450.361	879.086
454.372	801.001
458.381	695.714
462.388	824.091
466.394	791.604
470.397	840.831
474.398	821.782
478.398	856.629
482.396	819.665
486.391	738.223
490.385	666.504
494.377	697.143
498.368	716.28
502.356	684.353
506.342	759.156
510.327	729.237
514.31	718.801
518.291	691.259
522.27	652.174
526.247	815.825
530.222	819.122
534.196	1088.65
538.167	1271.6
542.137	1616.03
546.105	2165.19
550.071	2405.53
554.035	2175.47
557.998	1814.96
561.958	1403.79
565.917	1109.99
569.874	996.387
573.829	809.949
577.782	756.891
581.733	656.259
585.683	566.129
589.63	444.034
593.576	458.212
597.52	348.457
601.462	319.519
605.402	342.973
609.341	309.879
613.277	188.958
617.212	187.912
621.145	201.754
625.076	159.445
629.006	215.833
632.933	250.766
636.859	286.123
640.783	219.986
644.705	235.582
648.625	192.804
652.543	205.172
656.46	253.842
660.375	250.307
664.288	262.313
668.199	442.189
672.108	489.348
676.016	572.542
679.921	587.46
683.825	619.175
687.727	709.196
691.628	650.86
695.526	468.638
699.423	351.86
703.318	332.627
707.211	262.41
711.102	142.994
714.992	195.65
718.879	138.303
722.765	53.623
726.649	84.514
730.532	104.638
734.412	52.639
738.291	126.71
742.168	35.447
746.043	34.336
749.916	63.324
753.788	46.802
757.658	2.516
761.526	113.933
765.392	24.098
769.257	44.307
773.119	9.218
776.98	10.629
780.839	5.474
784.697	24.355
788.552	11.537
792.406	21.081
796.258	0.166
800.108	21.067
803.957	664.778
807.804	356.808
811.649	10.424
815.492	31.742
819.333	24.779
823.173	39.873
827.011	10.271
830.847	22.099
834.681	45.738
838.514	80.14
842.345	8.228
846.174	5.089
850.001	105.877
853.827	41.7
857.651	32.026
861.473	0.894
865.293	49.946
869.112	6.766
872.928	49.716
876.744	22.135
880.557	99.88
884.369	56.693
888.178	24.658
891.987	3.376
895.793	97.414
899.598	17.936
903.401	15.729
907.202	79.213
911.001	149.513
914.799	110.98
918.595	79.465
922.389	89.496
926.182	144.657
929.972	162.172
933.761	164.668
937.549	139.324
941.334	224.632
945.118	179.487
948.9	85.723
952.681	132.685
956.459	115.466
960.236	192.163
964.012	164.75
967.785	267.03
971.557	237.744
975.327	149.881
979.095	217.067
982.862	202.719
986.627	248.047
990.39	351.878
994.152	484.639
997.912	475.965
1001.67	566.003
1005.43	461.723
1009.18	478.741
1012.93	344.146
1016.68	401.646
1020.43	343.383
1024.18	319.591
1027.93	271.018
1031.67	217.487
1035.42	235.077
1039.16	265.397
1042.9	299.926
1046.63	223.217
1050.37	167.958
1054.11	205.791
1057.84	249.307
1061.57	345.854
1065.3	302.412
1069.03	222.986
1072.75	202.587
1076.47	208.229
1080.2	211.902
1083.92	255.594
1087.64	291.312
1091.36	274.071
1095.07	253.746
1098.79	301.584
1102.5	226.456
1106.21	275.359
1109.92	323.293
1113.62	286.256
1117.33	286.316
1121.04	213.446
1124.74	209.704
1128.44	213.081
1132.14	187.532
1135.83	150.086
1139.53	169.719
1143.22	55.444
1146.92	86.278
1150.61	84.222
1154.3	112.306
1157.98	46.583
1161.67	2.427
1165.35	39.52
1169.04	31.503
1172.72	25.532
1176.4	90.43
1180.07	22.581
1183.75	5.6
1187.42	104.396
1191.1	127.466
1194.77	123.623
1198.44	108.852
1202.1	177.137
1205.77	156.472
1209.43	242.831
1213.1	184.211
1216.76	192.609
1220.42	191.024
1224.07	239.271
1227.73	250.895
1231.38	271.344
1235.04	332.807
1238.69	294.302
1242.34	253.832
1245.99	352.397
1249.63	277.503
1253.28	291.198
1256.92	370.296
1260.56	514.016
1264.2	416.016
1267.84	488.044
1271.48	507.999
1275.11	518.957
1278.74	566.287
1282.38	476.227
1286.01	589.867
1289.63	622.958
1293.26	574.829
1296.89	722.465
1300.51	736.594
1304.13	578.363
1307.75	629.037
1311.37	580.073
1314.99	537.663
1318.6	536.792
1322.22	542.318
1325.83	520.288
1329.44	488.432
1333.05	457.037
1336.66	521.55
1340.26	348.687
1343.87	275.115
1347.47	342.444
1351.07	262.179
1354.67	220.364
1358.27	208.499
1361.86	221.311
1365.46	164.971
1369.05	212.465
1372.64	217.837
1376.23	152.199
1379.82	49.965
1383.41	78.367
1386.99	126.791
1390.57	18.175
1394.16	109.473
1397.74	30.333
1401.32	39.743
1404.89	10.725
1408.47	15.637
1412.04	0.477
1415.61	31.641
1419.18	6.049
1422.75	26.413
1426.32	6.992
1429.89	21.36
1433.45	39.246
1437.01	98.927
1440.58	30.707
1444.13	118.646
1447.69	155.8
1451.25	147.11
1454.81	74.56
1458.36	73.729
1461.91	62.795
1465.46	127.839
1469.01	89.379
1472.56	142.462
1476.1	166.246
1479.64	153.501
1483.19	130.578
1486.73	155.324
1490.27	58.676
1493.81	40.217
1497.34	145.012
1500.88	9.209
1504.41	69.403
1507.94	90.279
1511.47	30.501
1515	19.401
1518.53	0
