Measurement: Raman, 514 nm, ccw, Raman Data Processed
Mineral: Goethite
Rruff sample: R050142
Ideal chemistry: FeO(OH)
Locality: Park County, Colorado, USA
Source: Dave Bunk Minerals
Description: Radiating spray of black to brown platy crystals
Measured chemistry: FeO(OH)
Pin_id: M00090
Orientation: Laser parallel to b* (0 1 0). Fiducial mark perpendicular to laser is parallel to -c [0 0 -1]
Raman shift (cm-1)	intensity
164.853	0
168.998	149.969
173.142	276.123
177.284	257.662
181.424	145.926
185.562	9.55
189.698	260.879
193.831	184.946
197.963	609.544
202.093	370.447
206.221	294.938
210.347	360.577
214.472	304.628
218.594	307.424
222.714	195.428
226.832	339.683
230.948	243.996
235.063	405.46
239.175	584.847
243.286	950.548
247.394	1575.36
251.501	1285.43
255.605	957.739
259.708	920.307
263.808	649.933
267.907	629.583
272.004	511.332
276.099	657.883
280.192	398.574
284.283	393.65
288.372	277.141
292.459	263.237
296.544	220.075
300.627	402.913
304.709	424.06
308.788	290.561
312.865	63.338
316.941	12.226
321.015	43.688
325.086	57.095
329.156	88.498
333.224	4.401
337.29	107.562
341.354	14.292
345.416	2.909
349.476	13.428
353.534	52.379
357.591	114.398
361.645	121.454
365.698	156.619
369.748	248.322
373.797	191.767
377.844	387.985
381.889	511.323
385.932	615.783
389.973	831.064
394.012	972.186
398.049	1541.16
402.084	1947.14
406.118	1710.3
410.15	1133.53
414.179	910.406
418.207	1022.46
422.233	914.389
426.257	662.49
430.279	586.381
434.299	563.514
438.318	601.606
442.334	445.289
446.349	507.858
450.361	521.336
454.372	570.58
458.381	677.372
462.388	698.854
466.394	760.123
470.397	910.026
474.398	1031.43
478.398	1170.23
482.396	1235.49
486.391	1270
490.385	1137.63
494.377	1044.35
498.368	857.006
502.356	834.389
506.342	860.147
510.327	856.947
514.31	871.236
518.291	999.954
522.27	1237.74
526.247	1422.15
530.222	1733.09
534.196	2248.91
538.167	3082.22
542.137	4518.86
546.105	6565.78
550.071	8125.08
554.035	7985.82
557.998	6450.07
561.958	4683.88
565.917	3518.18
569.874	2551.91
573.829	1887.6
577.782	1378.01
581.733	1096.25
585.683	846.875
589.63	702.731
593.576	472.698
597.52	448.324
601.462	401.23
605.402	320.639
609.341	310.189
613.277	253.143
617.212	263.918
621.145	286.672
625.076	174.263
629.006	243.743
632.933	213.223
636.859	152.004
640.783	164.406
644.705	134.081
648.625	302.943
652.543	305.18
656.46	214.278
660.375	309.236
664.288	362.636
668.199	341.167
672.108	425.447
676.016	461.346
679.921	507.158
683.825	624.846
687.727	611.294
691.628	495.444
695.526	429.421
699.423	304.35
703.318	287.063
707.211	244.984
711.102	149.196
714.992	139.092
718.879	39.875
722.765	32.484
726.649	13.312
730.532	37.395
734.412	33.306
738.291	8.288
742.168	21.525
746.043	31.697
749.916	56.614
753.788	37.389
757.658	37.995
761.526	20.207
765.392	56.932
769.257	58.131
773.119	4.038
776.98	46.033
780.839	15.561
784.697	98.461
788.552	45.5
792.406	32.195
796.258	60.78
800.108	14.686
803.957	24.781
807.804	48.725
811.649	50.516
815.492	31.654
819.333	16.099
823.173	31.941
827.011	25.198
830.847	44.586
834.681	39.153
838.514	0.796
842.345	2.502
846.174	55.915
850.001	28.985
853.827	23.302
857.651	53.084
861.473	34.819
865.293	32.667
869.112	62.271
872.928	64.562
876.744	66.934
880.557	84.727
884.369	64.043
888.178	145.676
891.987	97.76
895.793	98.252
899.598	130.606
903.401	66.02
907.202	95.617
911.001	85.897
914.799	135.015
918.595	174.361
922.389	103.88
926.182	84.059
929.972	130.199
933.761	194.181
937.549	122.351
941.334	188.159
945.118	150.404
948.9	157.134
952.681	189.024
956.459	144.472
960.236	268.036
964.012	215.619
967.785	102.28
971.557	135.229
975.327	139.325
979.095	151.404
982.862	252.215
986.627	197.991
990.39	274.625
994.152	424.374
997.912	469.924
1001.67	574.466
1005.43	512.467
1009.18	462.671
1012.93	292.154
1016.68	275.567
1020.43	243.989
1024.18	204.315
1027.93	185.922
1031.67	171.231
1035.42	89.519
1039.16	96.911
1042.9	60.372
1046.63	124.265
1050.37	61.683
1054.11	53.264
1057.84	59.91
1061.57	103.322
1065.3	176.353
1069.03	191.152
1072.75	162.003
1076.47	161.736
1080.2	124.878
1083.92	227.914
1087.64	196.009
1091.36	230.166
1095.07	233.388
1098.79	324.684
1102.5	309.053
1106.21	345.579
1109.92	383.184
1113.62	380.906
1117.33	290.778
1121.04	381.793
1124.74	442.969
1128.44	391.382
1132.14	190.964
1135.83	131.692
1139.53	200.606
1143.22	92.634
1146.92	150.813
1150.61	79.14
1154.3	13.334
1157.98	22.031
1161.67	19.133
1165.35	40.485
1169.04	0.837
1172.72	4.179
1176.4	3.519
1180.07	29.292
1183.75	76.142
1187.42	132.008
1191.1	132.002
1194.77	130.073
1198.44	234.217
1202.1	269.43
1205.77	306.708
1209.43	331.05
1213.1	310.455
1216.76	521.919
1220.42	461.444
1224.07	581.029
1227.73	667.67
1231.38	589.366
1235.04	715.115
1238.69	755.932
1242.34	715.824
1245.99	724.791
1249.63	830.007
1253.28	898.123
1256.92	996.308
1260.56	941.407
1264.2	940.157
1267.84	1063.54
1271.48	1205.64
1275.11	1182.7
1278.74	1282.59
1282.38	1305.87
1286.01	1325.89
1289.63	1420.22
1293.26	1423.19
1296.89	1476.68
1300.51	1495.51
1304.13	1377.97
1307.75	1399.44
1311.37	1480.27
1314.99	1378.98
1318.6	1358.94
1322.22	1348.77
1325.83	1170.83
1329.44	1277.72
1333.05	1200.42
1336.66	1038.05
1340.26	967.612
1343.87	876.305
1347.47	897.794
1351.07	738.142
1354.67	699.401
1358.27	587.595
1361.86	556.727
1365.46	488.038
1369.05	424.046
1372.64	395.982
1376.23	297.835
1379.82	176.299
1383.41	273.045
1386.99	194.867
1390.57	236.761
1394.16	178.608
1397.74	130.371
1401.32	67.993
1404.89	50.467
1408.47	127.914
1412.04	10.621
1415.61	2.014
1419.18	12.905
1422.75	40.032
1426.32	4.919
1429.89	12.264
1433.45	98.533
1437.01	65.914
1440.58	45.438
1444.13	89.133
1447.69	75.033
1451.25	95.174
1454.81	52.442
1458.36	130.417
1461.91	122.437
1465.46	123.416
1469.01	147.576
1472.56	86.327
1476.1	83.376
1479.64	142.916
1483.19	58.93
1486.73	15.148
1490.27	131.86
1493.81	602.451
1497.34	69.792
1500.88	69.3
1504.41	3.159
1507.94	63.719
1511.47	58.498
1515	3.403
1518.53	27.217
