Measurement: Raman, 514 nm, ccw, Raman Data Processed
Mineral: Grossular
Rruff sample: R040066
Ideal chemistry: Ca_3_Al_2_(SiO_4_)_3_
Locality: Redding, Connecticut, USA
Source: University of Arizona Mineral Museum
Description: Reddish orange coarsely crystalline
Measured chemistry: (Ca_2.90_Fe^2+^_0.08_Mn_0.02_)_Σ=3_(Al_1.87_Fe^3+^_0.13_)_Σ=2_(Si_1.00_O_4_)_3_
Pin_id: M00416
Orientation: Laser parallel to a* (1 0 0). Fiducial mark perpendicular to laser is parallel to b [0 1 0]
Raman shift (cm-1)	intensity
123.649	0
127.826	98.132
132.001	21.59
136.173	149.995
140.344	90.809
144.512	55.385
148.679	68.059
152.843	80.656
157.005	9.391
161.166	6.283
165.324	41.553
169.48	209.32
173.635	1089
177.787	4159.19
181.937	1624.59
186.086	393.068
190.232	205.561
194.376	63.083
198.518	2.688
202.659	41.865
206.797	6.566
210.933	127.45
215.067	5.333
219.199	27.314
223.33	70.313
227.458	35.312
231.584	138.688
235.708	344.662
239.83	437.353
243.951	434.075
248.069	289.434
252.185	187.584
256.299	141.836
260.411	382.229
264.522	190.769
268.63	291.462
272.736	469.745
276.84	630.297
280.943	489.795
285.043	554.468
289.141	424.45
293.238	281.204
297.332	161.315
301.425	225.374
305.515	316.989
309.603	498.348
313.69	754.029
317.774	605.026
321.857	625.666
325.938	715.012
330.016	766.407
334.093	759.883
338.168	786.438
342.24	1002.54
346.311	1326.12
350.38	1825.09
354.447	2629.51
358.512	4839.59
362.575	10740.6
366.636	20582
370.695	26270.5
374.752	28331.3
378.807	13186.2
382.86	5757.8
386.911	2942.51
390.961	1805.39
395.008	1335.42
399.053	1107.58
403.097	1024.87
407.138	1584.3
411.178	3800.85
415.216	3476.53
419.251	1148.3
423.285	489.096
427.317	337.904
431.347	214.716
435.375	245.535
439.401	228.39
443.425	203.296
447.447	370.235
451.468	495.203
455.486	545.235
459.502	513.329
463.517	523.453
467.53	525.606
471.54	489.789
475.549	466.002
479.556	368.241
483.561	388.503
487.564	405.788
491.565	664.111
495.564	829.479
499.562	789.887
503.557	713.588
507.55	647.638
511.542	434.278
515.532	494.907
519.52	523.437
523.505	826.077
527.489	566.349
531.472	566.786
535.452	1040.46
539.43	2357.82
543.406	6845.76
547.381	7867.54
551.354	2697.05
555.324	970.377
559.293	556.972
563.26	372.346
567.225	393.909
571.188	476.856
575.15	467.425
579.109	417.286
583.067	428.106
587.022	606.219
590.976	597.874
594.928	334.673
598.878	314.132
602.826	444.553
606.773	588.674
610.717	580.644
614.66	640.454
618.6	703.141
622.539	909.69
626.476	982.105
630.411	752.384
634.344	447.723
638.276	213.526
642.205	93.681
646.133	92.092
650.059	9.359
653.983	3.028
657.905	72.966
661.825	43.231
665.743	43.775
669.66	22.374
673.574	58.752
677.487	58.224
681.398	11.012
685.307	25.065
689.215	58.401
693.12	38.018
697.024	26.93
700.925	37.103
704.825	0.473
708.723	13.199
712.62	13.9
716.514	5.179
720.407	3.454
724.297	0.938
728.186	68.367
732.073	20.513
735.959	82.505
739.842	12.35
743.724	101.047
747.603	78.606
751.481	113.029
755.357	142.32
759.232	150.481
763.104	116.515
766.975	161.426
770.844	177.215
774.711	219.886
778.576	218.442
782.439	256.885
786.301	285.024
790.161	361.997
794.019	430.238
797.875	518.701
801.729	749.563
805.582	1207.54
809.432	1793.08
813.281	2483.44
817.128	3358.13
820.974	4319.13
824.817	4822.05
828.659	4476.58
832.499	4092.54
836.337	3771.4
840.173	3580.42
844.008	3682.68
847.841	3874.47
851.672	3996.61
855.501	4189.22
859.328	4692.82
863.154	5953.39
866.978	8638.97
870.8	13835.2
874.62	23391.7
878.438	32338
882.255	27784.6
886.07	17261.3
889.883	9968
893.694	5974.79
897.504	4143.61
901.312	3253.49
905.118	2755.41
908.922	2403.38
912.724	2017.41
916.525	1671.5
920.324	1348.65
924.121	1186.87
927.916	990.17
931.71	832.582
935.502	734.17
939.292	769.88
943.08	847.771
946.867	931.77
950.652	858.349
954.435	646.877
958.216	463.34
961.995	365.665
965.773	394.826
969.549	448.972
973.323	549.123
977.096	770.228
980.867	930.664
984.636	963.559
988.403	1041.82
992.169	1156.54
995.932	1252.23
999.694	1438.17
1003.46	1689.19
1007.21	1819.29
1010.97	1284.49
1014.73	649.776
1018.48	352.153
1022.23	210.631
1025.98	233.2
1029.73	162.861
1033.47	220.622
1037.22	105.483
1040.96	102.458
1044.7	108.561
1048.44	145.817
1052.18	121.194
1055.92	72.612
1059.65	46.124
1063.38	77.725
1067.11	27.507
1070.84	27.255
1074.57	36.128
1078.3	121.025
1082.02	77.982
1085.74	19.002
1089.46	62.952
1093.18	48.882
1096.9	46.208
1100.61	108.351
1104.33	14.52
1108.04	24.632
1111.75	51.733
1115.46	31.159
1119.16	31.042
1122.87	55.93
1126.57	23.157
1130.28	72.242
1133.98	150.318
1137.67	227.403
1141.37	65.487
1145.07	37.965
1148.76	85.328
1152.45	115.648
1156.14	158.047
1159.83	189.799
1163.52	169.196
1167.2	162.302
1170.88	102.165
1174.56	66.198
1178.24	21.164
1181.92	128.145
1185.6	116.724
1189.27	115.753
1192.95	91.686
1196.62	100.745
1200.29	60.127
1203.95	38.208
1207.62	82.094
1211.29	199.146
1214.95	83.293
1218.61	187.723
1222.27	161.544
1225.93	159.114
1229.58	206.26
1233.24	64.488
1236.89	140.51
1240.54	134.31
1244.19	209.152
1247.84	274.708
1251.48	246.783
1255.13	241.846
1258.77	217.113
1262.41	122.626
1266.05	94.44
1269.69	132.549
1273.33	49.322
1276.96	166.976
1280.59	169.503
1284.23	117.668
1287.86	57.708
1291.48	57.493
1295.11	0.234
1298.73	26.352
1302.36	78.109
1305.98	32.924
1309.6	53.695
1313.22	88.29
1316.83	91.651
1320.45	86.878
1324.06	141.929
1327.67	12.807
1331.28	5.413
1334.89	8.12
1338.5	32.786
1342.1	89.36
1345.7	155.335
1349.31	157.147
1352.91	155.802
1356.5	120.315
1360.1	68.676
1363.7	117.844
1367.29	32.922
1370.88	74.209
1374.47	113.517
1378.06	230.749
1381.65	190.324
1385.23	240.788
1388.82	238.052
1392.4	115.364
1395.98	96.448
1399.56	54.33
1403.13	61.673
1406.71	64.586
1410.28	170.536
1413.86	107.451
1417.43	297.265
1421	301.439
1424.56	310.736
1428.13	271.224
1431.69	312.965
1435.26	248.719
1438.82	157.064
1442.38	172.734
1445.94	186.353
1449.49	166.21
1453.05	294.101
1456.6	292.271
1460.15	353.586
1463.7	411.429
1467.25	330.435
1470.8	320.895
1474.34	288.445
1477.88	175.688
1481.43	113.165
1484.97	97.79
1488.51	117.428
1492.04	84.951
1495.58	72.588
1499.11	224.473
1502.64	188.506
1506.17	248.708
1509.7	237.112
1513.23	275.776
1516.76	193.248
1520.28	105.294
1523.81	68.945
