Measurement: Raman, 514 nm, ccw, Raman Data Processed
Mineral: Grossular
Rruff sample: R050081
Ideal chemistry: Ca_3_Al_2_(SiO_4_)_3_
Locality: Kayes Region, Mali
Source: Rock Currier
Description: Dark brown dodecahedron
Measured chemistry: (Ca_2.92_Mg_0.07_Mn_0.01_)_Σ=3_(Al_1.04_Fe^3+^_0.89_Ti_0.07_)_Σ=2_((Si_0.98_Al_0.02_)_Σ=1_O_4_)_3_; trace amounts of Y
Pin_id: L00149
Orientation: Laser parallel to c* (0 0 1). Fiducial mark perpendicular to laser is parallel to a [1 0 0]
Raman shift (cm-1)	intensity
127.73	0
131.898	187.844
136.065	119.197
140.229	321.563
144.392	311.115
148.552	175.221
152.71	156.619
156.866	70.875
161.02	82.518
165.172	193.771
169.322	345.717
173.47	937.695
177.616	1173.44
181.76	779.132
185.902	395.674
190.042	211.2
194.179	205.418
198.315	210.053
202.449	126.489
206.58	5.313
210.71	74.94
214.837	82.167
218.963	58.77
223.086	77.655
227.207	254.467
231.327	665.253
235.444	1010.89
239.559	1532.3
243.673	1237.24
247.784	368.612
251.893	95.044
256	29.838
260.105	15.704
264.208	106.556
268.31	431.579
272.409	603.011
276.506	549.85
280.601	423.857
284.694	251.001
288.785	164.248
292.874	94.069
296.961	225.625
301.046	431.632
305.129	421.825
309.21	692.049
313.289	968.443
317.366	1496.05
321.441	1784.08
325.514	1511.74
329.585	1283.36
333.654	1407.47
337.721	1404.43
341.786	1302.19
345.849	1672.79
349.91	2490.72
353.969	4104.48
358.026	6831.09
362.081	8406.86
366.134	11251
370.185	17459.2
374.234	18486.7
378.281	11770.8
382.326	6650.19
386.369	3990.52
390.411	2602
394.45	1963.48
398.487	1443.8
402.522	930.432
406.555	454.323
410.587	233.114
414.616	48.823
418.644	15.347
422.669	61.481
426.692	47.414
430.714	77.366
434.733	153.986
438.751	226.444
442.767	268.876
446.78	415.819
450.792	298.352
454.802	405.23
458.809	373.969
462.815	268.924
466.819	207.693
470.821	108.439
474.821	45.613
478.819	155.733
482.815	450.472
486.809	697.598
490.802	808.688
494.792	870.749
498.78	841.79
502.767	717.82
506.751	504.844
510.734	503.871
514.714	601.126
518.693	1006.06
522.67	1955.25
526.644	4045.54
530.617	6601.14
534.588	5196.28
538.557	2184.92
542.524	1034.92
546.489	663.782
550.453	586.492
554.414	583.219
558.374	626.265
562.331	599.391
566.287	348.087
570.24	216.614
574.192	125.266
578.142	48.909
582.09	22.586
586.036	89.198
589.98	128.019
593.922	284.332
597.862	400.596
601.801	459.726
605.737	517.722
609.672	578.601
613.605	576.374
617.536	519.298
621.464	441.576
625.391	290.985
629.317	134.265
633.24	130.313
637.161	101.232
641.081	197.083
644.998	281.806
648.914	358.406
652.828	366.88
656.74	422.229
660.65	488.452
664.558	592.547
668.464	714.514
672.368	586.351
676.271	385.057
680.171	217.63
684.07	98.068
687.967	62.35
691.862	12.58
695.755	45.901
699.646	97.754
703.536	40.314
707.423	85.469
711.309	127.288
715.193	71.908
719.075	33.213
722.955	23.114
726.833	3.443
730.709	72.688
734.584	220.378
738.457	276.498
742.327	455.344
746.196	613.474
750.063	868.16
753.929	1163.72
757.792	1368.18
761.654	1602.63
765.513	1745.09
769.371	1535.55
773.227	1356.96
777.081	1241.3
780.933	1142.59
784.784	1179.51
788.633	1269.95
792.479	1417.11
796.324	1627.9
800.167	1930.87
804.009	2394.76
807.848	3021.56
811.686	3673.28
815.522	4406.91
819.355	5014.46
823.188	4772.93
827.018	4330.32
830.846	3731.64
834.673	3315.89
838.498	3067.66
842.321	3163.41
846.142	3236.93
849.961	3265.07
853.779	3158.95
857.595	3337.97
861.409	3665.73
865.221	4221.67
869.031	4993.38
872.839	5910.94
876.646	6355.1
880.451	5948.98
884.254	4818.72
888.055	3740.47
891.855	2843.8
895.652	2296.22
899.448	1806.71
903.242	1501.3
907.034	1320.69
910.825	1251.07
914.613	1299.43
918.4	1351.11
922.185	1343.26
925.969	1416.55
929.75	1532.66
933.53	1718.97
937.308	1785.21
941.084	1677.71
944.858	1509.12
948.63	1217.55
952.401	998.599
956.17	990.043
959.937	1126.55
963.703	1311.12
967.466	1450.77
971.228	1627.48
974.988	1741.26
978.746	1719.11
982.503	1888.03
986.258	1780.03
990.011	1766.1
993.762	1793.33
997.511	1723.75
1001.26	1628.42
1005	1301.97
1008.75	971.788
1012.49	983.667
1016.23	896.562
1019.97	857.532
1023.71	769.479
1027.44	567.796
1031.18	297.288
1034.91	91.786
1038.64	41.854
1042.37	52.986
1046.09	75.102
1049.82	77.543
1053.54	2.952
1057.26	14.385
1060.98	70.971
1064.7	27.811
1068.41	35.783
1072.13	17.959
1075.84	24.333
1079.55	19.787
1083.26	23.379
1086.97	2.151
1090.67	20.995
1094.38	27.226
1098.08	24.618
1101.78	20.951
1105.48	87.017
1109.18	86.999
1112.87	26.037
1116.57	61.42
1120.26	107.044
1123.95	90.585
1127.63	102.006
1131.32	88.488
1135.01	89.322
1138.69	66.4
1142.37	34.257
1146.05	91.527
1149.73	37.672
1153.4	75.352
1157.08	42.724
1160.75	61.769
1164.42	5.579
1168.09	51.782
1171.76	47.271
1175.42	57.6
1179.09	67.803
1182.75	102.401
1186.41	94.66
1190.07	112.014
1193.73	113.01
1197.38	140.549
1201.04	124.965
1204.69	116.785
1208.34	162.848
1211.99	81.619
1215.64	110.433
1219.28	157.223
1222.92	215.373
1226.57	136.999
1230.21	130.463
1233.85	123.908
1237.48	107.227
1241.12	77.189
1244.75	56.035
1248.38	52.476
1252.01	11.162
1255.64	5.351
1259.27	67.464
1262.89	34.34
1266.52	103.188
1270.14	71.579
1273.76	37.885
1277.38	0.067
1280.99	3.948
1284.61	53.423
1288.22	15.374
1291.83	42.677
1295.44	46.263
1299.05	34.042
1302.66	1.716
1306.26	31.828
1309.87	17.578
1313.47	29.679
1317.07	3.775
1320.67	1.285
1324.26	32.958
1327.86	77.707
1331.45	29.516
1335.04	24.891
1338.63	35.295
1342.22	30.794
1345.81	14.99
1349.39	25.31
1352.98	43.648
1356.56	85.744
1360.14	69.877
1363.72	94.462
1367.29	61.706
1370.87	37.625
1374.44	32.218
1378.02	39.601
1381.59	60.645
1385.15	86.689
1388.72	105.306
1392.29	88.555
1395.85	103.582
1399.41	109.121
1402.97	129.696
1406.53	106.749
1410.09	90.673
1413.64	57.61
1417.2	52.457
1420.75	61.071
1424.3	73.985
1427.85	86.216
1431.39	96.782
1434.94	92.475
1438.48	79.778
1442.03	46.663
1445.57	58.32
1449.11	37.685
1452.64	8.936
1456.18	25.971
1459.71	58.309
1463.25	30.54
1466.78	26.018
1470.31	21.768
1473.83	67.708
1477.36	76.404
1480.88	83.078
1484.41	56.25
1487.93	86.231
1491.45	56.726
1494.97	27.764
1498.48	9.938
1502	83.898
1505.51	37.662
1509.02	34.851
1512.53	58.556
1516.04	65.892
1519.55	29.652
1523.05	0
