Measurement: Raman, 514 nm, ccw, Raman Data Processed
Mineral: Grossular
Rruff sample: R060442
Ideal chemistry: Ca_3_Al_2_(SiO_4_)_3_
Locality: Pakistan(?)
Source: Gemological Institute of America
Description: Orange crystals
Measured chemistry: (Ca_2.85_Fe^2+^_0.15_)_Σ=3_(Al_1.85_Fe^3+^_0.15_)_Σ=2_(Si_1.00_O_4_)_3_; trace amounts of Ti, Mg
Pin_id: M01870
Orientation: Laser parallel to a* (1 0 0). Fiducial mark perpendicular to laser is parallel to c [0 0 1]
Raman shift (cm-1)	intensity
129	0
133.933	3.49512
138.864	109.735
143.791	68.6862
148.716	110.519
153.638	96.6291
158.558	100.278
163.475	245.442
168.389	966.297
173.3	2493.29
178.209	4857.76
183.115	2427.54
188.018	902.974
192.918	453.804
197.816	124.938
202.711	75.3225
207.604	98.1091
212.494	53.438
217.381	8.9856
222.265	86.6892
227.147	177.582
232.026	522.685
236.902	922.047
241.775	1008.65
246.646	987.129
251.514	603.78
256.38	407.787
261.243	574.197
266.103	753.069
270.96	1013.45
275.815	1285.01
280.667	1035.68
285.516	856.431
290.363	630.592
295.207	286.752
300.048	273.168
304.887	600.06
309.723	880.66
314.556	974.288
319.387	1019.43
324.215	1122.5
329.04	1354.69
333.862	1328.97
338.682	1597.29
343.5	2224.62
348.314	3271.93
353.126	5612.61
357.935	11689.5
362.742	24055.4
367.546	40378.7
372.347	47713.7
377.145	32095.5
381.941	13162.6
386.735	5961.9
391.525	3489.62
396.313	2434.7
401.098	2304.13
405.881	3276.82
410.661	5091.6
415.438	4988.39
420.213	1882.44
424.985	491.113
429.754	67.1209
434.521	42.9382
439.285	77.7522
444.046	5.1167
448.805	144.665
453.561	446.114
458.315	526.193
463.065	386.881
467.813	422.156
472.559	442.992
477.302	362.358
482.042	254.228
486.78	433.574
491.515	778.366
496.247	1062.62
500.977	1135.38
505.704	970.585
510.428	677.162
515.15	521.232
519.869	714.75
524.586	1044.77
529.3	861.388
534.011	1555.49
538.719	4725.66
543.425	10812.6
548.129	10981.7
552.83	3915.61
557.528	1408.37
562.223	977.019
566.916	947.374
571.607	832.597
576.294	835.699
580.979	806.014
585.662	1037.76
590.341	1102.59
595.019	650.188
599.693	654.326
604.365	892.051
609.035	1116.36
613.701	1187.22
618.366	1457.63
623.027	1769.57
627.686	1686.02
632.342	1160.97
636.996	601.409
641.647	368.314
646.296	166.673
650.942	108.477
655.585	42.6715
660.226	30.9387
664.864	59.1869
669.499	97.7956
674.132	51.3789
678.763	125.204
683.39	18.7926
688.015	43.8583
692.638	1.16894
697.258	39.7106
701.875	16.4497
706.49	15.2997
711.102	12.7902
715.712	5.08374
720.319	31.7664
724.923	18.9518
729.525	73.611
734.124	148.774
738.721	144.471
743.315	260.716
747.907	361.525
752.496	529.912
757.082	718.893
761.666	1120.48
766.247	1447.7
770.826	1717.56
775.402	1887.08
779.975	1615.28
784.546	1432.18
789.115	1399.86
793.681	1648.47
798.244	2111.56
802.804	3055.6
807.363	4496.58
811.918	6119.74
816.471	7838.12
821.022	9573.84
825.569	10052
830.115	8934.58
834.657	7723.41
839.198	7148.4
843.735	6937.45
848.27	7224.16
852.803	7674.82
857.333	8596.4
861.86	10408.2
866.385	15085.8
870.907	26703.4
875.427	46031.2
879.944	57650.3
884.459	43593.8
888.971	23881.6
893.481	12445.8
897.988	7585.26
902.492	5448.13
906.994	4323.38
911.493	3426
915.99	2734.1
920.485	2160.2
924.976	1766.04
929.466	1459.04
933.952	1246.33
938.436	1260.84
942.918	1481.19
947.397	1509.53
951.874	1216.53
956.348	783.012
960.819	498.87
965.288	460.335
969.755	655.059
974.219	1008.74
978.68	1481.81
983.139	1717.35
987.595	1969.89
992.049	2062.29
996.501	2296.43
1000.95	2720.85
1005.4	3084.5
1009.84	2630.36
1014.28	1360.43
1018.72	596.698
1023.16	301.146
1027.59	198.767
1032.02	153.554
1036.45	83.4987
1040.88	87.5851
1045.3	44.8105
1049.72	22.1453
1054.14	23.4562
1058.56	72.1785
1062.97	19.0588
1067.38	55.2701
1071.79	44.6904
1076.19	68.5027
1080.6	23.8049
1085	20.6814
1089.4	8.96558
1093.79	17.136
1098.19	18.9712
1102.58	5.38489
1106.97	10.6503
1111.35	32.8511
1115.74	12.9905
1120.12	62.7297
1124.5	102.213
1128.87	196.483
1133.25	177.54
1137.62	239.374
1141.99	267.977
1146.35	388.339
1150.72	379.454
1155.08	461.461
1159.44	390.22
1163.79	375.575
1168.15	365.86
1172.5	293.264
1176.85	313.197
1181.19	271.079
1185.54	190.384
1189.88	159.941
1194.22	153.995
1198.55	109.902
1202.89	137.13
1207.22	208.45
1211.55	232.187
1215.88	176.5
1220.2	256.515
1224.52	252.749
1228.84	292.242
1233.16	254.172
1237.47	258.327
1241.78	273.664
1246.09	344.657
1250.4	349.914
1254.7	295.14
1259.01	298.708
1263.31	241.335
1267.6	245.579
1271.9	122.617
1276.19	102.427
1280.48	93.0671
1284.77	61.5608
1289.05	28.8803
1293.33	41.0073
1297.61	27.9531
1301.89	42.7158
1306.16	28.9584
1310.44	27.6794
1314.71	15.908
1318.97	43.0551
1323.24	27.1998
1327.5	54.2732
1331.76	17.3379
1336.02	12.4428
1340.28	36.5658
1344.53	54.6063
1348.78	21.5569
1353.03	67.5135
1357.27	63.4375
1361.52	27.439
1365.76	40.4851
1370	18.5787
1374.23	50.6851
1378.47	70.8157
1382.7	88.9356
1386.93	61.9539
1391.15	68.339
1395.38	90.6285
1399.6	87.6083
1403.82	127.493
1408.03	173.825
1412.25	100.866
1416.46	160.389
1420.67	124.26
1424.88	125.891
1429.08	85.3704
1433.28	157.791
1437.48	172.972
1441.68	182.483
1445.87	109.739
1450.07	149.393
1454.26	163.142
1458.44	142.175
1462.63	151.467
1466.81	142.647
1470.99	104.772
1475.17	75.3015
1479.34	119.275
1483.52	76.5286
1487.69	93.6609
1491.86	92.6421
1496.02	100.564
1500.19	57.4985
1504.35	37.5637
1508.51	142.819
1512.66	97.5315
1516.82	2.33398
1520.97	38.9707
1525.12	71.4658
1529.26	93.2471
1533.41	42.4722
1537.55	76.3718
1541.69	102.959
1545.83	77.7898
1549.96	1.34009
1554.09	132.758
1558.22	49.0603
1562.35	0
