Measurement: Raman, 514 nm, ccw, Raman Data Processed
Mineral: Grossular
Rruff sample: R050036
Ideal chemistry: Ca_3_Al_2_(SiO_4_)_3_
Locality: Wah Wah Mountains, Utah, USA
Source: Eugene Schlepp
Description: Colorless single crystal in rhyolite matrix
Measured chemistry: (Ca_2.95_Mg_0.05_)_Σ=3_(Al_1.70_Fe^3+^_0.30_)_Σ=2_(Si_1.00_O_4_)_3_; trace amounts of P
Pin_id: L00123
Orientation: Laser parallel to c* (0 0 1). Fiducial mark perpendicular to laser is parallel to a [1 0 0]
Raman shift (cm-1)	intensity
117.136	0
121.31	109.694
125.482	128.634
129.653	3.468
133.821	55.006
137.987	169.323
142.152	146.51
146.314	281.995
150.474	133.887
154.633	72.689
158.789	74.865
162.943	25.293
167.095	82.722
171.246	255.098
175.394	870.312
179.54	4219.04
183.684	1588.25
187.826	277.883
191.967	247.944
196.105	118.453
200.241	69.543
204.375	51.16
208.507	83.189
212.638	104.428
216.766	18.265
220.892	38.781
225.016	5.659
229.139	37.656
233.259	151.193
237.377	444.979
241.493	479.012
245.608	393.171
249.72	357.338
253.83	231.72
257.939	156.316
262.045	311.31
266.15	486.693
270.252	492.455
274.353	428.585
278.451	517.648
282.548	445.194
286.642	652.842
290.735	500.554
294.826	187.444
298.914	274.979
303.001	202.485
307.086	389.806
311.168	487.075
315.249	714.369
319.328	511.727
323.405	587.947
327.48	893.965
331.553	860.59
335.624	827.735
339.693	795.022
343.76	1032.6
347.826	1530.47
351.889	1748.69
355.95	2687.26
360.01	5036.14
364.067	11324.1
368.123	19762.8
372.176	22583.8
376.228	28597.6
380.277	14958.1
384.325	6487.35
388.371	3325.06
392.415	2224.45
396.457	1476.41
400.497	1088.61
404.535	1120.98
408.571	1803.57
412.605	3075.64
416.638	1869.21
420.668	612.301
424.697	145.519
428.723	118.856
432.748	52.316
436.77	64.146
440.791	119.436
444.81	193.074
448.827	226.773
452.842	480.529
456.855	514.346
460.867	628.223
464.876	472.15
468.883	416.129
472.889	250.156
476.892	334.229
480.894	488.342
484.894	492.75
488.892	447.514
492.888	795.098
496.882	927.18
500.874	871.312
504.865	771.961
508.853	566.354
512.84	371.949
516.824	458.967
520.807	394.096
524.788	657.391
528.767	516.742
532.744	812.953
536.719	1643.86
540.693	3795.33
544.664	8509.62
548.634	4564.65
552.601	1537.51
556.567	729.941
560.531	525.549
564.493	371.348
568.453	550.979
572.412	454.156
576.368	461.908
580.323	476.314
584.275	549.541
588.226	673.172
592.175	575.562
596.122	374.908
600.068	566.574
604.011	608.029
607.952	869.266
611.892	840.285
615.83	761.08
619.766	921.648
623.7	1261.99
627.632	1302.09
631.563	771.969
635.491	311.605
639.418	281.006
643.343	160.162
647.266	64.506
651.187	32.326
655.106	104.195
659.024	163.408
662.939	140.666
666.853	67.48
670.765	43.777
674.675	190.414
678.583	24.646
682.49	60.715
686.394	33.266
690.297	173.344
694.198	9.301
698.097	148.477
701.995	153.066
705.89	54.127
709.784	15.4
713.675	54.629
717.565	144.299
721.453	66.314
725.34	112.641
729.224	41.365
733.107	3.527
736.988	127.961
740.867	145.879
744.744	323.584
748.62	271.078
752.493	98.439
756.365	215.646
760.235	262.674
764.103	289.537
767.969	296.238
771.834	182.785
775.697	169.186
779.558	325.441
783.417	401.561
787.274	657.549
791.13	573.434
794.983	409.252
798.835	694.715
802.686	1109.34
806.534	1847.48
810.38	2540.68
814.225	2895.54
818.068	3924.66
821.909	4939.77
825.749	4983.62
829.586	4712.67
833.422	4040.37
837.256	3752.04
841.088	3607.82
844.919	4029.09
848.748	3919.53
852.575	4088.12
856.4	3955.31
860.223	4639.78
864.045	6264.12
867.864	9564.22
871.682	14418.7
875.499	22366.9
879.313	25842.8
883.126	20099.1
886.937	12849.9
890.746	8337.17
894.553	5433.66
898.359	3821.51
902.163	2749.63
905.965	2420.17
909.765	2378.25
913.564	2106.53
917.361	1425.04
921.156	1453.82
924.949	832.768
928.74	991.949
932.53	811.375
936.318	1021.05
940.104	1070.97
943.889	985.787
947.672	917.834
951.453	880.408
955.232	523.139
959.01	687.586
962.785	281.236
966.559	471.201
970.332	385.6
974.102	493.725
977.871	556.879
981.638	930.443
985.404	1009.52
989.167	1174.04
992.929	1109.1
996.689	1144.85
1000.45	1371.06
1004.2	1567.73
1007.96	1844.94
1011.71	1052.71
1015.46	831.023
1019.21	429.746
1022.96	199.072
1026.71	88.473
1030.45	278.236
1034.19	209.053
1037.94	289.609
1041.68	341.227
1045.41	77.291
1049.15	42.115
1052.88	99.996
1056.62	342.033
1060.35	434.281
1064.08	356.74
1067.8	129.412
1071.53	102.299
1075.25	85.385
1078.97	309.381
1082.7	203.17
1086.41	417.213
1090.13	201.467
1093.85	235.807
1097.56	9.803
1101.27	25.35
1104.98	90.721
1108.69	224.318
1112.4	259.354
1116.1	133.869
1119.81	71.68
1123.51	193.246
1127.21	17.699
1130.91	116.807
1134.61	354.223
1138.3	187.609
1141.99	305.373
1145.68	203.846
1149.38	391.469
1153.06	68.93
1156.75	200.25
1160.43	371.07
1164.12	195.348
1167.8	421.189
1171.48	260.6
1175.16	148.252
1178.83	14.758
1182.51	191.773
1186.18	30.176
1189.85	197.076
1193.52	351.594
1197.19	162.229
1200.86	323.031
1204.52	268.061
1208.19	311.789
1211.85	295.246
1215.51	277.67
1219.17	489.031
1222.82	623.156
1226.48	1015.18
1230.13	770.906
1233.78	534.049
1237.43	860.836
1241.08	685.959
1244.73	362.074
1248.37	420.809
1252.01	684.029
1255.66	872.094
1259.3	827.873
1262.93	506.84
1266.57	618.443
1270.21	361.305
1273.84	156.029
1277.47	23.404
1281.1	151.455
1284.73	515.062
1288.36	267.789
1291.98	548.943
1295.6	389.549
1299.23	190.576
1302.85	121.758
1306.46	10.039
1310.08	266.844
1313.7	243.43
1317.31	418.734
1320.92	443.645
1324.53	487.215
1328.14	300.582
1331.75	322.473
1335.35	114.25
1338.96	74.922
1342.56	61.629
1346.16	190.918
1349.76	469.797
1353.36	628.078
1356.95	825.793
1360.55	632.965
1364.14	509.66
1367.73	356.234
1371.32	136.293
1374.91	39.215
1378.49	37.422
1382.08	241.02
1385.66	708.996
1389.24	565.789
1392.82	912.32
1396.4	958.312
1399.97	945.359
1403.55	609.867
1407.12	373.23
1410.69	395.816
1414.26	429.016
1417.83	170.301
1421.4	247.059
1424.96	709.605
1428.53	743.566
1432.09	963.973
1435.65	980.844
1439.21	755.16
1442.76	812.004
1446.32	255.742
1449.87	343.742
1453.43	183.746
1456.98	298.098
1460.53	564.574
1464.07	796.535
1467.62	950.867
1471.16	1038.97
1474.71	1338.13
1478.25	1209.1
1481.79	866.852
1485.32	471.672
1488.86	515.996
1492.39	251.664
1495.93	357.957
1499.46	196.453
1502.99	218.305
1506.52	555.746
1510.05	709.82
1513.57	815.094
1517.09	419.59
