Measurement: Raman, 514 nm, ccw, Raman Data Processed
Mineral: Grossular
Rruff sample: R060382
Ideal chemistry: Ca_3_Al_2_(SiO_4_)_3_
Locality: Lalatema, near Mount Kilimanjaro, Tanzania
Source: Herb Obodda
Description: Pale tan colored fragment
Measured chemistry: (Ca_2.95_Mg_0.03_Mn_0.02_)_Σ=3_Al_2.00_((Si_0.99_Ti_0.01_)_Σ=1_O_4_)_3_; trace amounts of Fe
Pin_id: L01581
Orientation: Laser parallel to -a* (-1 0 0). Fiducial mark perpendicular to laser is parallel to 0 1 0
Raman shift (cm-1)	intensity
118.534	0
122.247	8.39099
125.959	7.93579
129.67	4.11719
133.379	65.3269
137.086	43.8813
140.791	33.3404
144.495	28.0979
148.197	8.63879
151.898	22.3561
155.597	71.7288
159.294	26.3057
162.989	56.6647
166.683	87.8258
170.376	172.147
174.066	354.505
177.755	622.928
181.442	1203.52
185.128	740.245
188.812	237.076
192.495	26.7012
196.175	39.6287
199.854	25.5277
203.532	24.4479
207.208	9.41443
210.882	40.1609
214.555	39.8062
218.226	4.51538
221.895	13.3142
225.563	18.0273
229.229	34.3
232.893	16.3619
236.556	39.4359
240.217	49.5176
243.877	54.5858
247.535	47.5964
251.191	38.5809
254.846	48.5082
258.499	92.3743
262.15	77.1794
265.8	10.2756
269.449	57.9453
273.095	75.2009
276.74	143.306
280.384	132.694
284.026	70.1255
287.666	32.595
291.304	8.38965
294.941	64.5391
298.577	54.6833
302.211	112.999
305.843	65.3738
309.473	107.39
313.103	220.053
316.73	260.513
320.356	293.581
323.98	259.568
327.603	288.974
331.224	311.146
334.843	202.842
338.461	230.989
342.077	253.632
345.692	263.342
349.305	357.422
352.916	521.161
356.526	834.358
360.135	1495.5
363.741	2488.41
367.347	4559.31
370.95	6277.63
374.552	7226.38
378.153	5384.47
381.751	2552.6
385.349	1235.58
388.944	698.525
392.539	486.425
396.131	424.281
399.722	412.089
403.312	315.847
406.899	452.578
410.486	631.93
414.07	1029.58
417.654	1387.19
421.235	796.775
424.815	265.301
428.394	151.802
431.971	129.236
435.546	65.5918
439.12	31.1748
442.692	49.6277
446.263	9.16895
449.832	19.7476
453.399	27.4988
456.966	56.0591
460.53	50.4228
464.093	11.4226
467.654	23.5727
471.214	5.38769
474.772	0.613037
478.329	65.7683
481.884	35.7888
485.438	31.4477
488.99	50.7776
492.541	56.0261
496.09	85.9014
499.637	69.4514
503.183	94.9309
506.728	97.1982
510.271	92.6387
513.812	139.382
517.352	3.1355
520.89	136
524.427	278.116
527.962	256.886
531.496	232.742
535.028	175.152
538.559	349.325
542.088	705.063
545.615	1299.02
549.141	2153.7
552.666	1528.25
556.189	674.907
559.711	408.144
563.231	309.25
566.749	256.566
570.266	233.696
573.782	230.918
577.296	184.036
580.808	184.752
584.319	221.158
587.828	313.368
591.336	325.816
594.843	218.072
598.348	179.111
601.851	215.773
605.353	201.072
608.853	207.071
612.352	181.03
615.85	165.94
619.345	208.3
622.84	259.96
626.333	300.098
629.824	298.687
633.314	226.055
636.802	236.599
640.289	197.729
643.775	158.207
647.259	172.49
650.741	174.141
654.222	125.989
657.702	104.041
661.18	142.068
664.656	76.3574
668.131	27.4355
671.605	61.5312
675.077	68.1209
678.547	94.2075
682.016	69.8005
685.484	24.1052
688.95	37.4067
692.415	100.396
695.878	98.9385
699.34	122.978
702.8	26.4858
706.259	71.4424
709.716	116.806
713.172	68.6238
716.626	16.7554
720.079	55.1406
723.53	32.6958
726.98	44.377
730.429	13.436
733.876	101.848
737.321	13.4429
740.765	16.7602
744.208	29.6768
747.649	5.96973
751.089	95.9561
754.527	73.3618
757.964	45.0205
761.399	78.6968
764.833	110.816
768.266	95.4624
771.697	229.207
775.126	389.839
778.554	402.35
781.981	364.577
785.406	348.158
788.83	238.601
792.252	231.833
795.673	259.448
799.093	290.557
802.511	384.805
805.927	441.041
809.342	656.951
812.756	660.204
816.168	774.04
819.579	836.988
822.988	885.96
826.396	886.329
829.802	887.754
833.208	757.412
836.611	734.151
840.013	698.426
843.414	812.938
846.813	887.332
850.211	939.024
853.608	1028.7
857.003	1164.65
860.396	1399.21
863.789	1876.2
867.179	2667.41
870.569	4226.91
873.957	6665.25
877.343	10082.2
880.728	11245.2
884.112	8925.79
887.494	6167.13
890.875	4647.66
894.254	3636.09
897.632	2812.97
901.009	1678.5
904.384	990.301
907.758	671.981
911.13	508.721
914.501	472.487
917.871	406.64
921.239	288.752
924.606	279.787
927.971	334.354
931.335	349.853
934.698	271.392
938.059	270.151
941.418	181.879
944.777	93.6401
948.134	48.9985
951.489	153.587
954.843	80.9453
958.196	78.7353
961.548	15.831
964.897	29.5527
968.246	53.3799
971.593	0.71875
974.939	116.292
978.283	151.347
981.626	206.482
984.968	197.427
988.308	288.706
991.647	223.901
994.985	338.835
998.321	462.781
1001.65	320.166
1004.99	370.589
1008.32	621.202
1011.65	663.085
1014.98	836.462
1018.31	982.523
1021.63	564.363
1024.96	226.292
1028.28	292.638
1031.61	166.67
1034.93	168.815
1038.25	162.562
1041.56	150.361
1044.88	89.6318
1048.2	105.935
1051.51	130.869
1054.82	263.987
1058.13	286.206
1061.44	303.381
1064.75	199.457
1068.06	61.1309
1071.37	160.543
1074.67	108.644
1077.97	129.666
1081.28	150.708
1084.58	98.3809
1087.88	101.767
1091.17	92.2969
1094.47	25.2852
1097.77	23.7041
1101.06	34.3145
1104.35	52.4307
1107.64	12.0352
1110.93	13.5352
1114.22	31.8311
1117.51	109.967
1120.79	17.9609
1124.08	130.805
1127.36	112.116
1130.64	73.1963
1133.92	415.285
1137.2	320.113
1140.48	457.103
1143.76	444.433
1147.03	447.231
1150.3	359.073
1153.58	288.991
1156.85	485.836
1160.12	311.524
1163.38	295.417
1166.65	367.565
1169.92	423.634
1173.18	263.574
1176.44	419.727
1179.7	463.832
1182.96	221.117
1186.22	289.32
1189.48	259.158
1192.74	42.6055
1195.99	86.3164
1199.25	28.9766
1202.5	212.85
1205.75	144.875
1209	139.641
1212.25	114.826
1215.49	27.6777
1218.74	327.055
1221.98	176.412
1225.23	178.359
1228.47	333.973
1231.71	360.57
1234.95	192.315
1238.19	70.041
1241.42	84.2324
1244.66	286.69
1247.89	83.4531
1251.12	261.68
1254.36	429.357
1257.59	228.799
1260.81	12.7188
1264.04	0.900391
