Measurement: Raman, 514 nm, ccw, Raman Data Processed
Mineral: Grossular
Rruff sample: R050081
Ideal chemistry: Ca_3_Al_2_(SiO_4_)_3_
Locality: Kayes Region, Mali
Source: Rock Currier
Description: Dark brown dodecahedron
Measured chemistry: (Ca_2.92_Mg_0.07_Mn_0.01_)_Σ=3_(Al_1.04_Fe^3+^_0.89_Ti_0.07_)_Σ=2_((Si_0.98_Al_0.02_)_Σ=1_O_4_)_3_; trace amounts of Y
Pin_id: L00149
Orientation: Laser parallel to c* (0 0 1). Fiducial mark perpendicular to laser is parallel to a [1 0 0]
Raman shift (cm-1)	intensity
151.324	0
155.481	139.584
159.636	1.696
163.789	76.034
167.939	246.354
172.088	771.569
176.234	1591
180.379	1112.17
184.521	575.146
188.662	377.855
192.8	243.667
196.937	241.941
201.071	169.181
205.203	116.265
209.333	32.517
213.462	34.86
217.588	49.263
221.712	1.801
225.834	49.432
229.954	304.505
234.072	393.19
238.188	383.953
242.302	375.511
246.414	330.629
250.523	271.089
254.631	256.653
258.737	255.216
262.841	305.725
266.943	433.667
271.042	499.979
275.14	684.532
279.236	806.493
283.33	752.891
287.421	543.995
291.511	604.161
295.599	692.772
299.684	848.769
303.768	842.136
307.85	913.856
311.929	937.826
316.007	1174.5
320.083	1343.34
324.156	1471.7
328.228	1525.41
332.298	1535.49
336.365	1727.55
340.431	2036.36
344.495	2689.2
348.556	4267.07
352.616	6712.65
356.674	12105.8
360.729	15428.6
364.783	15301
368.835	19633.3
372.884	23103.4
376.932	16776
380.978	9373
385.022	5428.31
389.064	3464.72
393.104	2551.39
397.141	2204.93
401.177	1764.97
405.211	897.576
409.243	520.593
413.273	118.874
417.301	25.978
421.327	17.425
425.351	6.623
429.374	38.739
433.394	123.291
437.412	206.476
441.428	332.812
445.443	408.292
449.455	343.904
453.465	394.608
457.474	366.422
461.48	263.35
465.485	163.385
469.487	84.479
473.488	0.709
477.487	11.644
481.483	296.667
485.478	668.818
489.471	766.146
493.462	857.172
497.451	740.387
501.438	681.643
505.423	669.943
509.406	597.306
513.388	530.747
517.367	810.274
521.344	1702.89
525.32	3689.59
529.293	6948.95
533.265	6725.56
537.234	3175.4
541.202	1299.12
545.168	715.817
549.132	558.361
553.094	461.028
557.054	321.422
561.012	337.852
564.968	317.854
568.923	192.269
572.875	98.254
576.825	54.039
580.774	104.885
584.721	214.595
588.665	255.166
592.608	419.868
596.549	566.453
600.488	686.919
604.425	770.262
608.361	834.48
612.294	851.569
616.225	898.528
620.155	731.356
624.083	471.051
628.008	190.735
631.932	83.261
635.854	135.015
639.774	208.156
643.693	315.164
647.609	367.036
651.523	387.772
655.436	496.371
659.346	567.832
663.255	727.153
667.162	875.333
671.067	823.369
674.97	577.261
678.871	337.005
682.771	150.601
686.668	68.037
690.564	29.744
694.458	62.02
698.35	47.975
702.24	96.677
706.128	100.146
710.014	89.429
713.898	92.521
717.781	128.469
721.662	30.396
725.541	4.677
729.418	71.55
733.293	215.843
737.166	432.198
741.037	528.962
744.907	855.765
748.775	1132.45
752.64	1382.02
756.504	1804.48
760.367	2014.87
764.227	2234.12
768.085	2132.27
771.942	1764.43
775.797	1570.57
779.65	1403.71
783.501	1417.85
787.35	1448.65
791.197	1638.5
795.043	1826.51
798.887	2122.51
802.728	2533.42
806.568	3137.26
810.407	3397.03
814.243	3827.71
818.078	4021.32
821.91	4228.85
825.741	3979.3
829.57	3660.69
833.398	3392.01
837.223	3257.11
841.047	3452.39
844.868	3436.84
848.688	3619.1
852.507	3766.64
856.323	4256.49
860.137	4952.44
863.95	6244.2
867.761	7640.4
871.57	9548.52
875.377	10930.5
879.183	11382.6
882.987	9900.64
886.788	7760.07
890.588	5868.13
894.387	4353.28
898.183	3328.77
901.978	2733.72
905.771	2194.71
909.562	1903.77
913.351	1740.14
917.138	1726.53
920.924	1730.03
924.708	1779.76
928.49	1828.34
932.27	1934.59
936.048	2001.89
939.825	1931.33
943.6	1878.59
947.373	1573.75
951.144	1237.97
954.914	1106.38
958.682	1117.16
962.448	1438.71
966.212	1539.32
969.974	1770.02
973.735	1927.81
977.494	1991.7
981.251	2021.7
985.006	1921.83
988.76	1861.1
992.512	1809.45
996.262	1872.08
1000.01	1748.46
1003.76	1559.69
1007.5	1361.19
1011.24	1245.23
1014.99	1146.97
1018.72	977.333
1022.46	931.113
1026.2	726.341
1029.93	354.653
1033.66	100.916
1037.39	57.423
1041.12	26.143
1044.85	81.197
1048.58	74.546
1052.3	18.109
1056.02	25.625
1059.74	2.417
1063.46	269.926
1067.18	14.857
1070.89	68.698
1074.6	30.788
1078.32	36.082
1082.03	33.407
1085.73	17.913
1089.44	23.668
1093.14	19.381
1096.85	38.643
1100.55	62.814
1104.25	40.383
1107.94	14.967
1111.64	55.349
1115.33	42.477
1119.03	62.2
1122.72	176.004
1126.4	135.335
1130.09	55.532
1133.78	61.37
1137.46	63.575
1141.14	58.803
1144.82	64.301
1148.5	103.443
1152.18	87.902
1155.85	87.988
1159.53	93.92
1163.2	81.373
1166.87	24.597
1170.54	16.427
1174.2	66.145
1177.87	116.572
1181.53	129.414
1185.19	109.007
1188.85	125.568
1192.51	150.32
1196.16	111.405
1199.82	163.442
1203.47	183.73
1207.12	163.928
1210.77	205.772
1214.42	219.957
1218.07	176.254
1221.71	137.242
1225.35	142.785
1228.99	102.41
1232.63	113.046
1236.27	147.151
1239.91	110.783
1243.54	104.708
1247.17	90.779
1250.8	0.196
1254.43	15.365
1258.06	83.892
1261.69	20.386
1265.31	89.454
1268.93	81.305
1272.55	162.726
1276.17	2.897
1279.79	45.722
1283.4	26.435
1287.02	12.549
1290.63	10.647
1294.24	18.677
1297.85	26.356
1301.46	43.135
1305.06	0.974
1308.67	31.625
1312.27	46.2
1315.87	2.492
1319.47	10.983
1323.07	20.623
1326.66	15.789
1330.26	34.739
1333.85	10.81
1337.44	68.808
1341.03	130.968
1344.61	70.582
1348.2	89.285
1351.78	63.617
1355.37	6.503
1358.95	44.209
1362.53	86.583
1366.1	96.689
1369.68	77.536
1373.25	68.899
1376.82	85.169
1380.39	99.311
1383.96	92.911
1387.53	112.651
1391.1	62.493
1394.66	67.471
1398.22	105.053
1401.79	93.524
1405.34	102.776
1408.9	121.105
1412.46	178.743
1416.01	188.858
1419.56	138.647
1423.12	50.752
1426.66	64.936
1430.21	62.275
1433.76	31.108
1437.3	29.056
1440.85	15.256
1444.39	22.128
1447.93	43.5
1451.46	27.827
1455	119.66
1458.54	69.861
1462.07	80.427
1465.6	0.757
1469.13	35.428
1472.66	18.861
1476.18	5.065
1479.71	26.262
1483.23	102.89
1486.76	65.059
1490.28	93.027
1493.79	101.56
1497.31	90.642
1500.83	64.557
1504.34	105.403
1507.85	105.661
1511.36	26.877
1514.87	14.552
1518.38	22.397
1521.88	0.352
