Measurement: Raman, 514 nm, ccw, Raman Data Processed
Mineral: Grossular
Rruff sample: R060499
Ideal chemistry: Ca_3_Al_2_(SiO_4_)_3_
Locality: Lake Jaco, Chihuahua, Mexico
Source: Michael Scott
Description: Tan colored single dodecahedral crystal
Measured chemistry: (Ca_2.90_Mg_0.10_)_Σ=3_(Al_1.78_Fe^3+^_0.19_Ti_0.03_)_Σ=2_(Si_1.00_O_4_)_3_
Pin_id: L01514
Orientation: Laser parallel to -a* (-1 0 0). Fiducial mark perpendicular to laser is parallel to -c [0 0 -1]
Raman shift (cm-1)	intensity
125.959	0
130.906	46.1787
135.85	43.427
140.791	67.6465
145.729	21.7129
150.664	43.7563
155.597	8.25684
160.526	65.3069
165.452	329.572
170.376	727.156
175.296	2818.22
180.213	7657.25
185.128	1345.37
190.04	182.882
194.949	47.6643
199.854	177.641
204.757	64.2717
209.657	85.9768
214.555	16.2214
219.449	18.5161
224.34	9.90503
229.229	162.116
234.114	771.18
238.997	1049.13
243.877	1111.89
248.754	881.468
253.628	678.941
258.499	867.45
263.367	933.067
268.233	1160.82
273.095	1475.79
277.955	1498.57
282.812	1420.49
287.666	1351.07
292.517	700.548
297.365	330.475
302.211	415.051
307.053	807.788
311.893	1012.28
316.73	1007.31
321.564	1316.85
326.395	1649.93
331.224	1593.82
336.049	1512.73
340.872	1902.36
345.692	2394.4
350.509	3541.83
355.323	5992.54
360.135	12414.5
364.943	28117.7
369.749	38439.5
374.552	46443.5
379.352	25854.8
384.15	11251.9
388.944	5819.98
393.736	3523.81
398.525	2826.32
403.312	2836.2
408.095	4606.47
412.876	6620.27
417.654	2955.93
422.429	1011.5
427.201	269.678
431.971	37.8716
436.737	24.1977
441.501	65.3306
446.263	167.504
451.021	387.384
455.777	666.197
460.53	584.904
465.28	617.466
470.028	665.842
474.772	674.991
479.514	552.872
484.254	619.444
488.99	947.669
493.724	1399.51
498.455	1506.94
503.183	1247.94
507.909	886.46
512.632	463.066
517.352	500.964
522.069	906.646
526.784	848.576
531.496	1215.76
536.205	3071.95
540.912	9141.06
545.615	13876.6
550.317	4934
555.015	1914.55
559.711	1588.49
564.404	1517.02
569.094	1626.09
573.782	1467.77
578.467	1225.88
583.149	1123.86
587.828	1138.38
592.505	887.574
597.179	896.131
601.851	1287.1
606.52	1765.44
611.186	2082.15
615.85	2165.2
620.51	2525.56
625.169	2833.22
629.824	2694.15
634.477	1906.35
639.127	1052.79
643.775	405.373
648.42	122.34
653.062	74.6931
657.702	38.4341
662.339	53.1902
666.973	89.0396
671.605	120.102
676.234	39.189
680.86	28.9917
685.484	22.1096
690.105	107.684
694.724	136.302
699.34	58.3301
703.953	11.5535
708.564	37.1931
713.172	30.9368
717.777	16.6919
722.38	12.6868
726.98	44.0183
731.578	135.975
736.173	432.37
740.765	744.226
745.355	1314.57
749.943	1621.43
754.527	1811.83
759.109	2203.8
763.689	3298.37
768.266	4996.56
772.84	6233.42
777.412	5266.96
781.981	3709.22
786.548	2863.28
791.112	2467.71
795.673	2577.35
800.232	2653.44
804.788	3207.84
809.342	4237.82
813.893	5178.42
818.442	6364.65
822.988	6832.89
827.532	6456.36
832.073	5766.88
836.611	5332.2
841.147	5375.07
845.68	5461.95
850.211	5934.02
854.74	6630.28
859.265	8088.2
863.789	11554.3
868.309	19064.9
872.827	32570.1
877.343	41691.1
881.856	32366.7
886.367	18727
890.875	10726.1
895.381	6940.92
899.884	5103.49
904.384	4468.82
908.882	3850.93
913.378	3751.83
917.871	3894.08
922.361	3908.81
926.849	3798.86
931.335	3655.91
935.818	3631.41
940.299	3618.85
944.777	3269.52
949.252	2796.53
953.726	2150.96
958.196	1572.51
962.664	1068.77
967.13	1316.51
971.593	2271.44
976.054	3125.15
980.512	3764.6
984.968	3763.47
989.421	3707.85
993.872	3618.99
998.321	3517.77
1002.77	3449.01
1007.21	3120.64
1011.65	1920.64
1016.09	1250
1020.53	962.715
1024.96	937.814
1029.39	1219.2
1033.82	868.873
1038.25	401.788
1042.67	150.92
1047.09	18.2559
1051.51	1.77759
1055.93	89.6621
1060.34	20.177
1064.75	107.698
1069.16	113.32
1073.57	66.6606
1077.97	116.647
1082.38	70.2129
1086.78	42.6816
1091.17	74.9109
1095.57	8.05542
1099.96	44.9446
1104.35	1.09082
1108.74	15.406
1113.12	11.1301
1117.51	210.231
1121.89	302.01
1126.27	273.448
1130.64	256.504
1135.02	266.171
1139.39	391.512
1143.76	434.364
1148.12	405.498
1152.48	372.559
1156.85	453.866
1161.2	406.824
1165.56	382.798
1169.92	400.205
1174.27	364.854
1178.62	322.078
1182.96	291.591
1187.31	212.694
1191.65	227.325
1195.99	180.098
1200.33	212.201
1204.67	251.503
1209	258.516
1213.33	224.039
1217.66	197.635
1221.98	260.867
1226.31	182.292
1230.63	236.664
1234.95	137.422
1239.27	292.207
1243.58	177.535
1247.89	198.315
1252.2	188.138
1256.51	122.311
1260.81	219.657
1265.12	134.06
1269.42	130.902
1273.72	116.946
1278.01	44.7085
1282.31	41.001
1286.6	44.8325
1290.88	21.761
1295.17	56.5454
1299.46	29.5061
1303.74	33.2102
1308.02	44.6328
1312.3	56.7739
1316.57	36.6497
1320.84	89.5364
1325.11	51.8835
1329.38	179.565
1333.65	75.99
1337.91	164.575
1342.17	126.118
1346.43	152.936
1350.69	43.5994
1354.94	84.1792
1359.2	17.6658
1363.45	1.36841
1367.69	86.1709
1371.94	6.59521
1376.18	23.9338
1380.42	23.7524
1384.66	101.512
1388.9	97.6209
1393.13	1.70874
1397.37	48.9956
1401.6	26.7063
1405.82	2.80176
1410.05	62.3242
1414.27	61.2227
1418.49	118.706
1422.71	111.132
1426.93	156.617
1431.14	139.238
1435.35	188.575
1439.56	135.468
1443.77	192.645
1447.97	216.54
1452.18	213.594
1456.38	224.797
1460.58	232.01
1464.77	264.667
1468.97	178.197
1473.16	259.299
1477.35	243.049
1481.54	212.149
1485.72	140.734
1489.9	100.339
1494.08	146.111
1498.26	70.9089
1502.44	89.9302
1506.61	33.1047
1510.79	59.2256
1514.95	129.25
1519.12	122.629
1523.29	78.5005
1527.45	4.09058
1531.61	93.6585
1535.77	127.791
1539.93	56.4304
1544.08	9.49902
1548.23	137.089
1552.38	82.9026
1556.53	133.333
1560.68	65.3601
