Measurement: Raman, 514 nm, ccw, Raman Data Processed
Mineral: Grossular
Rruff sample: R060442
Ideal chemistry: Ca_3_Al_2_(SiO_4_)_3_
Locality: Pakistan(?)
Source: Gemological Institute of America
Description: Orange crystals
Measured chemistry: (Ca_2.85_Fe^2+^_0.15_)_Σ=3_(Al_1.85_Fe^3+^_0.15_)_Σ=2_(Si_1.00_O_4_)_3_; trace amounts of Ti, Mg
Pin_id: M01870
Orientation: Laser parallel to a* (1 0 0). Fiducial mark perpendicular to laser is parallel to c [0 0 1]
Raman shift (cm-1)	intensity
129	0
133.933	62.8518
138.864	72.6019
143.791	87.3344
148.716	20.8691
153.638	105.303
158.558	7.30811
163.475	93.4092
168.389	385.383
173.3	1067.91
178.209	1916.69
183.115	730.029
188.018	352.696
192.918	203.517
197.816	83.4009
202.711	121.278
207.604	66.8489
212.494	74.5737
217.381	121.628
222.265	380.171
227.147	863.717
232.026	2108.33
236.902	3608.06
241.775	4517.88
246.646	4289.71
251.514	1198.68
256.38	562.813
261.243	737.132
266.103	1296.69
270.96	2600.52
275.815	4210.28
280.667	2128.15
285.516	1070.14
290.363	585.677
295.207	92.4131
300.048	55.4678
304.887	157.829
309.723	331.121
314.556	533.371
319.387	714.474
324.215	1511.59
329.04	1764.69
333.862	1235.72
338.682	1455.65
343.5	2200.46
348.314	2893.11
353.126	4412.26
357.935	8365.99
362.742	17361
367.546	32357.8
372.347	47798.3
377.145	28762.6
381.941	11491.9
386.735	5557.36
391.525	3160.93
396.313	2256.66
401.098	2076.52
405.881	2159.42
410.661	2538.28
415.438	1983.18
420.213	595.035
424.985	26.8591
429.754	115.398
434.521	80.0381
439.285	84.1641
444.046	44.2173
448.805	253.107
453.561	541.555
458.315	529.515
463.065	507.956
467.813	699.852
472.559	1056.18
477.302	1248.9
482.042	729.003
486.78	727.453
491.515	1000.23
496.247	1430.33
500.977	1793.74
505.704	2572.41
510.428	1735.31
515.15	1083.52
519.869	842.219
524.586	873.727
529.3	913.831
534.011	1867.67
538.719	5251.66
543.425	12798.5
548.129	11609.2
552.83	3640.53
557.528	1610.42
562.223	1173.8
566.916	1143.76
571.607	1034.73
576.294	856.217
580.979	825.475
585.662	785.475
590.341	697.924
595.019	360.367
599.693	540.377
604.365	746.938
609.035	927.035
613.701	1147.65
618.366	1519.78
623.027	2135.4
627.686	2352.5
632.342	1383.07
636.996	676.106
641.647	386.592
646.296	216.519
650.942	122.88
655.585	18.6522
660.226	2.55286
664.864	90.6298
669.499	21.318
674.132	60.4794
678.763	56.2168
683.39	47.4631
688.015	33.0677
692.638	66.0004
697.258	63.3939
701.875	42.0879
706.49	27.8279
711.102	32.963
715.712	17.1116
720.319	27.1612
724.923	26.9203
729.525	113.712
734.124	79.0693
738.721	124.013
743.315	260.559
747.907	350.726
752.496	542.53
757.082	721.988
761.666	1091.12
766.247	1576.94
770.826	1784.48
775.402	1831.08
779.975	1594.76
784.546	1467.55
789.115	1476.15
793.681	1696.43
798.244	2246.61
802.804	3270.1
807.363	4960.61
811.918	7386.6
816.471	11043.5
821.022	16182.9
825.569	17197.1
830.115	12904.8
834.657	9764.36
839.198	8356.87
843.735	8008.67
848.27	8369.77
852.803	8182.39
857.333	8850.64
861.86	10886.7
866.385	16313.3
870.907	28684.5
875.427	50073.1
879.944	60734
884.459	42742.4
888.971	23344.2
893.481	11820.5
897.988	7133.16
902.492	4982.29
906.994	3991.89
911.493	3121.94
915.99	2477.51
920.485	1974.13
924.976	1640.9
929.466	1373.75
933.952	1197.09
938.436	1289.65
942.918	1472
947.397	1536.55
951.874	1143.1
956.348	684.837
960.819	416.274
965.288	1291.06
969.755	720.89
974.219	1085.33
978.68	1592.41
983.139	1963.99
987.595	2216.23
992.049	2526.82
996.501	2941.74
1000.95	3757.97
1005.4	4690.46
1009.84	3589.22
1014.28	1795.22
1018.72	849.452
1023.16	367.902
1027.59	229.556
1032.02	264.4
1036.45	142.429
1040.88	68.6316
1045.3	63.0161
1049.72	2.44556
1054.14	2.19971
1058.56	26.1035
1062.97	19.6248
1067.38	88.1284
1071.79	29.0483
1076.19	35.1365
1080.6	13.5276
1085	6.56763
1089.4	5.33496
1093.79	11.2949
1098.19	15.3032
1102.58	34.8257
1106.97	40.9495
1111.35	19.1926
1115.74	53.9374
1120.12	84.4677
1124.5	185.789
1128.87	212.893
1133.25	179.766
1137.62	252.396
1141.99	231.774
1146.35	338.892
1150.72	415.806
1155.08	386.375
1159.44	460.731
1163.79	429.178
1168.15	355.696
1172.5	337.737
1176.85	314.005
1181.19	339.302
1185.54	286.457
1189.88	254.338
1194.22	137.685
1198.55	216.442
1202.89	203.596
1207.22	233.094
1211.55	250.965
1215.88	208.764
1220.2	319.179
1224.52	268.194
1228.84	264.362
1233.16	241.97
1237.47	298.409
1241.78	268.088
1246.09	398.188
1250.4	303.298
1254.7	321.165
1259.01	296.646
1263.31	346.801
1267.6	236.725
1271.9	199.524
1276.19	103.055
1280.48	98.311
1284.77	98.356
1289.05	66.198
1293.33	76.832
1297.61	77.2471
1301.89	13.436
1306.16	44.3572
1310.44	59.0618
1314.71	6.44556
1318.97	74.8474
1323.24	42.0005
1327.5	12.0117
1331.76	24.0469
1336.02	32.9336
1340.28	48.7131
1344.53	29.7375
1348.78	33.6172
1353.03	25.523
1357.27	78.3987
1361.52	41.3628
1365.76	6.5564
1370	20.3401
1374.23	48.823
1378.47	80.8701
1382.7	46.8176
1386.93	62.6731
1391.15	77.2524
1395.38	76.1606
1399.6	62.8152
1403.82	112.484
1408.03	113.06
1412.25	74.9121
1416.46	196.559
1420.67	126.793
1424.88	181.921
1429.08	135.164
1433.28	123.8
1437.48	232.049
1441.68	117.537
1445.87	181.08
1450.07	126.505
1454.26	152.42
1458.44	137.316
1462.63	68.3833
1466.81	157.183
1470.99	72.8296
1475.17	83.2837
1479.34	84.9177
1483.52	81.4565
1487.69	70.6575
1491.86	37.2329
1496.02	67.3994
1500.19	73.5735
1504.35	64.8005
1508.51	30.1365
1512.66	57.0708
1516.82	61.1982
1520.97	52.8486
1525.12	10.5842
1529.26	19.5796
1533.41	58.9951
1537.55	4.03076
1541.69	39.5945
1545.83	18.5232
1549.96	101.164
1554.09	120.889
1558.22	0.893555
1562.35	0
