Measurement: Raman, 514 nm, ccw, Raman Data Processed
Mineral: Grossular
Rruff sample: R050081
Ideal chemistry: Ca_3_Al_2_(SiO_4_)_3_
Locality: Kayes Region, Mali
Source: Rock Currier
Description: Dark brown dodecahedron
Measured chemistry: (Ca_2.92_Mg_0.07_Mn_0.01_)_Σ=3_(Al_1.04_Fe^3+^_0.89_Ti_0.07_)_Σ=2_((Si_0.98_Al_0.02_)_Σ=1_O_4_)_3_; trace amounts of Y
Pin_id: L00149
Orientation: Laser parallel to c* (0 0 1). Fiducial mark perpendicular to laser is parallel to a [1 0 0]
Raman shift (cm-1)	intensity
98.492	0
102.675	12.83
106.856	19.63
111.035	155.72
115.212	402.94
119.386	454.855
123.559	371.579
127.73	385.667
131.898	401.556
136.065	402.387
140.229	351.142
144.392	295.257
148.552	203.975
152.71	299.942
156.866	403.807
161.02	432.533
165.172	387.602
169.322	534.959
173.47	1110.47
177.616	1417.89
181.76	871.125
185.902	298.517
190.042	178.827
194.179	97.537
198.315	71.138
202.449	4.807
206.58	7.613
210.71	42.671
214.837	105.34
218.963	123.405
223.086	7.197
227.207	157.757
231.327	295.837
235.444	352.694
239.559	388.78
243.673	316.335
247.784	181.552
251.893	103.771
256	154.118
260.105	193.595
264.208	226.268
268.31	422.192
272.409	601.556
276.506	713.615
280.601	752.741
284.694	724.285
288.785	675.116
292.874	732.185
296.961	827.016
301.046	960.114
305.129	940.042
309.21	1008.11
313.289	1038.58
317.366	1216.86
321.441	1375.82
325.514	1313.69
329.585	1468.04
333.654	1555.5
337.721	1823.26
341.786	2087.25
345.849	2728.12
349.91	4195.15
353.969	7350.86
358.026	12394.4
362.081	14026.4
366.134	14742.5
370.185	20045.3
374.234	20701.3
378.281	13406.4
382.326	7439.63
386.369	4478.67
390.411	2829.11
394.45	2190.75
398.487	1904.61
402.522	1370.95
406.555	758.781
410.587	393.714
414.616	174.247
418.644	123.882
422.669	11.87
426.692	5.354
430.714	69.121
434.733	183.669
438.751	273.984
442.767	308.085
446.78	356.995
450.792	403.739
454.802	369.339
458.809	300.824
462.815	247.215
466.819	83.539
470.821	19.828
474.821	22.607
478.819	100.661
482.815	472.275
486.809	668.795
490.802	801.258
494.792	810.806
498.78	708.408
502.767	655.049
506.751	457.729
510.734	446.467
514.714	505.316
518.693	928.328
522.67	1897.95
526.644	4090.38
530.617	6838.16
534.588	5545.06
538.557	2306.17
542.524	960.937
546.489	553.815
550.453	429.594
554.414	443.764
558.374	369.409
562.331	293.573
566.287	217.257
570.24	153.095
574.192	36.414
578.142	6.038
582.09	122.182
586.036	199.908
589.98	324.495
593.922	453.985
597.862	618.469
601.801	682.851
605.737	766.368
609.672	727.315
613.605	860.401
617.536	802.389
621.464	624.279
625.391	380.073
629.317	165.683
633.24	70.703
637.161	118.149
641.081	130.515
644.998	254.777
648.914	279.938
652.828	354.009
656.74	310.581
660.65	223.786
664.558	270.519
668.464	216.139
672.368	249.645
676.271	162.033
680.171	131.293
684.07	75.408
687.967	6.651
691.862	106.019
695.755	65.018
699.646	109.601
703.536	37.9
707.423	64.793
711.309	94.277
715.193	89.473
719.075	96.956
722.955	24.248
726.833	61.526
730.709	122.296
734.584	230.04
738.457	451.846
742.327	638.667
746.196	837.678
750.063	1083.58
753.929	1322.44
757.792	1635.2
761.654	1981.87
765.513	2065.45
769.371	1801.94
773.227	1626.35
777.081	1449.71
780.933	1300.06
784.784	1237.38
788.633	1402.97
792.479	1449.35
796.324	1670.22
800.167	2114.28
804.009	2463.22
807.848	2958.05
811.686	3237.78
815.522	3495.4
819.355	3830.91
823.188	3775.32
827.018	3688.63
830.846	3340.75
834.673	3024.31
838.498	2966.12
842.321	3078.41
846.142	3199.14
849.961	3305.88
853.779	3515.95
857.595	4039.28
861.409	4839.61
865.221	6010.03
869.031	7322.89
872.839	8953.08
876.646	10165.8
880.451	9777.71
884.254	8062.41
888.055	6328.8
891.855	4665.08
895.652	3638.35
899.448	2793
903.242	2176.16
907.034	1937.81
910.825	1774.6
914.613	1654.07
918.4	1720.03
922.185	1696.72
925.969	1599.71
929.75	1684.86
933.53	1911.3
937.308	2008.85
941.084	1891.03
944.858	1639.75
948.63	1432.56
952.401	1166.29
956.17	1140.97
959.937	1211.56
963.703	1389.23
967.466	1508.9
971.228	1685.42
974.988	1684
978.746	1790.71
982.503	1843.5
986.258	1796.33
990.011	1822.24
993.762	1689.09
997.511	1683.21
1001.26	1439.83
1005	1135.76
1008.75	681.919
1012.49	535.721
1016.23	511.775
1019.97	650.35
1023.71	722.463
1027.44	566.806
1031.18	213.028
1034.91	175.226
1038.64	54.567
1042.37	66.639
1046.09	26.073
1049.82	31.305
1053.54	39.823
1057.26	4.595
1060.98	22.378
1064.7	16.342
1068.41	12.552
1072.13	22.696
1075.84	93.087
1079.55	65.736
1083.26	81.648
1086.97	39.229
1090.67	22.099
1094.38	31.869
1098.08	9.914
1101.78	53.794
1105.48	73.66
1109.18	84.585
1112.87	55.18
1116.57	82.256
1120.26	89.538
1123.95	78.045
1127.63	81.55
1131.32	75.141
1135.01	70.429
1138.69	67.37
1142.37	164.088
1146.05	142.043
1149.73	119.331
1153.4	49.104
1157.08	47.795
1160.75	80.176
1164.42	67.41
1168.09	126.546
1171.76	99.802
1175.42	115.705
1179.09	121.752
1182.75	88.356
1186.41	124.466
1190.07	171.52
1193.73	133.692
1197.38	143.551
1201.04	198.396
1204.69	192.812
1208.34	228.315
1211.99	158.862
1215.64	169.605
1219.28	208.36
1222.92	166.415
1226.57	221.106
1230.21	176.046
1233.85	161.939
1237.48	86.245
1241.12	97.888
1244.75	112.627
1248.38	106.347
1252.01	62.791
1255.64	79.894
1259.27	86.262
1262.89	102.899
1266.52	67.947
1270.14	46.965
1273.76	83.896
1277.38	49.771
1280.99	94.6
1284.61	51.867
1288.22	46.831
1291.83	7.8
1295.44	12.964
1299.05	37.486
1302.66	20.191
1306.26	4.89
1309.87	78.87
1313.47	27.166
1317.07	26.604
1320.67	33.471
1324.26	45.546
1327.86	75.673
1331.45	82.66
1335.04	48.548
1338.63	9.516
1342.22	23.479
1345.81	11.374
1349.39	112.915
1352.98	111.293
1356.56	103.005
1360.14	95.787
1363.72	126.689
1367.29	115.928
1370.87	9.801
1374.44	77.863
1378.02	87.244
1381.59	130.605
1385.15	143.29
1388.72	151.089
1392.29	140.45
1395.85	210.064
1399.41	229.593
1402.97	190.682
1406.53	246.914
1410.09	185.911
1413.64	101.816
1417.2	210.704
1420.75	103.113
1424.3	175.662
1427.85	127.324
1431.39	106.648
1434.94	176.066
1438.48	91.717
1442.03	237.983
1445.57	227.025
1449.11	252.098
1452.64	130.938
1456.18	185.979
1459.71	10.653
1463.25	165.217
1466.78	209.619
1470.31	125.077
1473.83	142.048
1477.36	161.116
1480.88	130.003
1484.41	95.886
1487.93	54.145
1491.45	61.695
1494.97	65.695
1498.48	2.142
1502	13.195
1505.51	45.725
1509.02	9.104
1512.53	39.884
1516.04	0.131
