Measurement: Raman, 514 nm, ccw, Raman Data Processed
Mineral: Grossular
Rruff sample: R040066
Ideal chemistry: Ca_3_Al_2_(SiO_4_)_3_
Locality: Redding, Connecticut, USA
Source: University of Arizona Mineral Museum
Description: Reddish orange coarsely crystalline
Measured chemistry: (Ca_2.90_Fe^2+^_0.08_Mn_0.02_)_Σ=3_(Al_1.87_Fe^3+^_0.13_)_Σ=2_(Si_1.00_O_4_)_3_
Pin_id: M00416
Orientation: Laser parallel to a* (1 0 0). Fiducial mark perpendicular to laser is parallel to b [0 1 0]
Raman shift (cm-1)	intensity
163.938	0
168.095	105.554
172.25	166.519
176.403	1410.66
180.554	1040.37
184.703	268.542
188.85	150.76
192.995	158.37
197.138	219.091
201.279	82.617
205.418	82.479
209.554	51.13
213.689	19.089
217.822	90.898
221.953	27.5
226.082	117.453
230.209	402.458
234.334	1510.74
238.456	2179.39
242.577	3079.5
246.696	2537.06
250.813	472.893
254.928	169.84
259.041	206.799
263.152	213.61
267.261	168.127
271.368	1094.53
275.473	3111.97
279.576	1347.46
283.677	659.995
287.776	535.592
291.873	193.242
295.968	40.039
300.061	117.096
304.152	65.253
308.241	1.311
312.328	182.012
316.413	249.717
320.496	433.224
324.578	867.132
328.657	1222.39
332.734	680.072
336.81	677
340.883	881.127
344.954	1386.93
349.024	1426.16
353.091	1915.07
357.157	2975.51
361.221	5406.98
365.282	11957
369.342	21418.5
373.4	34571.6
377.455	18396.3
381.509	8030.58
385.561	4088.74
389.611	2349.02
393.659	1513.39
397.705	1256.87
401.749	1176.47
405.791	1081.16
409.832	1475.92
413.87	1850.33
417.906	867.221
421.941	371.161
425.973	157.143
430.004	125.153
434.032	233.186
438.059	209.251
442.084	197.342
446.107	256.166
450.128	623.1
454.147	694.795
458.164	522.816
462.179	660.748
466.192	644.581
470.204	705.314
474.213	1009.95
478.221	717.502
482.226	572.969
486.23	604.363
490.232	615.686
494.231	943.942
498.229	1112.13
502.225	1238.85
506.22	1567.09
510.212	1067.66
514.202	670.719
518.191	646.705
522.177	716.661
526.162	601.899
530.144	610.123
534.125	1085.99
538.104	2384.75
542.081	6367.23
546.056	10607.4
550.03	4056.48
554.001	1490.73
557.97	829.122
561.938	566.23
565.904	512.291
569.868	516.203
573.829	730.554
577.79	538.659
581.748	399.51
585.704	372.926
589.658	447.846
593.611	413.972
597.562	294.784
601.51	288.463
605.457	454.788
609.402	589.406
613.346	740.814
617.287	724.01
621.226	931.993
625.164	1479.76
629.1	1352.31
633.033	779.648
636.965	368.765
640.896	118.662
644.824	150.328
648.75	151.749
652.675	35.116
656.598	50.333
660.518	73.899
664.437	53.831
668.354	37.848
672.27	71.838
676.183	81.953
680.095	109.468
684.005	83.447
687.912	35.852
691.818	19.325
695.723	42.84
699.625	69.359
703.526	36.224
707.424	28.59
711.321	0.103
715.216	25.657
719.109	34.724
723.001	18.078
726.89	57.311
730.778	50.456
734.664	29.373
738.548	10.074
742.43	45.569
746.31	139.862
750.189	154.967
754.066	140.893
757.941	194.644
761.814	174.223
765.685	244.636
769.554	340.885
773.422	216.976
777.288	222.912
781.152	288.518
785.014	329.736
788.874	377.122
792.733	531.346
796.59	597.1
800.445	771.701
804.298	1278.15
808.149	2024.34
811.999	3213.53
815.846	4685.77
819.692	7445.54
823.536	9945.66
827.379	8907.48
831.219	6750.14
835.058	5223.09
838.895	4465.41
842.73	4179.24
846.563	4524.31
850.395	4728.96
854.225	4804.7
858.053	5067.77
861.879	5643.66
865.703	7880.2
869.526	13066.4
873.347	23203.2
877.166	35260.3
880.983	33267.6
884.798	20525.1
888.612	11652.9
892.424	7160.84
896.234	4858.79
900.042	3746.8
903.849	2974.88
907.654	2353.02
911.457	2025.24
915.258	1807.53
919.058	1572.92
922.855	1288.39
926.651	1089
930.446	844.798
934.238	820.712
938.029	901.031
941.818	1164.31
945.605	1100.79
949.39	988.075
953.174	682.26
956.956	496.998
960.736	408.357
964.514	501.207
968.291	584.94
972.066	689.45
975.839	749.305
979.61	869.012
983.38	1114.2
987.147	1427.43
990.914	1592.88
994.678	1777.76
998.441	1816.78
1002.2	2410.38
1005.96	2713.1
1009.72	2225.51
1013.47	1299.03
1017.23	825.667
1020.98	407.417
1024.73	222.275
1028.48	259.242
1032.23	74.309
1035.97	272.511
1039.71	306.827
1043.46	316.566
1047.2	297.257
1050.93	140.202
1054.67	27.179
1058.41	56.776
1062.14	103.625
1065.87	142.258
1069.6	232.246
1073.33	51.058
1077.05	12.98
1080.78	28.96
1084.5	48.942
1088.22	58
1091.94	81.771
1095.66	75.543
1099.38	83.337
1103.09	87.916
1106.8	93.188
1110.51	16.097
1114.22	29.543
1117.93	159.144
1121.64	188.65
1125.34	62.086
1129.04	48.899
1132.74	21.61
1136.44	20.293
1140.14	171.738
1143.83	280.196
1147.53	299.816
1151.22	334.058
1154.91	108.344
1158.6	48.243
1162.29	89.18
1165.97	164.161
1169.65	266.767
1173.34	285.372
1177.02	391.412
1180.7	189.597
1184.37	118.7
1188.05	5.909
1191.72	40.857
1195.39	96.522
1199.06	207.045
1202.73	260.886
1206.4	271.976
1210.06	241.381
1213.73	243.773
1217.39	64.174
1221.05	186.916
1224.71	183.606
1228.36	184.683
1232.02	479.29
1235.67	528.493
1239.32	521.184
1242.97	279.381
1246.62	154.059
1250.27	212.119
1253.91	266.333
1257.56	275.208
1261.2	433.379
1264.84	419.499
1268.48	384.872
1272.12	463.91
1275.75	250.278
1279.38	143.519
1283.02	12.594
1286.65	69.299
1290.27	97.546
1293.9	344.433
1297.53	231.296
1301.15	245.972
1304.77	42.319
1308.39	183.464
1312.01	20.432
1315.63	121.836
1319.24	52.998
1322.86	3.568
1326.47	177.099
1330.08	302.323
1333.69	308.864
1337.29	248.364
1340.9	183.52
1344.5	59.499
1348.11	16.227
1351.71	94.159
1355.31	49.13
1358.9	196.178
1362.5	316.947
1366.09	427.563
1369.68	448.199
1373.28	487.881
1376.86	307.862
1380.45	137.863
1384.04	147.888
1387.62	27.184
1391.2	65.563
1394.79	275.034
1398.37	204.785
1401.94	447.339
1405.52	578.784
1409.09	619.155
1412.67	436.675
1416.24	284.74
1419.81	322.682
1423.38	101.083
1426.94	62.079
1430.51	146.413
1434.07	339.519
1437.63	353.344
1441.19	523.155
1444.75	565.053
1448.31	651.284
1451.86	605.873
1455.41	380.653
1458.97	302.73
1462.52	196.05
1466.07	229.428
1469.61	99.531
1473.16	162.758
1476.7	424.173
1480.25	536.275
1483.79	549.903
1487.33	573.482
1490.86	546.691
1494.4	480.128
1497.93	343.155
1501.47	164.611
1505	38.846
1508.53	12.905
1512.06	94.404
1515.58	151.646
1519.11	143.286
1522.63	0
