Measurement: Raman, 514 nm, ccw, Raman Data Processed
Mineral: Grossular
Rruff sample: R060453
Ideal chemistry: Ca_3_Al_2_(SiO_4_)_3_
Locality: unknown
Source: Gemological Institute of America
Description: Green colored fragment
Measured chemistry: (Ca_2.91_Mg_0.05_Mn_0.04_)_Σ=3_(Al_1.96_Ti_0.02_[box]_0.02_)_Σ=2_(Si_1.00_O_4_)_3_; trace amounts of Fe and Cr
Pin_id: L01253
Orientation: Laser parallel to a* (1 0 0). Fiducial mark perpendicular to laser is parallel to b [0 1 0]
Raman shift (cm-1)	intensity
122.247	0
125.959	2.01062
129.67	52.9441
133.379	68.296
137.086	86.8894
140.791	53.6207
144.495	54.7373
148.197	23.4341
151.898	74.3809
155.597	78.0713
159.294	5.51733
162.989	3.28345
166.683	73.3101
170.376	104.169
174.066	276.363
177.755	326.089
181.442	449.09
185.128	405.314
188.812	133.705
192.495	57.2234
196.175	18.8384
199.854	61.4468
203.532	18.0469
207.208	13.0593
210.882	6.89526
214.555	49.5073
218.226	48.4636
221.895	80.426
225.563	107.657
229.229	194.9
232.893	340.08
236.556	538.24
240.217	834.415
243.877	758.538
247.535	987.532
251.191	703.453
254.846	235.309
258.499	108.101
262.15	140.823
265.8	144.47
269.449	392.114
273.095	565.077
276.74	857.831
280.384	1010.78
284.026	503.275
287.666	188.356
291.304	103.7
294.941	51.3687
298.577	40.7876
302.211	30.0452
305.843	30.9829
309.473	45.3794
313.103	8.1814
316.73	121.573
320.356	231.443
323.98	292.984
327.603	311.805
331.224	404.12
334.843	330.457
338.461	287.793
342.077	303.438
345.692	403.034
349.305	530.171
352.916	777.883
356.526	1030.27
360.135	1705.31
363.741	2934.47
367.347	5099.09
370.95	7063.84
374.552	8661.69
378.153	8040.57
381.751	3984.42
385.349	1750.29
388.944	934.016
392.539	704.742
396.131	471.183
399.722	369.557
403.312	324.866
406.899	396.109
410.486	448.276
414.07	560.37
417.654	592.415
421.235	353.403
424.815	95.3169
428.394	68.177
431.971	102.226
435.546	58.1086
439.12	17.908
442.692	14.4575
446.263	45.0061
449.832	24.7305
453.399	32.8142
456.966	25.7434
460.53	21.0652
464.093	32.9629
467.654	80.4661
471.214	65.3779
474.772	187.301
478.329	166.013
481.884	164.287
485.438	125.203
488.99	85.9356
492.541	93.4583
496.09	108.735
499.637	178.204
503.183	304.039
506.728	435.107
510.271	589.624
513.812	465.957
517.352	166.396
520.89	236.886
524.427	174.159
527.962	249.124
531.496	238.815
535.028	291.336
538.559	533.756
542.088	1282.02
545.615	2020.66
549.141	2965.33
552.666	2709.9
556.189	1114.45
559.711	457.052
563.231	377.592
566.749	263.094
570.266	315.439
573.782	250.929
577.296	246.765
580.808	175.029
584.319	184.38
587.828	207.716
591.336	209.161
594.843	213.458
598.348	88.8665
601.851	115.227
605.353	178.248
608.853	121.052
612.352	174.508
615.85	308.918
619.345	257.384
622.84	368.947
626.333	451.055
629.824	477.443
633.314	415.157
636.802	271.257
640.289	208.684
643.775	228.881
647.259	126.342
650.741	164.095
654.222	159.63
657.702	141.648
661.18	153.457
664.656	48.5469
668.131	37.8154
671.605	24.1294
675.077	53.1773
678.547	44.6558
682.016	3.45459
685.484	28.8311
688.95	63.5503
692.415	55.8096
695.878	25.4727
699.34	65.5859
702.8	3.06885
706.259	68.8926
709.716	40.0337
713.172	92.1572
716.626	34.3276
720.079	119.096
723.53	60.0889
726.98	27.9995
730.429	40.542
733.876	90.4966
737.321	70.5747
740.765	22.1973
744.208	117.794
747.649	45.2329
751.089	15.6841
754.527	77.875
757.964	4.70019
761.399	150.434
764.833	26.5825
768.266	159.58
771.697	261.132
775.126	245.875
778.554	315.403
781.981	160.222
785.406	300.246
788.83	259.651
792.252	234.387
795.673	322.386
799.093	372.795
802.511	476.835
805.927	734.097
809.342	933.15
812.756	1284.1
816.168	1801.93
819.579	2410.7
822.988	2893.05
826.396	2957.37
829.802	2506.4
833.208	1946.38
836.611	1698.36
840.013	1396.54
843.414	1625.66
846.813	1783.64
850.211	1951.34
853.608	2000.7
857.003	1955.4
860.396	2424.53
863.789	2916.11
867.179	4447.42
870.569	6744.51
873.957	10661.8
877.343	14993.4
880.728	17645.2
884.112	14715.6
887.494	10240.7
890.875	6742.41
894.254	4781.58
897.632	3441.02
901.009	2257.47
904.384	1381.21
907.758	974.29
911.13	781.535
914.501	651.035
917.871	602.731
921.239	428.582
924.606	380.435
927.971	361.977
931.335	367.316
934.698	339.455
938.059	355.835
941.418	242.238
944.777	150.267
948.134	59.5801
951.489	69.9102
954.843	140.456
958.196	24.4121
961.548	4.70703
964.897	16.8047
968.246	94.8154
971.593	91.334
974.939	115.913
978.283	101.162
981.626	115.42
984.968	61.1211
988.308	193.941
991.647	207.44
994.985	407.848
998.321	334.103
1001.65	534.38
1004.99	755.137
1008.32	878.203
1011.65	855.779
1014.98	863.864
1018.31	815.428
1021.63	409.485
1024.96	51.0615
1028.28	75.4346
1031.61	189.953
1034.93	199.523
1038.25	44.0801
1041.56	24.2334
1044.88	11.7354
1048.2	16.9189
1051.51	127.986
1054.82	312.937
1058.13	190.118
1061.44	332.446
1064.75	313.288
1068.06	85.4795
1071.37	167.449
1074.67	241.424
1077.97	126.243
1081.28	77.335
1084.58	168.408
1087.88	210.557
1091.17	176.439
1094.47	100.067
1097.77	0.354492
1101.06	1.00391
1104.35	61.2725
1107.64	192.016
1110.93	193.09
1114.22	190.565
1117.51	237.586
1120.79	139.496
1124.08	248.154
1127.36	333.494
1130.64	372.188
1133.92	445.779
1137.2	492.932
1140.48	562.314
1143.76	492.348
1147.03	499.147
1150.3	408.816
1153.58	371.228
1156.85	96.4824
1160.12	85.8906
1163.38	13.6348
1166.65	78.8438
1169.92	178.008
