Measurement: Raman, 514 nm, ccw, Raman Data Processed
Mineral: Grossular
Rruff sample: R060499
Ideal chemistry: Ca_3_Al_2_(SiO_4_)_3_
Locality: Lake Jaco, Chihuahua, Mexico
Source: Michael Scott
Description: Tan colored single dodecahedral crystal
Measured chemistry: (Ca_2.90_Mg_0.10_)_Σ=3_(Al_1.78_Fe^3+^_0.19_Ti_0.03_)_Σ=2_(Si_1.00_O_4_)_3_
Pin_id: L01514
Orientation: Laser parallel to -a* (-1 0 0). Fiducial mark perpendicular to laser is parallel to -c [0 0 -1]
Raman shift (cm-1)	intensity
125.959	0
130.906	108.575
135.85	54.2109
140.791	100.9
145.729	3.89966
150.664	8.08203
155.597	27.7173
160.526	1.11206
165.452	135.074
170.376	352.416
175.296	798.64
180.213	2525.28
185.128	634.083
190.04	303.892
194.949	212.615
199.854	196.194
204.757	56.1968
209.657	89.3557
214.555	104.361
219.449	60.5923
224.34	157.548
229.229	715.14
234.114	2408.43
238.997	4228.44
243.877	5404.02
248.754	4128.3
253.628	1185.35
258.499	829.239
263.367	800.037
268.233	1483.75
273.095	3378.81
277.955	5510.29
282.812	2251.22
287.666	1439.83
292.517	680.342
297.365	88.5654
302.211	54.1406
307.053	231.026
311.893	504.515
316.73	645.303
321.564	1304.54
326.395	2358.24
331.224	2032.36
336.049	1511.85
340.872	1888.66
345.692	2405.77
350.509	2623.13
355.323	3958.61
360.135	7154.41
364.943	15005.3
369.749	28951.4
374.552	49412.9
379.352	31698.1
384.15	13594
388.944	6917.7
393.736	4330.1
398.525	3402.77
403.312	2838.6
408.095	2721.63
412.876	2632.25
417.654	1372.28
422.429	460.177
427.201	25.5498
431.971	157.175
436.737	66.9692
441.501	32.4751
446.263	236.616
451.021	621.943
455.777	893.894
460.53	996.643
465.28	1003.15
470.028	1205.39
474.772	1532.31
479.514	1310.87
484.254	984.04
488.99	1056.78
493.724	1614.05
498.455	1954.86
503.183	1964.18
507.909	2006.92
512.632	1539.22
517.352	1111.69
522.069	1120.11
526.784	1182.32
531.496	1732.36
536.205	3612.97
540.912	9488.89
545.615	17407.7
550.317	6983.02
555.015	2601.23
559.711	1981.55
564.404	1940.89
569.094	1775.95
573.782	1510.4
578.467	1203.66
583.149	890.355
587.828	787.625
592.505	630.903
597.179	647.324
601.851	1084.14
606.52	1431.32
611.186	1679.86
615.85	2050.72
620.51	2440.89
625.169	3307.36
629.824	3396.1
634.477	2313.11
639.127	1258.37
643.775	593.859
648.42	210.576
653.062	10.5564
657.702	58.135
662.339	66.6509
666.973	107.239
671.605	22.1489
676.234	38.178
680.86	49.311
685.484	15.697
690.105	67.9614
694.724	110.24
699.34	149.715
703.953	13.9072
708.564	79.4792
713.172	8.23682
717.777	111.982
722.38	66.7297
726.98	71.9216
731.578	102.72
736.173	236.787
740.765	518.362
745.355	895.475
749.943	1059.15
754.527	1287.42
759.109	1556.32
763.689	2270.87
768.266	3565.11
772.84	4475.06
777.412	4079.76
781.981	2972.24
786.548	2312.55
791.112	2183.36
795.673	2347.55
800.232	2784.8
804.788	3655.83
809.342	5250.62
813.893	7884.53
818.442	11275.6
822.988	12992.6
827.532	10717.9
832.073	8192.6
836.611	6874.06
841.147	6331.73
845.68	6218.7
850.211	6313.86
854.74	6830.47
859.265	8302.47
863.789	11799.2
868.309	19924.7
872.827	34807.6
877.343	46194.2
881.856	37891.7
886.367	21537.9
890.875	11862
895.381	7201.85
899.884	5311.57
904.384	4333.16
908.882	3917.6
913.378	3827.92
917.871	4109.13
922.361	4274.48
926.849	4318
931.335	4076.12
935.818	4088.71
940.299	4105.73
944.777	3852.45
949.252	3340.46
953.726	2692.34
958.196	1868.18
962.664	1372.41
967.13	1424.47
971.593	2387.74
976.054	3690.29
980.512	4475.66
984.968	4448.06
989.421	4417.59
993.872	4450.11
998.321	4488.6
1002.77	4824.77
1007.21	4175.4
1011.65	2648.47
1016.09	1607.94
1020.53	1148.59
1024.96	1228.08
1029.39	1399.05
1033.82	1201.97
1038.25	539.43
1042.67	219.157
1047.09	205.108
1051.51	24.2827
1055.93	14.5278
1060.34	39.8818
1064.75	115.34
1069.16	122.295
1073.57	41.1763
1077.97	18.9839
1082.38	87.4497
1086.78	20.5015
1091.17	65.5764
1095.57	81.5762
1099.96	67.7031
1104.35	16.8755
1108.74	49.9341
1113.12	22.1333
1117.51	180.654
1121.89	268.863
1126.27	230.721
1130.64	268.195
1135.02	256.263
1139.39	467.909
1143.76	475.119
1148.12	535.881
1152.48	400.833
1156.85	425.8
1161.2	502.409
1165.56	444.329
1169.92	393.031
1174.27	375.913
1178.62	383.883
1182.96	365.47
1187.31	315.331
1191.65	243.926
1195.99	285.769
1200.33	232.27
1204.67	280.926
1209	332.068
1213.33	342.116
1217.66	262.285
1221.98	309.807
1226.31	307.414
1230.63	251.099
1234.95	230.102
1239.27	232.5
1243.58	205.881
1247.89	221.74
1252.2	255.697
1256.51	243.189
1260.81	190.27
1265.12	233.201
1269.42	171.875
1273.72	126.465
1278.01	703.281
1282.31	23.7969
1286.6	65.0454
1290.88	47.2773
1295.17	11.2075
1299.46	68.8032
1303.74	42.1279
1308.02	37.1851
1312.3	57.9175
1316.57	38.3418
1320.84	71.4102
1325.11	91.4717
1329.38	49.1065
1333.65	116.909
1337.91	120.681
1342.17	117.568
1346.43	182.404
1350.69	55.6055
1354.94	92.0894
1359.2	49.895
1363.45	10.936
1367.69	29.04
1371.94	40.6079
1376.18	19.6577
1380.42	88.3062
1384.66	65.5391
1388.9	38.8193
1393.13	36.9517
1397.37	17.3686
1401.6	48.4463
1405.82	18.7314
1410.05	2.65967
1414.27	144.324
1418.49	57.6675
1422.71	83.5894
1426.93	144.112
1431.14	123.352
1435.35	183.16
1439.56	142.106
1443.77	213.531
1447.97	266.581
1452.18	299.69
1456.38	301.904
1460.58	272.327
1464.77	277.171
1468.97	292.668
1473.16	235.96
1477.35	253.588
1481.54	256.416
1485.72	126.037
1489.9	107.32
1494.08	172.622
1498.26	64.0288
1502.44	110.56
1506.61	47.4111
1510.79	91.2876
1514.95	38.1514
1519.12	45.2935
1523.29	59.9414
1527.45	54.9775
1531.61	14.2852
1535.77	32.7524
1539.93	40.8164
1544.08	75.0908
1548.23	28.5957
1552.38	138.774
1556.53	176.965
1560.68	67.1479
