Measurement: Raman, 514 nm, ccw, Raman Data Processed
Mineral: Grossular
Rruff sample: R060278
Ideal chemistry: Ca_3_Al_2_(SiO_4_)_3_
Locality: Diakon, Kayes Region, Mali
Source: Herb Obodda
Description: Dark brown dodecahedral single crystal
Measured chemistry: (Ca_2.93_Mg_0.05_Mn_0.02_)_Σ=3_(Al_1.19_Fe^3+^_0.78_Ti_0.03_)_Σ=2_((Si_0.99_Al_0.01_)_Σ=1_O_4_)_3_
Pin_id: L01488
Orientation: Laser parallel to -a* (-1 0 0). Fiducial mark perpendicular to laser is parallel to b [0 1 0]
Raman shift (cm-1)	intensity
197.52	0
202.413	304.239
207.305	5.90771
212.193	20.9697
217.079	236.776
221.963	541.809
226.844	1165.56
231.723	1900.98
236.599	1848.28
241.472	1360.59
246.343	834.067
251.211	756.834
256.077	924.18
260.94	1394.32
265.801	1639.3
270.66	1966.51
275.515	2107.99
280.368	2079.71
285.219	1783.73
290.067	1751.51
294.913	2179.26
299.756	2252.1
304.596	2465.89
309.434	2753.18
314.27	3623.89
319.102	3992.46
323.933	3854.96
328.76	4175.33
333.586	4791.33
338.408	5682.15
343.229	8392.97
348.046	14809
352.861	25961.1
357.674	36347.7
362.484	41047.2
367.291	48811.7
372.096	41748.8
376.898	22490.2
381.698	11641.8
386.495	6974.32
391.29	5125.74
396.082	4608.92
400.872	3374.76
405.659	1714.13
410.443	531.445
415.225	71.7271
420.005	208.307
424.782	233.691
429.556	130.992
434.328	268.128
439.097	438.97
443.864	471.925
448.628	460.569
453.389	470.646
458.148	357.905
462.905	161.832
467.659	22.7637
472.41	22.6001
477.159	696.298
481.905	1665.77
486.649	2186.02
491.39	2193.28
496.129	1839.61
500.865	1443.04
505.598	1129.44
510.329	1001.69
515.057	1454.74
519.783	3668.52
524.506	8367.99
529.227	13733.1
533.945	10622.8
538.661	3901.99
543.374	1584.71
548.084	1117.86
552.792	993.206
557.498	1115.7
562.2	864.836
566.901	662.218
571.598	406.408
576.293	287.035
580.986	442.184
585.676	662.316
590.363	1155.29
595.048	1731.85
599.731	2154.96
604.41	2395.59
609.088	2629.72
613.762	2633.05
618.434	2192.1
623.104	1447.57
627.771	823.454
632.435	551.717
637.097	671.34
641.756	907.301
646.413	1116.58
651.067	991.176
655.719	903.064
660.368	783.241
665.014	699.699
669.658	834.433
674.299	790.435
678.938	606.7
683.574	272.223
688.208	14.2244
692.839	177.817
697.468	161.679
702.094	293.003
706.717	253.905
711.338	239.415
715.956	210.863
720.572	115.748
725.185	94.126
729.795	439.944
734.403	834.081
739.009	1400.58
743.611	2053.45
748.212	2748.72
752.809	3305.48
757.405	4204.69
761.997	4990.39
766.587	5157.86
771.174	4309.36
775.759	3596.91
780.342	3263.39
784.921	3546.89
789.498	4002.4
794.073	5173.03
798.645	6961.81
803.215	9398.8
807.781	11920.9
812.346	13848.1
816.907	15136.3
821.467	14951.8
826.023	13432
830.577	11692.3
835.129	10646.6
839.678	10129.4
844.224	10112.1
848.768	9932.19
853.309	10647
857.847	12536.9
862.383	15950
866.917	20538.2
871.448	26242.9
875.976	28037.2
880.502	25021.4
885.025	18748.2
889.545	13612.7
894.063	9844.96
898.579	7125.99
903.092	5503.11
907.602	4331.57
912.11	3822.47
916.615	3622.81
921.118	3420.7
925.618	3445.8
930.115	3820.61
934.61	4240.53
939.102	4095.42
943.592	3543.39
948.079	2762.58
952.564	2175.28
957.046	2140.39
961.525	2712.13
966.002	3296.23
970.476	4025.82
974.948	4457.54
979.417	4574.64
983.883	4585.56
988.347	4488.86
992.809	4440.88
997.268	4301.99
1001.72	3590.72
1006.18	2290.92
1010.63	1129.63
1015.08	855.892
1019.52	1076.53
1023.97	1197.01
1028.41	619.436
1032.85	140.177
1037.28	1.10571
1041.71	116.334
1046.14	116.548
1050.57	119.414
1055	110.451
1059.42	97.1611
1063.84	37.7293
1068.26	151.25
1072.67	79.7393
1077.09	54.0703
1081.5	41.7082
1085.9	30.0791
1090.31	16.9258
1094.71	45.4851
1099.11	98.8848
1103.51	183.127
1107.9	240.138
1112.29	298.87
1116.68	703.361
1121.07	1186.53
1125.45	1132.38
1129.84	484.382
1134.21	290.308
1138.59	251.008
1142.96	222.733
1147.34	265.18
1151.7	230.321
1156.07	233.172
1160.43	265.936
1164.79	205.022
1169.15	205.623
1173.51	146.418
1177.86	151.508
1182.21	211.918
1186.56	197.413
1190.91	184.6
1195.25	247.088
1199.59	200.571
1203.93	279.842
1208.26	219.59
1212.6	255.349
1216.92	266.155
1221.25	278.651
1225.58	231.331
1229.9	251.19
1234.22	214.155
1238.54	162.714
1242.85	200.724
1247.16	138.178
1251.47	110.141
1255.78	55.6116
1260.08	67.5442
1264.38	19.9324
1268.68	10.2429
1272.98	23.9355
1277.28	71.3953
1281.57	33.6528
1285.86	85.6081
1290.14	12.0156
1294.42	10.8276
1298.71	49.7986
1302.98	81.4836
1307.26	38.2327
1311.53	102.716
1315.8	31.7727
1320.07	56.9226
1324.34	36.3086
1328.6	58.8315
1332.86	53.5042
1337.12	39.4094
1341.38	46.0098
1345.63	33.6311
1349.88	40.3098
1354.13	76.8213
1358.37	57.0781
1362.61	98.0979
1366.85	43.9124
1371.09	122.541
1375.33	96.9124
1379.56	98.9797
1383.79	110.598
1388.01	75.8611
1392.24	144.132
1396.46	98.5644
1400.68	87.9033
1404.9	156.646
1409.11	98.2908
1413.32	118.397
1417.53	116.777
1421.74	125.371
1425.94	131.567
1430.14	103.179
1434.34	101.78
1438.54	28.7122
1442.73	151.416
1446.92	70.6536
1451.11	83.0037
1455.3	80.3257
1459.48	42.9094
1463.66	85.7058
1467.84	90.0383
1472.01	70.3501
1476.19	48.4543
1480.36	31.5322
1484.53	93.8188
1488.69	159.542
1492.85	64.8066
1497.01	123.606
1501.17	151.519
1505.33	171.363
1509.48	170.458
1513.63	161.823
1517.78	179.253
1521.92	123.491
1526.06	74.3591
1530.2	79.8904
1534.34	21.0742
1538.47	93.1165
1542.6	40.3486
1546.73	91.1213
1550.86	77.9158
1554.98	297.718
1559.11	24.3821
1563.22	34.7839
