Measurement: Raman, 514 nm, ccw, Raman Data Processed
Mineral: Grossular
Rruff sample: R050036
Ideal chemistry: Ca_3_Al_2_(SiO_4_)_3_
Locality: Wah Wah Mountains, Utah, USA
Source: Eugene Schlepp
Description: Colorless single crystal in rhyolite matrix
Measured chemistry: (Ca_2.95_Mg_0.05_)_Σ=3_(Al_1.70_Fe^3+^_0.30_)_Σ=2_(Si_1.00_O_4_)_3_; trace amounts of P
Pin_id: L00123
Orientation: Laser parallel to c* (0 0 1). Fiducial mark perpendicular to laser is parallel to a [1 0 0]
Raman shift (cm-1)	intensity
118.527	0
122.701	0.908
126.873	51.077
131.042	67.613
135.21	1.156
139.376	49.498
143.539	201.356
147.701	131.832
151.861	37.991
156.018	114.856
160.174	91.226
164.327	131.015
168.479	112.194
172.628	109.838
176.776	546.531
180.922	1893.65
185.065	461.17
189.207	249.057
193.346	67.34
197.484	76.166
201.619	45.764
205.753	25.774
209.884	39.762
214.014	91.404
218.141	150.244
222.267	47.033
226.391	15.974
230.512	355.273
234.632	1116.73
238.749	1998.4
242.865	2250.23
246.979	3842.18
251.09	1114.22
255.2	276.561
259.308	219.237
263.414	382.313
267.517	405.789
271.619	739.65
275.719	3000.5
279.817	2146.87
283.913	831.856
288.007	667.152
292.099	372.374
296.189	77.561
300.277	57.576
304.363	22.625
308.447	142.319
312.529	191.978
316.609	342.276
320.687	556.233
324.764	1160.23
328.838	1665.19
332.91	869.907
336.981	794.723
341.049	1079.91
345.116	1354.93
349.18	1281.03
353.243	1757.03
357.304	2602.6
361.362	4227.48
365.419	8482.97
369.474	14898.6
373.527	29600.4
377.578	28564.7
381.627	12463.7
385.674	5840.49
389.719	3458.96
393.762	2098.9
397.804	1569.07
401.843	1289.6
405.881	1470.35
409.916	1541.33
413.95	1392.48
417.981	533.761
422.011	165.167
426.039	116.688
430.065	71.737
434.089	80.113
438.111	61.509
442.131	243.152
446.149	164.856
450.166	386.619
454.18	438.439
458.193	690.314
462.203	569.956
466.212	571.523
470.219	743.553
474.224	985.626
478.227	987.743
482.228	489.902
486.227	542.116
490.224	654.358
494.22	996.998
498.213	1162.52
502.205	946.38
506.194	1199.37
510.182	1213.86
514.168	758.057
518.152	609.271
522.134	669.439
526.114	685.07
530.093	802.195
534.069	1231.63
538.044	2653.51
542.017	7267.39
545.987	10389.9
549.956	3826.17
553.923	1674.09
557.889	1041.45
561.852	947.539
565.813	836.023
569.773	511.59
573.731	692.926
577.686	753.779
581.64	644.92
585.593	484.57
589.543	388.613
593.491	316.383
597.438	405.836
601.382	585.068
605.325	814.062
609.266	732.826
613.205	911.35
617.142	1029.63
621.078	1357.69
625.011	1675.52
628.943	1383.11
632.872	840.453
636.8	547.541
640.726	214.377
644.651	290.957
648.573	157.281
652.494	103.34
656.412	89.098
660.329	154.926
664.244	59.648
668.157	274.289
672.069	242
675.978	127.68
679.886	64.842
683.792	7.234
687.696	121.412
691.598	0.889
695.498	31.137
699.397	97.709
703.293	46.086
707.188	216.012
711.081	71.064
714.972	197.729
718.862	3.822
722.749	39.488
726.635	44.775
730.519	249.791
734.401	24.59
738.281	179.156
742.16	223.521
746.036	117.764
749.911	121.891
753.784	255.857
757.655	269.646
761.525	473.271
765.392	186.734
769.258	340.043
773.122	453.209
776.984	496.285
780.844	439.24
784.703	492.086
788.56	454.814
792.415	707.43
796.268	1019.96
800.119	1212.39
803.969	1544.66
807.816	2106.48
811.662	3295.51
815.506	5336.7
819.349	7847.53
823.189	9978.78
827.028	8446.9
830.865	6431.29
834.7	5529.89
838.534	4806.62
842.365	4523.31
846.195	4166.34
850.023	4087.51
853.85	4243.15
857.674	4884.89
861.497	5768.15
865.318	7630.88
869.137	11048.7
872.955	18025.5
876.77	26963.2
880.584	28712.5
884.396	20366.3
888.207	11639.9
892.015	6904.09
895.822	4528.88
899.627	3627.24
903.43	3212.54
907.232	2648.09
911.032	1973.87
914.83	1659.9
918.626	1186.18
922.42	1302.82
926.213	1133.44
930.004	1120.51
933.793	1169.66
937.581	897.584
941.366	935.49
945.15	973.74
948.932	1373.49
952.713	1208.71
956.491	1271.21
960.268	354.438
964.044	318.373
967.817	318.934
971.589	603.896
975.359	999.723
979.127	1110.83
982.893	1011.92
986.658	1257.24
990.421	1210.12
994.183	1473.62
997.942	1757.76
1001.7	2472.49
1005.46	2607.86
1009.21	1793.64
1012.96	1120.04
1016.71	517.109
1020.46	614.723
1024.21	772.658
1027.96	681.516
1031.7	642.773
1035.44	94.084
1039.18	2.336
1042.92	17.807
1046.66	372.844
1050.39	475.098
1054.13	496.314
1057.86	137.357
1061.59	198.633
1065.32	140.172
1069.05	61.965
1072.77	44.15
1076.49	516.387
1080.22	428.996
1083.94	261.799
1087.65	184.941
1091.37	1.674
1095.09	48.244
1098.8	4.727
1102.51	118.951
1106.22	48.466
1109.93	127.037
1113.63	20.553
1117.34	95.893
1121.04	122.385
1124.74	361.924
1128.44	135.754
1132.14	298.096
1135.84	142.123
1139.53	278.604
1143.22	279.84
1146.91	126.643
1150.61	222.867
1154.29	269.676
1157.98	502.299
1161.66	416.994
1165.35	462.59
1169.03	236.184
1172.71	19.928
1176.38	13.729
1180.06	79.795
1183.73	143.447
1187.41	497.668
1191.08	461.787
1194.75	297.723
1198.41	115.041
1202.08	257.156
1205.74	368.814
1209.41	303.188
1213.07	749.545
1216.73	840.191
1220.38	738.506
1224.04	689.775
1227.69	711.367
1231.35	313.275
1235	342.744
1238.65	470.51
1242.3	726.76
1245.94	1053.63
1249.59	1095.72
1253.23	998.623
1256.87	781.703
1260.51	663.477
1264.15	515.703
1267.78	204.881
1271.42	609.182
1275.05	522.799
1278.68	666.016
1282.31	725.648
1285.94	627.291
1289.56	108.299
1293.19	88.008
1296.81	107.084
1300.43	34.48
1304.05	32.758
1307.67	468.797
1311.29	674.035
1314.9	498.559
1318.52	412.014
1322.13	302.732
1325.74	85.004
1329.34	95.359
1332.95	88.58
1336.56	111.23
1340.16	155.824
1343.76	652.867
1347.36	700.914
1350.96	758.418
1354.56	375.396
1358.15	141.871
1361.74	737.998
1365.34	176.449
1368.93	99.258
1372.52	13.271
1376.1	339.922
1379.69	897.145
1383.27	983.779
1386.85	809.309
1390.43	694.582
1394.01	748.926
1397.59	223.428
1401.17	316.26
1404.74	233
1408.31	516.824
1411.88	617.504
1415.45	781.102
1419.02	1026.76
1422.59	1005.07
1426.15	1004.14
1429.71	657.168
1433.28	604.734
1436.84	476.23
1440.39	443.836
1443.95	360.582
1447.5	532.492
1451.06	1000.77
1454.61	1279.58
1458.16	1449.18
1461.71	1310.38
1465.26	1310.77
1468.8	1000.56
1472.34	770.012
1475.89	447.773
1479.43	168.281
1482.97	50.648
1486.5	307.594
1490.04	315.094
1493.57	484.488
1497.11	807.152
1500.64	740.102
1504.17	812.125
1507.69	611.797
1511.22	502.418
1514.74	265.051
