Measurement: Raman, 514 nm, ccw, Raman Data Processed
Mineral: Grossular
Rruff sample: R040065
Ideal chemistry: Ca_3_Al_2_(SiO_4_)_3_
Locality: Feng Tien mine, Taiwan
Source: University of Arizona Mineral Museum
Description: Orange-brown trapezohedral crystals
Measured chemistry: (Ca_2.90_Fe^2+^_0.05_Mn_0.05_)_Σ=3_(Al_1.95_Fe^3+^_0.03_Ti_0.02_)_Σ=2_((Si_0.99_Al_0.01_)_Σ=1_O_4_)_3_
Pin_id: M00027
Orientation: Laser parallel to -a* (-1 0 0). Fiducial mark perpendicular to laser is parallel to b [0 1 0]
Raman shift (cm-1)	intensity
104.166	0
108.355	73.594
112.541	346.538
116.725	679.941
120.907	307.337
125.086	91.492
129.264	76.547
133.439	132.125
137.612	146.723
141.783	139.123
145.952	59.771
150.119	110.968
154.284	34.198
158.446	86.902
162.607	123.395
166.765	172.978
170.921	248.066
175.075	824.979
179.227	4281.74
183.377	2961.45
187.525	624.57
191.67	275.298
195.813	159.107
199.955	82.888
204.094	7.499
208.231	44.759
212.366	0.417
216.499	19.809
220.629	34.503
224.758	41.545
228.884	11.324
233.009	29.704
237.131	178.777
241.251	311.112
245.369	307.631
249.485	330.404
253.599	73.74
257.711	95.029
261.82	52.351
265.928	92.583
270.033	135.279
274.137	285.671
278.238	606.426
282.337	374.332
286.434	264.802
290.529	259.674
294.622	206.298
298.713	140.744
302.802	156.41
306.889	261.087
310.973	453.75
315.056	817.557
319.136	880.817
323.215	542.679
327.291	534.236
331.365	661.762
335.438	679.308
339.508	714.25
343.576	845.913
347.642	1203.38
351.706	1595.69
355.768	2277.15
359.827	3639.75
363.885	7615.52
367.941	18046.2
371.994	24623.8
376.046	28838
380.096	13295.3
384.143	5378.87
388.188	2695.34
392.232	1752.62
396.273	1320.44
400.312	1064.06
404.35	1028.01
408.385	1219.87
412.418	2407.91
416.449	5967.42
420.478	3072.14
424.505	975.667
428.53	446.057
432.553	244.018
436.574	165.325
440.593	97.884
444.61	93.136
448.625	52.545
452.638	140.711
456.649	168.5
460.658	210.19
464.665	103.485
468.669	111.724
472.672	81.677
476.673	186.506
480.672	143.236
484.668	114.222
488.663	94.03
492.656	105.487
496.646	231.875
500.635	283.997
504.622	318.052
508.606	397.265
512.589	357.69
516.57	210.671
520.548	342.337
524.525	841.118
528.5	1203.93
532.473	473.264
536.443	500.799
540.412	899.479
544.379	2575.24
548.343	8240.69
552.306	6003.09
556.267	1950.22
560.226	940.923
564.182	680.778
568.137	595.877
572.09	551.746
576.041	542.146
579.99	435.634
583.937	452.085
587.881	838.331
591.824	1213.55
595.765	613.227
599.704	307.173
603.641	268.232
607.576	284.531
611.509	371.096
615.441	410.04
619.37	480.741
623.297	448.993
627.222	645.905
631.145	673.192
635.067	447.707
638.986	256.131
642.904	205.938
646.819	167.202
650.733	121.205
654.644	153.422
658.554	61.319
662.461	45.876
666.367	11.081
670.271	26.103
674.173	55.676
678.073	56.211
681.971	45.228
685.867	14.879
689.761	2.875
693.653	44.92
697.543	50.361
701.431	17.622
705.317	0.28
709.202	25.67
713.084	6.939
716.965	1.886
720.844	75.147
724.72	6.963
728.595	13.836
732.468	97.28
736.339	71.393
740.208	60.178
744.075	114.641
747.94	156.806
751.803	227.688
755.665	272.315
759.524	349.23
763.382	538.907
767.237	811.922
771.091	972.781
774.943	1106.44
778.793	966.896
782.641	833.118
786.487	714.107
790.331	687.767
794.173	676.332
798.013	854.1
801.852	1147.81
805.688	1517.53
809.523	2139.41
813.356	2575.72
817.187	2945.24
821.016	3511.09
824.843	4165.62
828.668	4046.35
832.492	3340.9
836.313	2842.82
840.133	2757.73
843.95	2873.11
847.766	3320.05
851.58	3591.27
855.392	3863.12
859.202	4436.98
863.011	5613.56
866.817	7938.61
870.622	12426.4
874.424	21936.8
878.225	37085.8
882.024	39375.6
885.821	25396.4
889.616	14986.6
893.41	8787.1
897.201	5458.87
900.991	3627.88
904.779	2698.03
908.565	2212.05
912.349	1914.41
916.131	1693.34
919.911	1542.53
923.69	1114.78
927.466	953.605
931.241	771.751
935.014	648.729
938.785	630.221
942.554	720.008
946.322	687.482
950.087	564.122
953.851	488.779
957.613	368.972
961.373	332.489
965.131	224.224
968.887	267.539
972.642	218.247
976.394	324.997
980.145	446.938
983.894	638.938
987.641	781.768
991.387	739.819
995.13	773.045
998.872	800.741
1002.61	936.125
1006.35	1307.76
1010.09	1129.35
1013.82	709.734
1017.55	372.232
1021.28	216.924
1025.01	96.299
1028.74	90.436
1032.46	103.826
1036.19	212.941
1039.91	112.266
1043.63	11.812
1047.35	34.33
1051.06	10.605
1054.78	5.653
1058.49	112.385
1062.2	124.354
1065.91	57.839
1069.62	14.69
1073.32	65.624
1077.03	27.195
1080.73	66.834
1084.43	147.987
1088.13	65.045
1091.82	19.321
1095.52	27.713
1099.21	39.912
1102.9	38.308
1106.59	11.08
1110.28	77.073
1113.96	69.137
1117.65	24.945
1121.33	8.952
1125.01	1.021
1128.69	10.834
1132.37	30.192
1136.04	113.58
1139.71	197.533
1143.38	287.584
1147.05	215.103
1150.72	180.916
1154.39	150.143
1158.05	149.594
1161.71	170.968
1165.38	376.99
1169.04	427.465
1172.69	404.157
1176.35	311.559
1180	103.63
1183.65	203.599
1187.3	73.197
1190.95	230.821
1194.6	157.369
1198.24	468.755
1201.89	309.062
1205.53	107.341
1209.17	146.499
1212.81	144.374
1216.44	131.349
1220.08	142.258
1223.71	294.819
1227.34	351.282
1230.97	428.905
1234.6	318.223
1238.22	239.967
1241.84	242.879
1245.47	148.055
1249.09	189.981
1252.7	308.567
1256.32	389.875
1259.94	477.606
1263.55	477.576
1267.16	358.12
1270.77	366.195
1274.38	120.76
1277.99	56.873
1281.59	39.021
1285.19	247.869
1288.8	417.08
1292.39	476.605
1295.99	333.023
1299.59	151.698
1303.18	70.181
1306.78	97.571
1310.37	15.596
1313.96	53.293
1317.54	180.12
1321.13	530.154
1324.71	539.951
1328.3	439.812
1331.88	407.997
1335.45	117.229
1339.03	257.948
1342.61	116.839
1346.18	129.116
1349.75	292.076
1353.32	563.6
1356.89	686.023
1360.46	772.721
1364.03	745.092
1367.59	568.26
1371.15	472.544
1374.71	142.535
1378.27	121.071
1381.83	88.637
1385.38	263.979
1388.93	430.952
1392.48	632.956
1396.04	710.503
1399.58	645.607
1403.13	540.63
1406.67	0
