Measurement: Raman, 514 nm, ccw, Raman Data Processed
Mineral: Grossular
Rruff sample: R060452
Ideal chemistry: Ca_3_Al_2_(SiO_4_)_3_
Locality: unknown
Source: Gemological Institute of America
Description: Yellowish-brown colored fragment
Measured chemistry: (Ca_2.94_Mn_0.03_Mg_0.03_)_Σ=3_(Al_1.91_Fe^3+^_0.06_Ti_0.03_)_Σ=2_((Si_0.99_Al_0.01_)_Σ=1_O_4_)_3_
Pin_id: L01823
Orientation: Laser parallel to a* (1 0 0). Fiducial mark perpendicular to laser is parallel to c [0 0 1]
Raman shift (cm-1)	intensity
127.196	0
130.906	25.6331
134.615	4.03308
138.321	23.3425
142.026	13.5593
145.729	3.65222
149.431	109.451
153.131	68.4066
156.829	43.9242
160.526	41.942
164.221	41.4576
167.914	127.983
171.606	383.092
175.296	685.563
178.984	1709.14
182.671	1664.05
186.356	469.224
190.04	182.631
193.722	55.2343
197.402	53.0085
201.08	1.06897
204.757	9.11768
208.433	10.865
212.106	2.03662
215.778	6.69006
219.449	4.30444
223.118	2.81067
226.785	60.0449
230.45	184.367
234.114	334.707
237.777	534.1
241.437	663.549
245.096	678.983
248.754	437.424
252.41	258.88
256.064	78.3529
259.716	129.845
263.367	114.357
267.017	197.137
270.664	393.453
274.31	628.648
277.955	755.706
281.598	447.222
285.239	185.936
288.879	84.8715
292.517	24.406
296.153	24.1588
299.788	7.2793
303.422	69.8588
307.053	117.965
310.683	161.495
314.312	297.83
317.939	354.967
321.564	293.103
325.188	306.964
328.81	361.199
332.43	419.05
336.049	367.729
339.666	391.524
343.282	430.243
346.896	696.868
350.509	894.124
354.12	1289.3
357.729	2052.24
361.337	3669.76
364.943	7090.51
368.548	11821.4
372.151	14913.2
375.753	15464.1
379.352	8399.02
382.951	3626.95
386.548	1963.9
390.143	1147.88
393.736	857.887
397.328	694.935
400.919	580.009
404.508	663.117
408.095	849.222
411.681	1175.32
415.265	2244.42
418.848	1768.53
422.429	704.71
426.008	255.937
429.586	97.4778
433.163	30.4959
436.737	0.205322
440.311	5.90601
443.882	3.92114
447.453	30.3906
451.021	3.90137
454.588	5.11377
458.154	5.7876
461.718	26.5637
465.28	28.6309
468.841	77.3096
472.4	98.0828
475.958	145.441
479.514	179.695
483.069	57.8462
486.622	67.8677
490.174	70.7339
493.724	98.4365
497.272	133.958
500.819	261.861
504.365	272.989
507.909	473.634
511.451	341.943
514.992	238.56
518.531	167.238
522.069	330.653
525.605	510.547
529.14	482.353
532.673	357.316
536.205	422.955
539.735	1055.02
543.264	2138.86
546.791	4159.15
550.317	4693.93
553.841	2007.97
557.363	849.269
560.884	472.695
564.404	385.722
567.922	368.212
571.438	350.93
574.953	328.342
578.467	362.418
581.979	262.288
585.489	408.675
588.998	459.924
592.505	439.154
596.011	341.223
599.516	216.277
603.018	173.35
606.52	255.142
610.02	335.415
613.518	307.729
617.015	368.726
620.51	393.502
624.004	507.138
627.497	577.842
630.988	630.471
634.477	420.727
637.965	329.431
641.451	223.497
644.936	223.019
648.42	125.985
651.902	124.63
655.382	103.298
658.861	88.6226
662.339	30.3674
665.815	74.4365
669.289	74.9033
672.762	23.7544
676.234	19.9834
679.704	28.5435
683.172	20.4653
686.639	70.7595
690.105	68.4771
693.569	0.375244
697.032	0.279053
700.493	31.6826
703.953	12.5825
707.411	18.1602
710.868	68.0186
714.323	25.1775
717.777	20.5513
721.23	27.8364
724.681	20.8914
728.13	33.417
731.578	51.0732
735.024	16.0261
738.47	23.5625
741.913	38.8208
745.355	7.50342
748.796	27.0488
752.235	75.7617
755.673	25.1494
759.109	62.8897
762.544	102.986
765.978	205.465
769.41	239.368
772.84	357.696
776.269	558.467
779.697	602.715
783.123	499.456
786.548	520.807
789.971	435.716
793.393	481.37
796.813	442.374
800.232	562.966
803.65	837.648
807.066	1088.59
810.48	1458.4
813.893	1848.88
817.305	2431.36
820.715	2997.73
824.124	3473.31
827.532	3244.12
830.938	2590.15
834.342	2111.04
837.745	1813.14
841.147	1923.16
844.547	1969.37
847.946	2271.42
851.344	2264.17
854.74	2510.84
858.134	2650.98
861.527	3421.64
864.919	4461.75
868.309	6587.47
871.698	10643.1
875.086	17007.4
878.472	23629
881.856	23420.3
885.239	16489.7
888.621	10123.5
892.002	6249.94
895.381	4129.09
898.758	2636.09
902.134	1738.14
905.509	1285.99
908.882	1137.04
912.254	854.046
915.625	768.231
918.994	726.13
922.361	453.346
925.728	455.728
929.093	401.148
932.456	342.349
935.818	262.95
939.179	164.503
942.538	199.011
945.896	259.405
949.252	125.899
952.607	270.428
955.961	146.19
959.313	31.2178
962.664	38.02
966.014	64.3477
969.362	1.08984
972.709	126.586
976.054	192.326
979.398	282.76
982.74	270.867
986.082	469.533
989.421	449.913
992.76	514.578
996.097	663.273
999.432	690.044
1002.77	910.44
1006.1	1240.6
1009.43	980.707
1012.76	740.888
1016.09	536.961
1019.42	355.868
1022.74	181.549
1026.07	87.626
1029.39	146.515
1032.71	140.474
1036.03	23.8076
1039.35	73.3965
1042.67	78.0449
1045.99	96.6025
1049.3	141.899
1052.62	43.9043
1055.93	55.1406
1059.24	65.1719
1062.55	139.955
1065.86	206.791
1069.16	102.99
1072.47	144.337
1075.77	282.473
1079.08	77.7617
1082.38	83.1992
1085.68	231.575
1088.97	109.778
1092.27	90.6836
1095.57	80.2022
1098.86	61.0781
1102.16	33.1797
1105.45	41.9092
1108.74	50.4502
1112.03	1.24707
1115.32	25.1064
1118.6	16.5039
1121.89	32.4228
1125.17	64.3936
1128.45	72.1514
1131.73	133.054
1135.02	84.0225
1138.29	93.2109
1141.57	81.8555
1144.85	254.077
1148.12	176.067
1151.39	309.893
1154.67	320.128
1157.94	294.382
1161.2	223.731
1164.47	403.942
1167.74	495.083
1171.01	385.478
1174.27	315.961
1177.53	280.148
1180.79	347.66
1184.05	370.16
1187.31	302.559
1190.57	160.244
1193.82	92.2812
1197.08	121.16
1200.33	167.967
1203.58	147.303
1206.83	109.111
1210.08	4.52344
1213.33	44.8418
1216.58	183.047
1219.82	213.035
1223.07	291.658
1226.31	148.949
1229.55	232.35
1232.79	171.664
1236.03	51.8008
1239.27	190.574
1242.5	184.535
1245.74	166.752
1248.97	120.828
1252.2	194.644
1255.43	130.889
1258.66	228.988
1261.89	220.449
