Measurement: Raman, 514 nm, ccw, Raman Data Processed
Mineral: Grossular
Rruff sample: R060443
Ideal chemistry: Ca_3_Al_2_(SiO_4_)_3_
Locality: unknown
Source: Gemological Institute of America
Description: Yellowish tan colored single crystal
Measured chemistry: (Ca_2.92_Mn_0.03_Mg_0.03_Fe^2+^_0.02_)_Σ=3_(Al_1.86_Fe^3+^_0.14_)_Σ=2_(Si_1.00_O_4_)_3_; trace amounts of Ti
Pin_id: L01228
Orientation: Laser parallel to a* (1 0 0). Fiducial mark perpendicular to laser is parallel to c [0 0 1]
Raman shift (cm-1)	intensity
114.818	0
119.772	84.3911
124.722	79.9865
129.67	57.7556
134.615	55.4469
139.556	60.377
144.495	7.51196
149.431	0.397949
154.364	2.20215
159.294	55.3124
164.221	34.8931
169.145	222.841
174.066	650.382
178.984	1764.44
183.9	1056.97
188.812	260.941
193.722	83.6968
198.628	46.9683
203.532	91.1145
208.433	22.8218
213.331	81.3591
218.226	115.072
223.118	233.631
228.007	493.062
232.893	1310.38
237.777	2904.52
242.657	3360.53
247.535	4388.44
252.41	1104.27
257.281	453.051
262.15	466.193
267.017	833.84
271.88	1887.65
276.74	3735.57
281.598	2279.93
286.453	894.997
291.304	526.012
296.153	186.322
301	41.4714
305.843	39.2617
310.683	185.873
315.521	359.248
320.356	541.363
325.188	968.197
330.017	1570.73
334.843	948.944
339.666	987.822
344.487	1494.36
349.305	1882.56
354.12	2594.45
358.932	4852.41
363.741	10676.4
368.548	23237
373.352	40670.2
378.153	33966.2
382.951	12527.9
387.746	5205.49
392.539	2747.03
397.328	1778.46
402.115	1503.76
406.899	1525.71
411.681	1795.28
416.459	1856.6
421.235	560.676
426.008	37.5388
430.779	45.8945
435.546	66.8164
440.311	40.1785
445.073	22.5447
449.832	285.368
454.588	550.506
459.342	643.142
464.093	641.235
468.841	639.725
473.587	939.588
478.329	1068.81
483.069	675.356
487.806	607.221
492.541	764.38
497.272	1168.83
502.001	1368.56
506.728	1834.54
511.451	1462.82
516.172	879.408
520.89	692.689
525.605	833.046
530.318	752.755
535.028	1426.15
539.735	4243.23
544.44	10550.4
549.141	11927.8
553.841	3576.62
558.537	1285.76
563.231	789.734
567.922	747.47
572.61	689.325
577.296	609.336
581.979	582.682
586.659	505.548
591.336	439.913
596.011	319.475
600.683	416.645
605.353	658.807
610.02	755.23
614.684	952.359
619.345	1272.01
624.004	1722.29
628.661	2012.2
633.314	1295.72
637.965	643.843
642.613	272.561
647.259	123.862
651.902	89.7163
656.542	20.0469
661.18	14.3108
665.815	21.636
670.447	37.1492
675.077	45.8154
679.704	43.3855
684.328	29.3894
688.95	46.2236
693.569	34.3123
698.186	30.2285
702.8	26.9319
707.411	6.47144
712.02	29.8596
716.626	16.9458
721.23	9.27393
725.83	25.9456
730.429	18.8289
735.024	2.84839
739.618	50.0247
744.208	61.7717
748.796	170.152
753.381	97.1819
757.964	139.874
762.544	309.24
767.122	428.29
771.697	765.035
776.269	786.488
780.839	652.658
785.406	582.561
789.971	628.13
794.533	781.431
799.093	1037.15
803.65	1560.42
808.204	2655
812.756	4336.46
817.305	7305.03
821.852	11372.3
826.396	11926.8
830.938	8585.83
835.477	6424.57
840.013	5704.51
844.547	5525.61
849.079	5745.01
853.608	5892.33
858.134	6488.26
862.658	8662.06
867.179	13531.5
871.698	24988.4
876.214	43872.7
880.728	50301.5
885.239	31989.8
889.748	16043.2
894.254	8508.84
898.758	5252.68
903.259	3788.69
907.758	3086.89
912.254	2452.27
916.748	2045.85
921.239	1606.75
925.728	1403.3
930.214	1172.56
934.698	1102
939.179	1132.95
943.657	1311.05
948.134	1368.61
952.607	1065.38
957.079	654.627
961.548	397.684
966.014	324.99
970.478	632.374
974.939	1020.26
979.398	1413.15
983.854	1701.62
988.308	1784.03
992.76	1962.99
997.209	2338.21
1001.65	2997.99
1006.1	3523.94
1010.54	2754.69
1014.98	1346.48
1019.42	640.285
1023.85	402.114
1028.28	326.969
1032.71	332.522
1037.14	149.679
1041.56	64.5478
1045.99	76.4263
1050.41	5.35547
1054.82	104.205
1059.24	39.8096
1063.65	48.0044
1068.06	39.2878
1072.47	83.9426
1076.87	64.1572
1081.28	29.6685
1085.68	4.67749
1090.08	12.8113
1094.47	41.3857
1098.86	1.08081
1103.25	19.0671
1107.64	22.3682
1112.03	4.19629
1116.41	35.5256
1120.79	64.8262
1125.17	38.7883
1129.55	57.4692
1133.92	113.841
1138.29	259.88
1142.66	251.622
1147.03	223.295
1151.39	359.317
1155.76	380.091
1160.12	268.098
1164.47	346.035
1168.83	311.058
1173.18	355.908
1177.53	286.107
1181.88	274.28
1186.22	156.981
1190.57	220.972
1194.91	150.488
1199.25	101.028
1203.58	93.3557
1207.92	232.158
1212.25	249.039
1216.58	172.778
1220.9	187.763
1225.23	246.456
1229.55	137.116
1233.87	222.487
1238.19	314.758
1242.5	182.531
1246.81	252.394
1251.12	235.921
1255.43	247.917
1259.74	368.328
1264.04	234.483
1268.34	201.349
1272.64	159.386
1276.94	132.984
1281.23	73.3081
1285.52	21.5259
1289.81	131.232
1294.1	125.882
1298.39	13.3755
1302.67	19.04
1306.95	120.536
1311.23	155.468
1315.5	104.926
1319.78	125.45
1324.05	164.631
1328.32	101.681
1332.58	50.23
1336.85	98.9282
1341.11	117.773
1345.37	162.28
1349.63	91.2295
1353.88	3.21435
1358.13	123.064
1362.38	64.1548
1366.63	48.9307
1370.88	2.41894
1375.12	27.7559
1379.36	3.63623
1383.6	32.4292
1387.84	67.8389
1392.08	102.666
1396.31	76.9917
1400.54	2.96045
1404.77	116.259
1408.99	182.344
1413.21	112.651
1417.44	77.9346
1421.66	120.153
1425.87	148.119
1430.09	185.326
1434.3	142.858
1438.51	134.064
1442.72	295.726
1446.92	152.847
1451.13	216.48
1455.33	265.31
1459.53	291.477
1463.72	182.903
1467.92	262.772
1472.11	150.975
1476.3	167.167
1480.49	152.133
1484.67	97.2554
1488.86	115.957
1493.04	22.7671
1497.22	105.44
1501.39	69.4902
1505.57	18.1338
1509.74	119.525
1513.91	148.264
1518.08	103.825
1522.25	53.8379
1526.41	35.8877
1530.57	118.872
1534.73	79.5625
1538.89	3.17383
1543.04	101.557
1547.2	40.0898
1551.35	17.9814
1555.49	124.817
1559.64	11.4985
1563.79	0
