Measurement: Raman, 514 nm, ccw, Raman Data Processed
Mineral: Grossular
Rruff sample: R060452
Ideal chemistry: Ca_3_Al_2_(SiO_4_)_3_
Locality: unknown
Source: Gemological Institute of America
Description: Yellowish-brown colored fragment
Measured chemistry: (Ca_2.94_Mn_0.03_Mg_0.03_)_Σ=3_(Al_1.91_Fe^3+^_0.06_Ti_0.03_)_Σ=2_((Si_0.99_Al_0.01_)_Σ=1_O_4_)_3_
Pin_id: L01823
Orientation: Laser parallel to a* (1 0 0). Fiducial mark perpendicular to laser is parallel to c [0 0 1]
Raman shift (cm-1)	intensity
127.196	0
130.906	48.385
134.615	87.338
138.321	89.4463
142.026	72.0531
145.729	72.7599
149.431	42.7199
153.131	97.4473
156.829	69.5919
160.526	99.8711
164.221	116.071
167.914	105.007
171.606	211.654
175.296	293.08
178.984	786.037
182.671	687.436
186.356	221.208
190.04	96.2998
193.722	34.6658
197.402	46.2717
201.08	60.084
204.757	39.9443
208.433	25.8252
212.106	21.1314
215.778	30.936
219.449	90.2883
223.118	94.4104
226.785	147.386
230.45	310.016
234.114	558.674
237.777	1051.37
241.437	1180.12
245.096	1513.91
248.754	1473.73
252.41	529.57
256.064	121.443
259.716	155.346
263.367	161.278
267.017	232.241
270.664	489.231
274.31	1000.68
277.955	1815.99
281.598	1077.16
285.239	363.867
288.879	212.263
292.517	53.8918
296.153	3.25073
299.788	51.4023
303.422	45.7815
307.053	41.0632
310.683	97.7925
314.312	136.714
317.939	201.179
321.564	187.978
325.188	255.163
328.81	475.58
332.43	450.783
336.049	386.031
339.666	389.316
343.282	401.981
346.896	654.401
350.509	822.255
354.12	995.724
357.729	1548.13
361.337	2681.53
364.943	4820.92
368.548	8412.42
372.151	13424.8
375.753	16110.2
379.352	8816.71
382.951	3886.21
386.548	2024.74
390.143	1262.28
393.736	847.833
397.328	706.407
400.919	590.995
404.508	580.59
408.095	641.188
411.681	656.806
415.265	1015.43
418.848	794.108
422.429	322.867
426.008	114.696
429.586	14.5906
433.163	7.53564
436.737	74.761
440.311	31.9197
443.882	42.377
447.453	109.002
451.021	10.8794
454.588	57.8699
458.154	94.397
461.718	37.581
465.28	42.4304
468.841	45.9385
472.4	141.395
475.958	284.475
479.514	324.173
483.069	306.766
486.622	112.24
490.174	90.5774
493.724	174.762
497.272	153.778
500.819	260.605
504.365	474.397
507.909	901.926
511.451	823.801
514.992	362.493
518.531	268.681
522.069	197.951
525.605	362.211
529.14	331.967
532.673	257.639
536.205	465.353
539.735	895.487
543.264	2059.41
546.791	4295.67
550.317	5170.44
553.841	2329.34
557.363	971.56
560.884	561.832
564.404	486.295
567.922	460.206
571.438	366.793
574.953	321.522
578.467	260.938
581.979	285.709
585.489	314.55
588.998	274.872
592.505	240.459
596.011	144.614
599.516	187.003
603.018	214.156
606.52	269.112
610.02	194.278
613.518	340.436
617.015	336.283
620.51	466.378
624.004	601.671
627.497	833.552
630.988	778.383
634.477	545.201
637.965	439.362
641.451	288.414
644.936	159.551
648.42	122.124
651.902	123.132
655.382	84.7488
658.861	109.605
662.339	53.9927
665.815	62.6611
669.289	90.7476
672.762	69.2583
676.234	64.1719
679.704	139.461
683.172	21.1519
686.639	64.2495
690.105	8.77685
693.569	65.7261
697.032	45.8272
700.493	14.0454
703.953	2.79932
707.411	8.35254
710.868	96.3438
714.323	34.3935
717.777	72.7402
721.23	8.61523
724.681	22.3784
728.13	93.6699
731.578	29.8364
735.024	29.8389
738.47	26.5586
741.913	1.45606
745.355	69.1074
748.796	44.3833
752.235	81.1123
755.673	90.7725
759.109	129.051
762.544	190.672
765.978	259.658
769.41	237.077
772.84	414.022
776.269	464.437
779.697	487.054
783.123	653.701
786.548	544.432
789.971	459.593
793.393	509.163
796.813	476.092
800.232	693.5
803.65	777.998
807.066	1249.81
810.48	1688.94
813.893	2227.9
817.305	3188.1
820.715	4247.9
824.124	5233.49
827.532	4919.84
830.938	3651.87
834.342	2849.8
837.745	2432.99
841.147	2490.09
844.547	2437.59
847.946	2724.41
851.344	2868.42
854.74	2881.77
858.134	3012.56
861.527	3563.97
864.919	4646.51
868.309	6767.34
871.698	10682.1
875.086	17154.6
878.472	25050.9
881.856	25071.3
885.239	18001.1
888.621	11084.4
892.002	6800.83
895.381	4497.04
898.758	2905.2
902.134	1835.75
905.509	1434.29
908.882	1171.32
912.254	1079.99
915.625	850.633
918.994	773.486
922.361	533.412
925.728	644.512
929.093	525.758
932.456	541.477
935.818	416.714
939.179	415.769
942.538	275.009
945.896	454.712
949.252	299.582
952.607	315.017
955.961	170.122
959.313	93.7734
962.664	15.794
966.014	48.6357
969.362	9.07129
972.709	78.5996
976.054	223.37
979.398	358.477
982.74	408.894
986.082	498.354
989.421	393.063
992.76	499.911
996.097	683.868
999.432	838.737
1002.77	1164.92
1006.1	1456.26
1009.43	1364.8
1012.76	961.339
1016.09	714.012
1019.42	245.356
1022.74	180.171
1026.07	111.904
1029.39	101.561
1032.71	37.0156
1036.03	27.4629
1039.35	3.45117
1042.67	85.1289
1045.99	62.6885
1049.3	82.0391
1052.62	41.8848
1055.93	118.763
1059.24	47.499
1062.55	259.363
1065.86	222.991
1069.16	160.174
1072.47	132.439
1075.77	169.023
1079.08	205.764
1082.38	61.7168
1085.68	122.906
1088.97	166.549
1092.27	123.133
1095.57	230.119
1098.86	368.571
1102.16	334.097
1105.45	281.478
1108.74	277.177
1112.03	327.767
1115.32	72.6191
1118.6	181.412
1121.89	184.948
1125.17	78.9551
1128.45	176.658
1131.73	198.861
1135.02	227.003
1138.29	210.675
1141.57	257.512
1144.85	341.82
1148.12	120.875
1151.39	293.734
1154.67	19.7949
1157.94	197.566
1161.2	295.051
1164.47	78.6172
1167.74	40.1289
1171.01	27.752
1174.27	43.5293
1177.53	0
