Measurement: Raman, 514 nm, ccw, Raman Data Processed
Mineral: Grossular
Rruff sample: R060382
Ideal chemistry: Ca_3_Al_2_(SiO_4_)_3_
Locality: Lalatema, near Mount Kilimanjaro, Tanzania
Source: Herb Obodda
Description: Pale tan colored fragment
Measured chemistry: (Ca_2.95_Mg_0.03_Mn_0.02_)_Σ=3_Al_2.00_((Si_0.99_Ti_0.01_)_Σ=1_O_4_)_3_; trace amounts of Fe
Pin_id: L01581
Orientation: Laser parallel to -a* (-1 0 0). Fiducial mark perpendicular to laser is parallel to 0 1 0
Raman shift (cm-1)	intensity
118.534	0
122.247	9.21069
125.959	15.9346
129.67	9.87231
133.379	29.6445
137.086	13.9622
140.791	16.943
144.495	58.6836
148.197	7.65662
151.898	42.9188
155.597	27.1826
159.294	50.0157
162.989	26.2125
166.683	118.19
170.376	214.052
174.066	466.385
177.755	914.425
181.442	1297.85
185.128	541.41
188.812	209.078
192.495	43.822
196.175	47.5979
199.854	37.3848
203.532	109.2
207.208	3.08069
210.882	9.17261
214.555	47.5203
218.226	56.0583
221.895	22.7495
225.563	25.4802
229.229	38.2821
232.893	95.147
236.556	14.1073
240.217	75.0384
243.877	55.9676
247.535	118.884
251.191	81.7501
254.846	62.5298
258.499	62.2411
262.15	47.8835
265.8	55.3634
269.449	101.636
273.095	82.8716
276.74	167.968
280.384	87.2954
284.026	55.6409
287.666	57.2856
291.304	75.7815
294.941	41.4197
298.577	38.3315
302.211	86.0044
305.843	77.7117
309.473	142.863
313.103	249.434
316.73	289.002
320.356	355.521
323.98	365
327.603	358.396
331.224	304.969
334.843	239.578
338.461	192.752
342.077	263.255
345.692	262.217
349.305	488.371
352.916	591.393
356.526	1015.27
360.135	1813.14
363.741	3264.64
367.347	5665.72
370.95	7251.66
374.552	7771.33
378.153	5182.83
381.751	2585.35
385.349	1264.03
388.944	720.663
392.539	540.276
396.131	460.895
399.722	411.364
403.312	399.793
406.899	526.174
410.486	825.5
414.07	1317.77
417.654	1391.99
421.235	765.165
424.815	314.489
428.394	93.5239
431.971	119.097
435.546	123.226
439.12	80.2368
442.692	55.6853
446.263	2.85498
449.832	44.1531
453.399	0.610107
456.966	18.4719
460.53	33.6277
464.093	25.4844
467.654	38.189
471.214	7.57739
474.772	57.0037
478.329	27.1489
481.884	76.2854
485.438	16.4678
488.99	26.7903
492.541	30.7817
496.09	99.4824
499.637	25.9277
503.183	77.6653
506.728	55.0015
510.271	80.8296
513.812	138.263
517.352	113.035
520.89	115.047
524.427	298.697
527.962	374.773
531.496	207.625
535.028	160.152
538.559	407.089
542.088	854.251
545.615	1660.35
549.141	2272.07
552.666	1378.18
556.189	672.038
559.711	412.071
563.231	181.803
566.749	266.578
570.266	155.894
573.782	222.009
577.296	208.425
580.808	154.254
584.319	202.632
587.828	306.113
591.336	325.254
594.843	257.059
598.348	187.471
601.851	175.004
605.353	211.704
608.853	218.536
612.352	205.855
615.85	237.13
619.345	296.514
622.84	242.448
626.333	291.764
629.824	322.236
633.314	242.548
636.802	291.97
640.289	214.731
643.775	130.565
647.259	190.975
650.741	179.179
654.222	42.1367
657.702	67.5869
661.18	124.455
664.656	71.8477
668.131	62.8787
671.605	70.8218
675.077	76.1052
678.547	44.9853
682.016	22.6711
685.484	71.084
688.95	36.3384
692.415	76.0647
695.878	92.2649
699.34	64.8987
702.8	28.8581
706.259	108.274
709.716	17.0342
713.172	32.958
716.626	41.4062
720.079	70.1157
723.53	16.4995
726.98	47.4878
730.429	62.1665
733.876	59.4224
737.321	17.896
740.765	2.81348
744.208	27.6514
747.649	31.8887
751.089	49.1465
754.527	8.0542
757.964	66.104
761.399	37.3989
764.833	140.501
768.266	231.081
771.697	307.794
775.126	408.985
778.554	294.701
781.981	420.638
785.406	346.186
788.83	280.661
792.252	224.879
795.673	210.241
799.093	309.185
802.511	301.765
805.927	571.53
809.342	669.915
812.756	697.817
816.168	802.344
819.579	892.741
822.988	1090.78
826.396	1076.15
829.802	822.672
833.208	812.325
836.611	799.978
840.013	768.143
843.414	893.305
846.813	851.742
850.211	1008.16
853.608	1161.38
857.003	1187.8
860.396	1632.48
863.789	2193.59
867.179	3060.4
870.569	5020.16
873.957	7928.57
877.343	11485
880.728	12087.7
884.112	9070.4
887.494	6451.22
890.875	5084.64
894.254	3957.97
897.632	2968.63
901.009	1717.2
904.384	1085.04
907.758	686.517
911.13	506.691
914.501	495.904
917.871	500.178
921.239	263.592
924.606	269.846
927.971	194.711
931.335	297.733
934.698	333.752
938.059	173.565
941.418	183.625
944.777	31.5947
948.134	233.636
951.489	132.29
954.843	64.4346
958.196	56.9014
961.548	33.3867
964.897	0.615234
968.246	43.1074
971.593	48.374
974.939	52.3242
978.283	71.7441
981.626	175.415
984.968	355.637
988.308	214.143
991.647	260.39
994.985	345.666
998.321	289.107
1001.65	529.852
1004.99	368.624
1008.32	677.837
1011.65	701.17
1014.98	1105.54
1018.31	1100.57
1021.63	570.048
1024.96	230.564
1028.28	131.272
1031.61	223.948
1034.93	366.577
1038.25	167.338
1041.56	153.435
1044.88	197.526
1048.2	159.133
1051.51	199.495
1054.82	187.447
1058.13	279.958
1061.44	511.399
1064.75	247.272
1068.06	325.836
1071.37	67.6543
1074.67	53.1777
1077.97	129.961
1081.28	71.9951
1084.58	135.511
1087.88	12.4932
1091.17	23.3857
1094.47	4.7666
1097.77	75.876
1101.06	1.63477
1104.35	12.6045
1107.64	13.7646
1110.93	140.008
1114.22	78.2158
1117.51	31.3955
1120.79	115.353
1124.08	182.118
1127.36	171.865
1130.64	300.003
1133.92	493.779
1137.2	711.085
1140.48	851.55
1143.76	695.201
1147.03	576.25
1150.3	485.281
1153.58	518.636
1156.85	443.843
1160.12	547.037
1163.38	405.51
1166.65	423.807
1169.92	362.234
1173.18	324.875
1176.44	485.365
1179.7	498.148
1182.96	387.816
1186.22	232.113
1189.48	110.447
1192.74	117.461
1195.99	141.978
1199.25	153.898
1202.5	290.414
1205.75	156.49
1209	116.143
1212.25	37.4121
1215.49	89.8769
1218.74	149.522
1221.98	118.352
1225.23	94.834
1228.47	113.566
1231.71	65.5254
1234.95	193.56
1238.19	18.4902
