Measurement: Raman, 514 nm, ccw, Raman Data Processed
Mineral: Grossular
Rruff sample: R060453
Ideal chemistry: Ca_3_Al_2_(SiO_4_)_3_
Locality: unknown
Source: Gemological Institute of America
Description: Green colored fragment
Measured chemistry: (Ca_2.91_Mg_0.05_Mn_0.04_)_Σ=3_(Al_1.96_Ti_0.02_[box]_0.02_)_Σ=2_(Si_1.00_O_4_)_3_; trace amounts of Fe and Cr
Pin_id: L01253
Orientation: Laser parallel to a* (1 0 0). Fiducial mark perpendicular to laser is parallel to b [0 1 0]
Raman shift (cm-1)	intensity
122.247	0
125.959	16.2139
129.67	3.09668
133.379	93.8552
137.086	0.864502
140.791	32.3394
144.495	51.7375
148.197	12.9377
151.898	79.2669
155.597	70.7673
159.294	75.4646
162.989	87.6467
166.683	140.47
170.376	294.768
174.066	788.338
177.755	969.769
181.442	1414.14
185.128	1084.71
188.812	375.429
192.495	160.269
196.175	148.424
199.854	90.3516
203.532	98.2749
207.208	82.0635
210.882	40.5789
214.555	35.7095
218.226	11.9927
221.895	77.6079
225.563	44.4849
229.229	64.4255
232.893	26.5244
236.556	39.4382
240.217	60.5979
243.877	91.8625
247.535	96.1064
251.191	44.2705
254.846	91.3723
258.499	56.3965
262.15	60.3438
265.8	42.2131
269.449	5.90454
273.095	85.022
276.74	154.138
280.384	113.255
284.026	57.6611
287.666	33.1248
291.304	40.9214
294.941	5.6355
298.577	10.626
302.211	59.2588
305.843	145.796
309.473	180.75
313.103	263.752
316.73	377.971
320.356	272.024
323.98	282.463
327.603	247.393
331.224	281.842
334.843	253.638
338.461	267.361
342.077	351.957
345.692	482.805
349.305	660.481
352.916	946.869
356.526	1647.19
360.135	2770.46
363.741	4815.84
367.347	7736.72
370.95	9654.19
374.552	9852.82
378.153	7909.31
381.751	3942.19
385.349	1867.02
388.944	1045.79
392.539	744.496
396.131	513.145
399.722	411.726
403.312	513.241
406.899	854.702
410.486	1185.03
414.07	1521.28
417.654	1762.52
421.235	1100.72
424.815	462.863
428.394	222.929
431.971	105.959
435.546	92.3035
439.12	50.3694
442.692	25.8435
446.263	32.7056
449.832	0.104492
453.399	29.3418
456.966	26.7158
460.53	23.3591
464.093	40.1882
467.654	99.1606
471.214	7.71387
474.772	52.9907
478.329	79.1096
481.884	92.6243
485.438	91.0027
488.99	23.7014
492.541	138.716
496.09	58.1611
499.637	129.301
503.183	77.9697
506.728	101.52
510.271	79.2612
513.812	124.397
517.352	69.3581
520.89	325.153
524.427	424.171
527.962	457.887
531.496	345.209
535.028	289.779
538.559	588.303
542.088	1210.08
545.615	2048.51
549.141	2846.89
552.666	2321.21
556.189	946.474
559.711	502.172
563.231	290.546
566.749	319.423
570.266	311.331
573.782	259.95
577.296	216.963
580.808	222.421
584.319	356.835
587.828	425.12
591.336	432.502
594.843	374.642
598.348	282.399
601.851	285.756
605.353	239.498
608.853	136.659
612.352	178.06
615.85	193.969
619.345	273.03
622.84	244.171
626.333	322.437
629.824	231.123
633.314	266.434
636.802	259.31
640.289	210.65
643.775	239.093
647.259	236.573
650.741	112.104
654.222	160.483
657.702	63.6797
661.18	59.1118
664.656	77.5635
668.131	78.1787
671.605	67.0801
675.077	83.4009
678.547	45.1572
682.016	57.3364
685.484	106.934
688.95	81.9268
692.415	140.363
695.878	70.2671
699.34	32.5981
702.8	7.70703
706.259	37.3603
709.716	61.8071
713.172	12.6362
716.626	32.7041
720.079	148.052
723.53	35.853
726.98	0.986328
730.429	0.53125
733.876	43.6304
737.321	32.4971
740.765	52.6343
744.208	4.73242
747.649	23.2578
751.089	88.3296
754.527	38.7676
757.964	39.5225
761.399	44.3965
764.833	73.0332
768.266	125.864
771.697	196.977
775.126	336.604
778.554	336.508
781.981	328.444
785.406	263.455
788.83	263.178
792.252	257.785
795.673	280.593
799.093	351.565
802.511	241.384
805.927	666.835
809.342	715.801
812.756	847.829
816.168	843.029
819.579	939.983
822.988	1030.82
826.396	1101.5
829.802	1068.32
833.208	929.866
836.611	878.241
840.013	837.436
843.414	957.118
846.813	1082.51
850.211	1311.38
853.608	1392.98
857.003	1554.38
860.396	2049.29
863.789	2898.33
867.179	4182.35
870.569	6657.27
873.957	10721.5
877.343	15026.3
880.728	16802.3
884.112	14023.7
887.494	9546.76
890.875	6413.66
894.254	4383.4
897.632	3180.75
901.009	2027.85
904.384	1200.53
907.758	830.813
911.13	755.219
914.501	482.4
917.871	678.396
921.239	487.849
924.606	406.397
927.971	495.422
931.335	207.612
934.698	288.647
938.059	96.3164
941.418	186.816
944.777	24.1504
948.134	108.307
951.489	40.9307
954.843	31.1016
958.196	54.1182
961.548	41.2949
964.897	7.27539
968.246	22.9004
971.593	134.645
974.939	156.392
978.283	245.572
981.626	230.696
984.968	252.644
988.308	273.555
991.647	285.728
994.985	272.94
998.321	312.41
1001.65	343.897
1004.99	461.557
1008.32	571.766
1011.65	730.335
1014.98	824.814
1018.31	841.856
1021.63	534.76
1024.96	125.66
1028.28	312.975
1031.61	228.185
1034.93	194.554
1038.25	193.113
1041.56	136.462
1044.88	198.924
1048.2	219.673
1051.51	184.758
1054.82	260.17
1058.13	356.441
1061.44	320.371
1064.75	195.201
1068.06	163.821
1071.37	141.11
1074.67	150.148
1077.97	130.017
1081.28	69.0352
1084.58	130.905
1087.88	149.649
1091.17	122.347
1094.47	14.6943
1097.77	41.2949
1101.06	47.4434
1104.35	100.398
1107.64	144.406
1110.93	35.9746
1114.22	6.6582
1117.51	29.3613
1120.79	177.574
1124.08	163.09
1127.36	228.994
1130.64	100.615
1133.92	467.328
1137.2	520.604
1140.48	642.316
1143.76	660.166
1147.03	501.334
1150.3	308.264
1153.58	340.453
1156.85	500.438
1160.12	421.242
1163.38	370.074
1166.65	436.207
1169.92	480.242
1173.18	468.147
1176.44	472.795
1179.7	599.322
1182.96	243.297
1186.22	255.559
1189.48	382.967
1192.74	53.377
1195.99	338.293
1199.25	221.383
1202.5	283.941
1205.75	423.559
1209	322.254
1212.25	248.889
1215.49	206.82
1218.74	439.006
1221.98	403.922
1225.23	313.602
1228.47	282.981
1231.71	390.246
1234.95	380.777
1238.19	316.873
1241.42	212.736
1244.66	403.342
1247.89	159.199
1251.12	19.8047
