Measurement: Raman, 514 nm, ccw, Raman Data Processed
Mineral: Grossular
Rruff sample: R050312
Ideal chemistry: Ca_3_Al_2_(SiO_4_)_3_
Locality: Eden Mills mine, Vermont, USA
Source: Eugene Schlepp
Description: Red crystal
Measured chemistry: Ca_3.00_(Al_1.75_Fe^3+^_0.23_Ti_0.02_)_Σ=2_((Si_0.99_Al_0.01_)_Σ=1_O_4_)_3_
Pin_id: L01494
Orientation: Laser parallel to a* (1 0 0). Fiducial mark perpendicular to laser is parallel to c [0 0 1]
Raman shift (cm-1)	intensity
144.753	0
149.673	29.8389
154.592	59.0891
159.508	37.5576
164.421	344.651
169.332	1621.54
174.24	3176.46
179.146	4104.72
184.049	2048.8
188.95	633.467
193.848	163.757
198.743	157.1
203.636	6.89282
208.527	81.4233
213.415	31.4106
218.301	22.449
223.183	31.9004
228.064	286.54
232.942	799.652
237.817	1172.39
242.69	1331.85
247.56	1054.12
252.428	524.168
257.293	470.473
262.156	643.954
267.016	936.41
271.874	1318.9
276.729	1501.48
281.581	1121.17
286.431	935.015
291.279	695.61
296.124	380.444
300.966	475.983
305.806	757.565
310.643	1023.02
315.478	1142.38
320.31	1385.58
325.14	1608.94
329.967	1665.01
334.792	1803.82
339.614	2274.71
344.433	3202.49
349.25	5085.36
354.065	9065.24
358.876	18270.8
363.686	33597.8
368.493	47803.5
373.297	48037.6
378.099	29101.2
382.898	12676.5
387.694	6409.45
392.488	4049.16
397.28	3169.56
402.069	3431.65
406.855	4528.45
411.639	5593.81
416.42	3740.82
421.199	1212.37
425.975	363.244
430.749	9.43701
435.52	130.287
440.289	11.9609
445.055	151.54
449.818	366.142
454.579	487.762
459.338	523.326
464.094	517.781
468.847	463.092
473.597	531.224
478.346	395.133
483.091	426.777
487.834	697.117
492.575	1257.11
497.313	1324.82
502.048	1238.72
506.781	1085.06
511.511	688.658
516.239	727.401
520.964	831.988
525.687	1038.8
530.407	1560.81
535.124	4040.2
539.839	9368.29
544.552	13559.2
549.262	8160.29
553.969	2700.23
558.674	1411.77
563.376	1300.6
568.075	1222.81
572.772	1138.53
577.467	1068.75
582.159	1074.79
586.848	1150.14
591.535	1030.28
596.219	871.364
600.901	1004.42
605.58	1366.93
610.257	1537.88
614.931	1926.23
619.602	2138.96
624.271	2282.05
628.937	2013.47
633.601	1226.2
638.262	712.215
642.921	293.502
647.577	191.039
652.23	106.769
656.881	49.4045
661.53	44.0293
666.175	41.2456
670.819	48.3848
675.459	62.3894
680.097	46.2734
684.733	40.1272
689.366	51.9102
693.996	102.585
698.624	90.271
703.25	38.7749
707.872	23.854
712.492	40.4324
717.11	64.7996
721.725	12.0215
726.338	56.1604
730.947	91.459
735.555	206.009
740.16	154.867
744.762	150.056
749.361	466.597
753.958	558.507
758.553	751.807
763.145	1061.52
767.734	1503.66
772.321	1999.25
776.905	2578.32
781.487	2980.91
786.066	3010.07
790.642	2854.94
795.216	3189.95
799.788	4309.02
804.356	6097.06
808.923	8545.57
813.486	10767.5
818.047	12772.9
822.606	14387.9
827.162	13755.9
831.715	12163.8
836.266	10765.1
840.814	10076.9
845.36	10000
849.903	10187.1
854.444	10647.5
858.982	11830.2
863.517	15433.2
868.05	23548.3
872.58	39640.2
877.108	56737.6
881.633	56276.4
886.155	37012.5
890.675	20314
895.193	12026
899.707	7932.37
904.22	6064.17
908.729	4773.42
913.236	3812.43
917.741	3056.74
922.243	2459.77
926.742	2070.17
931.239	1878.79
935.733	1693.29
940.225	1973.7
944.714	2115.65
949.2	2016.3
953.684	1520.82
958.166	988.762
962.644	709.014
967.121	916.858
971.594	1260.99
976.065	1780.24
980.534	2201.93
985	2676.39
989.463	2918.9
993.924	2971.95
998.382	3296.5
1002.84	3863.41
1007.29	3663.63
1011.74	2438.14
1016.19	1153.92
1020.63	569.97
1025.08	288.271
1029.52	287.854
1033.95	205.716
1038.39	92.8452
1042.82	68.1875
1047.25	57.793
1051.68	6.42432
1056.1	16.5859
1060.53	14.1675
1064.95	53.1103
1069.36	5.63672
1073.78	49.6963
1078.19	92.3154
1082.6	55.3633
1087.01	50.1435
1091.41	10.7456
1095.81	44.0664
1100.21	41.0049
1104.61	34.3081
1109	26.6567
1113.39	44.8706
1117.78	352.158
1122.16	423.98
1126.55	333.578
1130.93	193.935
1135.31	263.04
1139.68	330.877
1144.06	362.437
1148.43	447.82
1152.8	522.1
1157.16	421.397
1161.52	474.369
1165.88	417.074
1170.24	413.319
1174.6	378.831
1178.95	330.666
1183.3	289.301
1187.65	225.472
1191.99	178.142
1196.33	153.932
1200.67	179.023
1205.01	206.719
1209.35	208.796
1213.68	190.745
1218.01	274.869
1222.33	277.931
1226.66	293.089
1230.98	313.061
1235.3	289.226
1239.62	220.473
1243.93	300.47
1248.24	348.281
1252.55	371.021
1256.86	392.322
1261.16	356.462
1265.46	303.38
1269.76	113.87
1274.05	199.098
1278.35	89.106
1282.64	77.9502
1286.93	28.4917
1291.21	28.2607
1295.49	17.6299
1299.78	43.2402
1304.05	12.875
1308.33	12.4639
1312.6	98.2022
1316.87	85.7295
1321.14	69.1533
1325.4	40.3628
1329.67	54.8237
1333.93	47.3208
1338.18	114.013
1342.44	117.708
1346.69	100.489
1350.94	63.3032
1355.19	2.20752
1359.43	14.2002
1363.67	14.25
1367.91	109.45
1372.15	99.8672
1376.38	39.1318
1380.62	79.3232
1384.84	64.5225
1389.07	52.6758
1393.29	88.7251
1397.52	129.395
1401.73	90.5
1405.95	207.986
1410.16	104.611
1414.37	189.25
1418.58	82.8901
1422.79	74.4985
1426.99	198.379
1431.19	169.654
1435.39	178.404
1439.59	144.787
1443.78	135.087
1447.97	161.809
1452.16	251.288
1456.34	235.349
1460.52	139.198
1464.7	253.964
1468.88	261.041
1473.06	230.03
1477.23	167.82
1481.4	165.869
1485.57	99.1714
1489.73	146.249
1493.89	68.5439
1498.05	75.0552
1502.21	119.331
1506.36	67.4092
1510.52	80.9004
1514.66	82.4404
1518.81	90.3218
1522.95	19.5356
1527.1	49.1265
1531.23	100.851
1535.37	71.1934
1539.51	59.9829
1543.64	63.2398
1547.77	48.1846
1551.89	160.538
1556.02	76.3315
1560.14	177.773
1564.25	18.2612
