Measurement: Raman, 514 nm, ccw, Raman Data Processed
Mineral: Grossular
Rruff sample: R050312
Ideal chemistry: Ca_3_Al_2_(SiO_4_)_3_
Locality: Eden Mills mine, Vermont, USA
Source: Eugene Schlepp
Description: Red crystal
Measured chemistry: Ca_3.00_(Al_1.75_Fe^3+^_0.23_Ti_0.02_)_Σ=2_((Si_0.99_Al_0.01_)_Σ=1_O_4_)_3_
Pin_id: L01494
Orientation: Laser parallel to a* (1 0 0). Fiducial mark perpendicular to laser is parallel to c [0 0 1]
Raman shift (cm-1)	intensity
144.753	0
149.673	51.822
154.592	2.07056
159.508	0.444824
164.421	77.8594
169.332	394.279
174.24	876.611
179.146	1320.7
184.049	639.193
188.95	168.835
193.848	123.613
198.743	68.9856
203.636	13.6189
208.527	38.6909
213.415	22.938
218.301	181.698
223.183	451.731
228.064	1130.63
232.942	2427.66
237.817	3880.02
242.69	4822.84
247.56	3785.19
252.428	1199.04
257.293	620.455
262.156	768.481
267.016	1507.14
271.874	2767.5
276.729	3505.59
281.581	2173.47
286.431	1095.14
291.279	507.212
296.124	238.24
300.966	30.8235
305.806	136.329
310.643	243.423
315.478	551.383
320.31	1115.07
325.14	1764.2
329.967	1806.83
334.792	1487.89
339.614	1752.34
344.433	2480.09
349.25	3385.1
354.065	5471.48
358.876	10474.3
363.686	21807.8
368.493	38045.4
373.297	46390
378.099	29174.9
382.898	12572.1
387.694	6471.83
392.488	4112.01
397.28	2910.68
402.069	2624.1
406.855	2411.37
411.639	2371.29
416.42	1462.61
421.199	339.144
425.975	45.8411
430.749	104.348
435.52	87.8857
440.289	1.69214
445.055	107.453
449.818	514.547
454.579	621.471
459.338	712.15
464.094	654.539
468.847	874.596
473.597	1029.6
478.346	975.567
483.091	837.404
487.834	797.76
492.575	1181.6
497.313	1624.91
502.048	1825.65
506.781	2025.78
511.511	1527.25
516.239	1093.33
520.964	909.133
525.687	1058.33
530.407	1607.77
535.124	3988.75
539.839	9318.01
544.552	14896.8
549.262	9198.95
553.969	3147.26
558.674	1689.94
563.376	1427.54
568.075	1361.81
572.772	1295.37
577.467	1079.38
582.159	972.155
586.848	829.046
591.535	691.356
596.219	624.678
600.901	812.275
605.58	1169.29
610.257	1433.72
614.931	1641.55
619.602	2047.76
624.271	2621.33
628.937	2499.24
633.601	1440.48
638.262	812.912
642.921	462.863
647.577	194.983
652.23	142.372
656.881	14.0457
661.53	9.7168
666.175	63.8782
670.819	55.2678
675.459	87.4182
680.097	113.933
684.733	73.2622
689.366	18.4504
693.996	70.3723
698.624	16.1499
703.25	31.4605
707.872	57.1086
712.492	26.4143
717.11	2.78565
721.725	19.8796
726.338	94.0994
730.947	86.2856
735.555	105.814
740.16	129.744
744.762	226.102
749.361	389.908
753.958	463.182
758.553	698.945
763.145	923.217
767.734	1382.02
772.321	1928.38
776.905	2289.8
781.487	2806.86
786.066	2888.06
790.642	2751.94
795.216	3060.65
799.788	4016.54
804.356	5927.52
808.923	8301.41
813.486	11743.5
818.047	16088.9
822.606	19952.1
827.162	18710
831.715	14774.3
836.266	11804.1
840.814	10564.9
845.36	9988.67
849.903	9920.41
854.444	10036.1
858.982	11141.8
863.517	14163.4
868.05	21945.1
872.58	37234.8
877.108	55270
881.633	55621.6
886.155	36264.7
890.675	19530.2
895.193	11038.2
899.707	7160.65
904.22	5208.63
908.729	4179.11
913.236	3287.13
917.741	2688.7
922.243	2122.16
926.742	1842.69
931.239	1627.92
935.733	1513.98
940.225	1814
944.714	2090.38
949.2	1957.92
953.684	1504.52
958.166	926.653
962.644	713.108
967.121	792.306
971.594	1129.82
976.065	1827.23
980.534	2336.78
985	2680.18
989.463	2989.52
993.924	3391.43
998.382	3841.84
1002.84	4826.68
1007.29	4858.87
1011.74	3076.39
1016.19	1490.22
1020.63	730.343
1025.08	478.691
1029.52	294.464
1033.95	196.458
1038.39	156.789
1042.82	129.345
1047.25	2.15503
1051.68	52.8132
1056.1	1.67481
1060.53	21.3889
1064.95	102.961
1069.36	14.8135
1073.78	88.804
1078.19	82.3252
1082.6	99.3852
1087.01	0.925049
1091.41	9.75659
1095.81	72.9746
1100.21	42.8679
1104.61	72.4573
1109	7.32104
1113.39	31.447
1117.78	317.254
1122.16	671.881
1126.55	423.305
1130.93	203.508
1135.31	173.472
1139.68	240.186
1144.06	325.641
1148.43	402.822
1152.8	427.719
1157.16	402.958
1161.52	371.532
1165.88	435.443
1170.24	351.512
1174.6	366.151
1178.95	341.947
1183.3	219.559
1187.65	239.801
1191.99	172.565
1196.33	170.587
1200.67	156.286
1205.01	186.902
1209.35	205.241
1213.68	268.594
1218.01	271.807
1222.33	273.638
1226.66	278.202
1230.98	290.308
1235.3	240.565
1239.62	335.334
1243.93	260.287
1248.24	346.129
1252.55	366.771
1256.86	328.104
1261.16	362.93
1265.46	357.498
1269.76	217.006
1274.05	202.083
1278.35	125.894
1282.64	40.4812
1286.93	23.8259
1291.21	2.86206
1295.49	39.5474
1299.78	45.9805
1304.05	30.0813
1308.33	1.88818
1312.6	54.4126
1316.87	51.7183
1321.14	52.7625
1325.4	49.624
1329.67	90.7375
1333.93	53.1357
1338.18	65.5208
1342.44	54.5662
1346.69	45.5935
1350.94	110.585
1355.19	120.64
1359.43	18.2903
1363.67	85.1914
1367.91	40.6121
1372.15	8.8689
1376.38	42.3313
1380.62	21.6926
1384.84	94.9517
1389.07	53.1116
1393.29	56.1773
1397.52	90.1931
1401.73	76.1248
1405.95	131.544
1410.16	153.246
1414.37	176.4
1418.58	169.531
1422.79	122.543
1426.99	120.002
1431.19	116.667
1435.39	147.896
1439.59	192.037
1443.78	202.312
1447.97	142.951
1452.16	118.87
1456.34	174.661
1460.52	273.753
1464.7	124.176
1468.88	267.59
1473.06	212.567
1477.23	148.346
1481.4	130.167
1485.57	90.9072
1489.73	71.5952
1493.89	42.312
1498.05	99.1497
1502.21	22.2324
1506.36	57.529
1510.52	34.8147
1514.66	53.9365
1518.81	48.7837
1522.95	78.218
1527.1	1.06567
1531.23	88.054
1535.37	5.61353
1539.51	6.8894
1543.64	69.8648
1547.77	41.5381
1551.89	93.9351
1556.02	58.8167
1560.14	92.7517
1564.25	0.450928
