Measurement: Raman, 514 nm, ccw, Raman Data Processed
Mineral: Grossular
Rruff sample: R060444
Ideal chemistry: Ca_3_Al_2_(SiO_4_)_3_
Locality: Pakistan (?)
Source: Gemological Institute of America
Description: Tan colored crystals coating a surface
Measured chemistry: (Ca_2.98_Mn_0.02_)_Σ=3_(Al_1.84_Fe^3+^_0.13_Ti_0.03_)_Σ=2_((Si_0.99_Al_0.01_)_Σ=1_O_4_)_3_
Pin_id: M00607
Orientation: Laser parallel to a* (1 0 0). Fiducial mark perpendicular to laser is parallel to 0 0 -1
Raman shift (cm-1)	intensity
129	0
133.933	29.9204
138.864	196.803
143.791	19.5571
148.716	109.888
153.638	75.2764
158.558	76.1006
163.475	186.638
168.389	698.325
173.3	2029.97
178.209	4115.44
183.115	2758.95
188.018	824.363
192.918	309.41
197.816	172.027
202.711	35.7861
207.604	82.5654
212.494	30.1626
217.381	22.4102
222.265	88.4404
227.147	267.517
232.026	538.634
236.902	980.849
241.775	1168.95
246.646	1107.39
251.514	640.915
256.38	330.746
261.243	719.885
266.103	565.338
270.96	832.19
275.815	1198.38
280.667	818.943
285.516	525.825
290.363	255.104
295.207	29.9131
300.048	253.323
304.887	392.771
309.723	673.918
314.556	925.767
319.387	852.619
324.215	777.651
329.04	971.036
333.862	1041.09
338.682	959.803
343.5	1436.8
348.314	2238.33
353.126	3738.17
357.935	7286.03
362.742	15345
367.546	27944.4
372.347	34152.2
377.145	24062.2
381.941	9621.46
386.735	4475.91
391.525	2593.62
396.313	1852.61
401.098	1683.95
405.881	2251.94
410.661	3680.58
415.438	5226.27
420.213	2333.97
424.985	500.336
429.754	82.3242
434.521	111.083
439.285	112.363
444.046	138.818
448.805	48.6836
453.561	233.484
458.315	198.688
463.065	212.912
467.813	157.15
472.559	264.376
477.302	372.568
482.042	245.711
486.78	318.787
491.515	438.796
496.247	549.844
500.977	661.988
505.704	750.099
510.428	789.073
515.15	558.868
519.869	688.466
524.586	1100.85
529.3	912.761
534.011	931.846
538.719	2298.91
543.425	5721.64
548.129	9390.23
552.83	4120.91
557.528	1552.83
562.223	1034.68
566.916	975.9
571.607	1097.91
576.294	994.34
580.979	1044.07
585.662	1245.26
590.341	1510.53
595.019	1166.46
599.693	1006.29
604.365	923.452
609.035	1137.52
613.701	1304.74
618.366	1827.21
623.027	2627.91
627.686	2704.84
632.342	1844.98
636.996	1432.34
641.647	1501.9
646.296	1635.67
650.942	1386.63
655.585	1000.81
660.226	518.198
664.864	353.81
669.499	193.606
674.132	186.975
678.763	82.4668
683.39	34.8379
688.015	35.8809
692.638	196.76
697.258	44.4092
701.875	67.3193
706.49	60.2002
711.102	98.0664
715.712	95.6406
720.319	81.3057
724.923	77.3438
729.525	230.805
734.124	331.816
738.721	332.664
743.315	435.125
747.907	540.975
752.496	610.239
757.082	997.938
761.666	1414.09
766.247	1813.71
770.826	2207.84
775.402	2151.94
779.975	1894.31
784.546	1593.68
789.115	1597.92
793.681	1928.31
798.244	2396.94
802.804	3214.47
807.363	4414.89
811.918	5677.2
816.471	6907.3
821.022	8214.9
825.569	8767.01
830.115	7416.46
834.657	6305.12
839.198	5905.66
843.735	5908.78
848.27	6310.56
852.803	6583.03
857.333	7664.19
861.86	9308.52
866.385	12605.1
870.907	21371.7
875.427	36703.2
879.944	47573
884.459	36556.3
888.971	20025.9
893.481	10764.7
897.988	6420.64
902.492	4488.1
906.994	3559.28
911.493	2784.18
915.99	2397.62
920.485	1791.51
924.976	1391.04
929.466	1312.55
933.952	1205.06
938.436	1004.33
942.918	944.37
947.397	1120.75
951.874	934.995
956.348	642.6
960.819	369.862
965.288	272.113
969.755	257.335
974.219	490.906
978.68	777.737
983.139	957.18
987.595	1243.03
992.049	1397.36
996.501	1701.29
1000.95	2801.09
1005.4	2379.64
1009.84	1832.51
1014.28	1001.02
1018.72	774.753
1023.16	523.197
1027.59	375.05
1032.02	70.9297
1036.45	164.359
1040.88	44.2373
1045.3	8.70801
1049.72	90.6748
1054.14	90.9951
1058.56	192.992
1062.97	104.843
1067.38	173.129
1071.79	83.3379
1076.19	250.884
1080.6	617.195
1085	566.871
1089.4	285.698
1093.79	136.526
1098.19	204.894
1102.58	38.794
1106.97	380.04
1111.35	694.715
1115.74	583.845
1120.12	338.301
1124.5	359.046
1128.87	290.065
1133.25	201.301
1137.62	215.702
1141.99	92.2207
1146.35	246.804
1150.72	222.522
1155.08	318.373
1159.44	413.403
1163.79	287.307
1168.15	625.769
1172.5	509.002
1176.85	366.705
1181.19	278.151
1185.54	449.747
1189.88	255.644
1194.22	36.79
1198.55	12.1494
1202.89	61.3057
1207.22	89.332
1211.55	116.262
1215.88	234.776
1220.2	371.428
1224.52	475.389
1228.84	319.601
1233.16	456.44
1237.47	591.805
1241.78	863.793
1246.09	634.684
1250.4	834.418
1254.7	942.01
1259.01	643.334
1263.31	893.08
1267.6	872.336
1271.9	1237.81
1276.19	1025.82
1280.48	703.545
1284.77	743.164
1289.05	530.178
1293.33	751.242
1297.61	901.357
1301.89	870.486
1306.16	972.693
1310.44	1006.01
1314.71	857.326
1318.97	791.072
1323.24	800.35
1327.5	433.805
1331.76	144.586
1336.02	219.141
1340.28	97.2148
1344.53	224.113
1348.78	119.818
1353.03	104.332
1357.27	142.818
1361.52	64.3047
1365.76	18.2656
1370	38.5234
1374.23	272.908
1378.47	336.639
1382.7	86.1523
1386.93	170.607
1391.15	201.795
1395.38	159.832
1399.6	88.4297
1403.82	162.519
1408.03	344.287
1412.25	71.2754
1416.46	85.4981
1420.67	177.715
1424.88	276.977
1429.08	393.164
1433.28	728.576
1437.48	1208.05
1441.68	1688.13
1445.87	2199.36
1450.07	2355.3
1454.26	2610.81
1458.44	2385.19
1462.63	2021.39
1466.81	1408.79
1470.99	1119.42
1475.17	889.805
1479.34	862.988
1483.52	777.18
1487.69	555.014
1491.86	277.977
1496.02	34.623
1500.19	109.678
1504.35	20.5371
1508.51	36.9277
1512.66	91.7168
1516.82	151.957
1520.97	344.348
1525.12	324.045
1529.26	319.346
1533.41	317.201
1537.55	235.217
1541.69	94.7754
1545.83	127.953
1549.96	287.033
1554.09	475.66
1558.22	1.31445
1562.35	0
