Measurement: Raman, 514 nm, ccw, Raman Data Processed
Mineral: Grossular
Rruff sample: R050312
Ideal chemistry: Ca_3_Al_2_(SiO_4_)_3_
Locality: Eden Mills mine, Vermont, USA
Source: Eugene Schlepp
Description: Red crystal
Measured chemistry: Ca_3.00_(Al_1.75_Fe^3+^_0.23_Ti_0.02_)_Σ=2_((Si_0.99_Al_0.01_)_Σ=1_O_4_)_3_
Pin_id: L01494
Orientation: Laser parallel to a* (1 0 0). Fiducial mark perpendicular to laser is parallel to c [0 0 1]
Raman shift (cm-1)	intensity
144.753	0
149.673	6.30689
154.592	17.0254
159.508	137.58
164.421	473.405
169.332	1467.12
174.24	3179.13
179.146	4692.43
184.049	2301.16
188.95	650.248
193.848	309.432
198.743	140.228
203.636	127.308
208.527	49.4526
213.415	51.5947
218.301	72.3062
223.183	24.3823
228.064	63.7441
232.942	441.259
237.817	452.305
242.69	486.916
247.56	340.154
252.428	278
257.293	472.287
262.156	596.031
267.016	796.579
271.874	893.994
276.729	898.346
281.581	914.653
286.431	960.918
291.279	658.201
296.124	529.876
300.966	549.642
305.806	919.025
310.643	1097.12
315.478	1150.85
320.31	1184.15
325.14	1514.86
329.967	1504.64
334.792	1676.53
339.614	2139.9
344.433	2903.66
349.25	4457.79
354.065	8240.54
358.876	16269.8
363.686	31031
368.493	43977.5
373.297	45486.9
378.099	26867.7
382.898	11633.9
387.694	5930.72
392.488	3645.27
397.28	2793.66
402.069	3099.63
406.855	4326.03
411.639	5917.76
416.42	4099.93
421.199	1403.31
425.975	444.805
430.749	41.4351
435.52	14.127
440.289	37.0347
445.055	27.8389
449.818	354.722
454.579	542.574
459.338	473.27
464.094	420.838
468.847	404.159
473.597	380.228
478.346	228.016
483.091	275.486
487.834	570.602
492.575	970.328
497.313	1099.64
502.048	892.517
506.781	662.914
511.511	548.904
516.239	560.914
520.964	783.136
525.687	1036.44
530.407	1280.91
535.124	3130.23
539.839	7888.72
544.552	12488.8
549.262	7495.34
553.969	2425.35
558.674	1240.88
563.376	1066.51
568.075	994.781
572.772	1084.55
577.467	901.871
582.159	999.073
586.848	1076.85
591.535	1017.22
596.219	776.96
600.901	984.182
605.58	1272.74
610.257	1489.79
614.931	1754.32
619.602	1901.29
624.271	2027.7
628.937	1887.51
633.601	1129.7
638.262	663.263
642.921	372.172
647.577	167.412
652.23	82.939
656.881	70.4629
661.53	3.83106
666.175	127.219
670.819	195.077
675.459	116.058
680.097	23.2568
684.733	58.1352
689.366	23.4209
693.996	117.45
698.624	19.9424
703.25	37.8472
707.872	25.0908
712.492	5.75635
717.11	14.7725
721.725	53.5591
726.338	105.057
730.947	45.7315
735.555	95.6694
740.16	178.962
744.762	193.647
749.361	313.74
753.958	412.258
758.553	612.22
763.145	945.643
767.734	1337.55
772.321	1890.95
776.905	2254.88
781.487	2586.34
786.066	2631.44
790.642	2481.32
795.216	2873.7
799.788	3640.47
804.356	5305.18
808.923	7429.87
813.486	9122.15
818.047	10466.4
822.606	11224.2
827.162	10962.8
831.715	10182.7
836.266	9367.4
840.814	8712.25
845.36	8776.5
849.903	8990.23
854.444	9391.16
858.982	10446.6
863.517	13351.6
868.05	20325.1
872.58	34423
877.108	50657
881.633	50748.3
886.155	33796
890.675	18661
895.193	10843.3
899.707	7125.02
904.22	5582.12
908.729	4330.78
913.236	3547.7
917.741	2684.27
922.243	2151.61
926.742	1975.39
931.239	1558.16
935.733	1478.94
940.225	1637.89
944.714	1815.62
949.2	1624.56
953.684	1268.24
958.166	821.189
962.644	626.522
967.121	707.14
971.594	1066.79
976.065	1405.35
980.534	2013.8
985	2309.54
989.463	2400.84
993.924	2536.7
998.382	2745.91
1002.84	3224.52
1007.29	3019.43
1011.74	2008.61
1016.19	1024.73
1020.63	488.762
1025.08	303.696
1029.52	219.851
1033.95	221.222
1038.39	201.818
1042.82	50.606
1047.25	32.5815
1051.68	23.8145
1056.1	17.2319
1060.53	35.0596
1064.95	73.5151
1069.36	13.2886
1073.78	19.2646
1078.19	33.3862
1082.6	33.395
1087.01	69.8042
1091.41	62.5859
1095.81	20.0913
1100.21	71.9404
1104.61	37.6172
1109	25.2979
1113.39	66.8726
1117.78	297.223
1122.16	577.444
1126.55	405.502
1130.93	267.596
1135.31	205.004
1139.68	272.425
1144.06	288.615
1148.43	348.556
1152.8	341.408
1157.16	353.188
1161.52	396.896
1165.88	314.766
1170.24	360.197
1174.6	231.441
1178.95	332.84
1183.3	130.816
1187.65	249.556
1191.99	145.922
1196.33	180.482
1200.67	256.81
1205.01	196.852
1209.35	188.774
1213.68	179.66
1218.01	223.191
1222.33	261.06
1226.66	240.287
1230.98	193.261
1235.3	221.948
1239.62	223.222
1243.93	283.105
1248.24	326.775
1252.55	318.766
1256.86	270.062
1261.16	291.796
1265.46	189.44
1269.76	197.037
1274.05	102.33
1278.35	90.2642
1282.64	85.0005
1286.93	167.552
1291.21	99.9673
1295.49	71.1733
1299.78	39.1509
1304.05	169.93
1308.33	59.5444
1312.6	102.435
1316.87	75.3711
1321.14	17.5708
1325.4	33.5508
1329.67	140.282
1333.93	113.071
1338.18	82.853
1342.44	129.712
1346.69	65.6348
1350.94	104.522
1355.19	164.585
1359.43	239.893
1363.67	55.331
1367.91	80.8091
1372.15	106.602
1376.38	24.7505
1380.62	27.5571
1384.84	142.802
1389.07	36.1714
1393.29	20.4932
1397.52	86.1455
1401.73	139.436
1405.95	77.4448
1410.16	164.05
1414.37	120.201
1418.58	89.9541
1422.79	137.064
1426.99	198.481
1431.19	107.32
1435.39	146.661
1439.59	170.656
1443.78	126.038
1447.97	327.962
1452.16	201.544
1456.34	236.785
1460.52	196.88
1464.7	207.916
1468.88	372.938
1473.06	190.743
1477.23	204.242
1481.4	236.606
1485.57	193.142
1489.73	120.825
1493.89	77.2676
1498.05	18.0908
1502.21	142.523
1506.36	104.915
1510.52	136.748
1514.66	23.8145
1518.81	176.006
1522.95	104.894
1527.1	150.232
1531.23	81.5781
1535.37	18.6553
1539.51	69.875
1543.64	176.067
1547.77	117.246
1551.89	203.458
1556.02	212.843
1560.14	93.0478
1564.25	34.0039
