Measurement: Raman, 514 nm, ccw, Raman Data Processed
Mineral: Grossular
Rruff sample: R060443
Ideal chemistry: Ca_3_Al_2_(SiO_4_)_3_
Locality: unknown
Source: Gemological Institute of America
Description: Yellowish tan colored single crystal
Measured chemistry: (Ca_2.92_Mn_0.03_Mg_0.03_Fe^2+^_0.02_)_Σ=3_(Al_1.86_Fe^3+^_0.14_)_Σ=2_(Si_1.00_O_4_)_3_; trace amounts of Ti
Pin_id: L01228
Orientation: Laser parallel to a* (1 0 0). Fiducial mark perpendicular to laser is parallel to c [0 0 1]
Raman shift (cm-1)	intensity
114.818	0
119.772	21.4423
124.722	103.303
129.67	56.0883
134.615	54.1421
139.556	39.8972
144.495	19.5007
149.431	62.8967
154.364	50.3603
159.294	72.7887
164.221	162.194
169.145	417.435
174.066	1432.19
178.984	5020.12
183.9	3741.96
188.812	681.673
193.722	191.535
198.628	63.1248
203.532	25.5322
208.433	19.1006
213.331	30.9353
218.226	0.911377
223.118	33.2031
228.007	55.4421
232.893	294.828
237.777	767.193
242.657	891.586
247.535	945.165
252.41	444.976
257.281	427.066
262.15	509.604
267.017	591.312
271.88	928.244
276.74	1251.19
281.598	1034.86
286.453	830.321
291.304	584.016
296.153	268.474
301	108.226
305.843	318.363
310.683	725.02
315.521	966.489
320.356	865.907
325.188	958.27
330.017	1041.55
334.843	974.732
339.666	1139.79
344.487	1473.71
349.305	2175.5
354.12	3513.94
358.932	7355.77
363.741	16917
368.548	34184.1
373.352	44675.7
378.153	36892.7
382.951	13890.8
387.746	5487.04
392.539	2848.47
397.328	1757.98
402.115	1524.48
406.899	2215.87
411.681	4011.22
416.459	5318.6
421.235	1809.94
426.008	447.36
430.779	61.7417
435.546	13.9922
440.311	106.039
445.073	7.54443
449.832	223.591
454.588	466.413
459.342	451.883
464.093	492.95
468.841	358.575
473.587	487.724
478.329	393.371
483.069	238.491
487.806	349.062
492.541	630.058
497.272	1035.49
502.001	889.385
506.728	846.656
511.451	655.174
516.172	461.801
520.89	658.327
525.605	1065.74
530.318	765.011
535.028	1103.78
539.735	3515.16
544.44	9314.86
549.141	11839.8
553.841	3816.53
558.537	1179.83
563.231	688.449
567.922	597.199
572.61	593.811
577.296	613.318
581.979	632.485
586.659	803.694
591.336	939.542
596.011	572.28
600.683	481.493
605.353	747.956
610.02	995.303
614.684	1089.04
619.345	1259.38
624.004	1494.3
628.661	1548.78
633.314	1169.81
637.965	590.38
642.613	284.467
647.259	112.059
651.902	16.1282
656.542	10.5
661.18	87.1577
665.815	76.1655
670.447	96.5002
675.077	33.2966
679.704	17.2903
684.328	8.3999
688.95	29.4168
693.569	0.499268
698.186	29.532
702.8	9.56519
707.411	5.7312
712.02	27.136
716.626	23.218
721.23	8.72729
725.83	24.6399
730.429	58.8391
735.024	33.3787
739.618	44.3403
744.208	83.7717
748.796	135.715
753.381	230.192
757.964	259.219
762.544	349.803
767.122	602.957
771.697	869.694
776.269	1024.03
780.839	884.979
785.406	740.572
789.971	663.936
794.533	783.559
799.093	919.166
803.65	1417.6
808.204	2274.72
812.756	3583.98
817.305	5038.98
821.852	6637.13
826.396	7295.07
830.938	6399.43
835.477	5648.66
840.013	5388.65
844.547	5404.5
849.079	5636.68
853.608	5994.73
858.134	6892.27
862.658	8797.56
867.179	13427.8
871.698	24097.3
876.214	43153.5
880.728	52303.3
885.239	35206.8
889.748	17914.6
894.254	9473.47
898.758	5967.5
903.259	4425.67
907.758	3582.99
912.254	2960.89
916.748	2357.68
921.239	1940.89
925.728	1554.07
930.214	1278.23
934.698	1150.24
939.179	1154.92
943.657	1207.2
948.134	1147.43
952.607	976.819
957.079	612.291
961.548	403.133
966.014	346.152
970.478	527.507
974.939	896.851
979.398	1319.28
983.854	1479.46
988.308	1683.21
992.76	1820.89
997.209	1950.66
1001.65	2216.92
1006.1	2588.4
1010.54	2170.6
1014.98	1079.83
1019.42	497.097
1023.85	270.382
1028.28	218.678
1032.71	162.98
1037.14	136.277
1041.56	16.4119
1045.99	40.8594
1050.41	0.07666
1054.82	6.63525
1059.24	72.8481
1063.65	35.2322
1068.06	74.9102
1072.47	7.52148
1076.87	9.47852
1081.28	32.8372
1085.68	470.355
1090.08	145.632
1094.47	27.6799
1098.86	10.4753
1103.25	42.977
1107.64	1.01953
1112.03	54.4797
1116.41	7.72632
1120.79	69.5984
1125.17	74.5918
1129.55	128.218
1133.92	138.476
1138.29	208.351
1142.66	192.992
1147.03	295.957
1151.39	337.053
1155.76	367.83
1160.12	260.24
1164.47	242.106
1168.83	312.455
1173.18	249.252
1177.53	248.846
1181.88	261.818
1186.22	226.453
1190.57	106.076
1194.91	87.4048
1199.25	138.505
1203.58	100.87
1207.92	134.048
1212.25	133.567
1216.58	198.088
1220.9	185.226
1225.23	168.728
1229.55	164.067
1233.87	176.391
1238.19	221.469
1242.5	192.3
1246.81	208.54
1251.12	235.436
1255.43	342.569
1259.74	323.728
1264.04	315.981
1268.34	199.42
1272.64	132.456
1276.94	17.8525
1281.23	53.7559
1285.52	4.99512
1289.81	29.7778
1294.1	123.2
1298.39	30.457
1302.67	61.9912
1306.95	21.5586
1311.23	73.1484
1315.5	40.1016
1319.78	24.8677
1324.05	82.6187
1328.32	20.9131
1332.58	41.0327
1336.85	95.0186
1341.11	103.642
1345.37	125.455
1349.63	54.6304
1353.88	95.8027
1358.13	70.6553
1362.38	6.56689
1366.63	21.332
1370.88	7.48682
1375.12	28.936
1379.36	81.5454
1383.6	82.6216
1387.84	27.1865
1392.08	37.4878
1396.31	109.566
1400.54	0.123047
1404.77	153.773
1408.99	110.977
1413.21	157.055
1417.44	151.761
1421.66	217.247
1425.87	71.1919
1430.09	113.883
1434.3	134.08
1438.51	101.371
1442.72	131.187
1446.92	193.463
1451.13	176.513
1455.33	317.168
1459.53	131.024
1463.72	210.32
1467.92	154.125
1472.11	139.206
1476.3	95.6592
1480.49	201.31
1484.67	105.016
1488.86	240.171
1493.04	29.6948
1497.22	169.377
1501.39	121.862
1505.57	110.589
1509.74	227.072
1513.91	108.722
1518.08	144.338
1522.25	190.797
1526.41	126.868
1530.57	5.08643
1534.73	109.143
1538.89	148.02
1543.04	39.3696
1547.2	177.302
1551.35	93.1704
1555.49	27.5698
1559.64	5.1167
1563.79	0
