Measurement: Raman, 514 nm, ccw, Raman Data Processed
Mineral: Grossular
Rruff sample: R060444
Ideal chemistry: Ca_3_Al_2_(SiO_4_)_3_
Locality: Pakistan (?)
Source: Gemological Institute of America
Description: Tan colored crystals coating a surface
Measured chemistry: (Ca_2.98_Mn_0.02_)_Σ=3_(Al_1.84_Fe^3+^_0.13_Ti_0.03_)_Σ=2_((Si_0.99_Al_0.01_)_Σ=1_O_4_)_3_
Pin_id: M00607
Orientation: Laser parallel to a* (1 0 0). Fiducial mark perpendicular to laser is parallel to 0 0 -1
Raman shift (cm-1)	intensity
129	0
133.933	4.12915
138.864	145.629
143.791	20.605
148.716	88.0122
153.638	175.416
158.558	135.897
163.475	133.367
168.389	670.373
173.3	1942.24
178.209	4381.61
183.115	2404.57
188.018	791.944
192.918	275.906
197.816	234.251
202.711	113.05
207.604	40.4829
212.494	60.4853
217.381	23.2466
222.265	42.79
227.147	105.805
232.026	285.3
236.902	648.312
241.775	869.854
246.646	892.644
251.514	508.859
256.38	306.661
261.243	402.059
266.103	465.075
270.96	731.743
275.815	985.148
280.667	753.861
285.516	458.881
290.363	351.084
295.207	92.8291
300.048	229.22
304.887	325.37
309.723	638.124
314.556	921.713
319.387	852.385
324.215	633.406
329.04	866.965
333.862	898.039
338.682	869.606
343.5	1425.64
348.314	2184.14
353.126	3603.46
357.935	7347.65
362.742	15624.8
367.546	28051.4
372.347	33417.9
377.145	23621.8
381.941	9312.16
386.735	4204.92
391.525	2485.24
396.313	1767.13
401.098	1649.64
405.881	2339.84
410.661	3806.88
415.438	5258.69
420.213	2291.14
424.985	631.262
429.754	145.992
434.521	40.2734
439.285	193.005
444.046	91.4092
448.805	22.1977
453.561	133.062
458.315	176.146
463.065	127.418
467.813	138.85
472.559	184.419
477.302	287.107
482.042	168.896
486.78	308.765
491.515	398.695
496.247	537.674
500.977	553.776
505.704	591.923
510.428	571.1
515.15	402.25
519.869	595.259
524.586	1138.21
529.3	793.451
534.011	858.481
538.719	2295.33
543.425	5624.64
548.129	9055.2
552.83	3946.98
557.528	1468.06
562.223	932.424
566.916	938.891
571.607	748.702
576.294	748.262
580.979	741.702
585.662	889.719
590.341	1225.98
595.019	704.718
599.693	621.98
604.365	677.471
609.035	739.678
613.701	849.641
618.366	930.024
623.027	1246.82
627.686	1401.01
632.342	971.593
636.996	636.559
641.647	503.897
646.296	375.605
650.942	341.678
655.585	265.113
660.226	122.895
664.864	2.96387
669.499	29.8911
674.132	85.1533
678.763	43.9141
683.39	37.2983
688.015	66.1533
692.638	16.7554
697.258	33.0552
701.875	50.4839
706.49	25.3594
711.102	34.5371
715.712	4.64893
720.319	13.2305
724.923	22.4311
729.525	0.020508
734.124	132.821
738.721	232.049
743.315	346.71
747.907	428.835
752.496	476.436
757.082	805.525
761.666	1137.12
766.247	1586.25
770.826	1882.93
775.402	1937.16
779.975	1711.06
784.546	1425.77
789.115	1452.31
793.681	1502.74
798.244	2063.66
802.804	2749.74
807.363	3738.51
811.918	4803.91
816.471	5802.76
821.022	6885.75
825.569	7168.93
830.115	6234.43
834.657	5286.62
839.198	4902.35
843.735	5000.61
848.27	5250.11
852.803	5619.49
857.333	6283.06
861.86	8067.88
866.385	11437.8
870.907	19958.1
875.427	34725.8
879.944	45855.7
884.459	35139.7
888.971	19166.7
893.481	10170.9
897.988	6010.05
902.492	3858.06
906.994	3081.71
911.493	2513.61
915.99	1921.04
920.485	1484.23
924.976	1302.26
929.466	1088.35
933.952	850.57
938.436	822.838
942.918	890.354
947.397	749.648
951.874	629.603
956.348	426.289
960.819	194.769
965.288	183.365
969.755	272.124
974.219	554.695
978.68	761.756
983.139	893.717
987.595	1143.84
992.049	1140.74
996.501	1491.15
1000.95	1764.07
1005.4	1890.23
1009.84	1550.59
1014.28	870.24
1018.72	309.489
1023.16	187.144
1027.59	81.0283
1032.02	86.2285
1036.45	19.4717
1040.88	48.3584
1045.3	5.94043
1049.72	34.1279
1054.14	78.9531
1058.56	28.1729
1062.97	154.756
1067.38	144.515
1071.79	70.8262
1076.19	14.124
1080.6	143.64
1085	176.255
1089.4	196.879
1093.79	47.9512
1098.19	72.9932
1102.58	38.3828
1106.97	1.38769
1111.35	180.404
1115.74	223.031
1120.12	223.235
1124.5	141.006
1128.87	140.675
1133.25	149.602
1137.62	169.75
1141.99	189.127
1146.35	348.685
1150.72	183.868
1155.08	303.549
1159.44	332.228
1163.79	288.562
1168.15	213.525
1172.5	344.921
1176.85	231.096
1181.19	325.891
1185.54	156.02
1189.88	139.18
1194.22	39.2373
1198.55	6.01562
1202.89	13.9004
1207.22	74.1455
1211.55	282.933
1215.88	116.6
1220.2	167.245
1224.52	331.356
1228.84	283.735
1233.16	272.153
1237.47	284.691
1241.78	228.06
1246.09	304.629
1250.4	280.584
1254.7	446.207
1259.01	365.297
1263.31	422.952
1267.6	438.486
1271.9	443.393
1276.19	413.359
1280.48	342.414
1284.77	207.186
1289.05	205.259
1293.33	360.675
1297.61	248.543
1301.89	530.422
1306.16	226.965
1310.44	457.168
1314.71	332.058
1318.97	390.583
1323.24	230.515
1327.5	194.97
1331.76	63.9482
1336.02	114.066
1340.28	198.109
1344.53	85.96
1348.78	153.438
1353.03	190.352
1357.27	236.662
1361.52	73.4209
1365.76	49.1484
1370	96.4023
1374.23	22.2471
1378.47	34.3457
1382.7	91.2803
1386.93	21.5742
1391.15	90.9981
1395.38	142.63
1399.6	40.79
1403.82	107.126
1408.03	138.992
1412.25	48.5283
1416.46	45.2539
1420.67	70.8809
1424.88	234.403
1429.08	254.477
1433.28	204.929
1437.48	477.896
1441.68	583.975
1445.87	757.165
1450.07	726.794
1454.26	858.139
1458.44	757.631
1462.63	785.133
1466.81	460.123
1470.99	289.953
1475.17	229.478
1479.34	165.082
1483.52	215.502
1487.69	132.445
1491.86	94.0176
1496.02	74.2891
1500.19	163.367
1504.35	100.973
1508.51	98.8379
1512.66	224.738
1516.82	343.34
1520.97	289.045
1525.12	349.092
1529.26	153.574
1533.41	453.178
1537.55	332.705
1541.69	391.07
1545.83	161.523
1549.96	173.769
1554.09	398.781
1558.22	308.293
1562.35	0
