Measurement: Raman, 514 nm, ccw, Raman Data Processed
Mineral: Grossular
Rruff sample: R060278
Ideal chemistry: Ca_3_Al_2_(SiO_4_)_3_
Locality: Diakon, Kayes Region, Mali
Source: Herb Obodda
Description: Dark brown dodecahedral single crystal
Measured chemistry: (Ca_2.93_Mg_0.05_Mn_0.02_)_Σ=3_(Al_1.19_Fe^3+^_0.78_Ti_0.03_)_Σ=2_((Si_0.99_Al_0.01_)_Σ=1_O_4_)_3_
Pin_id: L01488
Orientation: Laser parallel to -a* (-1 0 0). Fiducial mark perpendicular to laser is parallel to b [0 1 0]
Raman shift (cm-1)	intensity
197.52	0
202.413	170.387
207.305	90.9277
212.193	3.71997
217.079	116.655
221.963	483.342
226.844	1467.93
231.723	2765.96
236.599	4135.14
241.472	4227.09
246.343	1563.27
251.211	527.973
256.077	433.937
260.94	645.033
265.801	1304.56
270.66	2220.7
275.515	1954.07
280.368	1339.7
285.219	875.438
290.067	611.744
294.913	594.807
299.756	817.728
304.596	978.556
309.434	1532.04
314.27	2585.89
319.102	3891.9
323.933	3269.45
328.76	2744.61
333.586	2979.19
338.408	3071.06
343.229	3683.76
348.046	6224.86
352.861	9586
357.674	16991.4
362.484	27048.6
367.291	46140.2
372.096	51930.1
376.898	30937.2
381.698	15265.1
386.495	8528.78
391.29	5290.2
396.082	3609.23
400.872	2420.79
405.659	1318.72
410.443	468.119
415.225	48.4663
420.005	263.771
424.782	254.819
429.556	131.699
434.328	96.811
439.097	576.831
443.864	714.143
448.628	835.186
453.389	990.229
458.148	936.328
462.905	806.162
467.659	563.593
472.41	498.409
477.159	703.944
481.905	1574.31
486.649	2318.49
491.39	2691.64
496.129	2552.82
500.865	2017.07
505.598	1421.31
510.329	1279.42
515.057	1660.35
519.783	3003.05
524.506	6912.46
529.227	13893.5
533.945	15789.3
538.661	7340.6
543.374	2784.49
548.084	1666.58
552.792	1560.62
557.498	1593.97
562.2	1383.53
566.901	1024.89
571.598	532.249
576.293	196.805
580.986	137.13
585.676	244.29
590.363	735.815
595.048	1184.21
599.731	1576.31
604.41	1910.12
609.088	2107.61
613.762	2193.74
618.434	2083.51
623.104	1575.88
627.771	1055.83
632.435	584.35
637.097	544.405
641.756	683.976
646.413	899.044
651.067	1073.6
655.719	1067.63
660.368	811.122
665.014	772.075
669.658	938.48
674.299	966.332
678.938	725.625
683.574	385.352
688.208	31.4932
692.839	106.43
697.468	202.644
702.094	197.88
706.717	219.017
711.338	262.067
715.956	150.423
720.572	170.936
725.185	43.1091
729.795	236.22
734.403	483.951
739.009	786.378
743.611	1272.83
748.212	1780.01
752.809	2239.72
757.405	2762.95
761.997	3519.74
766.587	3775.11
771.174	3362.07
775.759	2941.71
780.342	2610.24
784.921	2667.81
789.498	2988.52
794.073	3729.34
798.645	5099.42
803.215	7188.75
807.781	9613.33
812.346	12938.2
816.907	16022.1
821.467	16415
826.023	14384.4
830.577	11842.2
835.129	9938.95
839.678	8961.16
844.224	8744.02
848.768	8640.01
853.309	8379.22
857.847	8757.41
862.383	10533.4
866.917	13569.6
871.448	17173.5
875.976	18552.9
880.502	15746.7
885.025	11226.1
889.545	7904.09
894.063	5661.59
898.579	4419.64
903.092	3523.26
907.602	3027.65
912.11	2926.78
916.615	3042.85
921.118	3040.28
925.618	3257.72
930.115	3670.34
934.61	4146.85
939.102	4435.1
943.592	4088.45
948.079	3156.96
952.564	2465.92
957.046	2192.33
961.525	2571.99
966.002	3361.59
970.476	3924.91
974.948	4457.63
979.417	4782.07
983.883	4865.23
988.347	4725.1
992.809	4731.54
997.268	4771.16
1001.72	4243.36
1006.18	2957.87
1010.63	1595.62
1015.08	963.581
1019.52	1183.77
1023.97	1458.21
1028.41	992.856
1032.85	384.707
1037.28	69.6841
1041.71	35.2761
1046.14	53.398
1050.57	129.035
1055	81.5596
1059.42	125.968
1063.84	160.282
1068.26	113.765
1072.67	121.302
1077.09	97.9639
1081.5	15.6665
1085.9	29.0347
1090.31	10.2434
1094.71	50.9695
1099.11	119.393
1103.51	151.565
1107.9	189.202
1112.29	280.039
1116.68	351.266
1121.07	358.1
1125.45	343.672
1129.84	460.777
1134.21	365.24
1138.59	386.923
1142.96	388.393
1147.34	336.463
1151.7	304.947
1156.07	357.446
1160.43	319.053
1164.79	338.929
1169.15	285.84
1173.51	343.222
1177.86	293.798
1182.21	300.636
1186.56	307.839
1190.91	291.641
1195.25	318.773
1199.59	274.31
1203.93	194.255
1208.26	216.808
1212.6	251.1
1216.92	260.038
1221.25	278.96
1225.58	222.049
1229.9	235.941
1234.22	222.456
1238.54	246.796
1242.85	254.756
1247.16	163.407
1251.47	176.625
1255.78	139.475
1260.08	70.9673
1264.38	24.0769
1268.68	19.727
1272.98	76
1277.28	10.9216
1281.57	26.4019
1285.86	23.3948
1290.14	50.0566
1294.42	4.01489
1298.71	23.7766
1302.98	30.2737
1307.26	59.6553
1311.53	41.0855
1315.8	23.7759
1320.07	24.3804
1324.34	12.363
1328.6	19.0432
1332.86	90.5208
1337.12	13.4175
1341.38	14.5149
1345.63	59.6377
1349.88	18.7847
1354.13	14.894
1358.37	70.8923
1362.61	37.7666
1366.85	77.5259
1371.09	49.1853
1375.33	106.755
1379.56	98.2427
1383.79	61.4912
1388.01	163.556
1392.24	91.5413
1396.46	152.04
1400.68	143.701
1404.9	137.222
1409.11	158.758
1413.32	89.3967
1417.53	144.636
1421.74	155.406
1425.94	136.524
1430.14	101.872
1434.34	64.9358
1438.54	79.4185
1442.73	75.802
1446.92	64.8276
1451.11	36.4683
1455.3	74.7817
1459.48	90.4468
1463.66	68.3023
1467.84	80.0657
1472.01	119.608
1476.19	27.1025
1480.36	163.547
1484.53	68.0764
1488.69	34.7544
1492.85	151.938
1497.01	64.4399
1501.17	112.006
1505.33	173.55
1509.48	166.255
1513.63	142.752
1517.78	203.324
1521.92	149.197
1526.06	220.499
1530.2	184.315
1534.34	26.6633
1538.47	36.7078
1542.6	107.594
1546.73	65.5691
1550.86	54.9905
1554.98	98.407
1559.11	24.8689
1563.22	0.141357
