Measurement: Raman, 514 nm, ccw, Raman Data Processed
Mineral: Grossular
Rruff sample: R060444
Ideal chemistry: Ca_3_Al_2_(SiO_4_)_3_
Locality: Pakistan (?)
Source: Gemological Institute of America
Description: Tan colored crystals coating a surface
Measured chemistry: (Ca_2.98_Mn_0.02_)_Σ=3_(Al_1.84_Fe^3+^_0.13_Ti_0.03_)_Σ=2_((Si_0.99_Al_0.01_)_Σ=1_O_4_)_3_
Pin_id: M00607
Orientation: Laser parallel to a* (1 0 0). Fiducial mark perpendicular to laser is parallel to 0 0 -1
Raman shift (cm-1)	intensity
129	0
133.933	3.60986
138.864	52.4868
143.791	12.5879
148.716	61.5747
153.638	146.91
158.558	96.458
163.475	25.0415
168.389	255.061
173.3	785.278
178.209	1564.33
183.115	958.28
188.018	212.365
192.918	111.382
197.816	64.2529
202.711	73.9282
207.604	105.832
212.494	19.3931
217.381	62.4937
222.265	278.119
227.147	569.979
232.026	1296.1
236.902	2638.53
241.775	3459.2
246.646	3894.8
251.514	1456.8
256.38	526.19
261.243	631.986
266.103	918.198
270.96	1864.87
275.815	3424.47
280.667	2476.51
285.516	949.328
290.363	396.783
295.207	99.6724
300.048	8.26465
304.887	146.644
309.723	294.014
314.556	413.504
319.387	516.836
324.215	869.596
329.04	1254.77
333.862	1113.34
338.682	964.279
343.5	1415.58
348.314	2049.21
353.126	2796.23
357.935	4959.4
362.742	10471
367.546	21401.8
372.347	34939.9
377.145	27178.2
381.941	10744.8
386.735	4785.64
391.525	2749.8
396.313	1856.43
401.098	1606.15
405.881	1526.62
410.661	1861.33
415.438	2065.33
420.213	807.897
424.985	194.596
429.754	12.8935
434.521	54.3809
439.285	9.66504
444.046	26.019
448.805	1.49805
453.561	192.007
458.315	245.607
463.065	326.278
467.813	422.992
472.559	672.727
477.302	907.461
482.042	622.176
486.78	339.853
491.515	505.476
496.247	751.104
500.977	1096.77
505.704	1833.33
510.428	1950.76
515.15	968.052
519.869	694.28
524.586	750.191
529.3	651.729
534.011	907.663
538.719	2754.2
543.425	7197.6
548.129	11522.6
552.83	5015.64
557.528	1915.81
562.223	1349.01
566.916	1144.41
571.607	1095.01
576.294	925.75
580.979	815.805
585.662	863.015
590.341	839.786
595.019	715.923
599.693	736.362
604.365	713.922
609.035	871.115
613.701	944.515
618.366	1460.79
623.027	2154.4
627.686	2672.32
632.342	1863.56
636.996	1233.11
641.647	930.957
646.296	848.106
650.942	799.549
655.585	556.295
660.226	248.347
664.864	101.673
669.499	126.213
674.132	46.1191
678.763	70.7085
683.39	68.8833
688.015	117.678
692.638	31.4038
697.258	76.8345
701.875	46.9683
706.49	68.4907
711.102	78.5962
715.712	11.0869
720.319	0.611816
724.923	136.65
729.525	110.133
734.124	129.008
738.721	272.287
743.315	248.013
747.907	442.219
752.496	635.929
757.082	908.157
761.666	1273.92
766.247	1825.23
770.826	2213.14
775.402	2164.67
779.975	1767.89
784.546	1581.85
789.115	1471.68
793.681	1743.74
798.244	2343.47
802.804	3262.42
807.363	4481.4
811.918	6413.74
816.471	8769.31
821.022	12677.2
825.569	13729.9
830.115	10445.6
834.657	7731.56
839.198	6700.8
843.735	6677.15
848.27	7177.94
852.803	7118.68
857.333	7631.13
861.86	9218.36
866.385	13620.5
870.907	23782.4
875.427	42378.1
879.944	54759.6
884.459	40367.5
888.971	21842.6
893.481	11435.9
897.988	6446.31
902.492	4444.33
906.994	3391.62
911.493	2761.65
915.99	2242.39
920.485	1672.7
924.976	1426.35
929.466	1130.24
933.952	1041.8
938.436	1036.58
942.918	826.495
947.397	950.127
951.874	864.364
956.348	548.204
960.819	251.746
965.288	169.778
969.755	351.277
974.219	576.168
978.68	903.638
983.139	1072.36
987.595	1379.66
992.049	1552.42
996.501	2065.57
1000.95	3066.6
1005.4	3398.51
1009.84	2854.29
1014.28	1529.71
1018.72	716.935
1023.16	402.027
1027.59	220.859
1032.02	168.502
1036.45	114.315
1040.88	31.4482
1045.3	57.7685
1049.72	40.5156
1054.14	43.1172
1058.56	165.512
1062.97	93.2852
1067.38	159.65
1071.79	61.0059
1076.19	100.037
1080.6	240.099
1085	310.405
1089.4	103.311
1093.79	199.838
1098.19	78.0752
1102.58	50.8398
1106.97	123.04
1111.35	307.446
1115.74	320.278
1120.12	286.411
1124.5	104.748
1128.87	122.28
1133.25	72.9766
1137.62	251.792
1141.99	109.769
1146.35	284.869
1150.72	393.065
1155.08	350.038
1159.44	291.796
1163.79	400.751
1168.15	370.93
1172.5	287.184
1176.85	425.964
1181.19	285.014
1185.54	342.398
1189.88	327.047
1194.22	85.7666
1198.55	105.22
1202.89	76.5703
1207.22	22.8818
1211.55	209.777
1215.88	171.68
1220.2	164.808
1224.52	459.326
1228.84	339.602
1233.16	413.369
1237.47	483.515
1241.78	475.7
1246.09	419.185
1250.4	499.691
1254.7	558.859
1259.01	585.012
1263.31	656.622
1267.6	559.329
1271.9	567.021
1276.19	557.131
1280.48	412.739
1284.77	342.619
1289.05	327.539
1293.33	459.611
1297.61	399.908
1301.89	561.437
1306.16	485.542
1310.44	580.773
1314.71	645.195
1318.97	463.937
1323.24	385.684
1327.5	306.969
1331.76	219.368
1336.02	96.4648
1340.28	142.256
1344.53	134.59
1348.78	145.102
1353.03	113.564
1357.27	90.8603
1361.52	20.9043
1365.76	1.44922
1370	58.502
1374.23	81.7519
1378.47	229.602
1382.7	13.331
1386.93	70.9248
1391.15	145.923
1395.38	15.0518
1399.6	95.0537
1403.82	199.037
1408.03	233.388
1412.25	173.56
1416.46	144.017
1420.67	103.417
1424.88	200.684
1429.08	391.443
1433.28	296.448
1437.48	778.336
1441.68	1003.75
1445.87	1083.08
1450.07	1417.19
1454.26	1271.99
1458.44	1241.41
1462.63	969.628
1466.81	822.162
1470.99	656.558
1475.17	360.012
1479.34	508.848
1483.52	359.375
1487.69	72.7168
1491.86	249.41
1496.02	56.7598
1500.19	34.9453
1504.35	2.41211
1508.51	110.025
1512.66	160.801
1516.82	155.225
1520.97	20.1934
1525.12	290.981
1529.26	198.514
1533.41	293.279
1537.55	269.918
1541.69	220.42
1545.83	173.037
1549.96	156.185
1554.09	160.66
1558.22	33.1992
1562.35	0
