Measurement: Raman, 514 nm, ccw, Raman Data Processed
Mineral: Grossular
Rruff sample: R060382
Ideal chemistry: Ca_3_Al_2_(SiO_4_)_3_
Locality: Lalatema, near Mount Kilimanjaro, Tanzania
Source: Herb Obodda
Description: Pale tan colored fragment
Measured chemistry: (Ca_2.95_Mg_0.03_Mn_0.02_)_Σ=3_Al_2.00_((Si_0.99_Ti_0.01_)_Σ=1_O_4_)_3_; trace amounts of Fe
Pin_id: L01581
Orientation: Laser parallel to -a* (-1 0 0). Fiducial mark perpendicular to laser is parallel to 0 1 0
Raman shift (cm-1)	intensity
118.534	0
122.247	26.2546
125.959	57.2953
129.67	45.2855
133.379	23.7301
137.086	47.7477
140.791	44.7128
144.495	37.2532
148.197	18.1498
151.898	68.4452
155.597	4.82043
159.294	88.3717
162.989	111.068
166.683	53.5333
170.376	133.08
174.066	190.883
177.755	260.956
181.442	415.467
185.128	211.709
188.812	57.3033
192.495	37.001
196.175	57.7293
199.854	90.4544
203.532	10.2368
207.208	13.1365
210.882	16.2461
214.555	39.2347
218.226	51.7379
221.895	51.8946
225.563	79.1245
229.229	98.3629
232.893	184.148
236.556	358.745
240.217	554.931
243.877	534.011
247.535	752.025
251.191	338.999
254.846	121.932
258.499	80.8207
262.15	80.645
265.8	105.396
269.449	151.563
273.095	267.058
276.74	746.299
280.384	688.637
284.026	217.312
287.666	90.5946
291.304	35.9756
294.941	51.8574
298.577	27.6232
302.211	34.1036
305.843	70.9528
309.473	75.5264
313.103	76.0687
316.73	144.372
320.356	263.823
323.98	275.726
327.603	433.302
331.224	357.145
334.843	299.18
338.461	193.127
342.077	210.915
345.692	310.552
349.305	319.935
352.916	416.662
356.526	607.34
360.135	1040.3
363.741	1718.59
367.347	3095.68
370.95	4835.74
374.552	6828.8
378.153	4886.54
381.751	2186.09
385.349	1134.29
388.944	630.41
392.539	464.772
396.131	385.653
399.722	285.29
403.312	257.875
406.899	281.396
410.486	330.852
414.07	469.251
417.654	596.601
421.235	277.889
424.815	140.196
428.394	14.5608
431.971	7.73169
435.546	33.1323
439.12	17.4919
442.692	35.6226
446.263	44.7263
449.832	26.645
453.399	23.8015
456.966	25.6438
460.53	8.92749
464.093	16.9045
467.654	14.9822
471.214	6.48975
474.772	103.536
478.329	96.7083
481.884	130.1
485.438	39.8711
488.99	78.4517
492.541	26.8318
496.09	29.9898
499.637	99.324
503.183	148.925
506.728	283.545
510.271	394.995
513.812	219.784
517.352	122.087
520.89	118.218
524.427	176.31
527.962	155.329
531.496	109.232
535.028	158.338
538.559	304.626
542.088	680.521
545.615	1422.15
549.141	2327.66
552.666	1459.19
556.189	664.956
559.711	337.778
563.231	269.016
566.749	250.675
570.266	232.945
573.782	209.786
577.296	265.754
580.808	145.144
584.319	159.016
587.828	258.87
591.336	197.191
594.843	151.099
598.348	135.357
601.851	217.387
605.353	172.072
608.853	145.224
612.352	195.003
615.85	214.136
619.345	206.693
622.84	402.021
626.333	483.603
629.824	566.401
633.314	402.642
636.802	262.918
640.289	246.678
643.775	241.353
647.259	182.635
650.741	157.472
654.222	140.892
657.702	176.505
661.18	93.5017
664.656	59.1362
668.131	61.1597
671.605	7.00903
675.077	80.4219
678.547	103.663
682.016	110.436
685.484	93.6958
688.95	58.5215
692.415	34.8782
695.878	66.8071
699.34	30.259
702.8	38.804
706.259	34.5793
709.716	94.897
713.172	78.8318
716.626	41.9958
720.079	12.9963
723.53	26.9653
726.98	25.5076
730.429	3.83154
733.876	32.1065
737.321	73.4824
740.765	75.5879
744.208	44.418
747.649	56.209
751.089	80.9507
754.527	5.2583
757.964	73.2358
761.399	140.88
764.833	98.8936
768.266	187.359
771.697	194.246
775.126	249.461
778.554	283.084
781.981	389.182
785.406	301.824
788.83	257.162
792.252	251.375
795.673	281.534
799.093	338.549
802.511	346.656
805.927	578.727
809.342	839.093
812.756	1035.62
816.168	1293.17
819.579	1728.43
822.988	2219.53
826.396	2157.65
829.802	1687.87
833.208	1188.1
836.611	1239.97
840.013	1090.77
843.414	1148.55
846.813	1279.85
850.211	1359.2
853.608	1216.64
857.003	1334.66
860.396	1679.06
863.789	2158.16
867.179	2857.88
870.569	4491.9
873.957	6990.02
877.343	10752
880.728	11883.5
884.112	8798.51
887.494	6188.99
890.875	4727.95
894.254	3966.31
897.632	2919.48
901.009	1791.06
904.384	1061.12
907.758	755.453
911.13	504.371
914.501	533.244
917.871	426.388
921.239	246.158
924.606	312.536
927.971	373.895
931.335	279.347
934.698	424.361
938.059	366.457
941.418	205.764
944.777	280.594
948.134	79.5288
951.489	34.7388
954.843	13.7871
958.196	23.876
961.548	32.3516
964.897	126.889
968.246	0.109375
971.593	91.8662
974.939	98.2451
978.283	83.6387
981.626	89.4365
984.968	267.709
988.308	223.405
991.647	227.882
994.985	254.235
998.321	250.2
1001.65	529.351
1004.99	709.644
1008.32	733.65
1011.65	757.447
1014.98	883.877
1018.31	1022.83
1021.63	576.467
1024.96	269.817
1028.28	207.731
1031.61	196.21
1034.93	12.2295
1038.25	57.7949
1041.56	13.956
1044.88	152.628
1048.2	25.7695
1051.51	18.4893
1054.82	79.4062
1058.13	90.9414
1061.44	245.963
1064.75	66.9541
1068.06	63.8965
1071.37	88.9492
1074.67	74.4668
1077.97	51.4395
1081.28	83.7725
1084.58	21.7871
1087.88	21.1377
1091.17	170.253
1094.47	40.6162
1097.77	89.4512
1101.06	113.876
1104.35	63.2334
1107.64	305.585
1110.93	189.018
1114.22	188.168
1117.51	206.473
1120.79	290.406
1124.08	254.214
1127.36	228.633
1130.64	278.502
1133.92	402.134
1137.2	616.867
1140.48	880.907
1143.76	732.733
1147.03	497.244
1150.3	324.67
1153.58	368.66
1156.85	361.806
1160.12	399.401
1163.38	289.197
1166.65	273.912
1169.92	208.34
1173.18	389.031
1176.44	456.264
1179.7	246.268
1182.96	314.685
1186.22	277.647
1189.48	113.426
1192.74	73.1231
1195.99	35.0469
