Measurement: Raman, 514 nm, ccw, Raman Data Processed
Mineral: Grossular
Rruff sample: R060443
Ideal chemistry: Ca_3_Al_2_(SiO_4_)_3_
Locality: unknown
Source: Gemological Institute of America
Description: Yellowish tan colored single crystal
Measured chemistry: (Ca_2.92_Mn_0.03_Mg_0.03_Fe^2+^_0.02_)_Σ=3_(Al_1.86_Fe^3+^_0.14_)_Σ=2_(Si_1.00_O_4_)_3_; trace amounts of Ti
Pin_id: L01228
Orientation: Laser parallel to a* (1 0 0). Fiducial mark perpendicular to laser is parallel to c [0 0 1]
Raman shift (cm-1)	intensity
114.818	0
119.772	10.9126
124.722	20.5671
129.67	51.9929
134.615	17.0666
139.556	20.4596
144.495	19.3004
149.431	32.6995
154.364	68.7078
159.294	80.6171
164.221	113.596
169.145	583.467
174.066	1808.81
178.984	4898.07
183.9	3554.15
188.812	757.025
193.722	174.981
198.628	106.672
203.532	33.1252
208.433	26.2605
213.331	46.656
218.226	62.5808
223.118	15.4517
228.007	88.5925
232.893	270.734
237.777	626.833
242.657	702.91
247.535	682.115
252.41	381.008
257.281	402.121
262.15	521.144
267.017	575.308
271.88	825.257
276.74	954.138
281.598	869.15
286.453	742.645
291.304	559.238
296.153	281.385
301	201.316
305.843	395.238
310.683	758.324
315.521	950.158
320.356	854.904
325.188	882.558
330.017	999.096
334.843	1055.49
339.666	1146.73
344.487	1472.81
349.305	2215.71
354.12	3656.65
358.932	8046.43
363.741	18147.8
368.548	34835.6
373.352	43558.6
378.153	34645.5
382.951	13469.4
387.746	5525.53
392.539	2727.79
397.328	1770.08
402.115	1475.26
406.899	2338.23
411.681	4214.02
416.459	5027.7
421.235	1812.38
426.008	419.074
430.779	127.723
435.546	91.7739
440.311	34.5217
445.073	16.6729
449.832	139.827
454.588	471.028
459.342	452.829
464.093	460.211
468.841	449.138
473.587	381.572
478.329	362.49
483.069	236.87
487.806	379.688
492.541	649.922
497.272	1001.58
502.001	948.673
506.728	776.141
511.451	607.783
516.172	439.306
520.89	695.902
525.605	958.039
530.318	775.981
535.028	1231.03
539.735	3816.81
544.44	9375.48
549.141	10851.3
553.841	3696.59
558.537	1136.93
563.231	607.363
567.922	588.111
572.61	617.095
577.296	607.732
581.979	649.782
586.659	767.949
591.336	1072.75
596.011	602.732
600.683	480.283
605.353	796.506
610.02	984.159
614.684	1086.41
619.345	1278.28
624.004	1428.76
628.661	1452.82
633.314	1065.46
637.965	586.662
642.613	276.407
647.259	151.683
651.902	67.4419
656.542	31.5207
661.18	91.3931
665.815	71.5253
670.447	93.0123
675.077	12.9273
679.704	23.9474
684.328	5.08179
688.95	41.353
693.569	45.0453
698.186	1.33826
702.8	40.679
707.411	15.0967
712.02	22.5453
716.626	38.6117
721.23	7.42371
725.83	4.85559
730.429	35.5127
735.024	53.4445
739.618	31.0395
744.208	103.03
748.796	199.554
753.381	193.637
757.964	267.289
762.544	388.52
767.122	517.341
771.697	925.763
776.269	1091.8
780.839	759.459
785.406	646.821
789.971	671.076
794.533	762.539
799.093	843.987
803.65	1400.59
808.204	2250.61
812.756	3410.7
817.305	4687.42
821.852	5987.78
826.396	6593.38
830.938	6076.88
835.477	5465.58
840.013	5052.07
844.547	5160.39
849.079	5407.77
853.608	5941.59
858.134	6887.39
862.658	8814.11
867.179	13509.5
871.698	24842.5
876.214	42947.2
880.728	49942.7
885.239	33372.1
889.748	17089.6
894.254	9133.28
898.758	5739.08
903.259	4318.02
907.758	3490.12
912.254	2820.2
916.748	2339.34
921.239	1843.8
925.728	1545.14
930.214	1361.51
934.698	996.62
939.179	1134.62
943.657	1224.48
948.134	1251.87
952.607	933.164
957.079	603.921
961.548	348.106
966.014	417.197
970.478	560.868
974.939	840.257
979.398	1303.97
983.854	1530.07
988.308	1685.12
992.76	1903.3
997.209	1874.5
1001.65	2178.47
1006.1	2377.29
1010.54	1921.16
1014.98	1009.06
1019.42	514.968
1023.85	282.887
1028.28	233.856
1032.71	268.873
1037.14	99.0967
1041.56	78.9126
1045.99	56.8872
1050.41	55.1841
1054.82	21.4807
1059.24	40.8403
1063.65	56.0498
1068.06	89.5466
1072.47	49.7578
1076.87	29.2302
1081.28	15.3989
1085.68	2.16894
1090.08	39.4085
1094.47	43.7685
1098.86	10.5535
1103.25	2.02148
1107.64	69.0747
1112.03	5.82397
1116.41	0.158936
1120.79	77.0466
1125.17	56.9321
1129.55	117.489
1133.92	212.711
1138.29	202.608
1142.66	280.175
1147.03	313.361
1151.39	353.607
1155.76	331.947
1160.12	344.834
1164.47	328.519
1168.83	281.842
1173.18	276.225
1177.53	305.949
1181.88	230.543
1186.22	248.165
1190.57	92.5205
1194.91	142.988
1199.25	131.443
1203.58	143.848
1207.92	187.132
1212.25	234.976
1216.58	163.034
1220.9	210.455
1225.23	219.309
1229.55	291.404
1233.87	180.304
1238.19	219.658
1242.5	289.911
1246.81	240.322
1251.12	306.635
1255.43	303.994
1259.74	305.588
1264.04	260.488
1268.34	155.838
1272.64	174.944
1276.94	154.228
1281.23	120.495
1285.52	20.0852
1289.81	61.4497
1294.1	74.0151
1298.39	38.0498
1302.67	76.4148
1306.95	14.7844
1311.23	59.313
1315.5	11.3569
1319.78	121.436
1324.05	72.6296
1328.32	83.1311
1332.58	123.945
1336.85	68.0786
1341.11	47.835
1345.37	105.418
1349.63	64.7544
1353.88	94.7231
1358.13	75.52
1362.38	99.1523
1366.63	50.5098
1370.88	79.0352
1375.12	90.0264
1379.36	12.3706
1383.6	111.752
1387.84	47.9399
1392.08	75.1909
1396.31	90.4712
1400.54	126.798
1404.77	5.81543
1408.99	67.686
1413.21	4.17041
1417.44	79.6587
1421.66	167.16
1425.87	152.94
1430.09	103.267
1434.3	133.25
1438.51	113.99
1442.72	211.907
1446.92	185.117
1451.13	192.892
1455.33	219.744
1459.53	240.183
1463.72	228.612
1467.92	139.023
1472.11	167.197
1476.3	152.477
1480.49	200.22
1484.67	190.136
1488.86	133.567
1493.04	101.623
1497.22	71.6885
1501.39	0.883301
1505.57	56.0659
1509.74	76.686
1513.91	12.706
1518.08	67.918
1522.25	36.9443
1526.41	171.356
1530.57	142.634
1534.73	128.382
1538.89	63.3418
1543.04	44.0557
1547.2	96.2202
1551.35	102.176
1555.49	136.486
1559.64	60.7129
1563.79	0
