Measurement: Raman, 514 nm, ccw, Raman Data Processed
Mineral: Grossular
Rruff sample: R040065
Ideal chemistry: Ca_3_Al_2_(SiO_4_)_3_
Locality: Feng Tien mine, Taiwan
Source: University of Arizona Mineral Museum
Description: Orange-brown trapezohedral crystals
Measured chemistry: (Ca_2.90_Fe^2+^_0.05_Mn_0.05_)_Σ=3_(Al_1.95_Fe^3+^_0.03_Ti_0.02_)_Σ=2_((Si_0.99_Al_0.01_)_Σ=1_O_4_)_3_
Pin_id: M00027
Orientation: Laser parallel to -a* (-1 0 0). Fiducial mark perpendicular to laser is parallel to b [0 1 0]
Raman shift (cm-1)	intensity
104.166	0
108.355	146.694
112.541	234.356
116.725	438.264
120.907	290.907
125.086	94.888
129.264	34.72
133.439	90.145
137.612	116.785
141.783	162.432
145.952	56.749
150.119	98.928
154.284	67.528
158.446	35.781
162.607	144.019
166.765	85.499
170.921	279.964
175.075	881.64
179.227	3623.53
183.377	2677.25
187.525	643.926
191.67	247.266
195.813	192.678
199.955	101.954
204.094	13.122
208.231	55.247
212.366	2.289
216.499	71.765
220.629	31.496
224.758	9.594
228.884	37.743
233.009	19.385
237.131	167.753
241.251	259.167
245.369	348.268
249.485	337.044
253.599	52.931
257.711	6.499
261.82	28.892
265.928	11.089
270.033	104.401
274.137	283.433
278.238	569.468
282.337	448.796
286.434	247.568
290.529	319.45
294.622	214.349
298.713	168.537
302.802	214.851
306.889	321.297
310.973	491.328
315.056	805.414
319.136	827.306
323.215	590.662
327.291	673.627
331.365	730.92
335.438	625.599
339.508	792.014
343.576	931.702
347.642	1169.92
351.706	1502.69
355.768	2129.89
359.827	3496.64
363.885	7182.82
367.941	15962.7
371.994	22933.1
376.046	27176.5
380.096	12938
384.143	5257.54
388.188	2824.04
392.232	1788.64
396.273	1251.46
400.312	1042.56
404.35	1030.17
408.385	1226.17
412.418	2249.84
416.449	5171.69
420.478	2903.07
424.505	1017.72
428.53	521.685
432.553	284.54
436.574	214.248
440.593	198.149
444.61	141.8
448.625	96.644
452.638	127.215
456.649	209.006
460.658	221.697
464.665	204.252
468.669	187.917
472.672	175.602
476.673	214.273
480.672	213.206
484.668	138.625
488.663	149.53
492.656	186.946
496.646	262.469
500.635	278.199
504.622	333.173
508.606	446.372
512.589	383.408
516.57	265.898
520.548	279.409
524.525	744.032
528.5	1117.86
532.473	398.201
536.443	504.463
540.412	835.839
544.379	2453.72
548.343	7577.31
552.306	5724.77
556.267	1877.62
560.226	869.03
564.182	639.155
568.137	605.809
572.09	509.118
576.041	469.896
579.99	426.148
583.937	468.17
587.881	665.031
591.824	966.054
595.765	564.959
599.704	261.411
603.641	272.671
607.576	268.238
611.509	308.641
615.441	381.112
619.37	434.629
623.297	423.709
627.222	577.383
631.145	522.634
635.067	492.871
638.986	268.179
642.904	167.607
646.819	164.543
650.733	91.078
654.644	96.258
658.554	20.115
662.461	0.617
666.367	26.237
670.271	32.504
674.173	10.298
678.073	2.666
681.971	36.566
685.867	54.045
689.761	33.135
693.653	34.807
697.543	21.017
701.431	0.605
705.317	12.624
709.202	9.073
713.084	4.124
716.965	12.234
720.844	39.977
724.72	0.182
728.595	58.221
732.468	27.724
736.339	61.017
740.208	59.446
744.075	106.566
747.94	108.422
751.803	220.015
755.665	263.326
759.524	451.445
763.382	459.314
767.237	634.036
771.091	817.542
774.943	923.83
778.793	897.919
782.641	644.798
786.487	612.459
790.331	568.911
794.173	637.177
798.013	761.246
801.852	994.902
805.688	1179.4
809.523	1686.82
813.356	2089.34
817.187	2602.66
821.016	3130
824.843	3831.18
828.668	3725.39
832.492	3090.34
836.313	2759.44
840.133	2590.56
843.95	2709.37
847.766	2986.12
851.58	3183.21
855.392	3502.72
859.202	4166.18
863.011	5157.42
866.817	7233.58
870.622	11008.3
874.424	19269.8
878.225	33256.5
882.024	37442.9
885.821	24961
889.616	14499.5
893.41	8288.51
897.201	5046.73
900.991	3451.93
904.779	2460.17
908.565	2207.47
912.349	1814.41
916.131	1501.91
919.911	1277.09
923.69	1012.9
927.466	961.65
931.241	776.013
935.014	551.42
938.785	513.588
942.554	498.768
946.322	504.179
950.087	472.619
953.851	400.654
957.613	331.465
961.373	162.043
965.131	122.964
968.887	127.065
972.642	194.637
976.394	291.577
980.145	412.478
983.894	508.351
987.641	635.143
991.387	618.363
995.13	608.572
998.872	717.262
1002.61	1023.17
1006.35	1137.68
1010.09	1081.21
1013.82	603.48
1017.55	293.984
1021.28	317.644
1025.01	93.877
1028.74	93.602
1032.46	122.504
1036.19	115.544
1039.91	29.424
1043.63	98.484
1047.35	76.606
1051.06	78.299
1054.78	148.724
1058.49	51.042
1062.2	8.261
1065.91	0.529
1069.62	25.912
1073.32	18.965
1077.03	29.407
1080.73	24.281
1084.43	103.271
1088.13	1.364
1091.82	36.436
1095.52	32.514
1099.21	22.481
1102.9	39.58
1106.59	30.084
1110.28	33.816
1113.96	12.417
1117.65	31.308
1121.33	98.019
1125.01	27.224
1128.69	40.997
1132.37	15.02
1136.04	78.728
1139.71	286.356
1143.38	176.936
1147.05	145.252
1150.72	229.458
1154.39	64.857
1158.05	212.299
1161.71	215.232
1165.38	330.968
1169.04	304.61
1172.69	236.634
1176.35	309.659
1180	161.139
1183.65	140.211
1187.3	108.43
1190.95	259.614
1194.6	257.418
1198.24	298.735
1201.89	181.497
1205.53	83.893
1209.17	123.556
1212.81	89.13
1216.44	104.58
1220.08	243.53
1223.71	273.096
1227.34	364.969
1230.97	357.594
1234.6	244.617
1238.22	211.733
1241.84	183.073
1245.47	124.303
1249.09	259.703
1252.7	368.481
1256.32	455.18
1259.94	378.58
1263.55	289.721
1267.16	224.931
1270.77	164.313
1274.38	118.8
1277.99	51.318
1281.59	208.05
1285.19	346.26
1288.8	233.825
1292.39	208.391
1295.99	92.885
1299.59	54.03
1303.18	74.771
1306.78	101.595
1310.37	42.729
1313.96	141.955
1317.54	304.744
1321.13	398.438
1324.71	461.1
1328.3	345.315
1331.88	238.196
1335.45	149.702
1339.03	244.251
1342.61	216.404
1346.18	278.487
1349.75	413.665
1353.32	550.675
1356.89	715.465
1360.46	615.992
1364.03	538.883
1367.59	510.203
1371.15	392.792
1374.71	211.282
1378.27	64.773
1381.83	206.861
1385.38	325.749
1388.93	513.827
1392.48	530.547
1396.04	703.508
1399.58	489.476
1403.13	326.104
1406.67	287.227
1410.22	93.521
1413.76	1.232
