Measurement: Raman, 514 nm, ccw, Raman Data Processed
Mineral: Grossular
Rruff sample: R060452
Ideal chemistry: Ca_3_Al_2_(SiO_4_)_3_
Locality: unknown
Source: Gemological Institute of America
Description: Yellowish-brown colored fragment
Measured chemistry: (Ca_2.94_Mn_0.03_Mg_0.03_)_Σ=3_(Al_1.91_Fe^3+^_0.06_Ti_0.03_)_Σ=2_((Si_0.99_Al_0.01_)_Σ=1_O_4_)_3_
Pin_id: L01823
Orientation: Laser parallel to a* (1 0 0). Fiducial mark perpendicular to laser is parallel to c [0 0 1]
Raman shift (cm-1)	intensity
118.534	0
122.247	0.317627
125.959	22.71
129.67	25.839
133.379	13.2404
137.086	16.0798
140.791	56.7803
144.495	0.465576
148.197	62.3752
151.898	42.296
155.597	38.5077
159.294	70.7179
162.989	41.8597
166.683	46.6198
170.376	260.772
174.066	549.824
177.755	1388.5
181.442	2472.32
185.128	965.243
188.812	333.243
192.495	126.311
196.175	73.5383
199.854	62.8818
203.532	76.2776
207.208	15.3101
210.882	17.5735
214.555	16.9293
218.226	14.3124
221.895	66.7576
225.563	19.7517
229.229	119.734
232.893	208.218
236.556	376.73
240.217	453.115
243.877	622.391
247.535	567.54
251.191	334.652
254.846	124.737
258.499	140.798
262.15	176.843
265.8	162.627
269.449	263.164
273.095	383.419
276.74	656.359
280.384	553.727
284.026	262.022
287.666	176.661
291.304	135.305
294.941	53.5775
298.577	19.1928
302.211	75.2844
305.843	101.686
309.473	143.639
313.103	308.322
316.73	406.12
320.356	330.813
323.98	279.19
327.603	376.698
331.224	406.768
334.843	391.277
338.461	370.781
342.077	451.589
345.692	624.07
349.305	829.617
352.916	1222.95
356.526	1798.46
360.135	3142
363.741	5810.68
367.347	10717.5
370.95	15022.1
374.552	18074.1
378.153	12497
381.751	5722.83
385.349	2711.68
388.944	1554.54
392.539	1042.42
396.131	814.381
399.722	688.232
403.312	703.198
406.899	798.194
410.486	1118.25
414.07	1983.4
417.654	2406.59
421.235	1085.79
424.815	355.005
428.394	143.195
431.971	74.3901
435.546	50.5825
439.12	41.5322
442.692	21.6431
446.263	59.0523
449.832	32.3997
453.399	20.1736
456.966	14.656
460.53	26.2136
464.093	76.4414
467.654	59.8052
471.214	65.8716
474.772	131.81
478.329	135.638
481.884	133.338
485.438	76.8933
488.99	57.2715
492.541	166.451
496.09	195.431
499.637	207.226
503.183	282.828
506.728	377.21
510.271	395.401
513.812	302.459
517.352	217.083
520.89	326.1
524.427	494.46
527.962	655.487
531.496	321.688
535.028	356.372
538.559	633.688
542.088	1621.95
545.615	3384.18
549.141	5517.18
552.666	3389.01
556.189	1373.09
559.711	635.087
563.231	486.812
566.749	448.576
570.266	375.432
573.782	431.959
577.296	352.57
580.808	397.793
584.319	445.312
587.828	471.001
591.336	620.345
594.843	445.026
598.348	450.849
601.851	415.353
605.353	327.009
608.853	434.533
612.352	439.132
615.85	544.767
619.345	621.104
622.84	790.419
626.333	1009.19
629.824	992.78
633.314	723.628
636.802	558.153
640.289	524.78
643.775	484.793
647.259	463.518
650.741	429.705
654.222	359.349
657.702	239.634
661.18	191.143
664.656	137.055
668.131	68.3491
671.605	17.9946
675.077	22.9707
678.547	3.29272
682.016	5.87451
685.484	42.7444
688.95	52.0923
692.415	17.2415
695.878	3.20606
699.34	21.386
702.8	35.7073
706.259	21.0991
709.716	40.1812
713.172	4.24878
716.626	39.0591
720.079	43.7534
723.53	16.1792
726.98	35.3486
730.429	62.7378
733.876	28.8828
737.321	14.3142
740.765	63.4531
744.208	20.2656
747.649	31.5684
751.089	110.159
754.527	96.0493
757.964	137.252
761.399	170.793
764.833	229.693
768.266	287.99
771.697	360.72
775.126	534.924
778.554	629.622
781.981	579.888
785.406	528.669
788.83	589.964
792.252	471.433
795.673	555.439
799.093	607.759
802.511	840.694
805.927	1065.28
809.342	1408.83
812.756	1715.91
816.168	2178.54
819.579	2709.58
822.988	3142.02
826.396	3283.49
829.802	2849.89
833.208	2320.85
836.611	2032.04
840.013	2153.54
843.414	2165.71
846.813	2358.73
850.211	2508.8
853.608	2773.46
857.003	3023.93
860.396	3557.08
863.789	4517.44
867.179	6133.16
870.569	9227.9
873.957	15050.3
877.343	23217.2
880.728	26855.4
884.112	21385.9
887.494	13649.6
890.875	8516.2
894.254	5389
897.632	3443.97
901.009	2488.97
904.384	1772.7
907.758	1342.72
911.13	1124.72
914.501	901.514
917.871	945.65
921.239	647.29
924.606	553.035
927.971	514.697
931.335	342.474
934.698	402.968
938.059	284.19
941.418	329.81
944.777	328.989
948.134	284.537
951.489	240.036
954.843	204.76
958.196	102.529
961.548	19.2476
964.897	6.63672
968.246	4.40039
971.593	77.209
974.939	116.631
978.283	142.573
981.626	328.231
984.968	455.005
988.308	438.582
991.647	387.74
994.985	564.158
998.321	848.856
1001.65	1154.08
1004.99	1285.55
1008.32	994.158
1011.65	759.469
1014.98	683.876
1018.31	431.671
1021.63	291.865
1024.96	227.736
1028.28	156.191
1031.61	165.123
1034.93	81.9219
1038.25	84.4062
1041.56	8.74414
1044.88	46.6055
1048.2	61.7803
1051.51	11.956
1054.82	91.9336
1058.13	11.2432
1061.44	55.6445
1064.75	1.39844
1068.06	3.16309
1071.37	34.1728
1074.67	205.546
1077.97	215.753
1081.28	108.183
1084.58	104.127
1087.88	170.667
1091.17	141.609
1094.47	81.1572
1097.77	15.4023
1101.06	27.8262
1104.35	67.3535
1107.64	132.327
1110.93	7.13867
1114.22	69.1631
1117.51	99.9043
1120.79	264.016
1124.08	40.248
1127.36	148.212
1130.64	103.658
1133.92	155.846
1137.2	275.713
1140.48	261.338
1143.76	316.817
1147.03	161.914
1150.3	319.959
1153.58	232.876
1156.85	292.69
1160.12	273.213
1163.38	408.483
1166.65	379.263
1169.92	462.56
1173.18	382.49
1176.44	464.473
1179.7	219.215
1182.96	390.537
1186.22	348.478
1189.48	230.012
1192.74	134.873
1195.99	188.148
1199.25	89.5644
1202.5	331.525
1205.75	1.79297
1209	93.9844
1212.25	193.072
1215.49	172.328
1218.74	118.908
1221.98	237.662
1225.23	89.6016
1228.47	59.2266
1231.71	236.891
1234.95	193.74
1238.19	328.074
1241.42	98.2734
1244.66	0
