Measurement: Raman, 514 nm, ccw, Raman Data Processed
Mineral: Grossular
Rruff sample: R060278
Ideal chemistry: Ca_3_Al_2_(SiO_4_)_3_
Locality: Diakon, Kayes Region, Mali
Source: Herb Obodda
Description: Dark brown dodecahedral single crystal
Measured chemistry: (Ca_2.93_Mg_0.05_Mn_0.02_)_Σ=3_(Al_1.19_Fe^3+^_0.78_Ti_0.03_)_Σ=2_((Si_0.99_Al_0.01_)_Σ=1_O_4_)_3_
Pin_id: L01488
Orientation: Laser parallel to -a* (-1 0 0). Fiducial mark perpendicular to laser is parallel to b [0 1 0]
Raman shift (cm-1)	intensity
197.52	0
202.413	239.167
207.305	101.156
212.193	31.5669
217.079	251.583
221.963	1010.83
226.844	2700.94
231.723	4718.81
236.599	6221.49
241.472	5275
246.343	2546.82
251.211	1223.74
256.077	1146.58
260.94	1765.49
265.801	2693.11
270.66	3606.74
275.515	3278.82
280.368	2845.26
285.219	2343.45
290.067	2199.61
294.913	2621.05
299.756	2962.84
304.596	3311.39
309.434	4228.23
314.27	6172.59
319.102	7734.49
323.933	6882.35
328.76	6282.87
333.586	6505.41
338.408	7015.35
343.229	9020.27
348.046	14740.5
352.861	25905.5
357.674	39018.2
362.484	44454.9
367.291	53808.4
372.096	49985.4
376.898	28208.5
381.698	14668.3
386.495	8907.69
391.29	6319.98
396.082	5709.47
400.872	4667.6
405.659	2523.68
410.443	713.422
415.225	39.3413
420.005	383.462
424.782	271.44
429.556	296.462
434.328	125.659
439.097	420.903
443.864	472.712
448.628	514.341
453.389	604.155
458.148	374.81
462.905	296.108
467.659	63.6411
472.41	58.3164
477.159	622.058
481.905	1784.77
486.649	2754.46
491.39	3058.42
496.129	2854.74
500.865	2141.41
505.598	1586.25
510.329	1083.13
515.057	1403.98
519.783	3015.71
524.506	6991.27
529.227	14065.6
533.945	13921.6
538.661	5736.22
543.374	2133.43
548.084	1567.09
552.792	1826.86
557.498	2116.04
562.2	1952.09
566.901	1458.68
571.598	949.46
576.293	625.842
580.986	455.301
585.676	734.944
590.363	1180.91
595.048	2021.17
599.731	2544.8
604.41	2809.77
609.088	3069.06
613.762	3205.08
618.434	2935.9
623.104	2140.95
627.771	1134.2
632.435	719.619
637.097	575.176
641.756	799.851
646.413	1090.63
651.067	1186.49
655.719	947.342
660.368	794.448
665.014	759.519
669.658	714.646
674.299	866.823
678.938	664.046
683.574	235.31
688.208	116.779
692.839	284.138
697.468	336.259
702.094	304.377
706.717	319.883
711.338	267.694
715.956	238.909
720.572	87.0713
725.185	217.037
729.795	572.815
734.403	1095.74
739.009	1679.84
743.611	2469.15
748.212	3348.7
752.809	4343.54
757.405	5713.7
761.997	6953.19
766.587	7189.04
771.174	6317.34
775.759	5168.42
780.342	4667.69
784.921	4765.15
789.498	5728.8
794.073	7176.64
798.645	9861.61
803.215	13720
807.781	18442.6
812.346	23629.4
816.907	27550.5
821.467	27335.8
826.023	23879.6
830.577	19872.5
835.129	17509.8
839.678	16051
844.224	15765.5
848.768	15409.9
853.309	15207.8
857.847	16424.2
862.383	19832.7
866.917	25279.7
871.448	31811.8
875.976	35109.6
880.502	31306.2
885.025	23633.7
889.545	17060.1
894.063	12457.3
898.579	9273.41
903.092	7052.42
907.602	5646.71
912.11	4933.31
916.615	4560.24
921.118	4430.11
925.618	4529.01
930.115	4769.37
934.61	5251.07
939.102	5203.46
943.592	4772.64
948.079	3762.12
952.564	2900.76
957.046	2608.72
961.525	3248.85
966.002	4226.35
970.476	4945.19
974.948	5638.51
979.417	5966.36
983.883	6028.69
988.347	5808.3
992.809	5760.75
997.268	5691.38
1001.72	4970.53
1006.18	3357.05
1010.63	1658.93
1015.08	1034.19
1019.52	1140.78
1023.97	1507.8
1028.41	930.145
1032.85	248.87
1037.28	32.2786
1041.71	134.179
1046.14	195.216
1050.57	161.733
1055	204.585
1059.42	126.71
1063.84	115.19
1068.26	119.983
1072.67	116.276
1077.09	36.126
1081.5	15.0554
1085.9	51.9346
1090.31	97.4121
1094.71	27.6807
1099.11	165.738
1103.51	204.618
1107.9	278.045
1112.29	344.964
1116.68	435.318
1121.07	572.108
1125.45	562.82
1129.84	447.722
1134.21	426.311
1138.59	463.393
1142.96	435.326
1147.34	403.148
1151.7	410.738
1156.07	373.786
1160.43	476.275
1164.79	434.428
1169.15	402.827
1173.51	415.544
1177.86	418.661
1182.21	392.821
1186.56	330.418
1190.91	344.054
1195.25	393.947
1199.59	269.753
1203.93	261.544
1208.26	241.017
1212.6	251.868
1216.92	234.22
1221.25	270.407
1225.58	325.471
1229.9	275.904
1234.22	238.335
1238.54	237.275
1242.85	177.676
1247.16	195.547
1251.47	183.898
1255.78	127.729
1260.08	62.0437
1264.38	95.8438
1268.68	7.15649
1272.98	1.90991
1277.28	28.0696
1281.57	93.3284
1285.86	26.3701
1290.14	47.5183
1294.42	3.12842
1298.71	88.8123
1302.98	41.2622
1307.26	71.2107
1311.53	108.626
1315.8	23.4399
1320.07	97.5247
1324.34	12.0195
1328.6	31.8801
1332.86	16.8027
1337.12	15.6838
1341.38	49.5286
1345.63	5.49707
1349.88	57.3398
1354.13	98.1426
1358.37	19.0173
1362.61	59.6533
1366.85	145.166
1371.09	111.58
1375.33	148.918
1379.56	92.1343
1383.79	110.655
1388.01	84.0203
1392.24	131.371
1396.46	102.947
1400.68	162.11
1404.9	190.018
1409.11	209.361
1413.32	210.372
1417.53	123.511
1421.74	133.024
1425.94	96.2144
1430.14	92.7517
1434.34	93.2368
1438.54	98.269
1442.73	181.951
1446.92	156.409
1451.11	121.906
1455.3	136.123
1459.48	87.5857
1463.66	95.386
1467.84	78.2292
1472.01	66.9436
1476.19	57.5481
1480.36	12.905
1484.53	68.7019
1488.69	47.7766
1492.85	148.838
1497.01	144.558
1501.17	260.503
1505.33	163.353
1509.48	169.299
1513.63	139.919
1517.78	87.0794
1521.92	176.78
1526.06	102.897
1530.2	90.1785
1534.34	110.265
1538.47	71.4036
1542.6	94.9238
1546.73	27.2236
1550.86	197.883
1554.98	101.955
1559.11	48.3716
1563.22	3.58521
