Measurement: Raman, 514 nm, ccw, Raman Data Processed
Mineral: Grossular
Rruff sample: R060442
Ideal chemistry: Ca_3_Al_2_(SiO_4_)_3_
Locality: Pakistan(?)
Source: Gemological Institute of America
Description: Orange crystals
Measured chemistry: (Ca_2.85_Fe^2+^_0.15_)_Σ=3_(Al_1.85_Fe^3+^_0.15_)_Σ=2_(Si_1.00_O_4_)_3_; trace amounts of Ti, Mg
Pin_id: M01870
Orientation: Laser parallel to a* (1 0 0). Fiducial mark perpendicular to laser is parallel to c [0 0 1]
Raman shift (cm-1)	intensity
129	0
133.933	3.35107
138.864	114.256
143.791	23.885
148.716	143.161
153.638	115.056
158.558	90.7415
163.475	217.172
168.389	942.793
173.3	2126.28
178.209	3854.66
183.115	1639.88
188.018	557.675
192.918	291.81
197.816	212.189
202.711	148.746
207.604	40.5422
212.494	52.7837
217.381	10.1055
222.265	74.6868
227.147	278.589
232.026	751.641
236.902	1591.89
241.775	1851.34
246.646	1932.71
251.514	634.248
256.38	458.071
261.243	702.217
266.103	783.74
270.96	1361.68
275.815	1945.71
280.667	1344.76
285.516	879.607
290.363	593.231
295.207	271.811
300.048	166.862
304.887	487.371
309.723	659.047
314.556	883.81
319.387	854.197
324.215	1094.58
329.04	1272.02
333.862	1226.49
338.682	1468.95
343.5	2125.37
348.314	3141.71
353.126	5244.69
357.935	10915.1
362.742	21792.4
367.546	35717.2
372.347	43000.9
377.145	27585.5
381.941	11119.3
386.735	5216.29
391.525	2965.44
396.313	2122.97
401.098	2109.72
405.881	2801.57
410.661	4070.49
415.438	3716.48
420.213	1218.53
424.985	294.551
429.754	7.44971
434.521	72.9106
439.285	145.658
444.046	42.2805
448.805	186.159
453.561	425.021
458.315	468.466
463.065	379.18
467.813	458.772
472.559	545.026
477.302	679.533
482.042	385.486
486.78	462.86
491.515	801.628
496.247	1158.78
500.977	1182
505.704	1204.33
510.428	928.588
515.15	550.856
519.869	639.876
524.586	936.519
529.3	755.327
534.011	1702.34
538.719	5024.93
543.425	10214.2
548.129	9516.95
552.83	3030.15
557.528	1192.12
562.223	953.788
566.916	953.375
571.607	883.669
576.294	845.975
580.979	780.561
585.662	849.357
590.341	889.522
595.019	571.21
599.693	596.378
604.365	805.097
609.035	971.38
613.701	1239.21
618.366	1312.57
623.027	1626.45
627.686	1688.84
632.342	1068.7
636.996	582.051
641.647	312.859
646.296	160.116
650.942	83.8135
655.585	7.8811
660.226	60.0012
664.864	1.28394
669.499	55.8628
674.132	74.0393
678.763	79.0046
683.39	43.5195
688.015	23.3843
692.638	60.616
697.258	17.3608
701.875	10.6113
706.49	30.6362
711.102	43.9495
715.712	35.3181
720.319	46.7515
724.923	62.3464
729.525	3.62793
734.124	182.847
738.721	90.8572
743.315	247.42
747.907	384.55
752.496	525.261
757.082	798.571
761.666	1050.49
766.247	1401.05
770.826	1626.25
775.402	1774.11
779.975	1515.66
784.546	1364.08
789.115	1394.01
793.681	1523.77
798.244	2178.99
802.804	3249.68
807.363	4751.17
811.918	6693.55
816.471	8862.08
821.022	11298.2
825.569	12082.9
830.115	9837.73
834.657	8102.92
839.198	7207.6
843.735	7023.37
848.27	7133.2
852.803	7381.12
857.333	8167.42
861.86	10073.9
866.385	15011.2
870.907	26165
875.427	43651.1
879.944	52236.6
884.459	36883.3
888.971	19529.4
893.481	10546.8
897.988	6433.63
902.492	4818.78
906.994	3769.31
911.493	2877.22
915.99	2332.9
920.485	1832.3
924.976	1490.1
929.466	1243.89
933.952	1219.2
938.436	1124.3
942.918	1351.29
947.397	1366.52
951.874	1017.79
956.348	695.883
960.819	378.799
965.288	367.661
969.755	675.889
974.219	1041.56
978.68	1408.57
983.139	1692.22
987.595	1943.96
992.049	1982.11
996.501	2317.61
1000.95	2779.4
1005.4	3177.47
1009.84	2410.77
1014.28	1241.3
1018.72	561.053
1023.16	264.022
1027.59	181.242
1032.02	75.7263
1036.45	53.3875
1040.88	52.2102
1045.3	5.18555
1049.72	19.7014
1054.14	16.521
1058.56	19.3635
1062.97	19.1304
1067.38	25.0967
1071.79	9.72412
1076.19	27.7112
1080.6	3.5564
1085	3.60864
1089.4	27.4824
1093.79	1.02759
1098.19	33.313
1102.58	75.7854
1106.97	3.44653
1111.35	38.8567
1115.74	79.342
1120.12	283.372
1124.5	258.243
1128.87	90.9429
1133.25	218.483
1137.62	156.84
1141.99	150.998
1146.35	369.947
1150.72	320.873
1155.08	331.162
1159.44	318.923
1163.79	330.519
1168.15	352.549
1172.5	355.357
1176.85	234.436
1181.19	194.417
1185.54	136.776
1189.88	173.595
1194.22	117.539
1198.55	176.387
1202.89	175.17
1207.22	231.168
1211.55	275.284
1215.88	263.132
1220.2	195.908
1224.52	281.101
1228.84	211.154
1233.16	246.75
1237.47	247.564
1241.78	259.224
1246.09	266.3
1250.4	288.584
1254.7	258.378
1259.01	199.124
1263.31	274.162
1267.6	276.461
1271.9	128.359
1276.19	85.0635
1280.48	20.5754
1284.77	55.8682
1289.05	102.815
1293.33	65.469
1297.61	80.9421
1301.89	29.2329
1306.16	5.32764
1310.44	20.2217
1314.71	9.09106
1318.97	66.8181
1323.24	44.6785
1327.5	13.0352
1331.76	50.2722
1336.02	58.5869
1340.28	71.8772
1344.53	10.0894
1348.78	85.249
1353.03	59.4065
1357.27	5.49585
1361.52	92.7678
1365.76	14.2947
1370	42.5105
1374.23	28.0403
1378.47	29.387
1382.7	44.657
1386.93	18.3955
1391.15	151.703
1395.38	104.474
1399.6	148.59
1403.82	104.363
1408.03	129.693
1412.25	136.606
1416.46	109.251
1420.67	142.053
1424.88	165.898
1429.08	124.43
1433.28	200.161
1437.48	113.15
1441.68	154.532
1445.87	105.086
1450.07	192.374
1454.26	78.0906
1458.44	135.817
1462.63	129.509
1466.81	151.062
1470.99	78.8218
1475.17	113.481
1479.34	160.582
1483.52	110.286
1487.69	73.8516
1491.86	68.654
1496.02	69.4331
1500.19	76.217
1504.35	68.2773
1508.51	180.443
1512.66	56.8015
1516.82	178.355
1520.97	81.1614
1525.12	49.0063
1529.26	75.4199
1533.41	72.8369
1537.55	82.6001
1541.69	52.1953
1545.83	4.99585
1549.96	68.6538
1554.09	53.3394
1558.22	19.376
1562.35	0
