Measurement: Raman, 514 nm, ccw, Raman Data Processed
Mineral: Grossular
Rruff sample: R040065
Ideal chemistry: Ca_3_Al_2_(SiO_4_)_3_
Locality: Feng Tien mine, Taiwan
Source: University of Arizona Mineral Museum
Description: Orange-brown trapezohedral crystals
Measured chemistry: (Ca_2.90_Fe^2+^_0.05_Mn_0.05_)_Σ=3_(Al_1.95_Fe^3+^_0.03_Ti_0.02_)_Σ=2_((Si_0.99_Al_0.01_)_Σ=1_O_4_)_3_
Pin_id: M00027
Orientation: Laser parallel to -a* (-1 0 0). Fiducial mark perpendicular to laser is parallel to b [0 1 0]
Raman shift (cm-1)	intensity
97.181	0
101.373	94.683
105.563	167.181
109.75	128.561
113.936	366.857
118.119	1421.83
122.3	301.898
126.479	17.271
130.656	71.329
134.83	135.073
139.003	106.278
143.173	168.944
147.342	160.219
151.508	188.918
155.672	220.417
159.833	217.058
163.993	255.543
168.151	138.904
172.306	88.038
176.459	538.847
180.611	1565.03
184.76	516.405
188.907	128.085
193.051	32.922
197.194	9.884
201.335	21.575
205.473	40.257
209.609	45.589
213.744	85.477
217.876	1.413
222.006	13.074
226.134	101.259
230.259	203.789
234.383	609.431
238.505	1651.97
242.624	1650.62
246.741	3246.82
250.857	1305.97
254.97	259.196
259.081	115.482
263.19	122.021
267.297	238.421
271.401	567.45
275.504	1753.37
279.605	3170.74
283.703	1023.05
287.8	476.677
291.894	241.853
295.986	207.539
300.076	125.101
304.164	113.16
308.25	170.46
312.334	286.992
316.416	459.131
320.496	374.622
324.574	410.737
328.649	829.049
332.723	938.377
336.794	604.364
340.864	531.067
344.931	863.423
348.997	1411.54
353.06	1394.42
357.121	1881.03
361.18	3114.25
365.237	5884.34
369.292	12071.1
373.345	22718.6
377.396	24477.2
381.445	9002.81
385.492	3853.37
389.536	2094.31
393.579	1412.95
397.62	1019.96
401.658	830.704
405.695	743.509
409.73	834.352
413.762	1385.21
417.793	2131.45
421.821	725.933
425.847	268.466
429.872	182.055
433.894	80.589
437.914	39.228
441.933	13.603
445.949	19.831
449.963	16.663
453.975	74.39
457.985	119.776
461.994	139.984
466	110.696
470.004	121.992
474.006	170.993
478.006	572.348
482.004	427.781
486	211.922
489.994	157.225
493.986	216.477
497.976	289.317
501.964	362.128
505.95	717.858
509.934	1704.65
513.916	850.012
517.896	413.734
521.874	306.764
525.85	584.573
529.824	469.838
533.796	384.411
537.766	511.283
541.734	1269.09
545.7	4143.67
549.664	9946.35
553.627	4318.85
557.587	1472.53
561.545	819.185
565.501	657.813
569.455	698.961
573.407	568.198
577.357	476.317
581.305	380.428
585.252	444.379
589.196	541.434
593.138	641.78
597.079	268.409
601.017	245.563
604.953	242.492
608.888	348.373
612.82	302.605
616.751	409.862
620.679	589.762
624.606	1003.13
628.53	1473.33
632.453	1118.91
636.373	561.225
640.292	329.272
644.209	349.05
648.124	345.353
652.037	295.344
655.948	208.29
659.856	128.923
663.763	79.223
667.669	17.841
671.572	20.398
675.473	78.473
679.372	56.181
683.269	38.538
687.165	26.47
691.058	40.136
694.95	11.312
698.839	32.019
702.727	14.318
706.613	8.22
710.496	27.679
714.378	27.743
718.258	23.631
722.136	18.568
726.012	55.092
729.886	5.744
733.758	89.04
737.629	64.487
741.497	82.614
745.363	153.431
749.228	214.98
753.091	212.249
756.951	329.104
760.81	464.638
764.667	680.207
768.522	869.653
772.375	951.941
776.226	898.052
780.075	819.011
783.923	768.747
787.768	703.256
791.612	725.542
795.453	734.638
799.293	1030.53
803.131	1310.26
806.967	1796.79
810.801	2427.15
814.633	3292.53
818.463	4806.84
822.292	7377.07
826.118	9129.04
829.943	6816.94
833.766	4675.5
837.586	3788.88
841.405	3772.66
845.222	4183.72
849.038	4513.35
852.851	4434.79
856.662	4493.64
860.472	5115.41
864.28	6693.44
868.085	9391.15
871.889	14793.8
875.691	26307.8
879.492	40893.6
883.29	36749.2
887.086	22425.7
890.881	12573.5
894.674	7431.32
898.465	4680.54
902.254	3197.9
906.041	2571.95
909.826	2170.96
913.609	1866.72
917.391	1499.62
921.171	1131.3
924.949	1023.49
928.725	849.056
932.499	747.479
936.271	618.618
940.042	514.294
943.81	422.939
947.577	468.864
951.342	455.542
955.105	318.586
958.866	268.203
962.626	197.992
966.383	92.521
970.139	102.824
973.893	274.055
977.645	404.178
981.395	533.709
985.143	626.906
988.89	590.247
992.635	779.433
996.377	890.47
1000.12	1521.01
1003.86	2104.68
1007.6	2562.72
1011.33	1690.78
1015.07	802.152
1018.8	440.089
1022.53	361.097
1026.26	301.026
1029.98	197.107
1033.71	202.875
1037.43	72.643
1041.15	93.743
1044.87	99.419
1048.59	25.927
1052.3	187.293
1056.02	144.076
1059.73	59.224
1063.44	21.849
1067.15	10.135
1070.85	72.829
1074.56	3.502
1078.26	118.261
1081.96	141.303
1085.66	13.469
1089.36	46.238
1093.06	52.069
1096.75	21.177
1100.44	43.699
1104.13	104.404
1107.82	191.875
1111.51	36.474
1115.19	13.661
1118.88	84.456
1122.56	59.471
1126.24	88.657
1129.91	208.365
1133.59	112.227
1137.27	157.062
1140.94	32.154
1144.61	38.595
1148.28	112.713
1151.94	76.7
1155.61	250.676
1159.27	267.771
1162.93	323.361
1166.6	325.949
1170.25	180.396
1173.91	196.288
1177.57	138.335
1181.22	314.968
1184.87	235.731
1188.52	316.624
1192.17	203.467
1195.81	198.722
1199.46	142.448
1203.1	129.162
1206.74	112.798
1210.38	175.419
1214.02	192.566
1217.65	320.158
1221.29	397.669
1224.92	388.246
1228.55	285.791
1232.18	129.503
1235.8	236.923
1239.43	214.799
1243.05	277.185
1246.67	537.344
1250.29	411.265
1253.91	347.587
1257.53	391.343
1261.14	203.936
1264.76	139.651
1268.37	364.245
1271.97	357.67
1275.58	351.631
1279.19	414.531
1282.79	635.661
1286.39	775.908
1290	164.494
1293.6	157.296
1297.19	32.611
1300.79	185.717
1304.38	116.885
1307.97	310.169
1311.56	563.505
1315.15	545.281
1318.74	537.366
1322.32	336.818
1325.91	207.715
1329.49	139.374
1333.07	42.155
1336.65	33.574
1340.22	130.057
1343.8	438.443
1347.37	813.939
1350.94	553.083
1354.51	714.043
1358.08	363.308
1361.65	308.827
1365.21	66.55
1368.78	96.925
1372.34	88.792
1375.9	422.229
1379.45	603.394
1383.01	647.583
1386.57	819.551
1390.12	573.146
1393.67	192.33
