Measurement: Raman, 514 nm, ccw, Raman Data Processed
Mineral: Grossular
Rruff sample: R060499
Ideal chemistry: Ca_3_Al_2_(SiO_4_)_3_
Locality: Lake Jaco, Chihuahua, Mexico
Source: Michael Scott
Description: Tan colored single dodecahedral crystal
Measured chemistry: (Ca_2.90_Mg_0.10_)_Σ=3_(Al_1.78_Fe^3+^_0.19_Ti_0.03_)_Σ=2_(Si_1.00_O_4_)_3_
Pin_id: L01514
Orientation: Laser parallel to -a* (-1 0 0). Fiducial mark perpendicular to laser is parallel to -c [0 0 -1]
Raman shift (cm-1)	intensity
125.959	0
130.906	103.551
135.85	17.1694
140.791	85.3494
145.729	4.46777
150.664	11.8789
155.597	4.00854
160.526	47.6138
165.452	198.669
170.376	604.567
175.296	1759.82
180.213	7159.18
185.128	1492.9
190.04	222.771
194.949	241.662
199.854	107.504
204.757	45.876
209.657	34.7205
214.555	26.6653
219.449	40.0881
224.34	54.2559
229.229	326.219
234.114	1045.4
238.997	1800.31
243.877	2031.89
248.754	1633.06
253.628	777.951
258.499	775.727
263.367	879.455
268.233	1289.16
273.095	1681.03
277.955	2497.98
282.812	1529.4
287.666	1305.85
292.517	738.013
297.365	222.308
302.211	335.79
307.053	660.757
311.893	861.335
316.73	1057.31
321.564	1288.58
326.395	1666.24
331.224	1657.35
336.049	1464.86
340.872	1727.73
345.692	2265.91
350.509	2915.38
355.323	5029.16
360.135	9988.14
364.943	22887.2
369.749	33727.7
374.552	44511.5
379.352	27448.1
384.15	11796.5
388.944	5955.67
393.736	3586.53
398.525	2773.89
403.312	2601.56
408.095	3546.42
412.876	5837.55
417.654	3053.42
422.429	909.099
427.201	234.212
431.971	38.5093
436.737	116.864
441.501	139.101
446.263	80.5786
451.021	331.257
455.777	613.798
460.53	636.151
465.28	640.281
470.028	668.15
474.772	783.721
479.514	655.953
484.254	604.809
488.99	875.25
493.724	1215.24
498.455	1352.75
503.183	1268.79
507.909	1004.29
512.632	687.793
517.352	617.975
522.069	759.377
526.784	867.68
531.496	1143.13
536.205	2633.2
540.912	7418.84
545.615	14027.5
550.317	5494.73
555.015	2021.25
559.711	1493.43
564.404	1511.07
569.094	1546.87
573.782	1454.62
578.467	1249.54
583.149	1089.62
587.828	1024.98
592.505	895.679
597.179	724.809
601.851	1143.34
606.52	1521.25
611.186	1835.52
615.85	2047.12
620.51	2300.03
625.169	2620.24
629.824	2782.73
634.477	2002.48
639.127	1014.48
643.775	451.711
648.42	170.164
653.062	2.77222
657.702	88.0356
662.339	118.976
666.973	23.1477
671.605	53.2983
676.234	9.57031
680.86	2.19287
685.484	80.738
690.105	1.47949
694.724	165.381
699.34	138.688
703.953	31.96
708.564	70.5022
713.172	8.89697
717.777	42.6382
722.38	6.60742
726.98	2.40601
731.578	113.603
736.173	369.232
740.765	717.327
745.355	1080.91
749.943	1466.02
754.527	1643.66
759.109	1919.88
763.689	2892.7
768.266	4635.15
772.84	5614.26
777.412	4857.05
781.981	3547.56
786.548	2562.39
791.112	2337.34
795.673	2318.95
800.232	2540.44
804.788	3231.61
809.342	4256.28
813.893	5792.89
818.442	7448.73
822.988	8380.85
827.532	7433.49
832.073	6410.28
836.611	5797.84
841.147	5406.77
845.68	5689.47
850.211	5873.43
854.74	6296.57
859.265	7622.59
863.789	10746.7
868.309	17710.8
872.827	30356.9
877.343	40713.6
881.856	33538.9
886.367	19110
890.875	10736.8
895.381	6928.28
899.884	4992.51
904.384	4095.5
908.882	3658.25
913.378	3406.77
917.871	3532.22
922.361	3700.22
926.849	3605.96
931.335	3540.47
935.818	3416.32
940.299	3401.52
944.777	3162.62
949.252	2785.36
953.726	2233.34
958.196	1523.25
962.664	1140.2
967.13	1177.95
971.593	1949.28
976.054	2918.79
980.512	3570.13
984.968	3621.76
989.421	3561.65
993.872	3485.5
998.321	3515.47
1002.77	3488.92
1007.21	3144.78
1011.65	2031.01
1016.09	1273.61
1020.53	916.588
1024.96	939.96
1029.39	2115.74
1033.82	1775.41
1038.25	423.301
1042.67	162.003
1047.09	111.9
1051.51	36.9648
1055.93	45.8491
1060.34	119.32
1064.75	48.811
1069.16	210.811
1073.57	86.1687
1077.97	117.371
1082.38	23.7764
1086.78	6.77783
1091.17	62.3206
1095.57	19.7427
1099.96	11.9644
1104.35	62.0938
1108.74	29.0024
1113.12	111.251
1117.51	216.165
1121.89	421.769
1126.27	354.035
1130.64	230.931
1135.02	260.441
1139.39	369.645
1143.76	412.867
1148.12	398.593
1152.48	379.166
1156.85	426.55
1161.2	398.024
1165.56	414.609
1169.92	415.299
1174.27	427.71
1178.62	381.166
1182.96	350.75
1187.31	180.637
1191.65	254.942
1195.99	177.82
1200.33	222.283
1204.67	223.098
1209	224.011
1213.33	255.913
1217.66	248.42
1221.98	186.902
1226.31	205.936
1230.63	232.398
1234.95	158.745
1239.27	265.001
1243.58	119.278
1247.89	212.323
1252.2	167.305
1256.51	132.134
1260.81	187.527
1265.12	81.8731
1269.42	102.76
1273.72	68.4409
1278.01	4.68726
1282.31	8.54834
1286.6	72.7224
1290.88	33.5181
1295.17	8.94751
1299.46	20.0947
1303.74	73.5896
1308.02	15.9773
1312.3	88.096
1316.57	68.4753
1320.84	121.306
1325.11	65.8738
1329.38	90.1831
1333.65	117.569
1337.91	176.902
1342.17	106.648
1346.43	152.448
1350.69	74.3208
1354.94	147.447
1359.2	61.7212
1363.45	40.2456
1367.69	16.7681
1371.94	1.50537
1376.18	33.2505
1380.42	42.6318
1384.66	81.5332
1388.9	39.2642
1393.13	105.672
1397.37	133.541
1401.6	130.757
1405.82	127.136
1410.05	88.7505
1414.27	89.1968
1418.49	75.1611
1422.71	158.928
1426.93	164.708
1431.14	188.474
1435.35	122.613
1439.56	197.027
1443.77	203.072
1447.97	300.378
1452.18	289.898
1456.38	261.473
1460.58	291.053
1464.77	207.305
1468.97	279.336
1473.16	239.642
1477.35	253.525
1481.54	176.946
1485.72	150.63
1489.9	163.538
1494.08	128.87
1498.26	15.6562
1502.44	52.6895
1506.61	168.895
1510.79	56.1284
1514.95	93.374
1519.12	116.858
1523.29	9.30127
1527.45	120.149
1531.61	72.7319
1535.77	39.9614
1539.93	51.978
1544.08	24.1138
1548.23	31.9775
1552.38	85.894
1556.53	108.818
1560.68	0.589844
