Measurement: Raman, 514 nm, ccw, Raman Data Processed
Mineral: Grossular
Rruff sample: R060453
Ideal chemistry: Ca_3_Al_2_(SiO_4_)_3_
Locality: unknown
Source: Gemological Institute of America
Description: Green colored fragment
Measured chemistry: (Ca_2.91_Mg_0.05_Mn_0.04_)_Σ=3_(Al_1.96_Ti_0.02_[box]_0.02_)_Σ=2_(Si_1.00_O_4_)_3_; trace amounts of Fe and Cr
Pin_id: L01253
Orientation: Laser parallel to a* (1 0 0). Fiducial mark perpendicular to laser is parallel to b [0 1 0]
Raman shift (cm-1)	intensity
127.196	0
130.906	58.8723
134.615	87.134
138.321	63.2927
142.026	74.4739
145.729	9.56812
149.431	46.7082
153.131	84.0239
156.829	29.02
160.526	67.5606
164.221	146.791
167.914	142.336
171.606	505.155
175.296	709.144
178.984	1185.56
182.671	1374
186.356	728.644
190.04	235.458
193.722	109.259
197.402	145.723
201.08	62.654
204.757	18.5845
208.433	40.5147
212.106	29.2769
215.778	10.6423
219.449	13.7573
223.118	24.3926
226.785	29.3206
230.45	48.5
234.114	53.7319
237.777	78.0383
241.437	107.31
245.096	87.6162
248.754	122.887
252.41	82.113
256.064	58.2651
259.716	112.326
263.367	14.7036
267.017	71.1711
270.664	77.9312
274.31	100.299
277.955	171.305
281.598	104.45
285.239	33.6162
288.879	43.9736
292.517	25.3271
296.153	23.553
299.788	63.1733
303.422	49.4541
307.053	151.17
310.683	202.174
314.312	278.304
317.939	369.434
321.564	305.556
325.188	349.055
328.81	318.612
332.43	310.961
336.049	283.7
339.666	300.365
343.282	401.61
346.896	517.994
350.509	690.875
354.12	1118.13
357.729	1990.38
361.337	3512.43
364.943	5920.22
368.548	9140.54
372.151	10431.5
375.753	10158
379.352	6753.74
382.951	2955.42
386.548	1519.03
390.143	924.576
393.736	576.054
397.328	544.458
400.919	422.786
404.508	587.649
408.095	927.296
411.681	1374.73
415.265	1639.77
418.848	1575.76
422.429	797.66
426.008	320.557
429.586	145.379
433.163	58.3528
436.737	5.97729
440.311	17.4956
443.882	39.8066
447.453	11.0886
451.021	46.792
454.588	7.48315
458.154	10.0386
461.718	17.7703
465.28	11.6374
468.841	26.4546
472.4	1.63135
475.958	41.2839
479.514	24.0398
483.069	1.41724
486.622	147.615
490.174	18.3347
493.724	72.8196
497.272	90.5552
500.819	56.9038
504.365	71.8208
507.909	145.379
511.451	109.787
514.992	84.6526
518.531	247.976
522.069	313.103
525.605	386.724
529.14	476.106
532.673	245.319
536.205	396.69
539.735	796.935
543.264	1788.81
546.791	2612.03
550.317	3101.41
553.841	1982.72
557.363	869.002
560.884	489.521
564.404	377.475
567.922	313.009
571.438	310.474
574.953	240.882
578.467	246.185
581.979	329.118
585.489	391.962
588.998	439.496
592.505	432.045
596.011	323.26
599.516	244.923
603.018	133.986
606.52	214.478
610.02	234.054
613.518	204.908
617.015	189.336
620.51	271.428
624.004	312.447
627.497	350.705
630.988	336.341
634.477	265.146
637.965	228.341
641.451	136.776
644.936	162.153
648.42	122.656
651.902	59.5215
655.382	126.258
658.861	1.58691
662.339	17.1597
665.815	175.996
669.289	21.5449
672.762	77.3184
676.234	103.487
679.704	90.0606
683.172	16.041
686.639	48.4282
690.105	44.2422
693.569	10.5278
697.032	53.1035
700.493	40.1162
703.953	74.5132
707.411	72.0435
710.868	74.9502
714.323	35.9033
717.777	64.4731
721.23	22.4487
724.681	51.7559
728.13	68.415
731.578	48.3921
735.024	24.3096
738.47	34.957
741.913	13.7056
745.355	60.5674
748.796	14.8418
752.235	77.9541
755.673	100.77
759.109	14.2339
762.544	62.8281
765.978	135.854
769.41	196.291
772.84	212.828
776.269	341.268
779.697	371.962
783.123	259.652
786.548	279.568
789.971	253.349
793.393	244.898
796.813	404.128
800.232	396.568
803.65	440.015
807.066	650.293
810.48	835.882
813.893	952.572
817.305	1044.98
820.715	1178.76
824.124	1307.46
827.532	1391.52
830.938	1090.82
834.342	983.29
837.745	1003.64
841.147	1074.73
844.547	1121.42
847.946	1257.24
851.344	1426.28
854.74	1702.89
858.134	1871.32
861.527	2459.76
864.919	3567.18
868.309	5170.75
871.698	8268.98
875.086	13220.2
878.472	17337.7
881.856	17207.2
885.239	13156.8
888.621	8693.71
892.002	6049.3
895.381	4253.34
898.758	2924.82
902.134	1875.05
905.509	1199.94
908.882	882.996
912.254	615.555
915.625	622.735
918.994	626.898
922.361	550.562
925.728	501.899
929.093	419.003
932.456	350.591
935.818	224.06
939.179	287.977
942.538	139.589
945.896	128.329
949.252	100.631
952.607	173.54
955.961	27.7607
959.313	35.2656
962.664	77.5859
966.014	86.3106
969.362	72.2617
972.709	169.291
976.054	270.448
979.398	175.175
982.74	192.179
986.082	281.615
989.421	317.424
992.76	205.205
996.097	353.602
999.432	428.956
1002.77	544.437
1006.1	679.048
1009.43	736.491
1012.76	783.854
1016.09	861.487
1019.42	699.134
1022.74	346.335
1026.07	195.082
1029.39	242.772
1032.71	204.431
1036.03	221.981
1039.35	221.25
1042.67	316.459
1045.99	117.042
1049.3	252.883
1052.62	361.412
1055.93	314.242
1059.24	343.838
1062.55	342.885
1065.86	270.237
1069.16	174.218
1072.47	180.908
1075.77	225.433
1079.08	322.368
1082.38	190.37
1085.68	195.606
1088.97	249.569
1092.27	69.9902
1095.57	92.9209
1098.86	149.439
1102.16	94.0264
1105.45	25.6729
1108.74	51.8652
1112.03	3.76367
1115.32	63.877
1118.6	34.8359
1121.89	68.7656
1125.17	139.49
1128.45	255.781
1131.73	160.221
1135.02	555.82
1138.29	659.328
1141.57	780.197
1144.85	575.248
1148.12	530.543
1151.39	493.369
1154.67	556.102
1157.94	457.008
1161.2	415.762
1164.47	365.469
1167.74	413.611
1171.01	368.369
1174.27	452.559
1177.53	329.68
1180.79	363.092
1184.05	103.488
1187.31	198.262
1190.57	170.717
1193.82	66.3887
1197.08	155.629
1200.33	294.836
1203.58	261.106
1206.83	233.133
1210.08	21.7051
1213.33	67.1289
1216.58	193.353
1219.82	165.955
1223.07	53.9492
1226.31	60.6328
1229.55	44.8574
1232.79	83.5156
1236.03	231.234
1239.27	161.568
1242.5	233.256
1245.74	15.2812
