Measurement: Raman, 514 nm, ccw, Raman Data Processed
Mineral: Grossular
Rruff sample: R040066
Ideal chemistry: Ca_3_Al_2_(SiO_4_)_3_
Locality: Redding, Connecticut, USA
Source: University of Arizona Mineral Museum
Description: Reddish orange coarsely crystalline
Measured chemistry: (Ca_2.90_Fe^2+^_0.08_Mn_0.02_)_Σ=3_(Al_1.87_Fe^3+^_0.13_)_Σ=2_(Si_1.00_O_4_)_3_
Pin_id: M00416
Orientation: Laser parallel to a* (1 0 0). Fiducial mark perpendicular to laser is parallel to b [0 1 0]
Raman shift (cm-1)	intensity
157.005	0
161.166	0.864
165.324	69.012
169.48	220.997
173.635	1344.06
177.787	4894.79
181.937	1784.16
186.086	511.756
190.232	310.222
194.376	239.031
198.518	116.532
202.659	104.479
206.797	72.825
210.933	22.527
215.067	9.705
219.199	26.688
223.33	63.484
227.458	66.057
231.584	165.619
235.708	429.099
239.83	490.486
243.951	656.476
248.069	394.648
252.185	215.882
256.299	165.142
260.411	236.357
264.522	233.076
268.63	370.661
272.736	586.381
276.84	757.305
280.943	553.439
285.043	639.784
289.141	551.345
293.238	225.122
297.332	145.112
301.425	214.307
305.515	337.191
309.603	572.409
313.69	881.318
317.774	596.758
321.857	619.696
325.938	972.109
330.016	897.131
334.093	815.47
338.168	931.187
342.24	1272.36
346.311	1666.45
350.38	2177.49
354.447	3282.49
358.512	5906.32
362.575	13363.9
366.636	24990.6
370.695	31853.9
374.752	33769.5
378.807	15720.1
382.86	6911.79
386.911	3509.66
390.961	2224.72
395.008	1566.41
399.053	1354.3
403.097	1339.83
407.138	1955.5
411.178	4507.35
415.216	3853.36
419.251	1323.53
423.285	580.658
427.317	383.235
431.347	236.744
435.375	226.334
439.401	194.996
443.425	180.725
447.447	446.508
451.468	584.333
455.486	674.144
459.502	640.935
463.517	636.71
467.53	557.471
471.54	573.414
475.549	588.967
479.556	484.711
483.561	374.46
487.564	470.221
491.565	860.992
495.564	1048.77
499.562	1047.56
503.557	960.133
507.55	790.67
511.542	565.358
515.532	513.232
519.52	625.172
523.505	972.453
527.489	702.974
531.472	726.215
535.452	1305.19
539.43	3143.08
543.406	8947.38
547.381	8875.13
551.354	2953.85
555.324	1073.55
559.293	574.147
563.26	512.151
567.225	533.128
571.188	539.79
575.15	571.562
579.109	499.493
583.067	607.239
587.022	750.514
590.976	641.604
594.928	422.964
598.878	451.822
602.826	638.373
606.773	700.809
610.717	781.998
614.66	818
618.6	892.815
622.539	1203.44
626.476	1206.87
630.411	886.103
634.344	689.138
638.276	286.972
642.205	135.602
646.133	22.014
650.059	4.17
653.983	47.107
657.905	48.491
661.825	53.404
665.743	77.723
669.66	79.417
673.574	57.649
677.487	14.25
681.398	76.213
685.307	0.425
689.215	28.291
693.12	61.028
697.024	36.918
700.925	29.808
704.825	12.077
708.723	31.344
712.62	21.515
716.514	2.331
720.407	19.925
724.297	3.273
728.186	73.375
732.073	75.248
735.959	116.9
739.842	131.619
743.724	78.606
747.603	139.669
751.481	98.545
755.357	166.239
759.232	117.752
763.104	234.089
766.975	237.253
770.844	321.248
774.711	299.078
778.576	342.093
782.439	375.258
786.301	403.389
790.161	484.715
794.019	526.8
797.875	714.55
801.729	899.584
805.582	1572.46
809.432	2257.47
813.281	3317.15
817.128	4270.44
820.974	5560.22
824.817	6342.68
828.659	5866.1
832.499	5156.31
836.337	4659.73
840.173	4533.72
844.008	4624.42
847.841	4790.23
851.672	4895.75
855.501	5102.41
859.328	5781.42
863.154	7378.05
866.978	10635.6
870.8	16812.8
874.62	28070.6
878.438	38238.7
882.255	32656.8
886.07	20225.1
889.883	11673.4
893.694	7071.69
897.504	4898.05
901.312	4556.46
905.118	3341.91
908.922	2925.42
912.724	2509.99
916.525	1942.62
920.324	1535.32
924.121	1268.1
927.916	1182.97
931.71	1075.99
935.502	939.188
939.292	1039.8
943.08	1175.39
946.867	1093.13
950.652	1061.06
954.435	790.406
958.216	578.986
961.995	485.744
965.773	483.11
969.549	469.949
973.323	697.688
977.096	990.122
980.867	1114.49
984.636	1204.04
988.403	1332.62
992.169	1414.1
995.932	1608.03
999.694	1714.05
1003.46	2158.15
1007.21	2203.36
1010.97	1454.68
1014.73	846.092
1018.48	461.61
1022.23	308.229
1025.98	262.95
1029.73	225.786
1033.47	160.741
1037.22	82.813
1040.96	168.01
1044.7	135.335
1048.44	168.772
1052.18	128.32
1055.92	100.966
1059.65	36.708
1063.38	20.551
1067.11	3.334
1070.84	22.633
1074.57	29.479
1078.3	57.673
1082.02	75.933
1085.74	11.272
1089.46	28.318
1093.18	74.887
1096.9	20.466
1100.61	22.963
1104.33	67.41
1108.04	70.854
1111.75	35.271
1115.46	98.318
1119.16	54.951
1122.87	33.569
1126.57	5.195
1130.28	83.18
1133.98	84.561
1137.67	103.951
1141.37	170.343
1145.07	97.958
1148.76	156.829
1152.45	101.43
1156.14	189.298
1159.83	139.757
1163.52	133.216
1167.2	151.918
1170.88	111.095
1174.56	79.219
1178.24	57.651
1181.92	58.792
1185.6	75.855
1189.27	65.389
1192.95	149.311
1196.62	101.27
1200.29	49.625
1203.95	70.319
1207.62	71.055
1211.29	110.351
1214.95	116.608
1218.61	123.745
1222.27	209.402
1225.93	152.915
1229.58	193.519
1233.24	163.098
1236.89	102.819
1240.54	226.97
1244.19	160.744
1247.84	240.138
1251.48	299.958
1255.13	292.985
1258.77	223.215
1262.41	152.434
1266.05	112.472
1269.69	113.613
1273.33	106.526
1276.96	92.288
1280.59	113.853
1284.23	85.279
1287.86	58.636
1291.48	15.702
1295.11	8.622
1298.73	38.673
1302.36	85.164
1305.98	9.873
1309.6	18.226
1313.22	34.122
1316.83	24.845
1320.45	82.401
1324.06	44.792
1327.67	7.028
1331.28	5.16
1334.89	14.052
1338.5	67.551
1342.1	50.988
1345.7	93.258
1349.31	186.398
1352.91	111.325
1356.5	70.122
1360.1	98.787
1363.7	16.318
1367.29	84.982
1370.88	68.285
1374.47	26.435
1378.06	145.716
1381.65	151.644
1385.23	141.414
1388.82	221.059
1392.4	164.75
1395.98	155.174
1399.56	128.221
1403.13	95.021
1406.71	120.1
1410.28	142.518
1413.86	114.562
1417.43	259.584
1421	244.91
1424.56	275.416
1428.13	271.881
1431.69	309.383
1435.26	215.982
1438.82	177.421
1442.38	171.814
1445.94	194.369
1449.49	131.686
1453.05	253.42
1456.6	196.416
1460.15	256.875
1463.7	383.18
1467.25	343.09
1470.8	308.09
1474.34	233.836
1477.88	238.657
1481.43	234.575
1484.97	142.558
1488.51	131.439
1492.04	37.184
1495.58	90.422
1499.11	175.808
1502.64	109.101
1506.17	203.787
1509.7	184.728
1513.23	164.273
1516.76	194.399
1520.28	139.564
1523.81	54.883
