Measurement: Raman, 514 nm, ccw, Raman Data Processed
Mineral: Grossular
Rruff sample: R050036
Ideal chemistry: Ca_3_Al_2_(SiO_4_)_3_
Locality: Wah Wah Mountains, Utah, USA
Source: Eugene Schlepp
Description: Colorless single crystal in rhyolite matrix
Measured chemistry: (Ca_2.95_Mg_0.05_)_Σ=3_(Al_1.70_Fe^3+^_0.30_)_Σ=2_(Si_1.00_O_4_)_3_; trace amounts of P
Pin_id: L00123
Orientation: Laser parallel to c* (0 0 1). Fiducial mark perpendicular to laser is parallel to a [1 0 0]
Raman shift (cm-1)	intensity
118.527	0
122.701	1.457
126.873	107.942
131.042	170.248
135.21	57.486
139.376	138.036
143.539	102.161
147.701	138.768
151.861	31.662
156.018	46.288
160.174	55.722
164.327	120.723
168.479	189.416
172.628	444.933
176.776	1477.64
180.922	6474.81
185.065	922.677
189.207	249.183
193.346	149.323
197.484	7.863
201.619	8.664
205.753	6.109
209.884	71.299
214.014	76.029
218.141	88.812
222.267	18.049
226.391	185.571
230.512	0.766
234.632	393.377
238.749	547.891
242.865	452.733
246.979	717.721
251.09	422.87
255.2	208.449
259.308	434.282
263.414	1280.62
267.517	1097.68
271.619	585.227
275.719	913.407
279.817	882.271
283.913	752.436
288.007	821.7
292.099	581.055
296.189	380.784
300.277	230.398
304.363	389.909
308.447	689.466
312.529	789.043
316.609	858.434
320.687	867.03
324.764	1096.06
328.838	1305.42
332.91	1104.73
336.981	1084.35
341.049	1444.1
345.116	1674.24
349.18	1904.86
353.243	2735.93
357.304	4417.45
361.362	8088.09
365.419	18657.1
369.474	26529.7
373.527	35919.3
377.578	32281.9
381.627	13906.7
385.674	6461.41
389.719	3904.22
393.762	2470.27
397.804	1606.8
401.843	1363.68
405.881	1860.95
409.916	3318.47
413.95	4546.23
417.981	1504.23
422.011	592.499
426.039	159.044
430.065	129.784
434.089	31.267
438.111	97.854
442.131	207.133
446.149	156.56
450.166	346.125
454.18	545.834
458.193	775.681
462.203	595.661
466.212	505.772
470.219	526.013
474.224	686.374
478.227	616.857
482.228	337.467
486.227	358.201
490.224	649.175
494.22	983.605
498.213	1166.09
502.205	949.408
506.194	910.243
510.182	748.142
514.168	538.147
518.152	436.7
522.134	581.281
526.114	873.751
530.093	862.954
534.069	1172.57
538.044	2875.81
542.017	7781.46
545.987	11377.1
549.956	3964.7
553.923	1323.37
557.889	834.01
561.852	797.384
565.813	780.665
569.773	432.042
573.731	652.836
577.686	627.59
581.64	681.281
585.593	685.496
589.543	545.792
593.491	615.483
597.438	475.288
601.382	744.559
605.325	1023.61
609.266	942.427
613.205	1051.01
617.142	1299.36
621.078	1587.47
625.011	1545.34
628.943	1262.95
632.872	770.311
636.8	647.411
640.726	364.249
644.651	290.82
648.573	12.878
652.494	66.947
656.412	188.482
660.329	53.506
664.244	28.08
668.157	47.885
672.069	84.377
675.978	21.581
679.886	100.284
683.792	18.6
687.696	228.247
691.598	91.155
695.498	40.049
699.397	178.048
703.293	175.464
707.188	217.632
711.081	1.513
714.972	114.116
718.862	89.239
722.749	83.872
726.635	155.082
730.519	122.26
734.401	135.974
738.281	239.364
742.16	242.408
746.036	65.167
749.911	37.673
753.784	229.976
757.655	362.05
761.525	443.899
765.392	315.585
769.258	377.09
773.122	578.394
776.984	469.499
780.844	610.412
784.703	531.145
788.56	371.703
792.415	592.119
796.268	1012.41
800.119	1322.55
803.969	1789.32
807.816	2352.26
811.662	3487.28
815.506	4834.27
819.349	5743.9
823.189	6622.39
827.028	6041.35
830.865	5547.76
834.7	5458.16
838.534	5223.17
842.365	5261.97
846.195	4910.44
850.023	4803.56
853.85	5124.49
857.674	5880.11
861.497	7197.49
865.318	9213.81
869.137	13236.9
872.955	21344.7
876.77	32122.6
880.584	34362.7
884.396	24662.9
888.207	14499.4
892.015	8680.72
895.822	5777.98
899.627	4678.47
903.43	4162.01
907.232	3493.64
911.032	2705.46
914.83	2217.46
918.626	1785.38
922.42	1368.45
926.213	1471.05
930.004	1393.86
933.793	1487.29
937.581	1141.06
941.366	1184.53
945.15	1221.21
948.932	1588.35
952.713	1256.4
956.491	1060.83
960.268	726.99
964.044	519.799
967.817	366.789
971.589	648.299
975.359	1146.86
979.127	1364.64
982.893	1279.05
986.658	1398.79
990.421	1336.84
994.183	1425.82
997.942	1714.97
1001.7	2364.61
1005.46	2244.69
1009.21	1795.5
1012.96	976.609
1016.71	358.225
1020.46	540.211
1024.21	632.602
1027.96	685.357
1031.7	548.695
1035.44	192.301
1039.18	133.592
1042.92	20.441
1046.66	328.814
1050.39	442.215
1054.13	497.605
1057.86	152.66
1061.59	87.896
1065.32	156.537
1069.05	30.945
1072.77	164.789
1076.49	400.727
1080.22	437.24
1083.94	373.541
1087.65	300.123
1091.37	82.988
1095.09	85.887
1098.8	181.455
1102.51	108.576
1106.22	445.707
1109.93	223.266
1113.63	69.646
1117.34	122.785
1121.04	56.098
1124.74	311.016
1128.44	288.92
1132.14	341.869
1135.84	358.646
1139.53	496.07
1143.22	226.193
1146.91	85.383
1150.61	237.959
1154.29	405.084
1157.98	555.871
1161.66	471.365
1165.35	589.301
1169.03	197.32
1172.71	188.596
1176.38	42.809
1180.06	89.855
1183.73	201.117
1187.41	536.516
1191.08	582.354
1194.75	289.766
1198.41	126.668
1202.08	199.758
1205.74	285.578
1209.41	202.541
1213.07	541.578
1216.73	756.195
1220.38	849.969
1224.04	698.432
1227.69	564.848
1231.35	392.275
1235	329.045
1238.65	277.762
1242.3	705.773
1245.94	837.855
1249.59	1169.7
1253.23	1030.83
1256.87	840.074
1260.51	730.055
1264.15	486.137
1267.78	243.297
1271.42	453.303
1275.05	601.426
1278.68	692.625
1282.31	558.346
1285.94	685.625
1289.56	311.375
1293.19	2.938
1296.81	192.086
1300.43	143.408
1304.05	170.811
1307.67	533.666
1311.29	585.783
1314.9	517.334
1318.52	528.301
1322.13	448.385
1325.74	1.697
1329.34	142.697
1332.95	84.625
1336.56	106.793
1340.16	196.785
1343.76	574.678
1347.36	580.672
1350.96	816.477
1354.56	581.799
1358.15	97.326
1361.74	161.936
1365.34	23.67
1368.93	70.967
1372.52	28.496
1376.1	320.797
1379.69	629.277
1383.27	1121.99
1386.85	924.699
1390.43	676.715
1394.01	659.219
1397.59	329.564
1401.17	273.625
1404.74	219.355
1408.31	518.801
1411.88	518.738
1415.45	952.615
1419.02	1020.31
1422.59	1063.22
1426.15	999.482
1429.71	627.008
1433.28	504.312
1436.84	418.424
1440.39	326.549
1443.95	164.799
1447.5	475.457
1451.06	960.061
1454.61	1062.06
1458.16	1161.61
1461.71	1378.77
1465.26	1163.48
1468.8	1034.12
1472.34	646.17
1475.89	500.504
1479.43	75.893
1482.97	88.965
1486.5	287.793
1490.04	288.262
1493.57	578.564
1497.11	1052.99
1500.64	888.32
1504.17	938.445
1507.69	776.059
1511.22	633.719
1514.74	577.457
1518.27	0
