Measurement: Raman, 514 nm, ccw, Raman Data Processed
Mineral: Grunerite
Rruff sample: R040150
Ideal chemistry: [box]Fe^2+^_7_Si_8_O_22_(OH)_2_
Locality: Smallwood mine, Heath Lake, Newfoundland, Canada
Source: University of Arizona Mineral Museum
Description: Brown bladed crystals in parallel aggregate
Measured chemistry: (Fe_0.69_Mg_0.27_Ca_0.02_Mn_0.02_)_7_Si_8.02_O_22_((OH)_0.98_Cl_0.02_)_2_
Pin_id: M00334
Orientation: Laser parallel to b* (0 1 0). Fiducial mark perpendicular to laser is parallel to -c [0 0 -1]
Raman shift (cm-1)	intensity
158.094	0
162.245	530.194
166.395	49.439
170.542	125.208
174.687	857.243
178.83	2549.57
182.972	4740.38
187.111	4927.65
191.248	3629.66
195.383	2440.76
199.516	2021.19
203.647	1974.56
207.777	2080.47
211.904	2166.61
216.029	1962.1
220.152	1497.74
224.273	1077.5
228.392	656.943
232.509	422.032
236.625	327.534
240.738	264.228
244.849	135.116
248.958	186.485
253.065	185.091
257.171	78.0962
261.274	17.6939
265.375	0.61377
269.475	25.0845
273.572	100.136
277.667	299.268
281.76	677.136
285.852	1059.64
289.941	1315.82
294.029	1427.59
298.114	1220.25
302.198	1139.29
306.279	1162.02
310.359	1517.08
314.436	1951.46
318.512	2228.55
322.586	1933.5
326.657	1408.17
330.727	1353.52
334.795	1812.33
338.861	2776.32
342.924	4178.28
346.986	5676.46
351.046	5443.75
355.104	4244.82
359.16	3426.76
363.214	3970.39
367.267	4337.65
371.317	3530.6
375.365	2285.03
379.411	1594.02
383.456	1393.04
387.498	1497.51
391.539	1882.25
395.577	2359.75
399.614	2966.33
403.649	2884.15
407.681	2420.69
411.712	1980.83
415.741	1606.69
419.768	1269.76
423.793	1189.38
427.816	923.99
431.837	423.328
435.857	179.815
439.874	36.2407
443.889	43.7812
447.903	2.4668
451.914	43.9194
455.924	34.3994
459.932	120.817
463.938	87.3652
467.941	16.2852
471.943	15.6392
475.944	1.38037
479.942	12.2344
483.938	140.944
487.932	293.066
491.925	532.503
495.915	478.519
499.904	552.053
503.891	365.011
507.876	409.373
511.859	515.169
515.84	718.438
519.819	1194.19
523.796	1697.43
527.771	2188.15
531.745	2095.37
535.716	1346.11
539.686	908.387
543.654	593.246
547.62	535.663
551.584	624.664
555.546	882.276
559.506	901.525
563.465	741.41
567.421	558.943
571.376	271.136
575.329	253.981
579.279	153.478
583.228	105.637
587.175	70.5283
591.121	118.294
595.064	132.269
599.006	42.1758
602.945	92.8257
606.883	209.216
610.819	252.769
614.753	326.08
618.685	387.278
622.615	649.661
626.544	844.84
630.471	1280.46
634.395	1810.26
638.318	2527.79
642.239	3730.03
646.158	6109.41
650.076	10298.9
653.991	17460.4
657.905	29153.6
661.817	34205.9
665.726	24993.6
669.635	13670.3
673.541	7402.5
677.445	4525.66
681.348	3109.79
685.248	2299.65
689.147	1783.19
693.044	1416.03
696.94	1062.07
700.833	917.535
704.724	797.402
708.614	521.473
712.502	525.795
716.388	398.098
720.272	290.827
724.155	330.57
728.035	327.97
731.914	355.668
735.791	214.252
739.666	626.482
743.539	978.255
747.41	833.891
751.28	499.292
755.148	439.425
759.014	309.541
762.878	209.856
766.74	312.019
770.601	364.699
774.46	466.904
778.316	468.587
782.172	493.729
786.025	346.229
789.876	197.108
793.726	122.324
797.574	89.8169
801.42	4.51904
805.264	8.3667
809.107	47.8745
812.947	14.604
816.786	30.5347
820.623	146.186
824.459	35.9097
828.292	3.51904
832.124	27.043
835.954	9.5581
839.782	15.6587
843.608	29.2783
847.433	57.6123
851.255	41.3648
855.076	43.0356
858.895	33.4023
862.713	78.6875
866.528	39.8467
870.342	63.1724
874.154	219.438
877.965	168.944
881.773	93.7134
885.58	144.791
889.385	140.161
893.188	339.811
896.989	325.739
900.789	467.043
904.587	530.671
908.383	495.723
912.177	529.12
915.97	741.833
919.76	560.88
923.55	459.238
927.337	497.852
931.122	424.694
934.906	593.766
938.688	607.067
942.468	719.586
946.247	844.327
950.023	1088.28
953.798	1432.97
957.572	2059.71
961.343	3096.53
965.113	4216.32
968.881	4475.71
972.647	3852.08
976.411	2732.61
980.174	2162.45
983.935	1772.25
987.694	1836.27
991.452	2243.91
995.207	2892.38
998.961	3004.58
1002.71	2838.29
1006.46	2893.36
1010.21	3764.19
1013.96	5286.31
1017.71	7030.19
1021.45	8567.36
1025.19	8363.44
1028.93	6601.78
1032.67	4832.89
1036.41	3640.66
1040.14	2779.64
1043.87	2240.6
1047.61	1872.57
1051.34	1611.67
1055.06	1378.39
1058.79	1197.56
1062.52	1262.02
1066.24	1215.89
1069.96	1081.83
1073.68	1036.27
1077.4	928.793
1081.11	891.999
1084.83	1001.76
1088.54	1321.75
1092.25	1774.44
1095.96	2217.71
1099.67	2072.74
1103.37	1367.99
1107.08	1126.57
1110.78	829.98
1114.48	678.462
1118.18	540.971
1121.88	424.501
1125.57	438.424
1129.27	195.458
1132.96	206.332
1136.65	169.714
1140.34	300.624
1144.02	277.519
1147.71	228.932
1151.39	123.107
1155.07	20.5771
1158.76	60.3848
1162.43	22.1445
1166.11	46.7241
1169.79	136.637
1173.46	97.5083
1177.13	80.3965
1180.8	78.6963
1184.47	28.9517
1188.14	526.209
1191.8	134.291
1195.46	54.3589
1199.13	0.398438
1202.79	123.4
1206.45	69.5854
1210.1	27.0972
1213.76	14.6104
1217.41	52.8232
1221.06	105.521
1224.71	65.8003
1228.36	135.29
1232.01	207.179
1235.65	193.736
1239.3	119.19
1242.94	177.75
1246.58	134.852
1250.22	79.6221
1253.85	196.472
1257.49	214.006
1261.12	322.988
1264.75	326.016
1268.38	194.667
1272.01	250.495
1275.64	87.6255
1279.27	143.659
1282.89	144.468
1286.51	209.706
1290.13	172.638
1293.75	283.446
1297.37	320.492
1300.98	112.651
1304.6	221.524
1308.21	157.608
1311.82	204.266
1315.43	48.6494
1319.03	132.792
1322.64	233.233
1326.24	183.604
1329.85	212.892
1333.44	153.714
1337.04	76.9385
1340.64	83.5654
1344.24	78.9673
1347.83	13.9883
1351.42	37.4136
1355.01	54.0889
1358.6	63.3315
1362.19	143.391
1365.78	103.811
1369.36	122.66
1372.94	42.831
1376.53	0.055176
1380.1	54.1143
1383.68	24.209
1387.26	60.3638
1390.83	13.5073
1394.41	135.427
1397.98	282.592
1401.55	151.746
1405.12	160.835
1408.68	196.157
1412.25	90.1963
1415.81	36.4126
1419.37	38.9697
1422.93	120.526
1426.49	204.314
1430.05	147.929
1433.6	300.625
1437.15	412.785
1440.71	268.494
1444.26	216.386
1447.81	147.19
1451.35	217.481
1454.9	177.465
1458.44	631.518
1461.98	653.781
1465.53	144.589
1469.07	264.688
1472.6	325.983
1476.14	238.52
1479.67	220.764
1483.21	266.896
1486.74	232.824
1490.27	135.807
1493.8	69.3711
1497.32	3.71484
1500.85	49.0527
1504.37	36.3154
1507.89	37.6758
1511.41	54.6992
1514.93	239.153
1518.45	262.362
1521.96	0
