Measurement: Raman, 514 nm, ccw, Raman Data Processed
Mineral: Grunerite
Rruff sample: R040150
Ideal chemistry: [box]Fe^2+^_7_Si_8_O_22_(OH)_2_
Locality: Smallwood mine, Heath Lake, Newfoundland, Canada
Source: University of Arizona Mineral Museum
Description: Brown bladed crystals in parallel aggregate
Measured chemistry: (Fe_0.69_Mg_0.27_Ca_0.02_Mn_0.02_)_7_Si_8.02_O_22_((OH)_0.98_Cl_0.02_)_2_
Pin_id: M00334
Orientation: Laser parallel to b* (0 1 0). Fiducial mark perpendicular to laser is parallel to -c [0 0 -1]
Raman shift (cm-1)	intensity
159.478	0
163.629	1558.17
167.777	79.6148
171.924	1115.52
176.068	5579.46
180.211	13335.6
184.351	19319.5
188.49	17096
192.626	11158.9
196.761	7808.48
200.893	6445.83
205.024	5834.58
209.152	5497.62
213.279	5077.69
217.403	4571.55
221.526	3179.66
225.646	1537.1
229.765	547.527
233.881	132.106
237.996	33.2895
242.108	85.1865
246.219	546.145
250.328	1039.35
254.434	1221.57
258.539	1137.59
262.641	961.753
266.742	838.229
270.84	817.328
274.937	826.56
279.032	767.546
283.125	997.375
287.215	1062.06
291.304	1150.16
295.391	1066.62
299.476	902.876
303.558	596.664
307.639	451.187
311.718	441.555
315.795	466.723
319.87	205.425
323.943	10.4355
328.014	185.156
332.083	257.662
336.15	203.54
340.215	51.501
344.279	472.835
348.34	763.844
352.399	720.608
356.457	437.754
360.512	268.967
364.565	206.311
368.617	258.04
372.666	232.233
376.714	290.153
380.76	345.854
384.803	433.58
388.845	565.758
392.885	865.815
396.923	1230.42
400.959	1410.25
404.993	1425.56
409.025	1261.42
413.055	1129.34
417.084	990.787
421.11	1013.86
425.134	1006.26
429.157	471.292
433.177	218.071
437.196	134.333
441.213	73.0105
445.227	27.3357
449.24	46.8809
453.251	2.4043
457.26	9.4751
461.267	56.2722
465.272	10.1855
469.276	1.55811
473.277	24.2417
477.276	43.8897
481.274	58.1763
485.27	9.54126
489.263	57.3921
493.255	54.6521
497.245	14.7649
501.233	26.0039
505.219	26.1992
509.203	67.2444
513.186	74.1201
517.166	97.5876
521.145	170.048
525.121	320.064
529.096	524.744
533.069	477.461
537.04	360.208
541.009	240.5
544.976	160.53
548.941	310.122
552.905	394.51
556.866	609.021
560.826	716.491
564.784	540.954
568.74	366.36
572.694	264.666
576.646	207.836
580.596	154.864
584.544	152.774
588.491	185.906
592.435	216.621
596.378	241.738
600.319	311.979
604.258	415.132
608.195	498.618
612.131	581.728
616.064	836.988
619.995	977.722
623.925	1305.04
627.853	1624.21
631.779	2122.63
635.703	2822.81
639.625	3916.07
643.546	5740.13
647.464	9046.18
651.381	15372.1
655.296	27302.2
659.209	42110.2
663.12	41938.4
667.029	25168
670.937	12244.4
674.842	6579.38
678.746	3866.2
682.648	2455.38
686.548	1710.73
690.447	1216.8
694.343	866.423
698.238	617.185
702.13	477.077
706.021	323.084
709.91	203.178
713.798	174.334
717.683	130.553
721.567	99.8352
725.448	49.1838
729.328	44.6006
733.206	54.0896
737.083	195.654
740.957	379.296
744.83	554.021
748.701	312.867
752.57	149.864
756.437	38.0273
760.302	16.3613
764.166	60.8643
768.027	32.5466
771.887	30.4067
775.745	121.433
779.602	100.632
783.456	114.014
787.309	15.5686
791.16	47.7148
795.009	53.0156
798.856	94.3899
802.702	45.9636
806.545	60.6653
810.387	61.4688
814.227	6.61157
818.065	0.655273
821.902	5.61548
825.737	41.5
829.569	68.4048
833.401	0.3479
837.23	51.3267
841.057	67.3789
844.883	77.4988
848.707	64.6899
852.529	96.9592
856.35	85.3101
860.168	162.737
863.985	146.26
867.8	273.867
871.613	315.609
875.425	303.459
879.234	380.435
883.042	602.541
886.848	827.771
890.653	1035.1
894.455	1411.55
898.256	1861.13
902.055	2256.84
905.852	2612.69
909.648	2623.66
913.442	2368.71
917.233	1952.71
921.024	1581.94
924.812	1365.47
928.599	1168.84
932.384	1034.27
936.167	971.77
939.948	876.218
943.728	867.489
947.506	878.856
951.282	938.537
955.056	1010.04
958.829	1166.87
962.6	1406.94
966.369	1521.83
970.136	1479.06
973.902	1495.55
977.666	1507
981.428	1488.55
985.188	1738.03
988.947	1941.38
992.704	2361.87
996.459	2974.99
1000.21	3437.57
1003.96	4136.35
1007.71	5229.09
1011.46	7082.78
1015.21	9933.82
1018.95	12989.9
1022.7	14402.5
1026.44	12468.2
1030.18	8832.24
1033.91	5946.94
1037.65	3954.36
1041.39	2893.33
1045.12	2146.18
1048.85	1724.33
1052.58	1374.46
1056.31	1185.36
1060.03	983.58
1063.76	842.41
1067.48	713.399
1071.2	641.765
1074.92	570.584
1078.63	626.307
1082.35	572.043
1086.06	596.473
1089.78	612.519
1093.49	800.771
1097.19	734.514
1100.9	578.49
1104.61	416.393
1108.31	313.444
1112.01	244.634
1115.71	163.825
1119.41	128.012
1123.11	78.4141
1126.8	49.9893
1130.5	72.6284
1134.19	81.2512
1137.88	83.9299
1141.57	60.5185
1145.25	15.1196
1148.94	11.0376
1152.62	13.4824
1156.3	30.1706
1159.98	22.5664
1163.66	29.5207
1167.34	37.2776
1171.01	24.9602
1174.68	7.18823
1178.36	36.1267
1182.02	12.866
1185.69	3.09961
1189.36	29.3023
1193.02	81.4575
1196.69	61.6152
1200.35	48.104
1204.01	9.9314
1207.66	13.0908
1211.32	13.1946
1214.98	20.4451
1218.63	50.542
1222.28	83.0249
1225.93	24.4443
1229.58	91.1604
1233.22	42.6431
1236.87	35.3154
1240.51	86.3889
1244.15	107.165
1247.79	119.772
1251.43	105.602
1255.07	170.882
1258.7	109.433
1262.33	123.406
1265.96	103.749
1269.59	75.4089
1273.22	69.2835
1276.85	119.548
1280.47	166.805
1284.1	121.787
1287.72	129.724
1291.34	151.985
1294.95	113.945
1298.57	54.6655
1302.19	82.8433
1305.8	90.2075
1309.41	98.8772
1313.02	87.3354
1316.63	174.865
1320.23	155.959
1323.84	96.439
1327.44	113.754
1331.05	85.1667
1334.64	28.5186
1338.24	49.9695
1341.84	14.2839
1345.43	57.5552
1349.03	85.9646
1352.62	68.5725
1356.21	10.8806
1359.8	58.575
1363.39	15.6199
1366.97	8.32422
1370.56	24.8689
1374.14	12.7056
1377.72	11.9827
1381.3	18.0422
1384.87	39.2534
1388.45	82.2444
1392.02	80.9761
1395.6	59.4841
1399.17	28.0012
1402.74	37.2805
1406.3	9.57739
1409.87	9.20898
1413.43	8.44141
1417	40.6748
1420.56	89.1536
1424.12	58.6758
1427.67	148.282
1431.23	137.099
1434.79	80.1387
1438.34	78.9524
1441.89	81.0281
1445.44	44.2026
1448.99	57.9678
1452.54	38.3145
1456.08	104.787
1459.62	110.119
1463.17	232.54
1466.71	178.28
1470.24	98.4636
1473.78	109.665
1477.32	115.417
1480.85	91.1289
1484.38	106.749
1487.91	54.5552
1491.44	0.411865
1494.97	33.3079
1498.5	55.1372
1502.02	86.762
1505.54	160.228
1509.07	151.709
1512.59	150.611
1516.1	102.496
1519.62	122.346
