Measurement: Raman, 514 nm, ccw, Raman Data Processed
Mineral: Grunerite
Rruff sample: R040150
Ideal chemistry: [box]Fe^2+^_7_Si_8_O_22_(OH)_2_
Locality: Smallwood mine, Heath Lake, Newfoundland, Canada
Source: University of Arizona Mineral Museum
Description: Brown bladed crystals in parallel aggregate
Measured chemistry: (Fe_0.69_Mg_0.27_Ca_0.02_Mn_0.02_)_7_Si_8.02_O_22_((OH)_0.98_Cl_0.02_)_2_
Pin_id: M00334
Orientation: Laser parallel to b* (0 1 0). Fiducial mark perpendicular to laser is parallel to -c [0 0 -1]
Raman shift (cm-1)	intensity
159.478	0
163.629	493.353
167.777	2.65088
171.924	387.159
176.068	2210.39
180.211	5249.6
184.351	7683.86
188.49	6685.14
192.626	4469.06
196.761	3167.66
200.893	2735.02
205.024	2572.95
209.152	2531.19
213.279	2530.29
217.403	2418.91
221.526	1774.97
225.646	1067.01
229.765	632.341
233.881	388.022
237.996	258.034
242.108	209.433
246.219	201.617
250.328	255.203
254.434	195.529
258.539	117.61
262.641	54.9565
266.742	38.6162
270.84	8.50342
274.937	124.279
279.032	364.68
283.125	713.425
287.215	948.476
291.304	1163.95
295.391	1165.67
299.476	980.152
303.558	919.976
307.639	1053.59
311.718	1485.94
315.795	1947.08
319.87	1823.41
323.943	1339.19
328.014	1077.77
332.083	1070.25
336.15	1563.48
340.215	2524.61
344.279	3902.27
348.34	4679.96
352.399	4243.88
356.457	3207.97
360.512	2843.47
364.565	3502.17
368.617	3706.12
372.666	2676.48
376.714	1716.91
380.76	1362.42
384.803	1197.74
388.845	1433.36
392.885	1849.26
396.923	2423.66
400.959	2800.36
404.993	2616.39
409.025	2289.65
413.055	1861
417.084	1640.13
421.11	1721.81
425.134	1693.85
429.157	1021.89
433.177	440.138
437.196	136.04
441.213	64.5903
445.227	6.39746
449.24	15.6975
453.251	44.8889
457.26	70.4612
461.267	27.1836
465.272	56.26
469.276	112.038
473.277	4.41479
477.276	28.2163
481.274	121.757
485.27	272.916
489.263	489.836
493.255	615.577
497.245	564.861
501.233	475.092
505.219	460.229
509.203	539.326
513.186	549.742
517.166	740.538
521.145	1004.72
525.121	1609.3
529.096	2002.27
533.069	1663.68
537.04	1080.52
541.009	717.809
544.976	582.579
548.941	588.829
552.905	669.561
556.866	819.838
560.826	835.689
564.784	679.135
568.74	455.194
572.694	290.866
576.646	218.136
580.596	175.01
584.544	136.527
588.491	244.772
592.435	166.812
596.378	194.565
600.319	263.371
604.258	262.423
608.195	336.664
612.131	414.687
616.064	505.418
619.995	794.239
623.925	980.214
627.853	1225.19
631.779	1680.16
635.703	2468.91
639.625	3522.15
643.546	5292.63
647.464	8035.36
651.381	13012.4
655.296	22708
659.209	34399.1
663.12	34595.8
667.029	21461.4
670.937	11176.7
674.842	6504.86
678.746	4083.95
682.648	2823.49
686.548	1995.88
690.447	1523.93
694.343	1168.4
698.238	1025.84
702.13	799.22
706.021	544.421
709.91	541.447
713.798	439.724
717.683	336.99
721.567	305.295
725.448	268.649
729.328	231.211
733.206	174.091
737.083	418.079
740.957	722.738
744.83	928.161
748.701	728.251
752.57	395.32
756.437	347.361
760.302	350.297
764.166	222.132
768.027	246.716
771.887	319.849
775.745	425.605
779.602	516.954
783.456	363.897
787.309	140.335
791.16	69.1899
795.009	6.61426
798.856	12.1401
802.702	24.439
806.545	50.626
810.387	22.2744
814.227	1.38574
818.065	41.6426
821.902	25.0303
825.737	42.4517
829.569	37.8838
833.401	62.1597
837.23	68.7036
841.057	45.7661
844.883	62.0049
848.707	18.5352
852.529	13.0625
856.35	11.0352
860.168	1.82227
863.985	11.5703
867.8	69.2095
871.613	148.111
875.425	92.2944
879.234	130.835
883.042	306.695
886.848	382.921
890.653	530.51
894.455	608.444
898.256	621.724
902.055	840.382
905.852	1058.37
909.648	1062.76
913.442	1016.48
917.233	795.516
921.024	726.915
924.812	668.66
928.599	610.746
932.384	643.111
936.167	622.719
939.948	646.564
943.728	727.653
947.506	926.719
951.282	1163.81
955.056	1636.04
958.829	2207.77
962.6	3158.22
966.369	3696.14
970.136	3690.5
973.902	3234.01
977.666	2482.4
981.428	2020.13
985.188	1999.86
988.947	2089.9
992.704	2734.69
996.459	3354
1000.21	3580.36
1003.96	3577.85
1007.71	3935.13
1011.46	5052.02
1015.21	7013.41
1018.95	9215.65
1022.7	10468.1
1026.44	9544.2
1030.18	7004.27
1033.91	4962.4
1037.65	3440.41
1041.39	2698.88
1045.12	2162.32
1048.85	1822.7
1052.58	1604.16
1056.31	1344.21
1060.03	1224.77
1063.76	1142.85
1067.48	1023.99
1071.2	930.951
1074.92	901.211
1078.63	956.891
1082.35	980.178
1086.06	1072.41
1089.78	1174.02
1093.49	1754.83
1097.19	1974.47
1100.9	1662.6
1104.61	1134.69
1108.31	896.15
1112.01	623.382
1115.71	561.48
1119.41	458.69
1123.11	399.636
1126.8	318.101
1130.5	350.941
1134.19	218.243
1137.88	210.988
1141.57	120.397
1145.25	62.1548
1148.94	47.4849
1152.62	57.0317
1156.3	85.5654
1159.98	44.2412
1163.66	79.3848
1167.34	67.1606
1171.01	21.0923
1174.68	88.3716
1178.36	19.7456
1182.02	5.57959
1185.69	43.4111
1189.36	2.61279
1193.02	71.582
1196.69	3.88281
1200.35	21.1587
1204.01	19.6645
1207.66	49.4136
1211.32	0.501465
1214.98	16.874
1218.63	51.7495
1222.28	18.084
1225.93	38.5913
1229.58	81.5205
1233.22	91.9473
1236.87	22.644
1240.51	95.9111
1244.15	126.6
1247.79	136.514
1251.43	134.531
1255.07	201.548
1258.7	166.544
1262.33	184.918
1265.96	207.867
1269.59	165.864
1273.22	118.252
1276.85	210.896
1280.47	219.751
1284.1	148.748
1287.72	151.132
1291.34	191.373
1294.95	130.168
1298.57	108.273
1302.19	100.29
1305.8	192.383
1309.41	106.444
1313.02	199.353
1316.63	203.451
1320.23	194.796
1323.84	150.445
1327.44	129.525
1331.05	189.427
1334.64	133.678
1338.24	79.7041
1341.84	185.984
1345.43	110.067
1349.03	79.3057
1352.62	111.608
1356.21	5.3418
1359.8	39.8115
1363.39	44.939
1366.97	9.25293
1370.56	27.8545
1374.14	49.2207
1377.72	61.5508
1381.3	31.4814
1384.87	110.151
1388.45	157.325
1392.02	66.7495
1395.6	44.0498
1399.17	29.2622
1402.74	0.236816
1406.3	64.6094
1409.87	5.96484
1413.43	114.986
1417	156.451
1420.56	277.247
1424.12	170.213
1427.67	184.667
1431.23	120.874
1434.79	171.976
1438.34	106.766
1441.89	161.933
1445.44	99.1352
1448.99	181.006
1452.54	108.249
1456.08	201.317
1459.62	241.228
1463.17	307.108
1466.71	285.052
1470.24	201.929
1473.78	164.906
1477.32	119.011
1480.85	105.921
1484.38	90.6831
1487.91	60.3648
1491.44	160.406
1494.97	210.457
1498.5	168.017
1502.02	244.244
1505.54	284.281
1509.07	243.089
1512.59	229.719
1516.1	244.718
1519.62	212.319
