Measurement: Raman, 514 nm, ccw, Raman Data Processed
Mineral: Gypsum
Rruff sample: R040029
Ideal chemistry: CaSO_4_2H_2_O
Locality: Twin Buttes, Pima County, Arizona, USA
Source: University of Arizona Mineral Museum
Description: Colorless prismatic crystal
Pin_id: M00440
Orientation: Laser parallel to -b* (0 -1 0). Fiducial mark perpendicular to laser is parallel to -c [0 0 -1]
Raman shift (cm-1)	intensity
79.427	0
83.614	45.355
87.798	66.384
91.981	117.113
96.161	97.317
100.34	133.952
104.516	223.783
108.691	215.121
112.864	228.936
117.034	557.76
121.203	267.522
125.369	515.637
129.534	1168.66
133.696	669.523
137.857	315.677
142.016	214.987
146.172	185.965
150.327	123.812
154.48	111.643
158.63	137.327
162.779	152.919
166.926	157.311
171.07	308.999
175.213	550.526
179.354	730.236
183.493	441.241
187.63	191.889
191.765	70.666
195.898	79.547
200.029	63.508
204.158	71.576
208.285	112.815
212.41	94.527
216.533	49.233
220.654	18.153
224.773	2.76
228.891	3.425
233.006	22.595
237.119	34.012
241.231	38.563
245.34	30.941
249.448	21.478
253.553	15.752
257.657	43.615
261.758	40.592
265.858	14.48
269.956	37.768
274.052	5.79
278.146	7.226
282.237	38.574
286.327	25.109
290.416	41.835
294.502	44.62
298.586	10.339
302.668	59.107
306.749	100.9
310.827	105.715
314.903	84.484
318.978	78.23
323.051	61.929
327.121	28.56
331.19	27.145
335.257	7.343
339.322	31.891
343.385	2.499
347.446	3.21
351.505	7.011
355.563	22.771
359.618	16.585
363.672	6.571
367.723	25.709
371.773	49.153
375.821	36.77
379.866	44.714
383.91	10.076
387.952	55.893
391.992	140.713
396.031	251.823
400.067	331.529
404.101	785.39
408.134	2057.64
412.165	4510.84
416.193	2588.28
420.22	930.899
424.245	440.1
428.268	249.078
432.289	216.017
436.309	147.75
440.326	126.391
444.342	114.409
448.355	71.117
452.367	73.863
456.377	61.912
460.385	81.932
464.391	17.947
468.395	15.982
472.398	96.008
476.398	101.051
480.397	240.101
484.394	450.099
488.389	929.415
492.382	1170.78
496.373	654.904
500.362	344.597
504.349	179.504
508.335	131.618
512.319	127.361
516.3	51.184
520.28	94.456
524.259	52.143
528.235	76.267
532.209	36.395
536.182	81.468
540.152	64.598
544.121	74.339
548.088	77.469
552.053	137.606
556.017	64.152
559.978	117.325
563.938	52.653
567.895	231.467
571.851	199.726
575.805	237.003
579.758	358.308
583.708	341.818
587.657	411.131
591.603	364.638
595.548	429.488
599.491	463.89
603.432	523.174
607.372	525.669
611.309	645.189
615.245	844.939
619.179	910.012
623.111	688.764
627.041	472.111
630.97	298.505
634.896	158.807
638.821	173.33
642.744	150.052
646.665	159.454
650.584	96.851
654.502	176.336
658.418	185.581
662.331	143.021
666.244	220.536
670.154	165.259
674.062	109.802
677.969	128.336
681.874	134.877
685.777	131.391
689.678	88.968
693.577	49.198
697.475	36.923
701.371	36.382
705.265	41.803
709.157	87.207
713.047	16.61
716.936	14.042
720.823	8.295
724.708	67.084
728.591	44.392
732.472	13.719
736.352	16.015
740.23	37.359
744.106	24.48
747.98	1.586
751.853	51.679
755.723	10.216
759.592	25.783
763.459	0.366
767.325	15.565
771.188	6.834
775.05	38.866
778.91	35.499
782.768	35.066
786.625	39.389
790.479	79.062
794.332	34.535
798.183	54.983
802.033	19.391
805.88	30.777
809.726	83.138
813.57	93.49
817.413	12.807
821.253	13.04
825.092	41.211
828.929	59.346
832.764	40.447
836.598	49.513
840.429	44.887
844.259	76.543
848.088	52.508
851.914	35.449
855.739	57.362
859.562	49.244
863.383	43.093
867.203	23.512
871.02	51.17
874.836	18.169
878.65	22.941
882.463	20.548
886.274	10.097
890.083	11.63
893.89	47.951
897.695	113.441
901.499	32.499
905.301	13.353
909.102	23.988
912.9	78.407
916.697	98.615
920.492	52.649
924.285	119.206
928.077	41.729
931.867	62.614
935.655	44.229
939.442	29.782
943.226	62.062
947.009	63.979
950.791	145.082
954.57	121.978
958.348	176.604
962.124	181.069
965.899	309.362
969.671	364.503
973.442	370.458
977.211	485.291
980.979	617.204
984.745	873.138
988.509	1440.06
992.271	1660
996.032	2612.89
999.791	5385.84
1003.55	17663.8
1007.3	60847.8
1011.06	21038.8
1014.81	5189.74
1018.56	2259.59
1022.31	1240.64
1026.06	823.328
1029.8	549.278
1033.55	395.324
1037.29	268.248
1041.03	209.397
1044.77	182.327
1048.5	151.883
1052.24	118.656
1055.97	66.475
1059.7	71.439
1063.43	19.793
1067.16	156.697
1070.89	78.524
1074.61	67.699
1078.34	43.435
1082.06	28.181
1085.78	38.124
1089.5	11.245
1093.21	37.716
1096.93	67.815
1100.64	3.847
1104.35	21.756
1108.06	35.043
1111.77	30.399
1115.48	3.177
1119.18	74.578
1122.89	229.208
1126.59	404.373
1130.29	725.14
1133.99	1245.72
1137.68	2580.09
1141.38	3293.63
1145.07	2424.71
1148.76	1164.11
1152.45	577.595
1156.14	289.299
1159.83	235.123
1163.51	188.905
1167.19	98.717
1170.88	105.984
1174.56	135.313
1178.23	78.46
1181.91	105.472
1185.59	24.837
1189.26	66.323
1192.93	64.304
1196.6	105.084
1200.27	67.82
1203.94	102.436
1207.6	117.585
1211.27	25.625
1214.93	132.741
1218.59	58.976
1222.25	76.039
1225.9	100.999
1229.56	86.93
1233.21	91.519
1236.86	143.59
1240.51	137.502
1244.16	121.715
1247.81	37.673
1251.45	102.65
1255.1	91.491
1258.74	88.811
1262.38	40.77
1266.02	52.865
1269.66	23.833
1273.29	84.696
1276.93	6.36
1280.56	61.894
1284.19	79.338
1287.82	69.647
1291.45	50.833
1295.07	46.896
1298.7	69.833
1302.32	56.676
1305.94	10.561
1309.56	107.104
1313.18	83.325
1316.8	74.081
1320.41	62.319
1324.02	113.298
1327.63	19.31
1331.24	111.945
1334.85	83.819
1338.46	56.649
1342.06	61.962
1345.67	52.748
1349.27	131.318
1352.87	117.083
1356.47	97.558
1360.07	161.875
1363.66	105.407
1367.25	85.755
1370.85	131.599
1374.44	129.347
1378.03	45.59
1381.61	144.836
1385.2	110.628
1388.78	173.179
1392.37	104.878
1395.95	148.459
1399.53	127.503
1403.1	138.996
1406.68	67.352
1410.26	81.998
1413.83	197.832
1417.4	104.359
1420.97	126.968
1424.54	149.941
1428.1	125.321
1431.67	139.738
1435.23	191.196
1438.8	141.062
1442.36	222.179
1445.91	125.49
1449.47	159.674
1453.03	258.519
1456.58	196.218
1460.13	250.626
1463.68	226.898
1467.23	91.02
1470.78	213.504
1474.33	154.438
1477.87	135.501
1481.42	144.691
1484.96	128.163
1488.5	178.91
1492.04	130.159
1495.57	115.036
1499.11	115.566
1502.64	31.897
1506.17	12.66
1509.71	118.289
1513.23	148.376
1516.76	22.02
1520.29	0
