Measurement: Raman, 514 nm, ccw, Raman Data Processed
Mineral: Gypsum
Rruff sample: R040029
Ideal chemistry: CaSO_4_2H_2_O
Locality: Twin Buttes, Pima County, Arizona, USA
Source: University of Arizona Mineral Museum
Description: Colorless prismatic crystal
Pin_id: L00273
Orientation: Laser parallel to -a [-1 0 0]. Fiducial mark perpendicular to laser is parallel to b* (0 1 0)
Raman shift (cm-1)	intensity
80.823	0
85.009	2.632
89.193	172.994
93.375	231.241
97.554	208.355
101.732	451.502
105.908	1333.71
110.082	961.863
114.254	432.31
118.424	517.771
122.592	477.503
126.758	431.904
130.922	595.142
135.083	660.521
139.243	1120.76
143.401	1405.39
147.557	738.26
151.711	370.234
155.863	350.281
160.013	336.068
164.161	605.291
168.308	962.603
172.452	1965.95
176.594	3896.92
180.734	4621.97
184.872	2337.62
189.008	1064.5
193.143	565.623
197.275	394.306
201.405	365.896
205.534	294.292
209.66	300.28
213.784	140.799
217.907	80.589
222.027	74.427
226.146	6.435
230.263	33.554
234.377	3.212
238.49	0.167
242.601	1.644
246.709	13.905
250.816	14.521
254.921	12.722
259.024	48.049
263.125	34.111
267.224	5.308
271.321	38.645
275.416	24.219
279.51	27.67
283.601	34.094
287.69	7.422
291.778	5.66
295.863	27.696
299.947	41.455
304.029	95.506
308.108	43.433
312.186	15.609
316.262	3.356
320.336	44.339
324.408	6.348
328.478	85.363
332.546	12.253
336.612	6.156
340.677	35.007
344.739	27.773
348.799	63.408
352.858	62.002
356.915	70.562
360.969	106.139
365.022	59.743
369.073	127.371
373.122	88.037
377.169	144.751
381.215	241.552
385.258	209.955
389.299	232.014
393.339	346.959
397.376	468.798
401.412	848.666
405.446	1732.88
409.478	4871.55
413.508	8054.27
417.536	3245.64
421.562	1176.45
425.586	566.896
429.609	323.579
433.629	313.004
437.648	228.465
441.665	195.276
445.68	140.509
449.693	73.967
453.704	22.994
457.713	37.756
461.721	123.85
465.726	110.981
469.73	88.161
473.731	126.153
477.731	126.302
481.729	252.364
485.725	523.279
489.72	1053.83
493.712	1098.9
497.703	561.744
501.691	292.74
505.678	155.145
509.663	50.689
513.646	108.237
517.627	141.308
521.607	27.317
525.584	53.112
529.56	72.02
533.534	55.054
537.506	88.293
541.476	129.437
545.444	19.762
549.41	73.031
553.375	53.853
557.337	127.04
561.298	178.215
565.257	175.828
569.214	141.655
573.17	146.102
577.123	72.553
581.075	76.337
585.024	158.732
588.972	154.309
592.918	139.575
596.863	78.182
600.805	42.713
604.746	128.228
608.685	178.417
612.621	129.224
616.557	251.86
620.49	261.184
624.421	284.405
628.351	163.745
632.279	34.054
636.205	54.369
640.129	142.613
644.051	131.89
647.972	52.374
651.89	153.384
655.807	105.543
659.722	65.79
663.636	94.817
667.547	77.865
671.457	87.036
675.365	17.941
679.271	103.814
683.175	197.546
687.077	22.783
690.978	50.773
694.877	9.182
698.774	61.478
702.669	13.002
706.562	13.067
710.454	20.436
714.344	61.391
718.232	80.122
722.118	65.875
726.002	66.647
729.885	145.943
733.766	12.684
737.645	111.066
741.522	105.407
745.397	102.779
749.271	44.019
753.143	39.208
757.013	68.35
760.881	0.551
764.748	2.479
768.613	21.434
772.476	13.119
776.337	59.162
780.196	138.981
784.054	113.762
787.91	54.486
791.764	54.856
795.616	42.947
799.467	63.58
803.316	153.171
807.163	122.641
811.008	84.035
814.851	91.392
818.693	74.714
822.533	13.63
826.371	45.243
830.208	93.109
834.042	59.848
837.875	90.745
841.706	107.074
845.536	95.095
849.363	117.92
853.189	46.959
857.013	73.615
860.836	163.556
864.656	102.707
868.475	85.552
872.292	5.771
876.108	10.542
879.922	23.479
883.733	13.094
887.544	51.964
891.352	61.319
895.159	19.832
898.964	81.15
902.767	41.782
906.568	115.042
910.368	57.449
914.166	88.21
917.962	121.189
921.757	82.515
925.55	85.725
929.341	109.262
933.13	114.807
936.918	216.353
940.703	197.899
944.488	127.428
948.27	110.977
952.051	198.466
955.83	140.735
959.607	149.44
963.383	117.321
967.156	224.363
970.928	197.932
974.699	320.311
978.468	486.767
982.234	629.315
986	745.829
989.763	1122.45
993.525	1458.02
997.285	2540.91
1001.04	5541.97
1004.8	23148.5
1008.55	51462.7
1012.31	10075.9
1016.06	3191.8
1019.81	1678.49
1023.56	952.261
1027.31	687.184
1031.05	468.901
1034.79	395.9
1038.53	337.622
1042.27	209.96
1046.01	162.955
1049.75	105.706
1053.48	194.651
1057.22	146.188
1060.95	193.82
1064.68	259.946
1068.4	101.011
1072.13	91.025
1075.86	175.958
1079.58	134.404
1083.3	166.848
1087.02	189.488
1090.74	150.133
1094.45	223.346
1098.17	155.922
1101.88	212.969
1105.59	193.013
1109.3	316.462
1113.01	452.284
1116.71	533.743
1120.42	356.686
1124.12	433.623
1127.82	271.896
1131.52	155.583
1135.22	326.166
1138.91	131.401
1142.61	165.187
1146.3	38.52
1149.99	18.79
1153.68	128.627
1157.37	42.763
1161.06	103.455
1164.74	56.52
1168.42	1.029
1172.1	17.382
1175.78	8.562
1179.46	22.83
1183.14	86.763
1186.81	66.289
1190.48	23.041
1194.15	30.006
1197.83	74.163
1201.49	156.237
1205.16	168.487
1208.82	75.673
1212.49	141.723
1216.15	0.455
1219.81	107.691
1223.46	70.732
1227.12	133.584
1230.78	65.318
1234.43	70.083
1238.08	64.354
1241.73	103.441
1245.38	156.404
1249.03	187.522
1252.67	124.462
1256.31	78.831
1259.95	107.909
1263.6	141.784
1267.23	87.54
1270.87	233.944
1274.51	175.021
1278.14	145.821
1281.77	59.4
1285.4	89.629
1289.03	0.303
1292.66	111.868
1296.28	113.925
1299.91	56.139
1303.53	35.057
1307.15	33.144
1310.77	11.799
1314.38	224.026
1318	21.147
1321.61	2.422
1325.23	188.744
1328.84	39.536
1332.45	12.226
1336.06	14.775
1339.66	0.132
1343.27	1.849
1346.87	115.221
1350.47	208.203
1354.07	222.58
1357.67	188.951
1361.26	180.531
1364.86	207.911
1368.45	199.843
1372.04	136.821
1375.63	183.101
1379.22	181.716
1382.81	179.972
1386.39	64.411
1389.98	128.293
1393.56	26.619
1397.14	55.615
1400.72	118.815
1404.3	182.27
1407.87	183.111
1411.45	322.502
1415.02	183.244
1418.59	300.885
1422.16	184.808
1425.73	190.24
1429.29	214.913
1432.86	229.121
1436.42	328.565
1439.98	332.299
1443.54	338.626
1447.1	376.273
1450.66	431.979
1454.21	466.172
1457.77	441.063
1461.32	257.506
1464.87	204.968
1468.42	171.221
1471.96	2.627
1475.51	101.752
1479.06	174.5
1482.6	302.624
1486.14	109.062
1489.68	205.996
1493.22	195.884
1496.75	82.968
1500.29	100.725
1503.82	156.627
1507.35	87.75
1510.88	141.069
1514.41	10.956
1517.94	246.1
1521.46	0
