Measurement: Raman, 514 nm, ccw, Raman Data Processed
Mineral: Gypsum
Rruff sample: R040029
Ideal chemistry: CaSO_4_2H_2_O
Locality: Twin Buttes, Pima County, Arizona, USA
Source: University of Arizona Mineral Museum
Description: Colorless prismatic crystal
Pin_id: L00192
Orientation: Laser parallel to -c [0 0 -1]. Fiducial mark perpendicular to laser is parallel to -b* (0 -1 0)
Raman shift (cm-1)	intensity
78.031	0
82.218	15.375
86.404	70.539
90.587	163.853
94.768	81.227
98.947	257.211
103.124	575.425
107.3	1585.01
111.473	647.977
115.644	531.162
119.813	490.675
123.981	364.126
128.146	546.451
132.309	704.776
136.47	884.953
140.63	1360.28
144.787	1341.7
148.942	579.342
153.096	355.324
157.247	421.264
161.396	643.065
165.544	849.619
169.689	1374.05
173.833	2851.48
177.974	5247.67
182.114	4376.85
186.251	2031.28
190.387	960.591
194.52	544.225
198.652	364.682
202.782	290.592
206.909	289.19
211.035	178.778
215.159	106.287
219.281	47.734
223.4	65.12
227.518	34.442
231.634	6.295
235.748	47.089
239.86	6.999
243.97	51.454
248.079	24.071
252.185	28.519
256.289	3.428
260.391	23.035
264.492	12.502
268.59	9.918
272.687	27.645
276.781	37.84
280.874	14.57
284.964	9.861
289.053	45.236
293.14	75.951
297.225	17.759
301.308	54.41
305.389	46.924
309.468	13.312
313.545	18.573
317.62	61.715
321.693	48.674
325.765	51.273
329.834	83.481
333.902	91.417
337.967	100.158
342.031	64.732
346.093	89.13
350.153	102.433
354.21	81.695
358.267	106.915
362.321	124.075
366.373	146.396
370.423	170.774
374.471	163.308
378.518	160.337
382.563	198.383
386.605	272.401
390.646	335.392
394.685	414.472
398.722	676.836
402.757	1252.76
406.79	2706.78
410.821	7430.65
414.851	7501.37
418.878	2602.97
422.904	1108.8
426.927	603.974
430.949	374.767
434.969	255.287
438.987	188.673
443.003	182.328
447.018	148.965
451.03	118.335
455.041	128.71
459.049	99.633
463.056	104.819
467.061	74.087
471.064	101.57
475.065	132.039
479.064	222.572
483.062	357.699
487.057	717.942
491.051	1394.08
495.043	1028.18
499.032	527.523
503.02	252.321
507.007	147.353
510.991	130.369
514.973	70.37
518.954	50.355
522.933	31.327
526.91	11.284
530.885	29.14
534.858	22.727
538.829	0.211
542.799	7.194
546.766	14.571
550.732	45.734
554.696	51.653
558.658	77.021
562.618	65.992
566.576	71.395
570.533	88.513
574.488	128.704
578.44	101.949
582.391	117.11
586.341	107.425
590.288	88.755
594.233	97.137
598.177	90.068
602.119	90.497
606.059	98.946
609.997	137.452
613.933	299.99
617.868	363.448
621.801	319.566
625.731	154.039
629.66	78.398
633.588	67.4
637.513	17.2
641.437	48.166
645.358	15.38
649.278	30.896
653.196	36.397
657.113	40.478
661.027	48.707
664.94	109.923
668.851	368.125
672.76	211.314
676.667	66.49
680.572	34.653
684.476	38.802
688.378	53.932
692.278	5.974
696.176	11.038
700.072	25.025
703.967	19.948
707.86	22.161
711.751	3.435
715.64	13.434
719.527	32.189
723.413	14.917
727.297	45.462
731.179	23.165
735.059	1.148
738.937	24.902
742.814	44.004
746.689	9.618
750.562	1.785
754.433	7.781
758.303	29.329
762.17	11.909
766.036	38.405
769.901	44.839
773.763	6.761
777.624	17.604
781.482	4.955
785.339	70.29
789.195	25.6
793.048	6.762
796.9	39.04
800.75	15.968
804.598	34.807
808.445	12.685
812.289	100.394
816.132	6.51
819.973	32.619
823.813	10.72
827.65	33.815
831.486	71.904
835.32	34.986
839.152	37.064
842.983	74.227
846.812	64.025
850.639	37.532
854.464	74.127
858.288	48.705
862.11	44.852
865.93	55.047
869.748	8.101
873.564	10.235
877.379	20.467
881.192	12.102
885.004	43.254
888.813	1.04
892.621	15.219
896.427	8.912
900.232	42.411
904.034	37.948
907.835	64.03
911.634	103.304
915.432	65.588
919.227	24.858
923.021	105.09
926.813	79.728
930.604	133.074
934.393	133.443
938.18	101.861
941.965	84.688
945.749	106.13
949.53	115.622
953.311	89.036
957.089	135.357
960.866	172.111
964.641	217.749
968.414	284.426
972.185	395.127
975.955	425.853
979.723	521.602
983.49	740.375
987.254	1100.17
991.017	1438
994.779	1967.85
998.538	3466.75
1002.3	9352.69
1006.05	46448.7
1009.81	38174.8
1013.56	7520.92
1017.31	2808.13
1021.06	1484.05
1024.81	910.008
1028.55	629.556
1032.3	457.754
1036.04	333.828
1039.78	298.621
1043.52	211.333
1047.26	180.814
1050.99	172.648
1054.73	91.176
1058.46	135.625
1062.19	143.876
1065.92	91.301
1069.65	93.329
1073.37	63.933
1077.1	101.478
1080.82	97.37
1084.54	101.003
1088.26	47.576
1091.97	110.189
1095.69	83.868
1099.4	91.364
1103.12	117.979
1106.83	149.604
1110.54	136.281
1114.24	318.901
1117.95	476.858
1121.65	589.717
1125.35	684.45
1129.06	1054.22
1132.75	2063
1136.45	2460.85
1140.15	1038.65
1143.84	436.071
1147.53	192.803
1151.22	89.813
1154.91	55.449
1158.6	49.695
1162.28	33.323
1165.97	32.243
1169.65	22.757
1173.33	23.052
1177.01	3.46
1180.69	9.16
1184.36	5.632
1188.04	50.029
1191.71	35.125
1195.38	2.728
1199.05	41.32
1202.71	27.339
1206.38	60.329
1210.04	60.322
1213.71	31.215
1217.37	38.07
1221.03	53.888
1224.68	52.676
1228.34	52.438
1231.99	46.131
1235.65	27.797
1239.3	15.428
1242.95	48.025
1246.59	95.583
1250.24	50.173
1253.88	70.643
1257.53	1.695
1261.17	12.452
1264.81	17.743
1268.45	31.986
1272.08	45.144
1275.72	34.204
1279.35	7.208
1282.98	8.161
1286.61	70.064
1290.24	46.923
1293.87	22.736
1297.49	42.506
1301.11	41.198
1304.73	5.162
1308.36	10.424
1311.97	5.956
1315.59	37.222
1319.2	11.495
1322.82	58.529
1326.43	52.555
1330.04	23.315
1333.65	40.889
1337.26	46.458
1340.86	67.184
1344.47	59.784
1348.07	46.888
1351.67	27.796
1355.27	38.486
1358.87	85.616
1362.46	86.201
1366.06	92.199
1369.65	83.641
1373.24	65.062
1376.83	42.409
1380.42	62.139
1384	60.675
1387.59	40.29
1391.17	10.021
1394.75	33.433
1398.33	113.457
1401.91	103.092
1405.49	59.965
1409.06	95.737
1412.64	103.157
1416.21	120.114
1419.78	55.756
1423.35	78.404
1426.91	21.104
1430.48	139.549
1434.05	119.02
1437.61	132.491
1441.17	167.98
1444.73	121.493
1448.29	127.932
1451.84	134.359
1455.4	144.712
1458.95	106.852
1462.5	158.153
1466.05	97.323
1469.6	88.825
1473.15	90.736
1476.69	0.2
1480.24	112.957
1483.78	53.215
1487.32	125.605
1490.86	17.203
1494.39	60.118
1497.93	67.425
1501.46	43.688
1505	46.811
1508.53	108.29
1512.06	118.075
1515.59	9.303
1519.11	64.735
