Measurement: Raman, 514 nm, ccw, Raman Data Processed
Mineral: Gypsum
Rruff sample: R060509
Ideal chemistry: CaSO_4_2H_2_O
Locality: Pierre Shale, Hermosa, Custer County, South Dakota, USA
Source: Michael Scott
Description: Colorless tabular single crystal
Pin_id: L01423
Orientation: Laser parallel to (1 0 1). Fiducial mark perpendicular to laser is parallel to b [0 1 0]
Raman shift (cm-1)	intensity
155.894	0
160.834	303.059
165.771	359.804
170.705	490.519
175.635	795.432
180.563	1197.82
185.487	634.937
190.409	66.228
195.327	46.0044
200.242	173.615
205.155	404.937
210.064	475.483
214.97	330.489
219.873	204.849
224.773	79.8415
229.67	83.7437
234.564	10.4651
239.455	4.63916
244.342	14.364
249.227	8.71631
254.109	4.03271
258.988	7.60034
263.864	15.9839
268.736	48.7097
273.606	49.7854
278.473	13.9211
283.337	1.13525
288.197	37.803
293.055	38.3645
297.91	99.1526
302.762	86.3032
307.611	112.114
312.456	166.191
317.299	222.455
322.139	195.804
326.976	189.484
331.81	173.81
336.641	158.783
341.469	84.4167
346.294	93.9133
351.116	135.141
355.936	185.144
360.752	144.821
365.565	116.39
370.376	169.112
375.183	126.825
379.988	118.21
384.789	176.937
389.588	228.655
394.384	273.214
399.177	572.951
403.967	1282.65
408.754	2634.23
413.538	3827.53
418.319	2660.13
423.097	898.684
427.873	366.968
432.646	240.626
437.415	101.228
442.182	27.3957
446.946	95.7258
451.707	61.5596
456.465	64.9221
461.221	2.30957
465.973	87.7165
470.723	94.8623
475.47	168.735
480.214	327.118
484.955	777.685
489.693	1423.8
494.429	1589.06
499.161	920.061
503.891	437.488
508.618	184.615
513.342	158.299
518.063	106.651
522.782	47.5671
527.497	101.719
532.21	7.96484
536.92	29.5664
541.627	2.28638
546.332	103.157
551.034	71.2004
555.732	107.477
560.428	65.4419
565.122	124.29
569.812	109.3
574.5	150.193
579.185	134.506
583.867	160.92
588.546	149.605
593.223	129.529
597.897	181.12
602.568	204.966
607.236	289.713
611.902	566.282
616.565	804.418
621.225	715.104
625.882	456.379
630.537	234.847
635.189	124.154
639.838	177.529
644.484	53.7595
649.128	136.053
653.769	200.882
658.407	365.949
663.043	1395.64
667.676	3243.24
672.306	3395.76
676.933	1142.1
681.558	367.682
686.18	156.163
690.799	137.638
695.416	14.1704
700.03	7.6604
704.641	17.1016
709.25	68.4968
713.856	9.81592
718.459	49.1628
723.059	35.4331
727.657	24.4895
732.253	69.1489
736.845	44.4275
741.435	52.9644
746.022	49.1543
750.607	26.0418
755.189	3.24536
759.768	88.259
764.345	0.16626
768.919	89.8284
773.49	69.7625
778.059	40.4014
782.625	74.6794
787.189	20.7871
791.749	65.7222
796.308	167.487
800.863	131.723
805.416	103.424
809.967	183.86
814.515	127.107
819.06	159.23
823.603	113.237
828.143	158.12
832.68	109.872
837.215	150.091
841.747	183.585
846.277	143.92
850.804	1.34204
855.328	61.3862
859.85	74.2585
864.37	17.8064
868.886	19.0037
873.401	24.3227
877.912	10.5027
882.421	38.6309
886.928	24.3496
891.432	32.2165
895.933	7.66162
900.432	19.8926
904.929	0.245361
909.423	22.1912
913.914	40.647
918.403	51.2139
922.889	34.415
927.373	66.4416
931.854	30.5144
936.332	69.9067
940.809	22.3313
945.282	39.7478
949.753	64.1633
954.222	73.5637
958.688	46.9451
963.152	156.31
967.613	164.663
972.071	282.016
976.527	325.371
980.981	571.73
985.432	937.962
989.881	1346.39
994.327	2267.69
998.771	6476.81
1003.21	26467.7
1007.65	50036.2
1012.09	16605.5
1016.52	3467.8
1020.95	1517.26
1025.38	794.335
1029.81	436.38
1034.23	254.813
1038.65	138.888
1043.07	114.721
1047.49	96.8813
1051.9	97.7041
1056.31	76.6948
1060.72	137.8
1065.13	14.0464
1069.54	100.037
1073.94	40.189
1078.34	95.793
1082.73	168.119
1087.13	107.425
1091.52	203.357
1095.91	358.402
1100.3	485.563
1104.68	492.842
1109.07	910.407
1113.45	1089.93
1117.82	1015.58
1122.2	1234.41
1126.57	2407.52
1130.94	6230.6
1135.31	8695.87
1139.68	4290.06
1144.04	1638.62
1148.4	711.858
1152.76	361.246
1157.12	197.421
1161.47	165.755
1165.82	85.2241
1170.17	48.7964
1174.52	100.388
1178.87	63.4619
1183.21	88.7554
1187.55	122.962
1191.88	50.6367
1196.22	23.1982
1200.55	21.8721
1204.88	63.2539
1209.21	50.3452
1213.54	23.0474
1217.86	27.5024
1222.18	100.017
1226.5	65.5884
1230.82	118.252
1235.13	35.9971
1239.44	105.265
1243.75	112.02
1248.06	77.855
1252.37	97.0376
1256.67	47.9956
1260.97	117.576
1265.27	15.4482
1269.56	42.5249
1273.86	10.0332
1278.15	10.1992
1282.44	38.2656
1286.72	72.8652
1291.01	149.573
1295.29	81.2695
1299.57	79.9785
1303.85	91.6035
1308.12	85.125
1312.39	28.1186
1316.67	162.164
1320.93	4.57764
1325.2	2.35547
1329.46	129.609
1333.73	53.9136
1337.98	115.943
1342.24	83.0796
1346.5	57.1802
1350.75	39.1807
1355	107.139
1359.25	21.0215
1363.49	154.773
1367.74	90.2524
1371.98	77.8438
1376.22	38.6118
1380.46	29.2793
1384.69	22.5278
1388.92	115.51
1393.15	153.142
1397.38	3.89404
1401.61	19.4941
1405.83	31.7398
1410.05	138.508
1414.27	54.3892
1418.49	62.5478
1422.7	92.0532
1426.92	170.402
1431.13	130.478
1435.34	47.9199
1439.54	210.092
1443.75	125.701
1447.95	183.293
1452.15	78.7461
1456.35	180.194
1460.54	246.567
1464.73	79.731
1468.92	92.2412
1473.11	129.602
1477.3	97.3643
1481.48	184.473
1485.67	92.9673
1489.85	156.5
1494.02	138.397
1498.2	118.431
1502.37	61.0488
1506.55	130.472
1510.71	102.731
1514.88	178.75
1519.05	5.54248
1523.21	120.714
1527.37	185.571
1531.53	50.0625
1535.68	159.867
1539.84	120.849
1543.99	7.19629
1548.14	56.0122
1552.29	113.198
1556.44	79.0449
1560.58	67.3276
