Measurement: Raman, 514 nm, ccw, Raman Data Processed
Mineral: Gypsum
Rruff sample: R060509
Ideal chemistry: CaSO_4_2H_2_O
Locality: Pierre Shale, Hermosa, Custer County, South Dakota, USA
Source: Michael Scott
Description: Colorless tabular single crystal
Pin_id: L01423
Orientation: Laser parallel to (1 0 1). Fiducial mark perpendicular to laser is parallel to b [0 1 0]
Raman shift (cm-1)	intensity
155.894	0
160.834	232.059
165.771	148.309
170.705	146.225
175.635	474.947
180.563	713.891
185.487	307.761
190.409	30.5466
195.327	14.6482
200.242	203.547
205.155	586.251
210.064	866.937
214.97	701.174
219.873	366.925
224.773	212.575
229.67	110.661
234.564	78.7314
239.455	7.03223
244.342	64.7039
249.227	34.717
254.109	7.89575
258.988	70.3064
263.864	41.0981
268.736	13.3904
273.606	32.45
278.473	36.1655
283.337	23.6741
288.197	13.783
293.055	64.385
297.91	2.99316
302.762	99.1006
307.611	59.6387
312.456	111.233
317.299	193.203
322.139	222.75
326.976	164.026
331.81	63.3691
336.641	114.777
341.469	93.4558
346.294	71.8362
351.116	127.144
355.936	114.312
360.752	86.6514
365.565	161.089
370.376	162.893
375.183	145.538
379.988	171.266
384.789	198.907
389.588	247.263
394.384	394.832
399.177	600.616
403.967	1284.6
408.754	3369.32
413.538	6606.17
418.319	4260.32
423.097	1409.4
427.873	586.913
432.646	336.89
437.415	157.802
442.182	152.935
446.946	52.5913
451.707	121.04
456.465	41.4399
461.221	20.1323
465.973	54.1819
470.723	75.3557
475.47	63.1182
480.214	277.716
484.955	576.173
489.693	1147.59
494.429	1454.99
499.161	781.662
503.891	416.516
508.618	204.156
513.342	191.242
518.063	75.5723
522.782	28.9932
527.497	24.4624
532.21	0.207031
536.92	0.997559
541.627	26.9866
546.332	74.1711
551.034	63.4985
555.732	81.9783
560.428	122.671
565.122	145.58
569.812	162.679
574.5	197.167
579.185	253.28
583.867	309.136
588.546	250.31
593.223	375.44
597.897	401.908
602.568	431.296
607.236	657.878
611.902	1066.03
616.565	1462.3
621.225	1610.1
625.882	1123.52
630.537	579.13
635.189	238.623
639.838	189.454
644.484	82.3625
649.128	55.5488
653.769	260.901
658.407	293.802
663.043	889.053
667.676	2277.7
672.306	2450.71
676.933	871.713
681.558	279.5
686.18	155.946
690.799	85.9412
695.416	119.921
700.03	60.8792
704.641	69.5469
709.25	5.29297
713.856	74.6304
718.459	26.1516
723.059	34.8789
727.657	2.94946
732.253	1.69507
736.845	90.8962
741.435	39.9409
746.022	4.49609
750.607	26.876
755.189	81.5999
759.768	37.9961
764.345	1.06689
768.919	12.7688
773.49	55.8149
778.059	77.2647
782.625	40.1992
787.189	18.0146
791.749	101.791
796.308	108.147
800.863	88.9258
805.416	54.1145
809.967	231.191
814.515	34.1504
819.06	110.663
823.603	183.627
828.143	137.356
832.68	114.862
837.215	81.2519
841.747	132.526
846.277	86.4683
850.804	37.5117
855.328	52.7629
859.85	36.2375
864.37	3.32642
868.886	51.2927
873.401	1.30933
877.912	88.9202
882.421	24.5305
886.928	108.223
891.432	4.573
895.933	17.0149
900.432	48.4839
904.929	35.8901
909.423	3.36694
913.914	35.5232
918.403	15.3025
922.889	32.6968
927.373	41.1125
931.854	26.8132
936.332	120.162
940.809	86.676
945.282	23.2532
949.753	50.7361
954.222	15.2981
958.688	25.8516
963.152	174.401
967.613	129.939
972.071	211.468
976.527	386.993
980.981	497.522
985.432	761.946
989.881	1329.81
994.327	2032.35
998.771	5101.81
1003.21	20701.5
1007.65	52570.3
1012.09	18508.1
1016.52	3816.66
1020.95	1355.63
1025.38	811.44
1029.81	470.431
1034.23	321.437
1038.65	327.985
1043.07	79.7622
1047.49	123.356
1051.9	90.0859
1056.31	114.899
1060.72	82.624
1065.13	52.3862
1069.54	79.3101
1073.94	86.5356
1078.34	153.885
1082.73	138.095
1087.13	220.885
1091.52	222.543
1095.91	308.28
1100.3	356.105
1104.68	622.019
1109.07	800.021
1113.45	1019.47
1117.82	953.661
1122.2	936.984
1126.57	1641.42
1130.94	4454.97
1135.31	6653.44
1139.68	3847.19
1144.04	1715.08
1148.4	749.863
1152.76	425.238
1157.12	207.556
1161.47	145.757
1165.82	89.2515
1170.17	106.839
1174.52	53.5225
1178.87	23.3149
1183.21	36.1728
1187.55	80.144
1191.88	52.2173
1196.22	7.42871
1200.55	21.4106
1204.88	81.6963
1209.21	72.8608
1213.54	36.0571
1217.86	45.2207
1222.18	24.398
1226.5	148.616
1230.82	77.8711
1235.13	99.1992
1239.44	23.5654
1243.75	88.9746
1248.06	49.0981
1252.37	85.9209
1256.67	79.3569
1260.97	36.8794
1265.27	88.2686
1269.56	29.1001
1273.86	29.0518
1278.15	46.5098
1282.44	36.2065
1286.72	7.63086
1291.01	24.4936
1295.29	24.605
1299.57	49.8227
1303.85	58.0581
1308.12	111.31
1312.39	66.3486
1316.67	105.466
1320.93	65.2378
1325.2	35.8838
1329.46	38.7471
1333.73	89.4277
1337.98	45.2554
1342.24	142.368
1346.5	81.9043
1350.75	94.4541
1355	102.265
1359.25	192.889
1363.49	82.9082
1367.74	54.1421
1371.98	25.2734
1376.22	61.6787
1380.46	139.226
1384.69	26.1782
1388.92	66.3345
1393.15	63.6333
1397.38	61.665
1401.61	23.6289
1405.83	42.5205
1410.05	146.322
1414.27	43.1289
1418.49	6.85742
1422.7	119.677
1426.92	66.6094
1431.13	80.9199
1435.34	120.228
1439.54	55.8584
1443.75	74.1743
1447.95	117.73
1452.15	151.774
1456.35	144.071
1460.54	191.36
1464.73	37.5278
1468.92	114.454
1473.11	52.3765
1477.3	35.2612
1481.48	58.2759
1485.67	84.6138
1489.85	89.7012
1494.02	113.042
1498.2	140.545
1502.37	136.951
1506.55	69.1152
1510.71	128.295
1514.88	61.1333
1519.05	110.835
1523.21	113.601
1527.37	45.1167
1531.53	136.875
1535.68	145.435
1539.84	15.0654
1543.99	66.4477
1548.14	70.8066
1552.29	141.492
1556.44	106.005
1560.58	35.667
