Measurement: Raman, 514 nm, ccw, Raman Data Processed
Mineral: Gypsum
Rruff sample: R040029
Ideal chemistry: CaSO_4_2H_2_O
Locality: Twin Buttes, Pima County, Arizona, USA
Source: University of Arizona Mineral Museum
Description: Colorless prismatic crystal
Pin_id: L00192
Orientation: Laser parallel to -c [0 0 -1]. Fiducial mark perpendicular to laser is parallel to -b* (0 -1 0)
Raman shift (cm-1)	intensity
72.445	0
76.635	10.068
80.823	102.922
85.009	126.375
89.193	312.928
93.375	267.738
97.554	270.054
101.732	389.155
105.908	1051.98
110.082	901.013
114.254	705.728
118.424	1062.55
122.592	815.172
126.758	702.263
130.922	1276.4
135.083	921.641
139.243	875.183
143.401	1021.3
147.557	514.89
151.711	321.13
155.863	500.576
160.013	1025.36
164.161	947.764
168.308	1222.48
172.452	1458.62
176.594	2730.84
180.734	3218.14
184.872	1612.32
189.008	757.193
193.143	416.002
197.275	285.922
201.405	263.324
205.534	343.403
209.66	307.244
213.784	220.152
217.907	280.031
222.027	155.887
226.146	80.716
230.263	3.519
234.377	36.299
238.49	47.027
242.601	4.437
246.709	26.198
250.816	42.125
254.921	5.373
259.024	4.169
263.125	16.864
267.224	27.836
271.321	8.817
275.416	26.168
279.51	6.113
283.601	19.018
287.69	18.283
291.778	44.286
295.863	37.729
299.947	47.061
304.029	50.296
308.108	87.441
312.186	76.5
316.262	57.48
320.336	88.309
324.408	57.911
328.478	32.191
332.546	50.225
336.612	92.996
340.677	52.558
344.739	29.944
348.799	75.197
352.858	55.421
356.915	83.622
360.969	91.799
365.022	63.948
369.073	109.062
373.122	106.138
377.169	157.218
381.215	160.309
385.258	166.407
389.299	211.481
393.339	276.495
397.376	379.584
401.412	605.243
405.446	1238.22
409.478	3472.73
413.508	5845.16
417.536	2382.04
421.562	856.63
425.586	493.115
429.609	306.606
433.629	202.633
437.648	128.99
441.665	139.761
445.68	123.095
449.693	85.909
453.704	77.641
457.713	52.799
461.721	71.527
465.726	106.126
469.73	99.71
473.731	101.253
477.731	145.755
481.729	274.219
485.725	552.686
489.72	1042.8
493.712	1114.57
497.703	553.141
501.691	277.313
505.678	151.147
509.663	99.415
513.646	88.66
517.627	70.888
521.607	56.095
525.584	59.631
529.56	33.539
533.534	56.037
537.506	37.612
541.476	46.095
545.444	64.548
549.41	51.115
553.375	60.798
557.337	125.963
561.298	140.754
565.257	184.445
569.214	251.678
573.17	273.587
577.123	205.115
581.075	249.935
585.024	217.285
588.972	258.536
592.918	238.259
596.863	300.719
600.805	343.495
604.746	502.077
608.685	727.767
612.621	1062.16
616.557	1650.48
620.49	1459.74
624.421	752.962
628.351	345.171
632.279	186.326
636.205	119.466
640.129	66.652
644.051	26.745
647.972	27.76
651.89	49.74
655.807	7.315
659.722	80.583
663.636	265.454
667.547	1022.29
671.457	985.102
675.365	276.875
679.271	55.614
683.175	45.318
687.077	27.013
690.978	4.438
694.877	8.018
698.774	2.382
702.669	33.993
706.562	4.911
710.454	33.871
714.344	42.145
718.232	8.907
722.118	25.06
726.002	1.315
729.885	28.625
733.766	14.986
737.645	9.649
741.522	26.147
745.397	44.584
749.271	32.978
753.143	40.331
757.013	27.833
760.881	34
764.748	35.119
768.613	21.201
772.476	67.248
776.337	37.27
780.196	52.273
784.054	53.246
787.91	74.189
791.764	36.104
795.616	22.99
799.467	52.773
803.316	59.571
807.163	46.931
811.008	47.732
814.851	105.491
818.693	104.227
822.533	69.941
826.371	72.635
830.208	65.308
834.042	76.963
837.875	97.559
841.706	53.932
845.536	35.601
849.363	63.297
853.189	58.354
857.013	24.891
860.836	48.682
864.656	28.246
868.475	58.229
872.292	18.999
876.108	3.897
879.922	28.761
883.733	7.791
887.544	1.095
891.352	25.974
895.159	19.528
898.964	27.148
902.767	56.346
906.568	42.88
910.368	60.133
914.166	17.924
917.962	51.361
921.757	61.109
925.55	60.982
929.341	14.211
933.13	6.153
936.918	128.102
940.703	50.092
944.488	8.082
948.27	23.01
952.051	44.019
955.83	102.095
959.607	97.198
963.383	161.33
967.156	191.492
970.928	306.678
974.699	296.887
978.468	393.131
982.234	515.419
986	754.732
989.763	1133.07
993.525	1386.44
997.285	2331.87
1001.04	5243.38
1004.8	22087.9
1008.55	51016.5
1012.31	10070.2
1016.06	3183.84
1019.81	1454.62
1023.56	858.453
1027.31	518.979
1031.05	351.933
1034.79	249.921
1038.53	242.885
1042.27	113.681
1046.01	76.95
1049.75	3.884
1053.48	29.537
1057.22	10.584
1060.95	25.919
1064.68	41.146
1068.4	9.45
1072.13	20.695
1075.86	29.009
1079.58	50.75
1083.3	24.229
1087.02	37.177
1090.74	61.48
1094.45	55.79
1098.17	101.133
1101.88	132.77
1105.59	216.098
1109.3	308.434
1113.01	449.79
1116.71	814.158
1120.42	1128.57
1124.12	1463.96
1127.82	1940.75
1131.52	3745.12
1135.22	6431.49
1138.91	3458.86
1142.61	1680.26
1146.3	849.283
1149.99	378.713
1153.68	233.182
1157.37	107.789
1161.06	80.035
1164.74	53.397
1168.42	20.69
1172.1	48.379
1175.78	14.888
1179.46	41.113
1183.14	18.319
1186.81	25.493
1190.48	3.608
1194.15	5.678
1197.83	27.198
1201.49	81.735
1205.16	4.573
1208.82	7.656
1212.49	36.759
1216.15	32.43
1219.81	21.04
1223.46	29.21
1227.12	40.192
1230.78	39.636
1234.43	69.039
1238.08	31.417
1241.73	29.772
1245.38	68.1
1249.03	80.402
1252.67	39.675
1256.31	61.935
1259.95	80.101
1263.6	42.502
1267.23	36.611
1270.87	6.676
1274.51	37.675
1278.14	33.623
1281.77	54.53
1285.4	29.402
1289.03	1.239
1292.66	44.03
1296.28	30.789
1299.91	13.258
1303.53	2.205
1307.15	23.845
1310.77	78.455
1314.38	106.035
1318	24.569
1321.61	31.39
1325.23	76.762
1328.84	76.652
1332.45	73.067
1336.06	74.328
1339.66	76.453
1343.27	57.891
1346.87	104.724
1350.47	67.807
1354.07	46.884
1357.67	31.004
1361.26	45.088
1364.86	55.227
1368.45	83.972
1372.04	37.071
1375.63	56.142
1379.22	85.977
1382.81	28.56
1386.39	72.739
1389.98	55.21
1393.56	45.571
1397.14	0.63
1400.72	17.791
1404.3	33.304
1407.87	65.48
1411.45	115.958
1415.02	77.434
1418.59	99.177
1422.16	66.956
1425.73	80.606
1429.29	43.257
1432.86	86.779
1436.42	105.596
1439.98	100.539
1443.54	95.531
1447.1	78.806
1450.66	167.909
1454.21	120.977
1457.77	154.005
1461.32	80.292
1464.87	37.006
1468.42	7.265
1471.96	2.449
1475.51	26.427
1479.06	29.332
1482.6	32.229
1486.14	45.156
1489.68	82.047
1493.22	74.427
1496.75	63.091
1500.29	64.999
1503.82	40.012
1507.35	27.397
1510.88	23.115
1514.41	4.066
1517.94	17.896
