Measurement: Raman, 514 nm, ccw, Raman Data Processed
Mineral: Gypsum
Rruff sample: R040029
Ideal chemistry: CaSO_4_2H_2_O
Locality: Twin Buttes, Pima County, Arizona, USA
Source: University of Arizona Mineral Museum
Description: Colorless prismatic crystal
Pin_id: M00440
Orientation: Laser parallel to -b* (0 -1 0). Fiducial mark perpendicular to laser is parallel to -c [0 0 -1]
Raman shift (cm-1)	intensity
80.823	0
85.009	15.485
89.193	74.973
93.375	105.193
97.554	116.615
101.732	135.48
105.908	365.324
110.082	282.765
114.254	479.854
118.424	615.013
122.592	452.74
126.758	821.728
130.922	1158.91
135.083	784
139.243	1084.91
143.401	1503.09
147.557	788.185
151.711	299.771
155.863	136.597
160.013	122.362
164.161	87.405
168.308	96.861
172.452	179.062
176.594	353.726
180.734	434.116
184.872	251.618
189.008	134.54
193.143	97.564
197.275	116.184
201.405	270.876
205.534	548.584
209.66	795.797
213.784	539.202
217.907	282.355
222.027	189.068
226.146	118.073
230.263	86.013
234.377	59.608
238.49	58.746
242.601	22.899
246.709	9.973
250.816	41.197
254.921	41.568
259.024	14.421
263.125	33.013
267.224	10.246
271.321	5.286
275.416	10.178
279.51	16.039
283.601	7.348
287.69	13.334
291.778	29.781
295.863	10.227
299.947	35.681
304.029	2.888
308.108	68.518
312.186	85.921
316.262	95.309
320.336	21.678
324.408	23.028
328.478	22.648
332.546	46.384
336.612	26.758
340.677	12.148
344.739	10.828
348.799	19.739
352.858	2.377
356.915	10.598
360.969	20.101
365.022	26.771
369.073	18.417
373.122	2.067
377.169	52.362
381.215	50.782
385.258	6.137
389.299	56.45
393.339	94.749
397.376	145.04
401.412	182.343
405.446	510.675
409.478	1233.8
413.508	1667.19
417.536	605.003
421.562	180.304
425.586	70.724
429.609	95.419
433.629	84.634
437.648	42.649
441.665	32.189
445.68	58.6
449.693	119.289
453.704	39.579
457.713	61.987
461.721	127.631
465.726	157.222
469.73	189.676
473.731	334.125
477.731	480.568
481.729	853.003
485.725	1750.43
489.72	3517.61
493.712	3471.99
497.703	1590
501.691	767.898
505.678	441.012
509.663	271.24
513.646	202.663
517.627	136.038
521.607	147.988
525.584	43.063
529.56	143.074
533.534	88.498
537.506	96.41
541.476	82.022
545.444	133.399
549.41	63.996
553.375	97.473
557.337	152.018
561.298	234.551
565.257	259.118
569.214	353.673
573.17	379.97
577.123	419.857
581.075	481.466
585.024	564.121
588.972	713.821
592.918	688.538
596.863	735.291
600.805	883.057
604.746	991.829
608.685	1356.39
612.621	1687.25
616.557	2260.24
620.49	2190.22
624.421	1571.22
628.351	766.649
632.279	369.657
636.205	218.585
640.129	121.608
644.051	149.484
647.972	98.356
651.89	136.459
655.807	26.5
659.722	79.56
663.636	90.709
667.547	81.748
671.457	2.802
675.365	67.863
679.271	77.985
683.175	75.989
687.077	65.183
690.978	2.311
694.877	24.476
698.774	29.503
702.669	1.805
706.562	67.187
710.454	0.152
714.344	54.611
718.232	32.496
722.118	49.219
726.002	32.579
729.885	47.388
733.766	13.631
737.645	58.396
741.522	82.014
745.397	29.863
749.271	23.544
753.143	35.206
757.013	27.985
760.881	12.611
764.748	74.316
768.613	57.996
772.476	35.482
776.337	14.052
780.196	11.312
784.054	39.643
787.91	84.893
791.764	34.125
795.616	27.339
799.467	42.533
803.316	46.712
807.163	16.868
811.008	15.027
814.851	17.163
818.693	71.272
822.533	31.353
826.371	61.043
830.208	27.072
834.042	49.072
837.875	55.045
841.706	28.989
845.536	22.905
849.363	64.186
853.189	7.958
857.013	58.723
860.836	81.506
864.656	3.793
868.475	79.925
872.292	1.436
876.108	15.145
879.922	68.732
883.733	20.601
887.544	4.911
891.352	38.52
895.159	33.955
898.964	41.509
902.767	46.964
906.568	62.396
910.368	74.802
914.166	102.142
917.962	178.211
921.757	126.59
925.55	83.964
929.341	116.022
933.13	114.597
936.918	176.379
940.703	164.743
944.488	118.821
948.27	105.121
952.051	164.192
955.83	158.43
959.607	134.618
963.383	233.057
967.156	249.115
970.928	263.172
974.699	450.207
978.468	475.274
982.234	668.29
986	913.309
989.763	1297.3
993.525	1620.23
997.285	2852.11
1001.04	6211.96
1004.8	26856.2
1008.55	51790.1
1012.31	10382.1
1016.06	3257.67
1019.81	1584.9
1023.56	922.012
1027.31	622.467
1031.05	437.29
1034.79	310.997
1038.53	298.952
1042.27	250.164
1046.01	173.687
1049.75	132.032
1053.48	65.036
1057.22	81.823
1060.95	100.228
1064.68	98.064
1068.4	85.69
1072.13	6.591
1075.86	18.189
1079.58	13.785
1083.3	86.394
1087.02	99.006
1090.74	84.423
1094.45	59.817
1098.17	3.137
1101.88	31.546
1105.59	42.56
1109.3	50.586
1113.01	82.774
1116.71	48.703
1120.42	130.098
1124.12	226.79
1127.82	247.485
1131.52	461.169
1135.22	1162.11
1138.91	1893.69
1142.61	2164.22
1146.3	1251.86
1149.99	533.238
1153.68	227.882
1157.37	170.677
1161.06	66.227
1164.74	113.318
1168.42	29.668
1172.1	94.897
1175.78	64.59
1179.46	66.1
1183.14	55.502
1186.81	22.442
1190.48	1.708
1194.15	18.301
1197.83	35.992
1201.49	79.267
1205.16	81.481
1208.82	53.862
1212.49	78.136
1216.15	15.202
1219.81	51.856
1223.46	113.559
1227.12	59.337
1230.78	92.991
1234.43	70.596
1238.08	79.833
1241.73	92.32
1245.38	124.125
1249.03	104.956
1252.67	88.633
1256.31	13.293
1259.95	50.785
1263.6	71.423
1267.23	25.053
1270.87	55.497
1274.51	35.787
1278.14	42.927
1281.77	54.958
1285.4	59.884
1289.03	14.709
1292.66	108.438
1296.28	43.931
1299.91	12.564
1303.53	42.96
1307.15	53.411
1310.77	42.291
1314.38	9.672
1318	71.523
1321.61	29.023
1325.23	127.674
1328.84	87.15
1332.45	61.327
1336.06	68.674
1339.66	53.827
1343.27	40.755
1346.87	116.003
1350.47	142.204
1354.07	157.446
1357.67	138.534
1361.26	109.526
1364.86	72.448
1368.45	58.72
1372.04	180.536
1375.63	105.473
1379.22	115.483
1382.81	122.316
1386.39	148.622
1389.98	134.228
1393.56	146.281
1397.14	74.113
1400.72	80.878
1404.3	107.983
1407.87	112.963
1411.45	113.736
1415.02	170.875
1418.59	143.083
1422.16	143
1425.73	55.082
1429.29	58.332
1432.86	148.072
1436.42	198.36
1439.98	187.241
1443.54	307.326
1447.1	174.952
1450.66	266.843
1454.21	337.65
1457.77	221.302
1461.32	227.448
1464.87	174.875
1468.42	188.878
1471.96	92.302
1475.51	146.04
1479.06	77.957
1482.6	146.077
1486.14	106.119
1489.68	59.011
1493.22	60.036
1496.75	61.581
1500.29	59.683
1503.82	101.463
1507.35	77.157
1510.88	47.074
1514.41	1.936
1517.94	45.145
1521.46	0
