Measurement: Raman, 514 nm, ccw, Raman Data Processed
Mineral: Gypsum
Rruff sample: R040029
Ideal chemistry: CaSO_4_2H_2_O
Locality: Twin Buttes, Pima County, Arizona, USA
Source: University of Arizona Mineral Museum
Description: Colorless prismatic crystal
Pin_id: L00273
Orientation: Laser parallel to -a [-1 0 0]. Fiducial mark perpendicular to laser is parallel to b* (0 1 0)
Raman shift (cm-1)	intensity
83.614	0
87.798	3.292
91.981	107.309
96.161	115.374
100.34	137.274
104.516	317.127
108.691	498.48
112.864	319.762
117.034	497.951
121.203	516.493
125.369	364.155
129.534	632.396
133.696	398.696
137.857	396.1
142.016	679.191
146.172	523.875
150.327	245.446
154.48	130.997
158.63	147.353
162.779	79.343
166.926	93.658
171.07	233.592
175.213	432.196
179.354	665.874
183.493	482.824
187.63	241.231
191.765	113.194
195.898	77.412
200.029	179.713
204.158	235.18
208.285	381.395
212.41	323.278
216.533	261.606
220.654	116.682
224.773	88.904
228.891	38.391
233.006	62.599
237.119	20.146
241.231	70.699
245.34	24.341
249.448	1.025
253.553	44.452
257.657	17.173
261.758	55.687
265.858	57.767
269.956	60.512
274.052	8.379
278.146	38.536
282.237	61.939
286.327	34.534
290.416	75.296
294.502	11.209
298.586	26.26
302.668	55.436
306.749	89.725
310.827	112.119
314.903	161.127
318.978	103.181
323.051	70.825
327.121	22.519
331.19	15.251
335.257	39.016
339.322	60.839
343.385	17.734
347.446	68.324
351.505	43.58
355.563	2.468
359.618	30.475
363.672	33.445
367.723	90.678
371.773	54.17
375.821	4.929
379.866	9.947
383.91	25.128
387.952	44.2
391.992	44.262
396.031	119.312
400.067	108.902
404.101	133.133
408.134	188.706
412.165	219.529
416.193	160.49
420.22	92.136
424.245	76.855
428.268	60.639
432.289	147.475
436.309	141.359
440.326	24.29
444.342	110.565
448.355	68.038
452.367	143.062
456.377	109.183
460.385	94.355
464.391	192.528
468.395	204.8
472.398	426.1
476.398	490.449
480.397	967.833
484.394	1862.25
488.389	4003.43
492.382	5740.72
496.373	3140.07
500.362	1392.03
504.349	763.985
508.335	419.544
512.319	317.077
516.3	253.517
520.28	189.599
524.259	148.38
528.235	107.053
532.209	70.676
536.182	55.952
540.152	105.993
544.121	42.489
548.088	40.19
552.053	74.013
556.017	71.335
559.978	101.351
563.938	123.053
567.895	166.774
571.851	198.651
575.805	249.36
579.758	339.225
583.708	321.917
587.657	378.59
591.603	436.618
595.548	399.645
599.491	428.304
603.432	533.081
607.372	594.907
611.309	852.338
615.245	1226.82
619.179	1485.11
623.111	1015.53
627.041	645.004
630.97	328.661
634.896	118.672
638.821	155.373
642.744	173.631
646.665	146.187
650.584	39.758
654.502	108.034
658.418	139.325
662.331	2.806
666.244	143.685
670.154	165.95
674.062	86.131
677.969	18.279
681.874	75.271
685.777	38.07
689.678	40.803
693.577	113.546
697.475	3.134
701.371	60.666
705.265	90.143
709.157	89.905
713.047	82.634
716.936	2.474
720.823	90.64
724.708	26.458
728.591	74.259
732.472	29.916
736.352	70.366
740.23	56.799
744.106	131.272
747.98	50.598
751.853	46.871
755.723	51.088
759.592	66.299
763.459	1.402
767.325	16.576
771.188	5.655
775.05	43.167
778.91	49.897
782.768	14.56
786.625	29.834
790.479	22.765
794.332	8.805
798.183	37.541
802.033	112.836
805.88	99.081
809.726	15.268
813.57	78.86
817.413	6.681
821.253	12.616
825.092	56.578
828.929	35.495
832.764	28.847
836.598	60.767
840.429	118.441
844.259	136.083
848.088	50.691
851.914	47.297
855.739	165.594
859.562	86.101
863.383	166.458
867.203	71.961
871.02	51.492
874.836	54.95
878.65	20.638
882.463	49.738
886.274	24.812
890.083	55.663
893.89	3.793
897.695	51.752
901.499	54.511
905.301	86.145
909.102	0.269
912.9	62.194
916.697	67.784
920.492	134.791
924.285	95.216
928.077	41.27
931.867	84.017
935.655	107.392
939.442	7.521
943.226	73.962
947.009	205.317
950.791	226.893
954.57	170.557
958.348	72.85
962.124	132.257
965.899	204.986
969.671	286.089
973.442	300.121
977.211	403.85
980.979	389.428
984.745	598.029
988.509	1007.84
992.271	1162.68
996.032	1892.6
999.791	3796.55
1003.55	11746.6
1007.3	49977.8
1011.06	15111.9
1014.81	3702
1018.56	1528.01
1022.31	883.907
1026.06	545.646
1029.8	423.74
1033.55	377.25
1037.29	235.468
1041.03	281.375
1044.77	138.805
1048.5	126.297
1052.24	102.875
1055.97	105.648
1059.7	99.882
1063.43	108.345
1067.16	173.831
1070.89	132.609
1074.61	256.754
1078.34	206.229
1082.06	91.525
1085.78	74.063
1089.5	110.288
1093.21	89.449
1096.93	128.296
1100.64	95.095
1104.35	208.09
1108.06	127.121
1111.77	286.803
1115.48	463.85
1119.18	482.542
1122.89	432.264
1126.59	398.188
1130.29	281.858
1133.99	345.3
1137.68	895.821
1141.38	1070.32
1145.07	828.875
1148.76	370.201
1152.45	177.719
1156.14	105.999
1159.83	106.615
1163.51	53.442
1167.19	38.995
1170.88	98.514
1174.56	99.293
1178.23	117.607
1181.91	15.694
1185.59	46.466
1189.26	1.431
1192.93	7.834
1196.6	152.454
1200.27	96.518
1203.94	113.924
1207.6	51.212
1211.27	89.236
1214.93	125.837
1218.59	94.992
1222.25	9.224
1225.9	87.213
1229.56	56.989
1233.21	164.569
1236.86	227.985
1240.51	204.244
1244.16	140.604
1247.81	137.116
1251.45	58.369
1255.1	139.832
1258.74	147.055
1262.38	81.017
1266.02	15.289
1269.66	28.072
1273.29	126.111
1276.93	82.581
1280.56	98.317
1284.19	123.535
1287.82	125.504
1291.45	8.173
1295.07	48.589
1298.7	10.793
1302.32	7.637
1305.94	15.331
1309.56	3.756
1313.18	65.46
1316.8	157.044
1320.41	138.154
1324.02	167.001
1327.63	11.293
1331.24	37.485
1334.85	98.178
1338.46	15.103
1342.06	10.117
1345.67	92.097
1349.27	60.979
1352.87	199.816
1356.47	174.676
1360.07	228.352
1363.66	218.319
1367.25	201.284
1370.85	170.149
1374.44	121.626
1378.03	114.882
1381.61	136.364
1385.2	192.751
1388.78	135.076
1392.37	31.426
1395.95	85.531
1399.53	185.472
1403.1	153.12
1406.68	140.429
1410.26	72.534
1413.83	174.628
1417.4	117.268
1420.97	198.469
1424.54	158.109
1428.1	150.882
1431.67	183.652
1435.23	255.887
1438.8	164.484
1442.36	272.121
1445.91	232.646
1449.47	190.943
1453.03	240.885
1456.58	291.666
1460.13	296.796
1463.68	340.734
1467.23	104.137
1470.78	150.435
1474.33	74.192
1477.87	139.423
1481.42	50.774
1484.96	68.267
1488.5	168.224
1492.04	175.944
1495.57	171.329
1499.11	115.742
1502.64	100.175
1506.17	21.907
1509.71	63.342
1513.23	35.047
1516.76	61.358
