Measurement: Raman, 514 nm, ccw, Raman Data Processed
Mineral: Gypsum
Rruff sample: R060509
Ideal chemistry: CaSO_4_2H_2_O
Locality: Pierre Shale, Hermosa, Custer County, South Dakota, USA
Source: Michael Scott
Description: Colorless tabular single crystal
Pin_id: L01683
Orientation: Laser parallel to c* (0 0 1). Fiducial mark perpendicular to laser is parallel to -a [-1 0 0]
Raman shift (cm-1)	intensity
155.894	0
160.834	36.5583
165.771	165.155
170.705	239.675
175.635	469.657
180.563	737.884
185.487	583.507
190.409	167.708
195.327	92.2024
200.242	102.147
205.155	148.94
210.064	188.3
214.97	160.963
219.873	81.9375
224.773	89.814
229.67	1.15845
234.564	19.5764
239.455	33.9795
244.342	12.4597
249.227	8.50989
254.109	33.127
258.988	49.1785
263.864	26.1896
268.736	29.3812
273.606	20.1036
278.473	27.5348
283.337	3.17212
288.197	34.0631
293.055	75.21
297.91	19.3212
302.762	58.6189
307.611	63.0459
312.456	29.688
317.299	35.1355
322.139	19.2938
326.976	34.0681
331.81	17.4576
336.641	10.5176
341.469	76.0361
346.294	0.995361
351.116	40.4614
355.936	21.7834
360.752	56.8733
365.565	9.20898
370.376	59.3533
375.183	61.7338
379.988	22.1578
384.789	55.1666
389.588	121.335
394.384	207.932
399.177	355.995
403.967	993.494
408.754	2244.23
413.538	4426.98
418.319	3689.09
423.097	1206.29
427.873	515.8
432.646	226.46
437.415	177.527
442.182	154.459
446.946	76.5115
451.707	24.7205
456.465	51.8169
461.221	75.1081
465.973	71.2146
470.723	33.1047
475.47	94.209
480.214	100.338
484.955	217.614
489.693	548.113
494.429	684.064
499.161	475.365
503.891	227.616
508.618	141.774
513.342	30.4663
518.063	52.124
522.782	2.8689
527.497	55.1907
532.21	31.5642
536.92	41.8042
541.627	7.7168
546.332	36.8767
551.034	12.4504
555.732	19.2891
560.428	67.1199
565.122	100.027
569.812	86.029
574.5	112.097
579.185	133.364
583.867	206.563
588.546	236.472
593.223	264.811
597.897	265.285
602.568	397.66
607.236	386.068
611.902	478.703
616.565	613.042
621.225	651.08
625.882	418.69
630.537	244.516
635.189	192.735
639.838	137.606
644.484	125.391
649.128	184.002
653.769	143.838
658.407	152.975
663.043	291.532
667.676	474.406
672.306	660.602
676.933	287.465
681.558	205.249
686.18	117.493
690.799	134.233
695.416	92.7432
700.03	89.5125
704.641	34.9871
709.25	79.5105
713.856	2.1919
718.459	70.8315
723.059	29.5354
727.657	27.9482
732.253	39.45
736.845	61.6919
741.435	48.7842
746.022	31.8625
750.607	30.2969
755.189	20.2622
759.768	15.8276
764.345	52.4368
768.919	67.1321
773.49	28.7524
778.059	104.294
782.625	64.001
787.189	34.2329
791.749	51.2893
796.308	13.3279
800.863	80.6919
805.416	43.6638
809.967	99.4802
814.515	22.2036
819.06	10.8528
823.603	7.60181
828.143	87.8357
832.68	64.2261
837.215	121.575
841.747	104.852
846.277	63.0588
850.804	134.068
855.328	85.1589
859.85	46.9868
864.37	74.5129
868.886	29.4902
873.401	45.1272
877.912	101.957
882.421	0.254883
886.928	59.4722
891.432	44.1411
895.933	10.2505
900.432	35.8101
904.929	67.1272
909.423	12.9358
913.914	0.63916
918.403	82.9458
922.889	60.387
927.373	2.10571
931.854	58.1929
936.332	6.70459
940.809	12.968
945.282	48.3757
949.753	69.6631
954.222	15.5835
958.688	97.4587
963.152	141.755
967.613	211.555
972.071	253.264
976.527	333.719
980.981	548.978
985.432	802.542
989.881	1325.01
994.327	2048.49
998.771	5201.06
1003.21	20045.5
1007.65	49083.3
1012.09	19863.1
1016.52	3853.45
1020.95	1587.37
1025.38	905.295
1029.81	455.595
1034.23	348.869
1038.65	160.058
1043.07	163.416
1047.49	133.514
1051.9	4.03198
1056.31	38.5442
1060.72	83.0508
1065.13	7.28735
1069.54	0.453613
1073.94	0.753418
1078.34	4.83472
1082.73	33.7602
1087.13	41.8506
1091.52	70.0374
1095.91	40.3533
1100.3	71.7195
1104.68	31.6602
1109.07	63.176
1113.45	184.785
1117.82	286.053
1122.2	579.867
1126.57	1098.78
1130.94	2707.77
1135.31	4414.84
1139.68	3851.99
1144.04	2412.24
1148.4	1164.59
1152.76	537.018
1157.12	283.524
1161.47	254.41
1165.82	243.102
1170.17	78.8694
1174.52	101.709
1178.87	132.493
1183.21	76.4058
1187.55	52.457
1191.88	79.0247
1196.22	79.9287
1200.55	114.104
1204.88	58.4228
1209.21	21.3159
1213.54	77.4773
1217.86	30.9634
1222.18	35.5344
1226.5	83.1199
1230.82	2.73706
1235.13	109.957
1239.44	24.7124
1243.75	9.23584
1248.06	23.4148
1252.37	102.925
1256.67	59.4849
1260.97	41.3328
1265.27	59.3193
1269.56	58.9502
1273.86	53.9233
1278.15	49.3545
1282.44	66.3999
1286.72	11.4399
1291.01	47.4868
1295.29	67.5281
1299.57	63.6765
1303.85	51.6082
1308.12	16.7131
1312.39	25.6811
1316.67	6.34229
1320.93	99.6555
1325.2	43.748
1329.46	23.8396
1333.73	143.838
1337.98	5.56592
1342.24	13.8103
1346.5	145.72
1350.75	16.717
1355	47.5525
1359.25	59.2798
1363.49	10.3979
1367.74	132.348
1371.98	76.0794
1376.22	78.2031
1380.46	45.0776
1384.69	98.9407
1388.92	47.198
1393.15	44.9253
1397.38	139.441
1401.61	11.8303
1405.83	31.6348
1410.05	119.117
1414.27	54.4531
1418.49	86.636
1422.7	38.5967
1426.92	80.4243
1431.13	42.8931
1435.34	57.3081
1439.54	114.519
1443.75	105.993
1447.95	47.1589
1452.15	126.384
1456.35	93.3811
1460.54	26.8965
1464.73	92.3726
1468.92	139.203
1473.11	112.527
1477.3	69.0183
1481.48	179.692
1485.67	109.498
1489.85	96.9861
1494.02	63.3086
1498.2	80.936
1502.37	62.8477
1506.55	152.77
1510.71	1.11523
1514.88	60.6099
1519.05	67.2764
1523.21	81.4263
1527.37	81.9863
1531.53	84.5967
1535.68	97.3564
1539.84	19.5874
1543.99	86.0156
1548.14	65.3818
1552.29	44.4756
1556.44	44.0796
1560.58	0.251465
