Measurement: Raman, 514 nm, ccw, Raman Data Processed
Mineral: Gypsum
Rruff sample: R060509
Ideal chemistry: CaSO_4_2H_2_O
Locality: Pierre Shale, Hermosa, Custer County, South Dakota, USA
Source: Michael Scott
Description: Colorless tabular single crystal
Pin_id: L01683
Orientation: Laser parallel to c* (0 0 1). Fiducial mark perpendicular to laser is parallel to -a [-1 0 0]
Raman shift (cm-1)	intensity
158.365	0
163.303	181.429
168.238	404.807
173.17	867.901
178.1	1785.71
183.026	2026.03
187.948	913.529
192.868	331.566
197.785	164.151
202.699	182.706
207.609	179.749
212.517	192.436
217.422	124.973
222.323	86.1718
227.222	7.93408
232.117	2.74268
237.01	34.8955
241.899	8.81751
246.785	11.4059
251.669	27.9027
256.549	49.6521
261.426	34.1926
266.3	4.26623
271.172	38.6
276.04	11.193
280.905	2.26392
285.767	12.9956
290.627	19.3335
295.483	10.8273
300.336	9.09558
305.186	18.1834
310.034	42.3696
314.878	89.198
319.72	62.8257
324.558	106.977
329.393	107.498
334.226	35.6
339.055	69.4751
343.882	79.6742
348.706	64.1459
353.526	48.7737
358.344	63.8644
363.159	128.403
367.971	40.1777
372.78	115.964
377.586	100.887
382.389	86.8147
387.189	176.674
391.986	173.455
396.78	252.221
401.572	514.547
406.36	1264.27
411.146	2578.09
415.929	3808.47
420.709	1610.09
425.486	519.864
430.26	254.151
435.031	120.472
439.799	79.2173
444.564	93.428
449.327	73.6516
454.087	92.7978
458.843	50.6409
463.597	15.9236
468.348	38.0671
473.097	35.2302
477.842	134.042
482.585	266.856
487.324	471.728
492.061	872.259
496.795	832.067
501.526	476.144
506.255	179.191
510.98	110.952
515.703	29.0723
520.423	10.6399
525.14	40.2563
529.854	36.1548
534.566	29.6582
539.274	35.2947
543.98	4.91455
548.683	52.9558
553.383	87.2192
558.081	58.1116
562.775	76.3813
567.467	122.823
572.156	114.491
576.843	142.083
581.526	89.6846
586.207	159.089
590.885	150.886
595.56	117.912
600.233	133.206
604.902	222.163
609.569	263.118
614.234	490.683
618.895	698.458
623.554	514.676
628.21	296.324
632.863	101.443
637.514	130.273
642.161	60.6328
646.806	47.0144
651.449	44.4011
656.088	38.1045
660.725	136.403
665.36	439.297
669.991	831.773
674.62	531.215
679.246	162.143
683.869	88.4756
688.49	40.7983
693.108	90.2705
697.723	77.1169
702.336	65.5261
706.946	48.083
711.553	19.1558
716.158	21.6782
720.759	37.3965
725.359	40.4326
729.955	45.4207
734.549	34.3716
739.14	30.2515
743.729	7.06177
748.315	3.16846
752.898	76.5347
757.479	87.9553
762.057	7.01172
766.632	64.8132
771.205	101.208
775.775	49.9001
780.342	95.1763
784.907	73.4287
789.469	49.8394
794.029	91.9568
798.586	86.0066
803.14	56.1494
807.692	29.062
812.241	11.9231
816.788	75.7134
821.332	37.448
825.873	126.877
830.412	8.80762
834.948	64.9006
839.481	40.3716
844.012	75.7192
848.541	67.0166
853.066	46.8552
857.59	63.6628
862.11	64.23
866.628	42.4231
871.144	61.9243
875.657	50.0855
880.167	37.0964
884.675	14.9534
889.18	7.56958
893.683	11.5335
898.183	2.32227
902.681	47.1299
907.176	3.39526
911.669	50.7363
916.159	1.16943
920.646	56.6008
925.131	26.0371
929.613	39.1128
934.093	44.5701
938.571	18.3516
943.046	43.7805
947.518	58.9656
951.988	19.2095
956.455	32.303
960.92	55.1323
965.382	99.1782
969.842	123.669
974.3	166.175
978.754	254.712
983.207	375.331
987.657	583.995
992.104	954.712
996.549	1665.46
1000.99	5659.24
1005.43	20058.1
1009.87	25598.9
1014.3	4921.86
1018.74	1437.52
1023.17	611.106
1027.59	396.29
1032.02	247.583
1036.44	157.871
1040.86	156.884
1045.28	120.309
1049.7	112.368
1054.11	114.638
1058.52	108.272
1062.93	93.1409
1067.33	63.4314
1071.74	57.3799
1076.14	128.246
1080.54	60.5828
1084.93	174.937
1089.33	176.751
1093.72	219.144
1098.11	228.304
1102.49	256.543
1106.88	262.852
1111.26	473.268
1115.64	584.903
1120.01	776.434
1124.39	756.026
1128.76	1218.7
1133.13	2454.43
1137.49	2345.2
1141.86	1060.05
1146.22	476.146
1150.58	287.297
1154.94	155.939
1159.3	95.1226
1163.65	78.4014
1168	30.7754
1172.35	43.1426
1176.69	68.5535
1181.04	10.0156
1185.38	17.4221
1189.72	36.8887
1194.05	31.5083
1198.39	8.64111
1202.72	81.115
1207.05	40.6143
1211.38	157.114
1215.7	82.5901
1220.02	6.93091
1224.34	56.5674
1228.66	57.0869
1232.97	34.7529
1237.29	39.3472
1241.6	83.9228
1245.91	79.5066
1250.21	45.8425
1254.52	67.2041
1258.82	55.8269
1263.12	22.4719
1267.41	4.11377
1271.71	6.23828
1276	8.37256
1280.29	10.0518
1284.58	50.4783
1288.87	51.103
1293.15	42.6294
1297.43	52.1367
1301.71	31.6228
1305.98	58.104
1310.26	60.6352
1314.53	80.0242
1318.8	35.0737
1323.07	7.302
1327.33	72.1084
1331.6	69.2222
1335.86	25.6352
1340.11	20.6052
1344.37	39.5815
1348.62	92.0488
1352.88	20.3845
1357.12	30.6345
1361.37	57.8696
1365.62	108.307
1369.86	106.471
1374.1	89.4661
1378.34	134.012
1382.57	166.146
1386.81	17.3757
1391.04	27.6675
1395.27	47.7688
1399.49	64.5537
1403.72	120.067
1407.94	88.4167
1412.16	49.0327
1416.38	28.177
1420.6	48.5342
1424.81	48.5488
1429.02	99.6482
1433.23	36.3733
1437.44	81.6343
1441.64	71.4058
1445.85	101.904
1450.05	121.294
1454.25	83.7334
1458.44	52.2483
1462.64	24.3909
1466.83	52.9531
1471.02	106.279
1475.21	10.0674
1479.39	35.1765
1483.58	63.3135
1487.76	130.562
1491.93	45.6741
1496.11	83.9387
1500.29	90.2219
1504.46	61.5933
1508.63	20.0056
1512.8	24.3079
1516.96	102.885
1521.13	42.7766
1525.29	62.1196
1529.45	156.844
1533.61	103.92
1537.76	59.1777
1541.92	34.2234
1546.07	129.605
1550.22	101.648
1554.36	138.453
1558.51	69.906
1562.65	0
