Measurement: Raman, 514 nm, ccw, Raman Data Processed
Mineral: Gypsum
Rruff sample: R040029
Ideal chemistry: CaSO_4_2H_2_O
Locality: Twin Buttes, Pima County, Arizona, USA
Source: University of Arizona Mineral Museum
Description: Colorless prismatic crystal
Pin_id: M00440
Orientation: Laser parallel to -b* (0 -1 0). Fiducial mark perpendicular to laser is parallel to -c [0 0 -1]
Raman shift (cm-1)	intensity
78.031	0
82.218	93.891
86.404	96.515
90.587	134.967
94.768	196.068
98.947	219.811
103.124	408.52
107.3	784.397
111.473	441.93
115.644	575.257
119.813	457.686
123.981	517.426
128.146	945.188
132.309	972.872
136.47	675.441
140.63	1068.48
144.787	1007.27
148.942	556.646
153.096	283.078
157.247	209.747
161.396	221.984
165.544	230.329
169.689	385.991
173.833	653.225
177.974	1090.43
182.114	833.631
186.251	433.431
190.387	215.545
194.52	189.795
198.652	260.89
202.782	322.815
206.909	607.039
211.035	652.533
215.159	408.88
219.281	261.909
223.4	141.823
227.518	91.61
231.634	91.296
235.748	87.274
239.86	47.783
243.97	12.9
248.079	46.436
252.185	33.435
256.289	16.242
260.391	16.444
264.492	0.86
268.59	13.612
272.687	7.066
276.781	5.565
280.874	19.163
284.964	21.104
289.053	15.219
293.14	31.168
297.225	31.908
301.308	70.428
305.389	86.765
309.468	218.927
313.545	193.891
317.62	172.648
321.693	60.198
325.765	42.556
329.834	29.091
333.902	41.402
337.967	2.066
342.031	31.824
346.093	51.122
350.153	20.847
354.21	31.925
358.267	11.792
362.321	27.672
366.373	33.659
370.423	12.697
374.471	11.331
378.518	10.575
382.563	33.534
386.605	68.233
390.646	79.734
394.685	92.13
398.722	180.46
402.757	426.749
406.79	976.008
410.821	2628.24
414.851	2319.41
418.878	826.517
422.904	370.294
426.927	298.626
430.949	177.467
434.969	179.176
438.987	104.594
443.003	152.032
447.018	201.171
451.03	105.921
455.041	190.359
459.049	187.511
463.056	197.013
467.061	310.498
471.064	400.966
475.065	625.422
479.064	1037.87
483.062	1778.32
487.057	3847.78
491.051	6671.88
495.043	4850.27
499.032	2298.18
503.02	1211.58
507.007	680.115
510.991	553.642
514.973	356.758
518.954	351.036
522.933	223.929
526.91	266.374
530.885	204.33
534.858	181.904
538.829	188.051
542.799	144.948
546.766	145.398
550.732	266.79
554.696	212.508
558.658	262.362
562.618	328.363
566.576	275.532
570.533	346.885
574.488	442.416
578.44	507.146
582.391	553.12
586.341	662.319
590.288	637.773
594.233	645.49
598.177	710.484
602.119	801.744
606.059	951.28
609.997	1211.1
613.933	1570.18
617.868	1878.72
621.801	1702.11
625.731	1074.9
629.66	600.872
633.588	386.022
637.513	320.37
641.437	323.928
645.358	207.69
649.278	311.675
653.196	291.944
657.113	270.488
661.027	176.266
664.94	140.323
668.851	306.669
672.76	245.242
676.667	200.031
680.572	234.054
684.476	228.299
688.378	221.739
692.278	96.375
696.176	208.404
700.072	167.646
703.967	175.891
707.86	77.779
711.751	232.116
715.64	74.196
719.527	79.07
723.413	117.537
727.297	73.182
731.179	194.872
735.059	140.973
738.937	130.686
742.814	154.773
746.689	109.416
750.562	227.253
754.433	152.121
758.303	62.856
762.17	119.521
766.036	117.332
769.901	132.407
773.763	104.502
777.624	203.679
781.482	121.625
785.339	81.699
789.195	109.284
793.048	140.271
796.9	67.036
800.75	172.161
804.598	76.936
808.445	82.673
812.289	102.693
816.132	46.33
819.973	57.891
823.813	63.369
827.65	103.643
831.486	74.048
835.32	64.238
839.152	59.317
842.983	8.281
846.812	38.124
850.639	94.834
854.464	65.405
858.288	16.171
862.11	20.913
865.93	63.167
869.748	15.08
873.564	33.785
877.379	33.23
881.192	25.564
885.004	10.636
888.813	46.016
892.621	5.68
896.427	55.937
900.232	30.849
904.034	65.175
907.835	27.536
911.634	76.153
915.432	39.902
919.227	12.676
923.021	38.479
926.813	37.764
930.604	82.915
934.393	32.262
938.18	49.976
941.965	4.176
945.749	34.594
949.53	80.716
953.311	52.298
957.089	75.536
960.866	118.83
964.641	166.075
968.414	172.098
972.185	257.873
975.955	338.396
979.723	380.669
983.49	485.692
987.254	861.465
991.017	1168.99
994.779	1670.26
998.538	2924.28
1002.3	8192.81
1006.05	39628.1
1009.81	28695.5
1013.56	5790.6
1017.31	2174.35
1021.06	1138.17
1024.81	714.243
1028.55	491.519
1032.3	328.619
1036.04	245.235
1039.78	238.155
1043.52	200.445
1047.26	66.9
1050.99	94.661
1054.73	58.357
1058.46	39.706
1062.19	38.017
1065.92	16.807
1069.65	21.234
1073.37	4.364
1077.1	64.781
1080.82	93.772
1084.54	58.624
1088.26	8.014
1091.97	22.166
1095.69	25.492
1099.4	21.936
1103.12	17.347
1106.83	72.236
1110.54	104.593
1114.24	74.43
1117.95	92.302
1121.65	207.069
1125.35	162.735
1129.06	429.306
1132.75	689.785
1136.45	1279.18
1140.15	2196.49
1143.84	1915.72
1147.53	1083.89
1151.22	473.986
1154.91	347.027
1158.6	219.017
1162.28	169.967
1165.97	94.88
1169.65	148.762
1173.33	95.638
1177.01	44.541
1180.69	94.45
1184.36	47.386
1188.04	64.391
1191.71	185.391
1195.38	133.524
1199.05	108.407
1202.71	49.217
1206.38	166.701
1210.04	153.173
1213.71	124.855
1217.37	126.037
1221.03	109.628
1224.68	189.778
1228.34	206.508
1231.99	128.831
1235.65	138.417
1239.3	161.96
1242.95	114.493
1246.59	188.985
1250.24	141.933
1253.88	146.239
1257.53	44.393
1261.17	133.862
1264.81	153.649
1268.45	138.515
1272.08	109.464
1275.72	141.502
1279.35	128.633
1282.98	135.86
1286.61	193.19
1290.24	127.626
1293.87	163.173
1297.49	90.836
1301.11	187.617
1304.73	148.517
1308.36	202.539
1311.97	134.688
1315.59	17.97
1319.2	207.391
1322.82	160.957
1326.43	164.675
1330.04	133.55
1333.65	151.591
1337.26	76.718
1340.86	156.122
1344.47	205.721
1348.07	170.526
1351.67	179.557
1355.27	202.83
1358.87	166.375
1362.46	176.476
1366.06	212.642
1369.65	155.336
1373.24	137.581
1376.83	128.696
1380.42	228.086
1384	244.505
1387.59	218.306
1391.17	152.444
1394.75	122.792
1398.33	126.347
1401.91	136.114
1405.49	274.101
1409.06	227.312
1412.64	141.753
1416.21	110.431
1419.78	123.348
1423.35	147.51
1426.91	148.919
1430.48	182.456
1434.05	224.485
1437.61	210.63
1441.17	206.972
1444.73	225.376
1448.29	297.923
1451.84	224.674
1455.4	193.823
1458.95	268.399
1462.5	202.418
1466.05	247.9
1469.6	137.874
1473.15	117.37
1476.69	43.424
1480.24	212.084
1483.78	177.438
1487.32	43.383
1490.86	88.841
1494.39	137.18
1497.93	111.847
1501.46	44.874
1505	140.427
1508.53	181.301
1512.06	77.809
1515.59	55.705
1519.11	0.046
