Measurement: Raman, 514 nm, ccw, Raman Data Processed
Mineral: Gypsum
Rruff sample: R040029
Ideal chemistry: CaSO_4_2H_2_O
Locality: Twin Buttes, Pima County, Arizona, USA
Source: University of Arizona Mineral Museum
Description: Colorless prismatic crystal
Pin_id: L00233
Orientation: Laser parallel to [-1 0 -1]. Fiducial mark perpendicular to laser is parallel to -b* (0 -1 0)
Raman shift (cm-1)	intensity
90.587	0
94.768	3.556
98.947	159.654
103.124	400.406
107.3	893.133
111.473	458.525
115.644	459.031
119.813	339.369
123.981	319.566
128.146	344.605
132.309	455.508
136.47	317.077
140.63	668.094
144.787	643.98
148.942	217.718
153.096	317.356
157.247	587.176
161.396	1431.66
165.544	681.561
169.689	710.485
173.833	1322.35
177.974	2528.01
182.114	1928.02
186.251	824.019
190.387	443.822
194.52	269.421
198.652	235.436
202.782	137.352
206.909	254.361
211.035	182.831
215.159	165.729
219.281	17.7
223.4	68.931
227.518	33.807
231.634	46.046
235.748	2.846
239.86	1.562
243.97	58.6
248.079	82.538
252.185	48.244
256.289	9.701
260.391	132.492
264.492	34.315
268.59	4.631
272.687	20.194
276.781	55.887
280.874	41.963
284.964	69.378
289.053	11.59
293.14	96.469
297.225	17.953
301.308	44.171
305.389	181.557
309.468	184.439
313.545	232.677
317.62	234.068
321.693	200.906
325.765	154.555
329.834	191.924
333.902	156.024
337.967	127.774
342.031	77.349
346.093	55.764
350.153	159.119
354.21	71.907
358.267	62.169
362.321	78.29
366.373	111.76
370.423	164.691
374.471	198.617
378.518	102.824
382.563	147.717
386.605	208.735
390.646	284.646
394.685	360.874
398.722	537.641
402.757	846.144
406.79	1542.16
410.821	4275.32
414.851	4225.52
418.878	1664.1
422.904	745.096
426.927	487.42
430.949	363.226
434.969	250.475
438.987	191.635
443.003	222.225
447.018	143.736
451.03	11.362
455.041	107.651
459.049	47.931
463.056	68.331
467.061	103.27
471.064	58.24
475.065	126.031
479.064	197.624
483.062	295.184
487.057	603.397
491.051	1038.4
495.043	801.047
499.032	419.641
503.02	303.355
507.007	187.174
510.991	271.158
514.973	147.775
518.954	205.547
522.933	176.039
526.91	203.632
530.885	64.266
534.858	149.325
538.829	81.493
542.799	40.76
546.766	72.553
550.732	221.639
554.696	125.31
558.658	96.642
562.618	63.208
566.576	5.809
570.533	187.533
574.488	183.583
578.44	161.907
582.391	392.896
586.341	148.072
590.288	219.186
594.233	315.793
598.177	193.042
602.119	68.094
606.059	240.451
609.997	120.393
613.933	307.073
617.868	299.943
621.801	557.395
625.731	299.972
629.66	236.359
633.588	243.306
637.513	159.812
641.437	319.111
645.358	405.56
649.278	463.548
653.196	510.874
657.113	470.246
661.027	635.562
664.94	1107.87
668.851	3713.69
672.76	1913.37
676.667	689.426
680.572	297.442
684.476	180.925
688.378	232.938
692.278	149.351
696.176	154.849
700.072	122.193
703.967	135.079
707.86	6.023
711.751	182.795
715.64	19.019
719.527	137.516
723.413	161.316
727.297	136.713
731.179	105.432
735.059	87.064
738.937	180.039
742.814	196.026
746.689	1.36
750.562	240.97
754.433	41.459
758.303	80.16
762.17	8.061
766.036	310.877
769.901	197.924
773.763	70.881
777.624	37.723
781.482	18.305
785.339	216.676
789.195	86.906
793.048	15.02
796.9	269.064
800.75	125.852
804.598	108.506
808.445	39.875
812.289	34.035
816.132	24.686
819.973	79.316
823.813	141.02
827.65	141.596
831.486	227.043
835.32	110.373
839.152	392.236
842.983	282.084
846.812	257.742
850.639	230.914
854.464	387.957
858.288	283.309
862.11	479.686
865.93	278.248
869.748	213.02
873.564	139.885
877.379	84.715
881.192	106.881
885.004	217.072
888.813	13.982
892.621	49.514
896.427	134.689
900.232	92.439
904.034	3.084
907.835	280.549
911.634	215.812
915.432	292.014
919.227	71.568
923.021	181.643
926.813	133.693
930.604	162.605
934.393	413.773
938.18	91.734
941.965	118.209
945.749	9.961
949.53	87.539
953.311	212.705
957.089	227.066
960.866	89.562
964.641	153.812
968.414	134.877
972.185	252.24
975.955	255.461
979.723	178.484
983.49	85.037
987.254	533.287
991.017	916.559
994.779	1251.99
998.538	2105.39
1002.3	6309.49
1006.05	28964.6
1009.81	23065.4
1013.56	4478.75
1017.31	1816.29
1021.06	1128.99
1024.81	573.328
1028.55	759.662
1032.3	340.047
1036.04	309.365
1039.78	447.475
1043.52	265.473
1047.26	186.928
1050.99	541.244
1054.73	1451.49
1058.46	1202.77
1062.19	1338.39
1065.92	1021.96
1069.65	462.107
1073.37	293.686
1077.1	135.795
1080.82	350.141
1084.54	249.168
1088.26	201.559
1091.97	177.146
1095.69	13.23
1099.4	356.875
1103.12	24.797
1106.83	210.496
1110.54	271.434
1114.24	109.357
1117.95	45.521
1121.65	381.023
1125.35	536.365
1129.06	1829.43
1132.75	4490.21
1136.45	5992.59
1140.15	2552.93
1143.84	1020.88
1147.53	462.307
1151.22	200.236
1154.91	164.195
1158.6	168.242
1162.28	61.191
1165.97	5.594
1169.65	93.463
1173.33	27.98
1177.01	226.869
1180.69	25.377
1184.36	27.137
1188.04	12.125
1191.71	131.812
1195.38	68.078
1199.05	220.373
1202.71	354.9
1206.38	287.246
1210.04	51.535
1213.71	185.791
1217.37	265.316
1221.03	12.279
1224.68	297.182
1228.34	143.607
1231.99	59.943
1235.65	192.045
1239.3	229.91
1242.95	300.918
1246.59	347.145
1250.24	391.662
1253.88	300.752
1257.53	345.316
1261.17	287.348
1264.81	102.682
1268.45	210.736
1272.08	50.555
1275.72	253.652
1279.35	179.229
1282.98	33.266
1286.61	188.678
1290.24	201.561
1293.87	168.812
1297.49	62.314
1301.11	196.328
1304.73	26.334
1308.36	0.574
1311.97	148.635
1315.59	163.113
1319.2	175.758
1322.82	252.922
1326.43	176.572
1330.04	205.967
1333.65	88.121
1337.26	70.117
1340.86	154.23
1344.47	204.346
1348.07	109.445
1351.67	298.172
1355.27	20.695
1358.87	75.977
1362.46	372.723
1366.06	392.52
1369.65	117.408
1373.24	359.41
1376.83	426.918
1380.42	363.182
1384	358.314
1387.59	304.021
1391.17	376.16
1394.75	133.256
1398.33	437.191
1401.91	354.859
1405.49	644.342
1409.06	541
1412.64	401.152
1416.21	652.156
1419.78	472.74
1423.35	649.256
1426.91	595.756
1430.48	403.484
1434.05	519.092
1437.61	742.748
1441.17	996.516
1444.73	1121.63
1448.29	1236.04
1451.84	1339.36
1455.4	1128.93
1458.95	1112.49
1462.5	1006.35
1466.05	1085.23
1469.6	804.123
1473.15	963.143
1476.69	573.18
1480.24	1057.69
1483.78	749.367
1487.32	556.23
1490.86	527.543
1494.39	458.062
1497.93	647.059
1501.46	75.109
1505	328.172
1508.53	380.238
1512.06	304.41
1515.59	628.016
1519.11	186.953
