Measurement: Raman, 514 nm, ccw, Raman Data Processed
Mineral: Gypsum
Rruff sample: R040029
Ideal chemistry: CaSO_4_2H_2_O
Locality: Twin Buttes, Pima County, Arizona, USA
Source: University of Arizona Mineral Museum
Description: Colorless prismatic crystal
Pin_id: L00233
Orientation: Laser parallel to [-1 0 -1]. Fiducial mark perpendicular to laser is parallel to -b* (0 -1 0)
Raman shift (cm-1)	intensity
94.768	0
98.947	128.536
103.124	213.54
107.3	371.852
111.473	362.341
115.644	396.822
119.813	205.532
123.981	200.568
128.146	55.895
132.309	156.936
136.47	150.385
140.63	210.654
144.787	226.872
148.942	98.283
153.096	53.887
157.247	233.2
161.396	558.256
165.544	323.053
169.689	224.71
173.833	486.343
177.974	923.7
182.114	555.112
186.251	382.833
190.387	189.511
194.52	157.782
198.652	210.005
202.782	133.845
206.909	454.942
211.035	551.915
215.159	295.093
219.281	144.578
223.4	158.755
227.518	86.59
231.634	148.742
235.748	31.177
239.86	0.064
243.97	39.978
248.079	46.975
252.185	105.052
256.289	28.113
260.391	146.043
264.492	138.517
268.59	3.816
272.687	58.488
276.781	66.201
280.874	4.814
284.964	84.645
289.053	46.59
293.14	49.241
297.225	93.678
301.308	1.887
305.389	113.502
309.468	80.333
313.545	103.573
317.62	98.878
321.693	98.144
325.765	210.359
329.834	102.432
333.902	135.441
337.967	100.299
342.031	30.998
346.093	13.45
350.153	106.959
354.21	117.235
358.267	184.389
362.321	64.487
366.373	34.611
370.423	143.646
374.471	292.621
378.518	65.621
382.563	55.727
386.605	196.92
390.646	243.304
394.685	239.268
398.722	579.206
402.757	976.35
406.79	1761.57
410.821	4829.43
414.851	5122.83
418.878	1886.07
422.904	887.461
426.927	539.412
430.949	311.896
434.969	311.752
438.987	263.604
443.003	211.461
447.018	192.52
451.03	95.741
455.041	95.239
459.049	66.068
463.056	97.788
467.061	205.993
471.064	181.027
475.065	266.939
479.064	277.774
483.062	416.562
487.057	1163.63
491.051	2070.11
495.043	1626.77
499.032	871.332
503.02	415.866
507.007	294.359
510.991	393.788
514.973	231.077
518.954	97.631
522.933	225.702
526.91	201.47
530.885	261.029
534.858	203.91
538.829	81.442
542.799	69.838
546.766	43.906
550.732	184.259
554.696	171.027
558.658	147.657
562.618	13.575
566.576	19.19
570.533	188.064
574.488	117.649
578.44	105.986
582.391	310.448
586.341	301.587
590.288	325.592
594.233	241.667
598.177	253.675
602.119	149.583
606.059	271.643
609.997	158.76
613.933	331.605
617.868	382.076
621.801	761.56
625.731	503.777
629.66	250.818
633.588	252.883
637.513	241.854
641.437	545.138
645.358	593.758
649.278	498.604
653.196	479.437
657.113	396.894
661.027	439.244
664.94	415.504
668.851	1357.76
672.76	758.908
676.667	299.98
680.572	201.965
684.476	205.797
688.378	279.594
692.278	174.682
696.176	261.498
700.072	121.381
703.967	139.939
707.86	86.316
711.751	277.506
715.64	185.207
719.527	24.469
723.413	43.5
727.297	28.846
731.179	24.428
735.059	42.352
738.937	254.4
742.814	220.652
746.689	235.984
750.562	97.039
754.433	90.092
758.303	24.152
762.17	116.166
766.036	161.135
769.901	164.07
773.763	50.98
777.624	199.857
781.482	66.705
785.339	41.592
789.195	104.43
793.048	78.766
796.9	165.912
800.75	129.52
804.598	131.904
808.445	195.49
812.289	110.932
816.132	180.209
819.973	108.051
823.813	229.664
827.65	109.271
831.486	258.41
835.32	302.467
839.152	143.057
842.983	179.609
846.812	479.217
850.639	391.908
854.464	429.52
858.288	449.982
862.11	299.787
865.93	446.186
869.748	218.629
873.564	220.248
877.379	193.697
881.192	272.951
885.004	180.061
888.813	143.969
892.621	162.775
896.427	3.246
900.232	361.898
904.034	109.135
907.835	327.293
911.634	313.32
915.432	379.707
919.227	306.842
923.021	275.676
926.813	210.262
930.604	378.957
934.393	610.797
938.18	81.449
941.965	296.236
945.749	327.039
949.53	135.232
953.311	112.727
957.089	345.033
960.866	241.289
964.641	261.211
968.414	257.137
972.185	255.154
975.955	445.387
979.723	423.629
983.49	262.867
987.254	630.096
991.017	1138.33
994.779	1489.57
998.538	2553.85
1002.3	7087.03
1006.05	32497.5
1009.81	26565
1013.56	5094.7
1017.31	2223.94
1021.06	1340.95
1024.81	835.244
1028.55	466.893
1032.3	372.031
1036.04	428.715
1039.78	616.645
1043.52	543.945
1047.26	235.096
1050.99	373.229
1054.73	199.539
1058.46	430.357
1062.19	422.053
1065.92	139.285
1069.65	283.545
1073.37	395.986
1077.1	253.146
1080.82	567.119
1084.54	488.234
1088.26	225.814
1091.97	171.127
1095.69	5.613
1099.4	164
1103.12	50.945
1106.83	270.23
1110.54	236.963
1114.24	120.475
1117.95	90.619
1121.65	484.92
1125.35	293.963
1129.06	945.85
1132.75	2041.31
1136.45	2775.04
1140.15	1180.7
1143.84	489.328
1147.53	246.506
1151.22	93.504
1154.91	251.621
1158.6	109.713
1162.28	232.115
1165.97	179.199
1169.65	65.301
1173.33	90.533
1177.01	86.602
1180.69	63.297
1184.36	135.688
1188.04	78.684
1191.71	133.607
1195.38	112.111
1199.05	339.555
1202.71	61.43
1206.38	303.99
1210.04	14.35
1213.71	29.24
1217.37	177.539
1221.03	34.266
1224.68	319.65
1228.34	291.787
1231.99	74.43
1235.65	198.906
1239.3	363.844
1242.95	317.488
1246.59	338.904
1250.24	186.816
1253.88	226.346
1257.53	48.434
1261.17	85.691
1264.81	45.951
1268.45	166.994
1272.08	208.857
1275.72	273.311
1279.35	212.346
1282.98	63.908
1286.61	129.002
1290.24	403.539
1293.87	80.543
1297.49	113.859
1301.11	24.471
1304.73	74.154
1308.36	14.551
1311.97	153.578
1315.59	212.309
1319.2	422.15
1322.82	418.691
1326.43	203.842
1330.04	218.719
1333.65	125.629
1337.26	36.377
1340.86	178.096
1344.47	68.365
1348.07	23.555
1351.67	276.014
1355.27	82.408
1358.87	37.092
1362.46	281.113
1366.06	194.057
1369.65	227.234
1373.24	318.865
1376.83	249.691
1380.42	227.777
1384	341.496
1387.59	491.582
1391.17	194.854
1394.75	84.105
1398.33	489.584
1401.91	398.508
1405.49	367.172
1409.06	555.592
1412.64	142.521
1416.21	339.244
1419.78	464.967
1423.35	509.199
1426.91	592.283
1430.48	364.838
1434.05	595.41
1437.61	639.777
1441.17	858.236
1444.73	979.539
1448.29	1010.83
1451.84	1096.82
1455.4	1100.07
1458.95	976.797
1462.5	834.723
1466.05	1172.76
1469.6	735.633
1473.15	804.621
1476.69	470.41
1480.24	1047.33
1483.78	655.133
1487.32	412.328
1490.86	530.078
1494.39	479.949
1497.93	406.191
1501.46	75.02
1505	329.906
1508.53	45.652
