Measurement: Raman, 514 nm, ccw, Raman Data Processed
Mineral: Gypsum
Rruff sample: R060509
Ideal chemistry: CaSO_4_2H_2_O
Locality: Pierre Shale, Hermosa, Custer County, South Dakota, USA
Source: Michael Scott
Description: Colorless tabular single crystal
Pin_id: L01293
Orientation: Laser parallel to b* (0 1 0). Fiducial mark perpendicular to laser is parallel to c [0 0 1]
Raman shift (cm-1)	intensity
165.771	0
170.705	87.7678
175.635	333.446
180.563	531.294
185.487	352.615
190.409	105.693
195.327	22.9898
200.242	60.6899
205.155	64.9961
210.064	125.214
214.97	42.2136
219.873	19.0574
224.773	3.63623
229.67	43.8772
234.564	11.9539
239.455	37.1165
244.342	36.7219
249.227	48.5571
254.109	16.1787
258.988	92.417
263.864	69.8801
268.736	90.908
273.606	37.8772
278.473	15.4954
283.337	32.7549
288.197	77.9177
293.055	24.0288
297.91	46.0259
302.762	20.9409
307.611	154.814
312.456	178.209
317.299	114.709
322.139	59.0413
326.976	61.845
331.81	43.835
336.641	25.1338
341.469	81.4749
346.294	90.8237
351.116	122.771
355.936	13.1628
360.752	6.77515
365.565	2.78906
370.376	32.9126
375.183	47.6167
379.988	80.0652
384.789	108.121
389.588	117.351
394.384	229.38
399.177	400.014
403.967	1056.84
408.754	2421.15
413.538	4188.43
418.319	3418.06
423.097	1135.51
427.873	515.659
432.646	235.625
437.415	193.145
442.182	96.613
446.946	64.717
451.707	59.1621
456.465	78.6838
461.221	78.2588
465.973	59.7937
470.723	126.092
475.47	117.156
480.214	350.636
484.955	706.616
489.693	1199.63
494.429	1644.17
499.161	986.265
503.891	429.572
508.618	218.129
513.342	173.654
518.063	80.3581
522.782	66.3677
527.497	98.3855
532.21	74.6274
536.92	59.9299
541.627	126.311
546.332	141.752
551.034	136.181
555.732	102.071
560.428	134.815
565.122	255.484
569.812	277.781
574.5	300.981
579.185	319.783
583.867	405.764
588.546	461.684
593.223	530.949
597.897	557.068
602.568	636.733
607.236	691.282
611.902	868.562
616.565	1054.8
621.225	1111.04
625.882	799.421
630.537	490.038
635.189	332.342
639.838	227.636
644.484	317.123
649.128	303.497
653.769	228.877
658.407	186.316
663.043	199.128
667.676	237.556
672.306	170.978
676.933	104.359
681.558	139.728
686.18	50.7625
690.799	54.0469
695.416	26.292
700.03	18.4851
704.641	44.6362
709.25	15.7346
713.856	29.773
718.459	18.2918
723.059	25.3564
727.657	25.8843
732.253	72.3511
736.845	54.2405
741.435	47.9695
746.022	17.074
750.607	31.9617
755.189	13.8103
759.768	21.4595
764.345	41.9812
768.919	22.283
773.49	79.4185
778.059	78.4934
782.625	75.0156
787.189	38.9614
791.749	21.2876
796.308	105.576
800.863	108.781
805.416	28.939
809.967	71.5588
814.515	53.116
819.06	79.6096
823.603	37.0276
828.143	96.428
832.68	106.546
837.215	114.73
841.747	79.1255
846.277	191.659
850.804	86.4604
855.328	162.165
859.85	165.622
864.37	139.672
868.886	65.3701
873.401	90.3347
877.912	91.4775
882.421	116.662
886.928	43.9526
891.432	82.1763
895.933	44.0278
900.432	51.5078
904.929	16.2644
909.423	3.13769
913.914	24.0169
918.403	25.7529
922.889	59.6357
927.373	1.50952
931.854	11.5832
936.332	2.64282
940.809	51.2156
945.282	34.0789
949.753	57.998
954.222	113.895
958.688	99.7852
963.152	111.449
967.613	194.421
972.071	306.522
976.527	442.679
980.981	544.893
985.432	1015.15
989.881	1762.5
994.327	2706
998.771	7246.57
1003.21	28644.2
1007.65	60327.9
1012.09	24048.7
1016.52	4688.53
1020.95	1865.52
1025.38	1000.61
1029.81	547.782
1034.23	306.05
1038.65	176.488
1043.07	144
1047.49	142.571
1051.9	96.6956
1056.31	4.31811
1060.72	2.36719
1065.13	12.4746
1069.54	82.28
1073.94	25.0022
1078.34	10.8977
1082.73	51.9145
1087.13	48.9983
1091.52	53.6912
1095.91	18.5925
1100.3	28.5032
1104.68	52.7451
1109.07	32.5818
1113.45	175.905
1117.82	282.312
1122.2	416.813
1126.57	637.375
1130.94	1265.01
1135.31	2557.73
1139.68	3677.51
1144.04	3153.34
1148.4	1325.26
1152.76	589.226
1157.12	347.347
1161.47	164.45
1165.82	132.606
1170.17	97.8132
1174.52	120.07
1178.87	79.3762
1183.21	52.7358
1187.55	47.1318
1191.88	116.478
1196.22	18.4492
1200.55	35.1148
1204.88	7.72876
1209.21	57.3784
1213.54	51.0474
1217.86	83.9119
1222.18	8.12012
1226.5	45.2139
1230.82	11.7039
1235.13	71.8354
1239.44	41.4927
1243.75	43.3352
1248.06	27.2034
1252.37	84.7659
1256.67	45.0999
1260.97	101.005
1265.27	90.0674
1269.56	42.166
1273.86	41.325
1278.15	33.4932
1282.44	142.693
1286.72	28.3208
1291.01	68.5764
1295.29	126.859
1299.57	120.167
1303.85	150.542
1308.12	114.907
1312.39	129.306
1316.67	56.7957
1320.93	108.244
1325.2	128.727
1329.46	90.2759
1333.73	61.605
1337.98	105.253
1342.24	48.8364
1346.5	111.386
1350.75	79.8025
1355	59.4192
1359.25	14.4812
1363.49	25.3794
1367.74	29.6433
1371.98	15.8757
1376.22	112.821
1380.46	47.4539
1384.69	5.97559
1388.92	4.08862
1393.15	73.8494
1397.38	55.7229
1401.61	66.5542
1405.83	12.7524
1410.05	80.1646
1414.27	14.7681
1418.49	60.3852
1422.7	164.997
1426.92	114.711
1431.13	35.395
1435.34	153.652
1439.54	207.962
1443.75	247.102
1447.95	261.279
1452.15	140.513
1456.35	185.477
1460.54	189.815
1464.73	141.061
1468.92	167.071
1473.11	118.712
1477.3	79.281
1481.48	85.4522
1485.67	96.9963
1489.85	75.7529
1494.02	59.7734
1498.2	11.7336
1502.37	59.7449
1506.55	49.7456
1510.71	7.71753
1514.88	9.71435
1519.05	16.0293
1523.21	65.7424
1527.37	92.8769
1531.53	119.749
1535.68	74.0442
1539.84	131.939
1543.99	105.156
1548.14	52.8787
1552.29	65.1968
1556.44	7.22778
1560.58	0.611328
