Measurement: Raman, 514 nm, ccw, Raman Data Processed
Mineral: Gypsum
Rruff sample: R040029
Ideal chemistry: CaSO_4_2H_2_O
Locality: Twin Buttes, Pima County, Arizona, USA
Source: University of Arizona Mineral Museum
Description: Colorless prismatic crystal
Pin_id: L00192
Orientation: Laser parallel to -c [0 0 -1]. Fiducial mark perpendicular to laser is parallel to -b* (0 -1 0)
Raman shift (cm-1)	intensity
79.427	0
83.614	34.5
87.798	11.697
91.981	73.266
96.161	46.693
100.34	49.73
104.516	85.135
108.691	173.408
112.864	236.968
117.034	470.635
121.203	373.522
125.369	473.333
129.534	1156.68
133.696	792.992
137.857	326.304
142.016	217.465
146.172	225.219
150.327	117.893
154.48	116.589
158.63	186.686
162.779	174.66
166.926	144.834
171.07	97.391
175.213	84.772
179.354	85.699
183.493	73.67
187.63	2.326
191.765	12.701
195.898	41.743
200.029	28.794
204.158	29.845
208.285	46.879
212.41	41.646
216.533	43.739
220.654	25.487
224.773	13.286
228.891	29.707
233.006	11.548
237.119	10.826
241.231	2.186
245.34	32.482
249.448	10.238
253.553	15.143
257.657	16.649
261.758	12.199
265.858	8.771
269.956	17.344
274.052	14.903
278.146	26.442
282.237	33.959
286.327	46.445
290.416	57.882
294.502	81.272
298.586	109.614
302.668	113.91
306.749	163.175
310.827	286.414
314.903	247.63
318.978	149.805
323.051	118.876
327.121	45.789
331.19	55.598
335.257	21.36
339.322	37.117
343.385	1.867
347.446	3.39
351.505	0.144
355.563	21.587
359.618	13.688
363.672	26.022
367.723	7.333
371.773	33.357
375.821	6.936
379.866	20.726
383.91	48.27
387.952	34.99
391.992	49.67
396.031	144.638
400.067	113.248
404.101	282.628
408.134	753.896
412.165	1651.03
416.193	936.661
420.22	332.525
424.245	137.233
428.268	85.942
432.289	68.448
436.309	28.193
440.326	19.932
444.342	40.674
448.355	31.439
452.367	36.221
456.377	35.015
460.385	26.819
464.391	37.633
468.395	68.444
472.398	103.253
476.398	198.059
480.397	332.862
484.394	633.688
488.389	1419.52
492.382	2038.35
496.373	1134.21
500.362	502.083
504.349	301.385
508.335	170.496
512.319	127.291
516.3	69.675
520.28	82.605
524.259	22.524
528.235	44.983
532.209	3.091
536.182	45.447
540.152	46.406
544.121	24.374
548.088	74.49
552.053	97.634
556.017	107.329
559.978	174.128
563.938	160.608
567.895	229.076
571.851	241.094
575.805	297.623
579.758	345.996
583.708	381.13
587.657	400.397
591.603	408.692
595.548	420.842
599.491	430.961
603.432	488.868
607.372	560.084
611.309	763.131
615.245	1030.82
619.179	1219.6
623.111	837.578
627.041	495.605
630.97	234.02
634.896	148.472
638.821	149.336
642.744	84.214
646.665	103.52
650.584	104.836
654.502	103.68
658.418	74.223
662.331	106.95
666.244	214.697
670.154	288.307
674.062	155.452
677.969	58.079
681.874	75.942
685.777	47.58
689.678	55.171
693.577	48.757
697.475	44.315
701.371	13.842
705.265	8.764
709.157	8.791
713.047	11.796
716.936	30.538
720.823	23.177
724.708	0.369
728.591	0.469
732.472	12.802
736.352	14.244
740.23	25.171
744.106	16.052
747.98	20.896
751.853	44.702
755.723	4.527
759.592	11.819
763.459	17.194
767.325	4.651
771.188	12.162
775.05	39.262
778.91	12.643
782.768	18.991
786.625	16.921
790.479	27.598
794.332	41.841
798.183	2.022
802.033	15.165
805.88	5.739
809.726	38.282
813.57	28.738
817.413	21.137
821.253	16.99
825.092	9.191
828.929	14.418
832.764	2.689
836.598	70.872
840.429	50.51
844.259	48.094
848.088	11.699
851.914	40.337
855.739	49.914
859.562	53.33
863.383	28.754
867.203	20.571
871.02	33.507
874.836	11.206
878.65	41.426
882.463	9.919
886.274	3.642
890.083	36.871
893.89	39.312
897.695	32.824
901.499	30.219
905.301	54.737
909.102	27.581
912.9	14.889
916.697	30.008
920.492	72.433
924.285	74.161
928.077	60.179
931.867	40.847
935.655	80.504
939.442	65.226
943.226	99.977
947.009	127.788
950.791	99.458
954.57	112.603
958.348	157.32
962.124	134.219
965.899	277.475
969.671	333.502
973.442	392.579
977.211	479.371
980.979	609.607
984.745	861.624
988.509	1237.73
992.271	1629.23
996.032	2441.6
999.791	4858.01
1003.55	15337.5
1007.3	63310
1011.06	20972.6
1014.81	4938.31
1018.56	2035.08
1022.31	1156.92
1026.06	720.472
1029.8	474.623
1033.55	334.274
1037.29	266.93
1041.03	171.244
1044.77	97.483
1048.5	147.78
1052.24	79.127
1055.97	31.584
1059.7	63.276
1063.43	44.773
1067.16	68.332
1070.89	58.954
1074.61	34.623
1078.34	19.345
1082.06	19.439
1085.78	15.242
1089.5	48.084
1093.21	20.902
1096.93	55.914
1100.64	52.896
1104.35	125.922
1108.06	169.157
1111.77	237.151
1115.48	315.608
1119.18	491.849
1122.89	801.993
1126.59	1018.34
1130.29	1796.81
1133.99	3383.84
1137.68	3937.38
1141.38	3619.96
1145.07	2433.64
1148.76	1074.06
1152.45	549.396
1156.14	340.284
1159.83	219.529
1163.51	144.663
1167.19	140.546
1170.88	66.763
1174.56	75.19
1178.23	129.795
1181.91	69.503
1185.59	60.037
1189.26	51.563
1192.93	27.356
1196.6	37.281
1200.27	30.767
1203.94	76.242
1207.6	47.703
1211.27	49.146
1214.93	16.577
1218.59	49.989
1222.25	21.187
1225.9	2.586
1229.56	36.994
1233.21	68.362
1236.86	49.688
1240.51	35.122
1244.16	65.608
1247.81	33.016
1251.45	50.303
1255.1	17.43
1258.74	27.659
1262.38	53.665
1266.02	22.371
1269.66	3.492
1273.29	77.237
1276.93	55.878
1280.56	52.448
1284.19	69.948
1287.82	15.408
1291.45	7.794
1295.07	71.134
1298.7	47.407
1302.32	13.393
1305.94	14.265
1309.56	54.783
1313.18	15.243
1316.8	29.646
1320.41	34.473
1324.02	66.232
1327.63	40.93
1331.24	74.617
1334.85	93.089
1338.46	10.35
1342.06	55.147
1345.67	77.603
1349.27	71.783
1352.87	63.072
1356.47	69.808
1360.07	79.789
1363.66	108.926
1367.25	123.433
1370.85	76.648
1374.44	103.358
1378.03	108.338
1381.61	70.372
1385.2	97.843
1388.78	108.026
1392.37	40.733
1395.95	58.727
1399.53	64.201
1403.1	54.08
1406.68	63.128
1410.26	60.853
1413.83	51.583
1417.4	91.244
1420.97	84.276
1424.54	57.504
1428.1	51.821
1431.67	112.681
1435.23	92.026
1438.8	67.184
1442.36	71.408
1445.91	130.37
1449.47	91.136
1453.03	132.595
1456.58	138.482
1460.13	165.261
1463.68	101.598
1467.23	30.871
1470.78	76.56
1474.33	32.547
1477.87	57.604
1481.42	63.729
1484.96	39.824
1488.5	72.958
1492.04	121.325
1495.57	50.97
1499.11	31.636
1502.64	2.284
1506.17	1.12
1509.71	84.952
1513.23	34.481
1516.76	15.038
1520.29	2.068
