Measurement: Raman, 514 nm, ccw, Raman Data Processed
Mineral: Gypsum
Rruff sample: R040029
Ideal chemistry: CaSO_4_2H_2_O
Locality: Twin Buttes, Pima County, Arizona, USA
Source: University of Arizona Mineral Museum
Description: Colorless prismatic crystal
Pin_id: L00273
Orientation: Laser parallel to -a [-1 0 0]. Fiducial mark perpendicular to laser is parallel to b* (0 1 0)
Raman shift (cm-1)	intensity
79.427	0
83.614	82.308
87.798	354.888
91.981	379.016
96.161	187.194
100.34	274.162
104.516	675.366
108.691	1085.79
112.864	942.039
117.034	1818.41
121.203	2290.02
125.369	776.422
129.534	618.269
133.696	480.827
137.857	499.549
142.016	669.308
146.172	419.399
150.327	150.252
154.48	75.597
158.63	96.891
162.779	341.006
166.926	630.196
171.07	624.642
175.213	1204.28
179.354	1850.46
183.493	1208.26
187.63	533.253
191.765	377.256
195.898	362.226
200.029	389.462
204.158	672.651
208.285	690.606
212.41	474.965
216.533	340.661
220.654	161.485
224.773	77.757
228.891	9.694
233.006	1.539
237.119	29.333
241.231	34.214
245.34	21.649
249.448	84.672
253.553	20.149
257.657	39.825
261.758	42.234
265.858	45.628
269.956	46.451
274.052	16.885
278.146	44.406
282.237	34.505
286.327	18.488
290.416	22.928
294.502	4.956
298.586	45.936
302.668	55.075
306.749	62.181
310.827	121.305
314.903	174.438
318.978	120.573
323.051	117.705
327.121	76.788
331.19	61.704
335.257	11.471
339.322	40.252
343.385	96.885
347.446	51.669
351.505	103.52
355.563	101.645
359.618	37.224
363.672	25.874
367.723	133.971
371.773	43.166
375.821	51.987
379.866	62.347
383.91	77.75
387.952	89.758
391.992	142.662
396.031	266.666
400.067	265.729
404.101	519.584
408.134	1163.12
412.165	2596.04
416.193	1534.54
420.22	549.505
424.245	301.29
428.268	214.46
432.289	219.587
436.309	111.129
440.326	81.492
444.342	113.041
448.355	105.399
452.367	215.387
456.377	3.095
460.385	69.17
464.391	159.032
468.395	194.574
472.398	248.812
476.398	381.66
480.397	581.199
484.394	1144.74
488.389	2607.74
492.382	3589.64
496.373	2095.36
500.362	944.373
504.349	413.355
508.335	278.896
512.319	220.775
516.3	195.597
520.28	196.575
524.259	102.99
528.235	32.557
532.209	14.194
536.182	73.284
540.152	3.837
544.121	67.759
548.088	133.208
552.053	182.976
556.017	258.951
559.978	352.858
563.938	355.487
567.895	550.411
571.851	367.379
575.805	414.862
579.758	417.79
583.708	444.439
587.657	388.983
591.603	406.176
595.548	394.015
599.491	479.65
603.432	688.839
607.372	838.016
611.309	1376.48
615.245	2283.65
619.179	2656.41
623.111	1601.08
627.041	959.55
630.97	518.104
634.896	238.631
638.821	167.268
642.744	116.432
646.665	246.264
650.584	4.406
654.502	107.491
658.418	160.261
662.331	87.856
666.244	546.254
670.154	928.207
674.062	264.028
677.969	124.837
681.874	189.601
685.777	80.134
689.678	84.368
693.577	77.506
697.475	1.965
701.371	67.919
705.265	111.977
709.157	110.532
713.047	58.049
716.936	41.659
720.823	66.296
724.708	74.09
728.591	126.146
732.472	37.499
736.352	46.52
740.23	58.917
744.106	111.359
747.98	137.563
751.853	53.609
755.723	32.609
759.592	32.425
763.459	85.931
767.325	20.763
771.188	36.351
775.05	89.358
778.91	80.256
782.768	0.952
786.625	19.462
790.479	142.021
794.332	78.388
798.183	12.378
802.033	37.294
805.88	210.717
809.726	94.512
813.57	54.188
817.413	7.741
821.253	22.118
825.092	68.383
828.929	0.473
832.764	118.503
836.598	93.25
840.429	208.997
844.259	146.622
848.088	96.346
851.914	50.198
855.739	154.556
859.562	126.876
863.383	160.77
867.203	52.283
871.02	108.026
874.836	23.644
878.65	109.07
882.463	13.48
886.274	37.128
890.083	7.645
893.89	37.342
897.695	147.556
901.499	55.531
905.301	35.61
909.102	83.779
912.9	91.532
916.697	55.626
920.492	81.224
924.285	146.353
928.077	81.674
931.867	127.679
935.655	28.194
939.442	94.653
943.226	122.207
947.009	119.503
950.791	195.905
954.57	162.682
958.348	85.858
962.124	133.689
965.899	139.594
969.671	244.393
973.442	317.845
977.211	267.764
980.979	412.923
984.745	495.257
988.509	862.938
992.271	1074.78
996.032	1756.64
999.791	3569.7
1003.55	11115.7
1007.3	47056.1
1011.06	14501.6
1014.81	3542.34
1018.56	1514.24
1022.31	811.526
1026.06	542.381
1029.8	348.689
1033.55	412.499
1037.29	365.237
1041.03	156.881
1044.77	131.26
1048.5	195.996
1052.24	187.224
1055.97	243.944
1059.7	235.222
1063.43	164.358
1067.16	312.523
1070.89	315.518
1074.61	240.641
1078.34	340.668
1082.06	234.495
1085.78	319.614
1089.5	365.349
1093.21	323.249
1096.93	514.833
1100.64	537.698
1104.35	840.112
1108.06	1036.54
1111.77	1480.56
1115.48	1900.6
1119.18	1717.03
1122.89	1560.88
1126.59	1001.44
1130.29	710.218
1133.99	639.879
1137.68	983.732
1141.38	723.513
1145.07	552.474
1148.76	304.878
1152.45	172.795
1156.14	59.536
1159.83	171.362
1163.51	85.446
1167.19	77.29
1170.88	3.439
1174.56	37.868
1178.23	21.062
1181.91	155.528
1185.59	20.843
1189.26	12.405
1192.93	16.737
1196.6	24.281
1200.27	122.616
1203.94	131.79
1207.6	83.174
1211.27	103.97
1214.93	61.453
1218.59	56.256
1222.25	90.76
1225.9	82.979
1229.56	48.897
1233.21	114.566
1236.86	233.073
1240.51	247.268
1244.16	89.349
1247.81	41.019
1251.45	58.476
1255.1	83.542
1258.74	119.229
1262.38	108.54
1266.02	65.794
1269.66	34.338
1273.29	210.369
1276.93	52.079
1280.56	59.067
1284.19	152.823
1287.82	89.226
1291.45	12.289
1295.07	143.018
1298.7	120.443
1302.32	53.092
1305.94	22.116
1309.56	227.685
1313.18	88.287
1316.8	133.888
1320.41	147.649
1324.02	94.635
1327.63	125.448
1331.24	73.755
1334.85	187.652
1338.46	29.964
1342.06	148.297
1345.67	119.9
1349.27	203.427
1352.87	191.656
1356.47	204.206
1360.07	281.42
1363.66	204.13
1367.25	229.464
1370.85	162.654
1374.44	167.492
1378.03	151.879
1381.61	177.147
1385.2	238.295
1388.78	171.101
1392.37	270.522
1395.95	175.996
1399.53	205.889
1403.1	119.994
1406.68	26.705
1410.26	65.704
1413.83	149.761
1417.4	88.222
1420.97	205.843
1424.54	161.465
1428.1	137.571
1431.67	351.463
1435.23	409.033
1438.8	261.296
1442.36	332.908
1445.91	384.075
1449.47	180.328
1453.03	342.635
1456.58	404.519
1460.13	487.709
1463.68	409.305
1467.23	73.303
1470.78	287.136
1474.33	315.341
1477.87	199.662
1481.42	147.153
1484.96	168.214
1488.5	312.354
1492.04	291.792
1495.57	55.693
1499.11	48.42
1502.64	9.665
1506.17	112.208
1509.71	52.868
1513.23	0
