Measurement: Raman, 514 nm, ccw, Raman Data Processed
Mineral: Gypsum
Rruff sample: R060509
Ideal chemistry: CaSO_4_2H_2_O
Locality: Pierre Shale, Hermosa, Custer County, South Dakota, USA
Source: Michael Scott
Description: Colorless tabular single crystal
Pin_id: L01683
Orientation: Laser parallel to c* (0 0 1). Fiducial mark perpendicular to laser is parallel to -a [-1 0 0]
Raman shift (cm-1)	intensity
155.894	0
160.834	310.119
165.771	488.905
170.705	395.274
175.635	616.335
180.563	1047.53
185.487	764.584
190.409	100.196
195.327	2.41003
200.242	50.0497
205.155	38.526
210.064	116.093
214.97	127.238
219.873	172.953
224.773	68.3071
229.67	19.9705
234.564	23.648
239.455	34.4227
244.342	3.38208
249.227	40.2566
254.109	0.486328
258.988	117.036
263.864	12.1249
268.736	11.033
273.606	1.82202
278.473	19.5328
283.337	20.296
288.197	2.71753
293.055	37.6211
297.91	25.1528
302.762	3.92481
307.611	46.1344
312.456	124.523
317.299	140.5
322.139	152.359
326.976	116.847
331.81	46.4042
336.641	92.1455
341.469	108.809
346.294	91.4651
351.116	65.4377
355.936	80.2333
360.752	83.4603
365.565	137.97
370.376	71.4756
375.183	104.973
379.988	93.9917
384.789	69.9784
389.588	81.106
394.384	204.318
399.177	321.479
403.967	662.945
408.754	1474.82
413.538	2825.4
418.319	2153.75
423.097	662.834
427.873	314.606
432.646	146.711
437.415	135.436
442.182	52.1844
446.946	64.9437
451.707	28.6962
456.465	37.6359
461.221	32.4796
465.973	38.1991
470.723	83.7131
475.47	83.7745
480.214	135.703
484.955	302.483
489.693	619.46
494.429	850.44
499.161	509.105
503.891	206.936
508.618	79.173
513.342	87.2434
518.063	26.3341
522.782	90.5391
527.497	47.7594
532.21	57.1783
536.92	26.6476
541.627	49.2889
546.332	3.93079
551.034	30.1189
555.732	77.7761
560.428	63.7427
565.122	41.5618
569.812	153.792
574.5	133.099
579.185	159.448
583.867	126.085
588.546	191.939
593.223	203.431
597.897	218.923
602.568	266.874
607.236	291.8
611.902	536.517
616.565	819.131
621.225	862.184
625.882	450.185
630.537	223.847
635.189	105.148
639.838	69.0166
644.484	87.7578
649.128	39.5061
653.769	166.304
658.407	222.308
663.043	541.193
667.676	1401.99
672.306	2078.14
676.933	657.551
681.558	221.791
686.18	113.765
690.799	94.5478
695.416	25.5969
700.03	61.3149
704.641	12.9939
709.25	32.4614
713.856	21.0693
718.459	17.2737
723.059	58.2156
727.657	51.6523
732.253	20.2441
736.845	33.1484
741.435	8.27148
746.022	106.677
750.607	58.2156
755.189	6.24609
759.768	31.5784
764.345	45.3518
768.919	22.0618
773.49	40.7129
778.059	61.2383
782.625	63.2458
787.189	79.8086
791.749	11.9729
796.308	17.2082
800.863	4.61816
805.416	62.4622
809.967	28.4888
814.515	4.89673
819.06	49.0295
823.603	35.8628
828.143	32.6379
832.68	70.3201
837.215	49.9822
841.747	120.819
846.277	19.3481
850.804	54.8176
855.328	34.0281
859.85	58.3496
864.37	45.1204
868.886	25.3452
873.401	22.1504
877.912	26.7812
882.421	4.61865
886.928	3.18848
891.432	14.0335
895.933	83.4839
900.432	58.9321
904.929	33.6926
909.423	39.856
913.914	13.5625
918.403	2.88257
922.889	7.21924
927.373	72.189
931.854	25.6628
936.332	14.3589
940.809	59.916
945.282	12.1479
949.753	27.9294
954.222	101.706
958.688	94.0293
963.152	89.6333
967.613	133.959
972.071	119.618
976.527	211.321
980.981	299.228
985.432	445.007
989.881	786.737
994.327	1202.61
998.771	2901.53
1003.21	11558.3
1007.65	29054
1012.09	11307.9
1016.52	2273.25
1020.95	927.504
1025.38	530.83
1029.81	320.853
1034.23	140.395
1038.65	128.004
1043.07	125.686
1047.49	46.6858
1051.9	30.6013
1056.31	49.2056
1060.72	112.927
1065.13	92.196
1069.54	19.5435
1073.94	47.9763
1078.34	22.8919
1082.73	39.55
1087.13	72.7583
1091.52	70.5794
1095.91	82.4514
1100.3	58.116
1104.68	190.172
1109.07	241.147
1113.45	367.656
1117.82	611.992
1122.2	1067.4
1126.57	1915.91
1130.94	4604.51
1135.31	7018.19
1139.68	3589.03
1144.04	1745.62
1148.4	717.013
1152.76	393.041
1157.12	208.636
1161.47	227.833
1165.82	130.099
1170.17	49.4277
1174.52	118.16
1178.87	1.3894
1183.21	23.3008
1187.55	118.973
1191.88	98.395
1196.22	102.123
1200.55	74.7244
1204.88	38.3245
1209.21	48.2627
1213.54	3.84912
1217.86	56.0207
1222.18	11.947
1226.5	15.8899
1230.82	67.4868
1235.13	17.3892
1239.44	1.94019
1243.75	78.0303
1248.06	72.0239
1252.37	27.0544
1256.67	97.3191
1260.97	44.4819
1265.27	36.5615
1269.56	73.6565
1273.86	127.706
1278.15	70.72
1282.44	5.27759
1286.72	122.701
1291.01	17.6768
1295.29	91.7554
1299.57	79.772
1303.85	48.6977
1308.12	93.6279
1312.39	102.056
1316.67	10.2412
1320.93	38.2898
1325.2	27.5579
1329.46	108.955
1333.73	60.3252
1337.98	70.7842
1342.24	119.755
1346.5	31.9136
1350.75	42.1372
1355	77.24
1359.25	5.61475
1363.49	22.4831
1367.74	35.7986
1371.98	90.5488
1376.22	79.6338
1380.46	9.98706
1384.69	8.10229
1388.92	44.9221
1393.15	39.9736
1397.38	102.686
1401.61	81.0698
1405.83	119.363
1410.05	137.541
1414.27	58.4114
1418.49	87.9062
1422.7	74.4441
1426.92	104.835
1431.13	138.875
1435.34	95.3267
1439.54	123.356
1443.75	63.5681
1447.95	116.637
1452.15	125.528
1456.35	71.404
1460.54	108.49
1464.73	143.696
1468.92	40.6213
1473.11	162.483
1477.3	45.2288
1481.48	51.374
1485.67	67.5598
1489.85	100.697
1494.02	74.5012
1498.2	79.4331
1502.37	26.6465
1506.55	63.5073
1510.71	129.84
1514.88	11.2747
1519.05	73.1223
1523.21	66.3967
1527.37	76.6704
1531.53	89.4231
1535.68	96.2402
1539.84	125.349
1543.99	78.1231
1548.14	49.2092
1552.29	84.551
1556.44	51.0107
1560.58	37.6924
