Measurement: Raman, 514 nm, ccw, Raman Data Processed
Mineral: Gypsum
Rruff sample: R060509
Ideal chemistry: CaSO_4_2H_2_O
Locality: Pierre Shale, Hermosa, Custer County, South Dakota, USA
Source: Michael Scott
Description: Colorless tabular single crystal
Pin_id: L01293
Orientation: Laser parallel to b* (0 1 0). Fiducial mark perpendicular to laser is parallel to c [0 0 1]
Raman shift (cm-1)	intensity
158.365	0
163.303	65.5369
168.238	159.945
173.17	443.193
178.1	736.835
183.026	799.292
187.948	365.903
192.868	116.558
197.785	93.9561
202.699	215.941
207.609	260.392
212.517	218.854
217.422	139.709
222.323	84.3567
227.222	77.9749
232.117	77.4902
237.01	21.3235
241.899	17.6836
246.785	26.5479
251.669	16.3335
256.549	13.2749
261.426	66.4392
266.3	59.6797
271.172	26.9368
276.04	7.49316
280.905	2.32959
285.767	61.6599
290.627	23.6321
295.483	17.4194
300.336	163.039
305.186	224.035
310.034	311.611
314.878	264.45
319.72	230.109
324.558	59.4382
329.393	87.3291
334.226	78.7393
339.055	1.71655
343.882	25.2612
348.706	24.9421
353.526	64.9802
358.344	4.68848
363.159	20.2612
367.971	18.5413
372.78	38.6399
377.586	30.135
382.389	26.0051
387.189	34.6685
391.986	71.2871
396.78	237.655
401.572	569.741
406.36	1417.72
411.146	2619.47
415.929	3795.07
420.709	1732.13
425.486	480.581
430.26	277.576
435.031	107.683
439.799	94.5247
444.564	163.172
449.327	53.9851
454.087	152.885
458.843	125.814
463.597	189.755
468.348	302.701
473.097	335.664
477.842	725.631
482.585	1536.25
487.324	3090.26
492.061	4994.35
496.795	4673.06
501.526	2195.01
506.255	959.053
510.98	502.253
515.703	291.967
520.423	266.32
525.14	215.491
529.854	134.274
534.566	111.532
539.274	130.955
543.98	51.5684
548.683	158.321
553.383	165.503
558.081	154.778
562.775	160.288
567.467	219.645
572.156	221.146
576.843	315.975
581.526	332.894
586.207	351.144
590.885	265.334
595.56	430.736
600.233	434.806
604.902	463.741
609.569	653.874
614.234	887.347
618.895	1042.38
623.554	1004.97
628.21	700.943
632.863	306.941
637.514	195.574
642.161	127.963
646.806	203.68
651.449	117.621
656.088	152.843
660.725	170.156
665.36	142.167
669.991	169.731
674.62	79.9363
679.246	79.124
683.869	21.2778
688.49	36.6768
693.108	23.752
697.723	39.7607
702.336	11.679
706.946	1.51856
711.553	24.2258
716.158	12.186
720.759	18.2212
725.359	17.1899
729.955	3.49487
734.549	47.3457
739.14	8.06274
743.729	19.6787
748.315	2.21069
752.898	27.6438
757.479	47.4551
762.057	43.6338
766.632	37.6233
771.205	81.5315
775.775	14.342
780.342	92.4033
784.907	27.9722
789.469	28.4363
794.029	34.779
798.586	30.9717
803.14	95.2856
807.692	80.6702
812.241	33.8398
816.788	78.6191
821.332	40.311
825.873	59.8613
830.412	85.2424
834.948	113.081
839.481	61.9688
844.012	68.0068
848.541	119.098
853.066	56.9653
857.59	107.559
862.11	129.597
866.628	67.2231
871.144	71.5308
875.657	52.9705
880.167	99.6562
884.675	46.7744
889.18	92.1877
893.683	27.1055
898.183	33.5955
902.681	49.1257
907.176	58.6284
911.669	4.38013
916.159	69.6172
920.646	53.3928
925.131	39.6562
929.613	66.5403
934.093	80.1323
938.571	10.4775
943.046	85.5813
947.518	40.971
951.988	34.3643
956.455	11.7685
960.92	78.3176
965.382	156.141
969.842	175.539
974.3	228.125
978.754	329.747
983.207	561.422
987.657	917.157
992.104	1425.97
996.549	2757.85
1000.99	10553.9
1005.43	29244
1009.87	35636.1
1014.3	6619.31
1018.74	1922.55
1023.17	920.824
1027.59	563.603
1032.02	266.058
1036.44	265.56
1040.86	131.102
1045.28	109.701
1049.7	10.9959
1054.11	55.721
1058.52	48.0183
1062.93	20.0071
1067.33	58.8828
1071.74	2.18652
1076.14	27.3608
1080.54	75.0896
1084.93	44.1694
1089.33	2.16187
1093.72	8.48145
1098.11	19.6863
1102.49	35.8931
1106.88	87.1423
1111.26	165.445
1115.64	149.808
1120.01	273.249
1124.39	434.743
1128.76	713.214
1133.13	1516.8
1137.49	2420.43
1141.86	2686.1
1146.22	1505.82
1150.58	696.601
1154.94	358.419
1159.3	164.297
1163.65	137.206
1168	77.1555
1172.35	128.142
1176.69	89.1675
1181.04	56.2227
1185.38	60.3069
1189.72	30.7371
1194.05	1.31958
1198.39	19.377
1202.72	6.13672
1207.05	44.574
1211.38	62.707
1215.7	48.8603
1220.02	4.05713
1224.34	23.6912
1228.66	67.4531
1232.97	40.2971
1237.29	74.1348
1241.6	33.1711
1245.91	84.3914
1250.21	66.4624
1254.52	64.564
1258.82	81.1538
1263.12	62.2825
1267.41	82.0427
1271.71	23.281
1276	127.94
1280.29	148.06
1284.58	55.2017
1288.87	75.3704
1293.15	117.486
1297.43	165.536
1301.71	118.543
1305.98	79.6404
1310.26	121.646
1314.53	93.8391
1318.8	107.419
1323.07	104.335
1327.33	89.479
1331.6	45.6289
1335.86	68.5977
1340.11	57.72
1344.37	104.832
1348.62	47.0107
1352.88	54.9912
1357.12	62.0149
1361.37	84.9978
1365.62	35.9631
1369.86	92.8997
1374.1	22.7671
1378.34	10.8423
1382.57	4.05713
1386.81	19.126
1391.04	111.437
1395.27	2.27954
1399.49	22.1663
1403.72	101.018
1407.94	77.813
1412.16	20.4424
1416.38	47.9885
1420.6	11.4602
1424.81	40.0044
1429.02	57.4343
1433.23	60.7114
1437.44	166.357
1441.64	220.521
1445.85	220.765
1450.05	226.073
1454.25	273.363
1458.44	226.743
1462.64	144.148
1466.83	189.613
1471.02	117.822
1475.21	24.979
1479.39	152.139
1483.58	76.1079
1487.76	125.999
1491.93	80.8513
1496.11	94.8357
1500.29	125.147
1504.46	14.8799
1508.63	10.5124
1512.8	5.99414
1516.96	123.551
1521.13	37.2808
1525.29	33.5825
1529.45	72.2275
1533.61	70.9402
1537.76	84.3242
1541.92	102.66
1546.07	101.798
1550.22	75.3538
1554.36	126.977
1558.51	39.8743
1562.65	0
