Measurement: Raman, 514 nm, ccw, Raman Data Processed
Mineral: Gypsum
Rruff sample: R060509
Ideal chemistry: CaSO_4_2H_2_O
Locality: Pierre Shale, Hermosa, Custer County, South Dakota, USA
Source: Michael Scott
Description: Colorless tabular single crystal
Pin_id: L01702
Orientation: Laser parallel to a* (1 0 0). Fiducial mark perpendicular to laser is parallel to b [0 1 0]
Raman shift (cm-1)	intensity
155.894	0
160.834	264.594
165.771	439.315
170.705	707.823
175.635	1431.97
180.563	2055.62
185.487	1264.43
190.409	436.363
195.327	204.295
200.242	381.79
205.155	568.837
210.064	594.01
214.97	472.892
219.873	195.383
224.773	126.07
229.67	2.71313
234.564	70.6977
239.455	23.8281
244.342	8.93188
249.227	22.1599
254.109	6.74097
258.988	17.7144
263.864	12.739
268.736	32.3906
273.606	47.5837
278.473	18.5408
283.337	24.6765
288.197	5.19385
293.055	43.8738
297.91	65.3181
302.762	102.212
307.611	123.781
312.456	155.3
317.299	190.278
322.139	244.309
326.976	157.127
331.81	181.618
336.641	73.9287
341.469	141.77
346.294	66.6755
351.116	86.2893
355.936	116.625
360.752	118
365.565	101.221
370.376	150.35
375.183	80.2505
379.988	164.234
384.789	187.917
389.588	225.652
394.384	341.74
399.177	489.873
403.967	1265.12
408.754	2665.04
413.538	4004.6
418.319	2840.56
423.097	976.282
427.873	366.184
432.646	181.648
437.415	124.841
442.182	93.0232
446.946	53.198
451.707	5.66821
456.465	40.8918
461.221	85.8135
465.973	19.7873
470.723	116.666
475.47	201.429
480.214	327.815
484.955	779.936
489.693	1303.98
494.429	1484.05
499.161	799.484
503.891	339.751
508.618	252.168
513.342	105.869
518.063	41.5044
522.782	129.638
527.497	32.9836
532.21	9.35034
536.92	27.5608
541.627	2.60327
546.332	23.5642
551.034	104.962
555.732	110.515
560.428	197.655
565.122	220.792
569.812	333.102
574.5	311.569
579.185	188.384
583.867	250.98
588.546	247.83
593.223	259.718
597.897	334.558
602.568	348.962
607.236	548.635
611.902	917.7
616.565	1271.16
621.225	1293.37
625.882	828.447
630.537	416.924
635.189	213.001
639.838	108.362
644.484	84.8091
649.128	125.676
653.769	147.305
658.407	336.194
663.043	1156.53
667.676	2557.49
672.306	2862.28
676.933	1017.26
681.558	290.079
686.18	173.85
690.799	72.3667
695.416	51.7532
700.03	22.76
704.641	55.2703
709.25	7.55591
713.856	48.5669
718.459	45.9368
723.059	33.5903
727.657	74.2952
732.253	10.0471
736.845	3.57739
741.435	45.6799
746.022	23.9531
750.607	27.3862
755.189	47.8308
759.768	84.2412
764.345	1.59546
768.919	37.0525
773.49	55.073
778.059	129.956
782.625	25.9763
787.189	104.421
791.749	16.6982
796.308	92.6646
800.863	86.4961
805.416	17.4727
809.967	72.9033
814.515	50.4395
819.06	24.6416
823.603	54.6987
828.143	51.6201
832.68	6.59326
837.215	40.706
841.747	97.1728
846.277	133.432
850.804	13.6528
855.328	3.68701
859.85	1.37891
864.37	42.0137
868.886	89.4863
873.401	54.3921
877.912	38.061
882.421	18.6074
886.928	18.2236
891.432	110.476
895.933	0.276367
900.432	16.1089
904.929	58.4067
909.423	52.4849
913.914	132.02
918.403	9.30322
922.889	2.68945
927.373	64.2153
931.854	14.2407
936.332	27.3369
940.809	69.6338
945.282	32.2739
949.753	52.7422
954.222	121.31
958.688	39.3369
963.152	194.322
967.613	198.768
972.071	226.091
976.527	430.31
980.981	483.815
985.432	924.872
989.881	1318.65
994.327	2394.43
998.771	6456.15
1003.21	26345
1007.65	47672.9
1012.09	18847
1016.52	3925.88
1020.95	1642
1025.38	835.292
1029.81	594.624
1034.23	372.275
1038.65	174.043
1043.07	101.912
1047.49	116.888
1051.9	181.691
1056.31	144.96
1060.72	117.422
1065.13	159.034
1069.54	202.752
1073.94	163.025
1078.34	154.093
1082.73	300.199
1087.13	215.002
1091.52	344.349
1095.91	400.808
1100.3	659.865
1104.68	825.495
1109.07	1321.73
1113.45	1626.16
1117.82	1537.16
1122.2	1401.3
1126.57	1981.54
1130.94	4752.94
1135.31	6818.31
1139.68	4079.97
1144.04	1714.71
1148.4	787.545
1152.76	469.466
1157.12	205.527
1161.47	223.75
1165.82	131.022
1170.17	86.3603
1174.52	0.236816
1178.87	109.225
1183.21	126.853
1187.55	80.52
1191.88	59.4023
1196.22	62.1655
1200.55	7.02051
1204.88	39.8721
1209.21	82.1401
1213.54	31.9404
1217.86	9.94092
1222.18	47.8516
1226.5	46.8198
1230.82	47.3379
1235.13	56.1709
1239.44	9.22949
1243.75	78.2148
1248.06	1.66406
1252.37	77.5147
1256.67	74.3638
1260.97	1.65381
1265.27	90.2695
1269.56	71.6289
1273.86	12.9258
1278.15	29.9692
1282.44	53.5718
1286.72	107.762
1291.01	56.9605
1295.29	122.775
1299.57	83.2739
1303.85	132.323
1308.12	146.257
1312.39	101.094
1316.67	95.042
1320.93	162.893
1325.2	75.5586
1329.46	154.182
1333.73	30.082
1337.98	41.3765
1342.24	205.542
1346.5	135.684
1350.75	191.609
1355	114.682
1359.25	103.586
1363.49	24.6626
1367.74	171.619
1371.98	126.723
1376.22	241.65
1380.46	66.5664
1384.69	69.4316
1388.92	55.7969
1393.15	143.865
1397.38	55.6592
1401.61	56.6397
1405.83	56.9829
1410.05	59.9087
1414.27	91.7109
1418.49	215.303
1422.7	48.9273
1426.92	53.9145
1431.13	103.217
1435.34	142.917
1439.54	35.6499
1443.75	65.208
1447.95	129.776
1452.15	106.878
1456.35	114.386
1460.54	125.728
1464.73	71.3071
1468.92	0.024414
1473.11	44.1509
1477.3	8.06787
1481.48	104.876
1485.67	20.0664
1489.85	16.0132
1494.02	38.6685
1498.2	169.663
1502.37	136.654
1506.55	198.577
1510.71	35.8491
1514.88	125.948
1519.05	89.1782
1523.21	216.331
1527.37	153.095
1531.53	76.2734
1535.68	98.3872
1539.84	97.687
1543.99	7.46875
1548.14	122.487
1552.29	14.7559
1556.44	148.486
1560.58	4.27246
