Measurement: Raman, 514 nm, ccw, Raman Data Processed
Mineral: Gypsum
Rruff sample: R060509
Ideal chemistry: CaSO_4_2H_2_O
Locality: Pierre Shale, Hermosa, Custer County, South Dakota, USA
Source: Michael Scott
Description: Colorless tabular single crystal
Pin_id: L01423
Orientation: Laser parallel to (1 0 1). Fiducial mark perpendicular to laser is parallel to b [0 1 0]
Raman shift (cm-1)	intensity
155.894	0
160.834	257.891
165.771	628.979
170.705	1293.61
175.635	2618.43
180.563	3383.39
185.487	1984.75
190.409	566.873
195.327	192.918
200.242	255.216
205.155	321.824
210.064	337.853
214.97	230.668
219.873	107.605
224.773	87.3784
229.67	44.5615
234.564	44.7971
239.455	21.6362
244.342	22.3096
249.227	13.5706
254.109	33.5308
258.988	34.6707
263.864	49.5122
268.736	29.6614
273.606	5.18555
278.473	4.94287
283.337	2.91724
288.197	48.7647
293.055	8.2251
297.91	0.445801
302.762	28.488
307.611	42.3047
312.456	181.405
317.299	166.154
322.139	176.902
326.976	94.4009
331.81	166.69
336.641	87.2251
341.469	139.446
346.294	124.758
351.116	172.209
355.936	139.666
360.752	151.808
365.565	193.563
370.376	210.901
375.183	209.154
379.988	254.751
384.789	296.416
389.588	336.156
394.384	483.603
399.177	799.407
403.967	1927.3
408.754	4377.49
413.538	6876.72
418.319	4205.13
423.097	1500.52
427.873	577.352
432.646	342.268
437.415	202.499
442.182	130.102
446.946	80.001
451.707	101.468
456.465	11.9075
461.221	107.354
465.973	107.562
470.723	145.326
475.47	114.962
480.214	202.834
484.955	625.145
489.693	1138.02
494.429	1288.72
499.161	780.698
503.891	287.579
508.618	187.969
513.342	99.158
518.063	59.6799
522.782	20.2756
527.497	64.0149
532.21	64.9956
536.92	0.133789
541.627	23.3916
546.332	61.7434
551.034	71.6577
555.732	143.445
560.428	155.377
565.122	197.468
569.812	234.451
574.5	192.972
579.185	166.445
583.867	204.087
588.546	248.982
593.223	176.967
597.897	155.22
602.568	236.835
607.236	370.991
611.902	610.244
616.565	855.372
621.225	844.94
625.882	528.816
630.537	262.041
635.189	118.77
639.838	196.639
644.484	89.4194
649.128	32.4846
653.769	167.527
658.407	286.337
663.043	990.962
667.676	2258.58
672.306	2319.48
676.933	805.844
681.558	314.531
686.18	85.1892
690.799	73.8103
695.416	62.3782
700.03	15.8821
704.641	6.25317
709.25	24.5442
713.856	36.7568
718.459	6.43311
723.059	3.13965
727.657	66.6799
732.253	8.67822
736.845	137.96
741.435	76.0652
746.022	28.3069
750.607	72.22
755.189	50.113
759.768	59.8579
764.345	22.3271
768.919	57.7659
773.49	54.3796
778.059	101.415
782.625	43.3489
787.189	119.083
791.749	152.716
796.308	139.153
800.863	94.4468
805.416	98.606
809.967	171.646
814.515	190.599
819.06	180.422
823.603	128.11
828.143	257.255
832.68	186.925
837.215	167.907
841.747	125.007
846.277	181.379
850.804	198.273
855.328	81.0874
859.85	134.728
864.37	7.49414
868.886	83.6611
873.401	51.7383
877.912	28.2573
882.421	38.062
886.928	65.8252
891.432	109.516
895.933	31.6694
900.432	14.0703
904.929	15.5083
909.423	138.919
913.914	64.2866
918.403	71.1196
922.889	52.5684
927.373	64.6269
931.854	72.9321
936.332	102.121
940.809	37.2563
945.282	10.2334
949.753	83.3169
954.222	29.4219
958.688	79.5019
963.152	108.565
967.613	244.616
972.071	257.678
976.527	396.776
980.981	590.882
985.432	940.192
989.881	1504.54
994.327	2486.86
998.771	6791.55
1003.21	27879
1007.65	53037.4
1012.09	17468.9
1016.52	3784.22
1020.95	1593.95
1025.38	863.518
1029.81	524.275
1034.23	366.204
1038.65	221.792
1043.07	184.58
1047.49	96.9399
1051.9	154.287
1056.31	158.761
1060.72	27.5894
1065.13	97.3291
1069.54	148.994
1073.94	92.8916
1078.34	79.8701
1082.73	133.917
1087.13	166.093
1091.52	171.365
1095.91	401.734
1100.3	458.201
1104.68	595.428
1109.07	982.176
1113.45	1161.05
1117.82	1159.07
1122.2	1188.2
1126.57	1924.45
1130.94	4837.8
1135.31	6621.26
1139.68	3370.82
1144.04	1302.15
1148.4	642.987
1152.76	383.999
1157.12	167.167
1161.47	136.398
1165.82	42.0493
1170.17	94.4961
1174.52	102.323
1178.87	66.2022
1183.21	99.1719
1187.55	111.209
1191.88	43.001
1196.22	46.0395
1200.55	8.18066
1204.88	53.3862
1209.21	73.645
1213.54	133.2
1217.86	70.4258
1222.18	87.7061
1226.5	136.03
1230.82	155.949
1235.13	41.2275
1239.44	102.889
1243.75	107.484
1248.06	102.012
1252.37	134.797
1256.67	109.502
1260.97	137.067
1265.27	64.7852
1269.56	75.5132
1273.86	0.785156
1278.15	141.547
1282.44	19.0059
1286.72	35.3154
1291.01	26.3105
1295.29	134.62
1299.57	12.9273
1303.85	115.891
1308.12	99.2632
1312.39	135.339
1316.67	27.7388
1320.93	27.7881
1325.2	79.6245
1329.46	110.578
1333.73	88.7891
1337.98	59.5049
1342.24	124.196
1346.5	81.543
1350.75	45.1851
1355	198.58
1359.25	66.8306
1363.49	42.4663
1367.74	83.5098
1371.98	35.5864
1376.22	39.4258
1380.46	37.8472
1384.69	67.6602
1388.92	58.6221
1393.15	61.4048
1397.38	168.9
1401.61	102.004
1405.83	212.204
1410.05	88.3462
1414.27	259.522
1418.49	146.076
1422.7	130.778
1426.92	234.364
1431.13	138.417
1435.34	229.719
1439.54	93.062
1443.75	104.574
1447.95	205.183
1452.15	13.1074
1456.35	90.7285
1460.54	89.604
1464.73	160.681
1468.92	24.3975
1473.11	121.854
1477.3	138.683
1481.48	108.316
1485.67	91.791
1489.85	69.2383
1494.02	189.047
1498.2	2.33496
1502.37	62.9321
1506.55	179.355
1510.71	39.5576
1514.88	61.4531
1519.05	116.366
1523.21	94.1157
1527.37	112.55
1531.53	115.124
1535.68	65.7451
1539.84	78.5303
1543.99	34.1938
1548.14	92.7285
1552.29	131.447
1556.44	92.1909
1560.58	4.51172
