Measurement: Raman, 514 nm, ccw, Raman Data Processed
Mineral: Gypsum
Rruff sample: R060509
Ideal chemistry: CaSO_4_2H_2_O
Locality: Pierre Shale, Hermosa, Custer County, South Dakota, USA
Source: Michael Scott
Description: Colorless tabular single crystal
Pin_id: L01702
Orientation: Laser parallel to a* (1 0 0). Fiducial mark perpendicular to laser is parallel to b [0 1 0]
Raman shift (cm-1)	intensity
152.187	0
157.13	101.859
162.069	396.993
167.005	1119.03
171.938	2171.2
176.868	3457.95
181.794	4039.42
186.718	2236.05
191.639	818.026
196.556	420.725
201.471	426.858
206.382	519.074
211.29	465.45
216.196	361.007
221.098	220.653
225.997	64.7146
230.894	15.8457
235.787	7.16284
240.677	44.0964
245.564	27.5029
250.448	13.5901
255.329	49.6982
260.207	41.0061
265.082	8.97754
269.954	20.8069
274.823	27.2295
279.689	58.8245
284.552	43.1252
289.412	22.3709
294.269	48.3743
299.123	17.6108
303.974	65.9321
308.822	166.46
313.667	154.083
318.509	210.477
323.349	190.413
328.185	205.776
333.018	89.7422
337.848	121.161
342.676	102.383
347.5	125.537
352.321	82.3826
357.14	121.426
361.955	159.742
366.768	157.379
371.578	161.325
376.384	200.951
381.188	178.836
385.989	235.092
390.787	378.519
395.582	500.644
400.374	1080.45
405.164	2960.06
409.95	5754.65
414.733	7549.29
419.514	4098.72
424.292	1294.96
429.066	523.285
433.838	334.976
438.607	140.437
443.373	88.2327
448.137	69.1616
452.897	105.588
457.655	34.5117
462.409	48.3594
467.161	56.2424
471.91	111.978
476.656	269.172
481.399	463.825
486.14	1035.77
490.877	1537.44
495.612	1533.82
500.344	702.149
505.073	319.331
509.799	192.257
514.523	37.3865
519.243	29.4492
523.961	42.7529
528.676	7.63696
533.388	7.2915
538.097	31.5901
542.804	25.272
547.508	63.2188
552.209	96.8623
556.907	57.6699
561.602	191.148
566.295	167.285
570.984	237.843
575.671	197.504
580.356	154.08
585.037	233.825
589.716	214.711
594.392	176.661
599.065	256.519
603.735	293.5
608.403	530.65
613.068	976.876
617.73	1206.33
622.389	1142.14
627.046	582.476
631.7	246.149
636.351	100.091
641	99.8457
645.645	20.3828
650.288	9.5293
654.929	120.117
659.566	426.813
664.201	1140.58
668.833	2286.03
673.463	2088.98
678.09	505.022
682.714	217.504
687.335	58.9487
691.954	69.2686
696.57	27.5273
701.183	71.7095
705.793	13.1914
710.401	31.2842
715.007	2.8374
719.609	8.16211
724.209	46.6768
728.806	60.585
733.401	16.9409
737.993	2.23291
742.582	57.6152
747.169	38.2114
751.753	45.1177
756.334	51.126
760.913	56.2822
765.489	50.187
770.062	65.5991
774.633	27.6968
779.201	84.0347
783.766	28.2324
788.329	25.625
792.889	41.3745
797.447	60.7441
802.002	82.4121
806.554	103.558
811.104	91.8413
815.651	94.7246
820.196	88.4761
824.738	125.069
829.277	121.522
833.814	112.835
838.348	91.5386
842.88	87.5791
847.409	54.0332
851.935	116.127
856.459	16.312
860.98	32.4644
865.499	44.8935
870.015	57.8467
874.529	55.1851
879.04	61.9805
883.548	18.6309
888.054	0.193359
892.558	31.4194
897.058	32.2363
901.557	6.52295
906.052	69.3677
910.546	61.7017
915.036	125.254
919.524	33.2773
924.01	64.6997
928.493	88.6807
932.974	75.0767
937.452	33.6587
941.927	11.7739
946.4	82.8643
950.871	32.5054
955.339	14.1289
959.804	54.7261
964.267	137.408
968.728	265.118
973.185	324.886
977.641	439.692
982.094	748.601
986.544	1237.9
990.992	1795.67
995.438	3401.96
999.881	11071.3
1004.32	39500.4
1008.76	52066.1
1013.2	13579.5
1017.63	3491.36
1022.06	1571.28
1026.49	846.056
1030.91	437.191
1035.34	321.878
1039.76	305.3
1044.18	154.328
1048.59	93.0298
1053.01	42.4126
1057.42	99.5469
1061.83	107.682
1066.23	173.004
1070.64	94.146
1075.04	34.4321
1079.44	232.108
1083.83	163.418
1088.23	251.336
1092.62	291.305
1097.01	429.476
1101.39	602.083
1105.78	781.762
1110.16	1157.28
1114.54	1510.57
1118.92	1549.41
1123.29	1699.71
1127.67	2899.8
1132.04	6055.99
1136.4	6521.31
1140.77	3113.71
1145.13	1366.22
1149.49	616.711
1153.85	320.483
1158.21	205.301
1162.56	90.2983
1166.91	205.042
1171.26	75.8008
1175.61	45.5645
1179.95	15.7324
1184.29	8.33935
1188.63	84.6074
1192.97	14.9609
1197.3	78.6631
1201.64	36.3105
1205.97	45.0176
1210.29	95.8144
1214.62	104.587
1218.94	20.0444
1223.26	100.769
1227.58	23.4067
1231.9	23.7466
1236.21	92.021
1240.52	37.9243
1244.83	54.6958
1249.14	163.035
1253.44	29.7769
1257.74	179.224
1262.04	80.1982
1266.34	73.6196
1270.64	81.6856
1274.93	46.1167
1279.22	45.5581
1283.51	38.0742
1287.79	156.145
1292.08	140.384
1296.36	32.3711
1300.64	125.159
1304.92	149.521
1309.19	103.309
1313.46	90.3032
1317.73	76.0176
1322	118.634
1326.27	63.1821
1330.53	134.94
1334.79	27.3706
1339.05	74.9424
1343.31	137.38
1347.56	151.816
1351.81	1.979
1356.06	141.05
1360.31	111.431
1364.56	20.4634
1368.8	83.5806
1373.04	158.91
1377.28	15.5151
1381.52	79.7495
1385.75	70.2061
1389.98	62.5737
1394.21	62.8091
1398.44	31.9619
1402.66	32.0542
1406.89	102.221
1411.11	67.2275
1415.33	127.416
1419.54	29.9409
1423.76	109.393
1427.97	4.29346
1432.18	112.511
1436.39	83.4863
1440.59	74.854
1444.8	94.3521
1449	146.786
1453.2	16.9448
1457.39	52.5981
1461.59	34.666
1465.78	184.56
1469.97	96.4273
1474.16	153.144
1478.35	139.037
1482.53	38.9351
1486.71	156.587
1490.89	67.4248
1495.07	3.89453
1499.24	149.878
1503.42	89.6323
1507.59	97.3057
1511.76	157.046
1515.92	157.676
1520.09	171.342
1524.25	95.5347
1528.41	154.133
1532.57	42.0557
1536.72	0.39209
1540.88	60.8203
1545.03	166.065
1549.18	143.685
1553.33	104.567
1557.47	166.157
1561.62	36.9595
