Measurement: Raman, 514 nm, ccw, Raman Data Processed
Mineral: Gypsum
Rruff sample: R040029
Ideal chemistry: CaSO_4_2H_2_O
Locality: Twin Buttes, Pima County, Arizona, USA
Source: University of Arizona Mineral Museum
Description: Colorless prismatic crystal
Pin_id: L00233
Orientation: Laser parallel to [-1 0 -1]. Fiducial mark perpendicular to laser is parallel to -b* (0 -1 0)
Raman shift (cm-1)	intensity
79.427	0
83.614	118.802
87.798	212.186
91.981	439.086
96.161	504.382
100.34	605.278
104.516	1055.51
108.691	1500.49
112.864	701.425
117.034	779.298
121.203	542.07
125.369	456.885
129.534	708.876
133.696	521.958
137.857	850.163
142.016	1196.08
146.172	880.471
150.327	482.523
154.48	249.153
158.63	514.699
162.779	948.093
166.926	620.479
171.07	1206.71
175.213	2580.13
179.354	3966.97
183.493	2451.59
187.63	1044.44
191.765	491.857
195.898	347.013
200.029	226.625
204.158	249.171
208.285	251.423
212.41	194.25
216.533	166.003
220.654	17.885
224.773	97.532
228.891	53.522
233.006	8.342
237.119	39.475
241.231	18.867
245.34	39.239
249.448	16.553
253.553	32.54
257.657	14.909
261.758	13.16
265.858	8.084
269.956	52.872
274.052	31.486
278.146	76.326
282.237	94.902
286.327	17.222
290.416	15.029
294.502	67.992
298.586	30.241
302.668	34.669
306.749	12.413
310.827	4.087
314.903	11.975
318.978	57.861
323.051	119.76
327.121	25.326
331.19	31.599
335.257	7.55
339.322	22.523
343.385	37.424
347.446	9.894
351.505	8.868
355.563	83.168
359.618	118.469
363.672	30.829
367.723	146.447
371.773	31.573
375.821	69.582
379.866	83.896
383.91	139.304
387.952	150.936
391.992	351.24
396.031	471.578
400.067	504.273
404.101	1068.25
408.134	2557.57
412.165	6107.92
416.193	3647.61
420.22	1282.74
424.245	658.284
428.268	462.169
432.289	337.557
436.309	191.327
440.326	65.995
444.342	141.992
448.355	98.357
452.367	201.465
456.377	40.773
460.385	13.009
464.391	112.189
468.395	114.05
472.398	176.673
476.398	94.654
480.397	166.582
484.394	239.167
488.389	633.216
492.382	953.721
496.373	574.536
500.362	263.644
504.349	209.109
508.335	153.933
512.319	128.652
516.3	247.611
520.28	172.479
524.259	134.991
528.235	115.235
532.209	10.066
536.182	59.795
540.152	28.737
544.121	132.318
548.088	151.358
552.053	187.348
556.017	203.871
559.978	74.229
563.938	122.457
567.895	223.593
571.851	203.737
575.805	263.943
579.758	234.037
583.708	166.588
587.657	312.301
591.603	154.025
595.548	313.168
599.491	277.545
603.432	248.501
607.372	114.604
611.309	164.617
615.245	219.671
619.179	321.147
623.111	356.276
627.041	548.513
630.97	484.09
634.896	169.587
638.821	255.046
642.744	354.693
646.665	437.349
650.584	316.149
654.502	309.828
658.418	352.412
662.331	112.872
666.244	611.298
670.154	782.338
674.062	289.562
677.969	122.71
681.874	140.522
685.777	95.904
689.678	108.555
693.577	205.503
697.475	6.708
701.371	40.404
705.265	269.525
709.157	168.825
713.047	226.859
716.936	231.104
720.823	0.124
724.708	6.464
728.591	150.914
732.472	103.138
736.352	186.875
740.23	34.912
744.106	135.875
747.98	161.732
751.853	101.476
755.723	126.482
759.592	57.846
763.459	160.344
767.325	55.435
771.188	10.861
775.05	110.279
778.91	93.646
782.768	99.052
786.625	71.975
790.479	82.939
794.332	112.799
798.183	43.377
802.033	51.343
805.88	229.014
809.726	196.632
813.57	191.213
817.413	186.76
821.253	74.279
825.092	159.768
828.929	73.084
832.764	76.646
836.598	213.875
840.429	286.646
844.259	332.306
848.088	211.383
851.914	113.463
855.739	314.124
859.562	383.319
863.383	399.682
867.203	190.438
871.02	160.283
874.836	215.658
878.65	115.302
882.463	106.125
886.274	62.03
890.083	156.971
893.89	252.09
897.695	277.657
901.499	159.799
905.301	178.445
909.102	142.171
912.9	183.921
916.697	16.694
920.492	108.304
924.285	125.936
928.077	165.909
931.867	512.062
935.655	73.885
939.442	197.738
943.226	63.992
947.009	232.172
950.791	272.401
954.57	169.374
958.348	136.45
962.124	54.019
965.899	204.931
969.671	202.11
973.442	254.896
977.211	209.446
980.979	309.017
984.745	571.553
988.509	965.192
992.271	1093.88
996.032	1603.62
999.791	3726.77
1003.55	10446.5
1007.3	44880.3
1011.06	13835.3
1014.81	3430.24
1018.56	1555.7
1022.31	963.097
1026.06	664.468
1029.8	490.944
1033.55	379.631
1037.29	392.189
1041.03	391.98
1044.77	254.277
1048.5	341.041
1052.24	240.085
1055.97	296.64
1059.7	145.187
1063.43	151.654
1067.16	362.518
1070.89	320.523
1074.61	326.262
1078.34	313.268
1082.06	166.726
1085.78	303.806
1089.5	175.052
1093.21	218.412
1096.93	206.295
1100.64	17.287
1104.35	209.42
1108.06	90.269
1111.77	13.443
1115.48	29.51
1119.18	74.096
1122.89	209.883
1126.59	396.988
1130.29	969.992
1133.99	2264.16
1137.68	2094.4
1141.38	669.789
1145.07	291.881
1148.76	138.332
1152.45	73.643
1156.14	90.012
1159.83	142.115
1163.51	92.154
1167.19	150.779
1170.88	26.232
1174.56	168.594
1178.23	52.936
1181.91	186.838
1185.59	57.156
1189.26	9.502
1192.93	33.74
1196.6	162.979
1200.27	85.893
1203.94	295.09
1207.6	134.588
1211.27	115.967
1214.93	180.865
1218.59	120.146
1222.25	10.893
1225.9	214.439
1229.56	148.443
1233.21	343.172
1236.86	251.721
1240.51	378.703
1244.16	65.182
1247.81	76.023
1251.45	130.74
1255.1	150.764
1258.74	305.842
1262.38	277.67
1266.02	161.262
1269.66	81.893
1273.29	298.111
1276.93	153.98
1280.56	257.523
1284.19	215.738
1287.82	215.545
1291.45	101.908
1295.07	219.434
1298.7	124.066
1302.32	97.57
1305.94	176.943
1309.56	382.604
1313.18	32.984
1316.8	224.23
1320.41	166.674
1324.02	136.748
1327.63	32.775
1331.24	214.99
1334.85	43.26
1338.46	78.176
1342.06	82.408
1345.67	51.883
1349.27	108.949
1352.87	130.27
1356.47	196.535
1360.07	206.633
1363.66	350.252
1367.25	200.908
1370.85	219.916
1374.44	253.693
1378.03	98.252
1381.61	216.52
1385.2	265.545
1388.78	253.158
1392.37	255.172
1395.95	334.689
1399.53	283.742
1403.1	230.773
1406.68	90.873
1410.26	114.074
1413.83	225.523
1417.4	207.938
1420.97	353.021
1424.54	348.316
1428.1	396.441
1431.67	438.754
1435.23	553.529
1438.8	572.625
1442.36	795.109
1445.91	919.631
1449.47	587.65
1453.03	977.111
1456.58	956.652
1460.13	1150.79
1463.68	876.43
1467.23	515.262
1470.78	631.854
1474.33	433.215
1477.87	418.918
1481.42	350.479
1484.96	383.674
1488.5	318.277
1492.04	471.299
1495.57	266.129
1499.11	12.854
1502.64	65.574
1506.17	71.555
1509.71	217.918
1513.23	134.5
1516.76	65.789
1520.29	1.439
