Measurement: Raman, 514 nm, ccw, Raman Data Processed
Mineral: Gypsum
Rruff sample: R060509
Ideal chemistry: CaSO_4_2H_2_O
Locality: Pierre Shale, Hermosa, Custer County, South Dakota, USA
Source: Michael Scott
Description: Colorless tabular single crystal
Pin_id: L01702
Orientation: Laser parallel to a* (1 0 0). Fiducial mark perpendicular to laser is parallel to b [0 1 0]
Raman shift (cm-1)	intensity
189.179	0
194.098	53.1196
199.014	194.897
203.927	429.246
208.837	721.342
213.744	622.901
218.647	290.381
223.548	173.218
228.446	86.8965
233.34	45.47
238.232	1.56177
243.121	49.5642
248.006	31.948
252.889	1.03686
257.768	37.6028
262.645	69.6023
267.518	68.5635
272.389	70.3958
277.256	60.8225
282.121	44.0464
286.982	70.323
291.841	58.4522
296.697	16.3799
301.549	62.187
306.399	64.781
311.245	124.212
316.089	91.5879
320.929	122.255
325.767	61.1016
330.602	4.5061
335.434	24.6155
340.262	20.1748
345.088	33.1504
349.911	1.99243
354.731	23.7075
359.548	39.9851
364.362	56.0593
369.173	51.2022
373.981	64.7546
378.787	87.2231
383.589	67.8264
388.388	195.044
393.185	204.566
397.979	337.348
402.769	722.463
407.557	1683.32
412.342	2423.54
417.124	2133.46
421.903	801.701
426.679	271.182
431.453	114.961
436.223	131.099
440.991	69.3227
445.755	33.238
450.517	102.256
455.276	15.6062
460.032	69.5713
464.785	95.7935
469.536	140.047
474.283	187.574
479.028	332.346
483.77	744.244
488.509	1277.74
493.245	1356.79
497.978	970.963
502.709	390.026
507.436	203.235
512.161	57.6829
516.883	24.1558
521.602	63.6902
526.319	58.3818
531.032	128.143
535.743	58.9644
540.451	116.904
545.156	74.9831
549.858	125.148
554.558	110.38
559.255	136.726
563.949	286.238
568.64	370.235
573.328	451.982
578.014	448.71
582.697	467.825
587.377	582.168
592.054	681.918
596.729	608.494
601.4	881.9
606.069	1096.02
610.736	1519.22
615.399	2043.44
620.06	2366.99
624.718	1669.85
629.373	816.779
634.026	387.861
638.676	159.635
643.323	82.6148
647.967	42.5308
652.609	61.4675
657.248	118.23
661.884	402.195
666.518	818.531
671.148	1193.71
675.777	560.424
680.402	180.402
685.025	102.285
689.645	97.2095
694.262	60.3586
698.877	28.9595
703.489	8.08032
708.098	22.6143
712.704	5.78735
717.308	42.0693
721.909	38.1084
726.508	72.384
731.104	56.9463
735.697	0.633789
740.288	56.6201
744.876	67.7769
749.461	85.1851
754.044	9.3689
758.624	85.5781
763.201	17.6157
767.776	14.2529
772.348	67.2473
776.917	21.6333
781.484	136.148
786.048	165.097
790.61	157.292
795.168	14.0432
799.725	3.5874
804.278	43.6543
808.83	64.7896
813.378	79.8018
817.924	10.3408
822.467	71.3154
827.008	20.9844
831.546	152.404
836.081	20.3164
840.614	38.3701
845.145	55.3252
849.672	42.0967
854.197	66.9077
858.72	24.1411
863.24	59.2817
867.757	54.5684
872.272	54.561
876.785	97.6856
881.294	47.7324
885.802	66.6338
890.306	66.5288
894.808	45.8628
899.308	2.8418
903.805	26.6875
908.299	58.7192
912.791	24.2324
917.281	50.7837
921.768	56.7783
926.252	56.7632
930.734	17.0771
935.213	96.6953
939.69	100.328
944.164	110.295
948.636	61.3984
953.105	107.637
957.572	84.2075
962.036	90.9492
966.498	171.713
970.957	229.664
975.414	362.675
979.868	471.783
984.32	618.702
988.769	1173.89
993.216	1786.68
997.66	4350.94
1002.1	19138.4
1006.54	37642.6
1010.98	22317.2
1015.41	4245.92
1019.84	1532.1
1024.27	760.503
1028.7	457.231
1033.12	253.972
1037.55	198.048
1041.97	212.31
1046.38	84.0542
1050.8	133.536
1055.21	32.7783
1059.62	102.345
1064.03	45.248
1068.43	111.635
1072.84	147.884
1077.24	130.102
1081.63	111.429
1086.03	243.876
1090.42	249.467
1094.81	282.318
1099.2	448.106
1103.59	583.022
1107.97	786.815
1112.35	921.79
1116.73	1066.97
1121.11	1003.84
1125.48	897.262
1129.85	1929.84
1134.22	3297.11
1138.59	3176.25
1142.95	2058.1
1147.31	1040.31
1151.67	425.041
1156.03	303.128
1160.38	195.579
1164.74	53.4224
1169.09	200.085
1173.43	42.7685
1177.78	113.531
1182.12	61.3726
1186.46	20.5605
1190.8	114.268
1195.14	12.9893
1199.47	5.23877
1203.8	58.5381
1208.13	34.3438
1212.46	117.3
1216.78	137.407
1221.1	64.4497
1225.42	105.403
1229.74	168.366
1234.05	38.6616
1238.37	69.3096
1242.68	83.2197
1246.98	8.83984
1251.29	90.8955
1255.59	10.9004
1259.89	44.2124
1264.19	75.229
1268.49	42.0703
1272.78	43.5942
1277.08	96.8247
1281.36	100.241
1285.65	25.5898
1289.94	6.54102
1294.22	17.773
1298.5	102.913
1302.78	131.94
1307.05	78.6299
1311.33	31.5996
1315.6	27.8149
1319.87	92.3608
1324.13	115.676
1328.4	47.2559
1332.66	101.93
1336.92	14.6919
1341.18	13.3413
1345.43	202.057
1349.69	193.832
1353.94	81.8906
1358.19	115.172
1362.43	103.189
1366.68	86.8423
1370.92	84.0234
1375.16	120.29
1379.4	86.2666
1383.63	33.0483
1387.87	35.1265
1392.1	85.7695
1396.33	137.149
1400.55	33.5147
1404.78	89.4609
1409	59.0083
1413.22	1.08789
1417.43	137.833
1421.65	141.193
1425.86	124.522
1430.08	118.198
1434.28	129.787
1438.49	176.681
1442.69	92.1968
1446.9	157.015
1451.1	117.634
1455.3	87.9614
1459.49	68.2353
1463.68	21.5049
1467.88	18.6719
1472.07	47.8247
1476.25	130.471
1480.44	44.251
1484.62	55.9321
1488.8	107.946
1492.98	46.4273
1497.16	88.4561
1501.33	97.8428
1505.5	115.557
1509.67	88.1138
1513.84	1.19336
1518.01	55.2842
1522.17	88.6602
1526.33	146.235
1530.49	38.04
1534.65	116.178
1538.8	77.5767
1542.95	113.459
1547.1	17.8911
1551.25	36.9263
1555.4	53.7715
1559.54	0.360352
