Measurement: Raman, 514 nm, ccw, Raman Data Processed
Mineral: Hardystonite
Rruff sample: R040026
Ideal chemistry: Ca_2_ZnSi_2_O_7_
Locality: Franklin, Sussex County, New Jersey, USA
Source: University of Arizona Mineral Museum
Description: White massive
Measured chemistry: (Ca_1.98_Mn_0.02_)_Σ=2_(Zn_0.99_Al_0.01_)_Σ=1_(Si_1.99_Al_0.01_)_Σ=2_O_7_
Pin_id: S00031
Orientation: Laser parallel to c* (0 0 1). Fiducial mark perpendicular to laser is parallel to a [1 0 0]
Raman shift (cm-1)	intensity
123.981	0
128.146	3.04541
132.309	104.099
136.47	138.894
140.63	273.146
144.787	422.13
148.942	277.03
153.096	250.538
157.247	261.774
161.396	203.254
165.544	230.665
169.689	121.782
173.833	89.1528
177.974	7.74951
182.114	33.5107
186.251	4.93799
190.387	73.5527
194.52	53.7978
198.652	114.16
202.782	214.466
206.909	448.425
211.035	847.731
215.159	1197.71
219.281	1522.09
223.4	1776.6
227.518	1780.16
231.634	1916.95
235.748	2000.45
239.86	2145.33
243.97	2216.74
248.079	2249.34
252.185	2161.97
256.289	2006.8
260.391	2071.77
264.492	2006.84
268.59	1921.54
272.687	1786.83
276.781	1558.3
280.874	1233.14
284.964	993.539
289.053	853.809
293.14	760.395
297.225	627.662
301.308	609.709
305.389	663.08
309.468	669.223
313.545	778.613
317.62	690.69
321.693	559.705
325.765	559.175
329.834	487.705
333.902	409.094
337.967	385.279
342.031	312.151
346.093	352.669
350.153	331.184
354.21	189.875
358.267	131.295
362.321	111.85
366.373	88.1299
370.423	6.30176
374.471	19.2109
378.518	13.5342
382.563	127.094
386.605	218.171
390.646	258.723
394.685	170.731
398.722	132.185
402.757	26.855
406.79	67.6958
410.821	48.2178
414.851	50.669
418.878	116.018
422.904	19.9092
426.927	251.256
430.949	424.836
434.969	911.625
438.987	1471.74
443.003	1843.66
447.018	1967.66
451.03	1845.56
455.041	1739.03
459.049	1683.05
463.056	1693.64
467.061	2056.81
471.064	2425.59
475.065	2982.97
479.064	3476.92
483.062	3503.46
487.057	3229.35
491.051	2780.68
495.043	2149.34
499.032	1808.52
503.02	1335.21
507.007	1228.8
510.991	1002.95
514.973	876.411
518.954	727.176
522.933	717.549
526.91	593.684
530.885	535.313
534.858	550.723
538.829	567.257
542.799	696.08
546.766	873.465
550.732	932.61
554.696	728.915
558.658	586.296
562.618	425.731
566.576	523.35
570.533	413.642
574.488	595.428
578.44	639.561
582.391	1018.67
586.341	1426.31
590.288	1796.05
594.233	2180.54
598.177	2781.77
602.119	4117.19
606.059	6948.16
609.997	12168.7
613.933	16498.9
617.868	14492.2
621.801	11267.6
625.731	9160.57
629.66	7205.01
633.588	5383.17
637.513	4471.9
641.437	5165.41
645.358	6320.71
649.278	8309.81
653.196	12871.7
657.113	21777.5
661.027	32796
664.94	32400.4
668.851	23043.6
672.76	15038.7
676.667	9733.68
680.572	6100.54
684.476	3858.3
688.378	2392.98
692.278	1394.67
696.176	1068.39
700.072	627.089
703.967	434.73
707.86	211.294
711.751	195.785
715.64	9.79932
719.527	56.4785
723.413	63.1953
727.297	42.0488
731.179	41.1157
735.059	45.4497
738.937	13.1001
742.814	40.8032
746.689	128.787
750.562	123.825
754.433	53.7124
758.303	197.715
762.17	11.5137
766.036	85.4238
769.901	57.0596
773.763	99.4609
777.624	24.7432
781.482	98.2031
785.339	17.6074
789.195	105.03
793.048	145.108
796.9	282.84
800.75	250.567
804.598	274.422
808.445	263.027
812.289	361.769
816.132	466.524
819.973	513.3
823.813	656.097
827.65	762.92
831.486	982.773
835.32	1249.67
839.152	1415.64
842.983	1667.86
846.812	1979.5
850.639	2351.61
854.464	2578.18
858.288	3232.15
862.11	3410.31
865.93	2948.36
869.748	2545.86
873.564	2686.85
877.379	3053.15
881.192	3370.49
885.004	4597.24
888.813	5549.73
892.621	7953.96
896.427	12324.1
900.232	21054.6
904.034	35333.1
907.835	46290.3
911.634	37615
915.432	23416.3
919.227	14008
923.021	8853.37
926.813	5887.85
930.604	4455.76
934.393	3553.9
938.18	3121.18
941.965	2932.46
945.749	2636.92
949.53	2314.52
953.311	1968.28
957.089	1728.17
960.866	1390.21
964.641	1142.4
968.414	1049.73
972.185	923.205
975.955	650.822
979.723	550.583
983.49	545.484
987.254	731.076
991.017	799.054
994.779	761.803
998.538	1092.87
1002.3	3106.54
1006.05	1539.68
1009.81	906.737
1013.56	856.723
1017.31	1114.85
1021.06	1662.68
1024.81	1540.61
1028.55	1434.69
1032.3	1000.96
1036.04	807.298
1039.78	768.719
1043.52	747.195
1047.26	641.038
1050.99	846.516
1054.73	528.325
1058.46	401.489
1062.19	454.407
1065.92	355.101
1069.65	383.157
1073.37	497.028
1077.1	643.033
1080.82	1259.05
1084.54	1674.13
1088.26	1354.27
1091.97	848.395
1095.69	470.498
1099.4	390.574
1103.12	268.618
1106.83	385.627
1110.54	374.595
1114.24	302.301
1117.95	164.429
1121.65	317.289
1125.35	224.099
1129.06	189.861
1132.75	44.5703
1136.45	42.7998
1140.15	67.4316
1143.84	165.695
1147.53	151.211
1151.22	105.904
1154.91	76.1885
1158.6	28.1582
1162.28	116.345
1165.97	153.432
1169.65	615.384
1173.33	217.119
1177.01	343.735
1180.69	241.215
1184.36	179.572
1188.04	205.801
1191.71	198.895
1195.38	2.96387
1199.05	88.6533
1202.71	141.309
1206.38	142.648
1210.04	83.7764
1213.71	105.714
1217.37	226.89
1221.03	353.431
1224.68	313.844
1228.34	467.124
1231.99	450.273
1235.65	659.297
1239.3	917.193
1242.95	750.963
1246.59	882.61
1250.24	847.144
1253.88	772.496
1257.53	794.714
1261.17	666.202
1264.81	800.27
1268.45	1134.48
1272.08	1286.45
1275.72	1353.38
1279.35	1208.7
1282.98	849.928
1286.61	744.932
1290.24	746.393
1293.87	839.738
1297.49	876.582
1301.11	628.232
1304.73	697.989
1308.36	819.443
1311.97	1070.58
1315.59	1092.35
1319.2	1198.12
1322.82	1140.57
1326.43	835.291
1330.04	512.888
1333.65	237.172
1337.26	227.988
1340.86	99.3008
1344.47	147.047
1348.07	117.186
1351.67	134.579
1355.27	34.1748
1358.87	49.8574
1362.46	152.257
1366.06	144.513
1369.65	100.725
1373.24	198.735
1376.83	165.305
1380.42	367.026
1384	382.883
1387.59	417.589
1391.17	413.714
1394.75	228.378
1398.33	85.7812
1401.91	31.373
1405.49	47.4668
1409.06	79.1465
1412.64	47.6162
1416.21	0.639648
1419.78	115.974
1423.35	166.549
1426.91	22.167
1430.48	0
