Measurement: Raman, 514 nm, ccw, Raman Data Processed
Mineral: Hardystonite
Rruff sample: R040026
Ideal chemistry: Ca_2_ZnSi_2_O_7_
Locality: Franklin, Sussex County, New Jersey, USA
Source: University of Arizona Mineral Museum
Description: White massive
Measured chemistry: (Ca_1.98_Mn_0.02_)_Σ=2_(Zn_0.99_Al_0.01_)_Σ=1_(Si_1.99_Al_0.01_)_Σ=2_O_7_
Pin_id: S00031
Orientation: Laser parallel to c* (0 0 1). Fiducial mark perpendicular to laser is parallel to a [1 0 0]
Raman shift (cm-1)	intensity
126.758	0
130.922	37.0386
135.083	294.654
139.243	285.282
143.401	387.893
147.557	299.434
151.711	193.15
155.863	178.467
160.013	229.516
164.161	347.165
168.308	116.386
172.452	137.203
176.594	51.1509
180.734	51.2163
184.872	30.3174
189.008	24.6953
193.143	2.11768
197.275	112.51
201.405	99.9287
205.534	448.39
209.66	883.326
213.784	1094.55
217.907	1539.46
222.027	1768.75
226.146	1820.15
230.263	1930.26
234.377	2015.66
238.49	2200.64
242.601	2302.12
246.709	2231.62
250.816	2263.11
254.921	2282.75
259.024	2166.64
263.125	2267.95
267.224	2141.7
271.321	2037.55
275.416	1901.31
279.51	1675.13
283.601	1181.09
287.69	984.497
291.778	929.516
295.863	758.205
299.947	789.143
304.029	756.1
308.108	822.144
312.186	880.681
316.262	868.924
320.336	726.43
324.408	589.191
328.478	479.348
332.546	412.72
336.612	391.627
340.677	447.377
344.739	340.443
348.799	270.334
352.858	242.038
356.915	202.134
360.969	111.6
365.022	62.998
369.073	13.9741
373.122	9.09033
377.169	5.33447
381.215	100.704
385.258	106.122
389.299	267.981
393.339	160.294
397.376	108.026
401.412	34.1582
405.446	79.3555
409.478	58.6397
413.508	34.8457
417.536	61.1538
421.562	98.3198
425.586	119.863
429.609	256.498
433.629	682.376
437.648	1336.39
441.665	1708.96
445.68	1942.51
449.693	1878.93
453.704	1665.12
457.713	1694.93
461.721	1851.31
465.726	2081.3
469.73	2427.88
473.731	2944.08
477.731	3562.82
481.729	3792.11
485.725	3341.98
489.72	2999.03
493.712	2567.71
497.703	2050.61
501.691	1560.15
505.678	1379.65
509.663	1070.68
513.646	1005.8
517.627	859.275
521.607	729.862
525.584	695.507
529.56	587.861
533.534	565.415
537.506	598.735
541.476	626.768
545.444	819.106
549.41	858.275
553.375	735.862
557.337	614.411
561.298	575.674
565.257	464.88
569.214	509.571
573.17	502.519
577.123	560.748
581.075	743.622
585.024	1248.56
588.972	1682.44
592.918	1978.81
596.863	2565.03
600.805	3619.61
604.746	6141.87
608.685	10757
612.621	16382.6
616.557	16501.5
620.49	12281.1
624.421	10317.4
628.351	7991.51
632.279	6039.53
636.205	4961.44
640.129	4865.11
644.051	5968.56
647.972	7735.78
651.89	11743.8
655.807	19118.6
659.722	31367.3
663.636	36372.8
667.547	27309.1
671.457	17861.2
675.365	11890.2
679.271	7454.07
683.175	4781.84
687.077	2838.59
690.978	1852.3
694.877	1131.01
698.774	863.796
702.669	494.519
706.562	264.165
710.454	111.728
714.344	86.2085
718.232	23.627
722.118	30.9707
726.002	22.3857
729.885	64.7456
733.766	90.2764
737.645	47.9092
741.522	40.4824
745.397	10.1435
749.271	64.0781
753.143	56.3203
757.013	55.0254
760.881	22.3457
764.748	68.9111
768.613	31.7861
772.476	14.0254
776.337	60.5859
780.196	51.4707
784.054	39.6435
787.91	76.9834
791.764	223.578
795.616	226.154
799.467	231.721
803.316	280.278
807.163	264.837
811.008	257.399
814.851	400.971
818.693	545.555
822.533	778.158
826.371	881.783
830.208	1124.44
834.042	1232.12
837.875	1405.85
841.706	1722.73
845.536	1960.14
849.363	2195.05
853.189	2528.42
857.013	3202.13
860.836	3411.35
864.656	3116.72
868.475	2810.8
872.292	2705.44
876.108	2935.89
879.922	3480.23
883.733	4141.84
887.544	5532.43
891.352	7521.5
895.159	11118.3
898.964	18681
902.767	32494.7
906.568	47411.1
910.368	44568.6
914.166	29931.4
917.962	17948.4
921.757	10859.9
925.55	7132.68
929.341	5238.14
933.13	4032.96
936.918	3456.97
940.703	3259.34
944.488	2791.61
948.27	2474.03
952.051	2233.62
955.83	1978.36
959.607	1616.26
963.383	1354.32
967.156	1119.54
970.928	906.915
974.699	843.453
978.468	736.151
982.234	791.007
986	946.161
989.763	781.632
993.525	747.822
997.285	1054.88
1001.04	2570.91
1004.8	2169.26
1008.55	1064.48
1012.31	887.079
1016.06	1112.97
1019.81	1492.97
1023.56	1762.04
1027.31	1524.22
1031.05	1290.56
1034.79	1078.72
1038.53	905.624
1042.27	867.251
1046.01	870.015
1049.75	737.032
1053.48	641.183
1057.22	618.773
1060.95	468.825
1064.68	405.238
1068.4	452.042
1072.13	523.426
1075.86	694.697
1079.58	1105.15
1083.3	1788.74
1087.02	1579.48
1090.74	940.271
1094.45	728.077
1098.17	387.887
1101.88	469.697
1105.59	364.507
1109.3	451.312
1113.01	395.11
1116.71	216.9
1120.42	190.679
1124.12	444.45
1127.82	196.224
1131.52	119.984
1135.22	170.728
1138.91	106.634
1142.61	228.07
1146.3	159.81
1149.99	169.264
1153.68	182.134
1157.37	12.6914
1161.06	181.669
1164.74	161.1
1168.42	263.685
1172.1	365.135
1175.78	504.271
1179.46	364.31
1183.14	352.263
1186.81	334.12
1190.48	259.875
1194.15	104.519
1197.83	21.9297
1201.49	224.382
1205.16	114.539
1208.82	9.49121
1212.49	94.1387
1216.15	298.655
1219.81	201.876
1223.46	250.204
1227.12	353.289
1230.78	491.56
1234.43	655.608
1238.08	904.578
1241.73	946.473
1245.38	926.306
1249.03	1057.1
1252.67	1111.81
1256.31	708.521
1259.95	647.236
1263.6	916.985
1267.23	1196.8
1270.87	1397.14
1274.51	1356.3
1278.14	1400.46
1281.77	1187.73
1285.4	814.117
1289.03	677.846
1292.66	736.254
1296.28	1182
1299.91	850.49
1303.53	727.753
1307.15	876.692
1310.77	1051.32
1314.38	1238.97
1318	1181.94
1321.61	1171.35
1325.23	1011.91
1328.84	569.088
1332.45	405.853
1336.06	119.163
1339.66	107.97
1343.27	106.214
1346.87	168.815
1350.47	231.601
1354.07	238.476
1357.67	142.364
1361.26	37.5684
1364.86	37.4033
1368.45	142.038
1372.04	186.097
1375.63	339.444
1379.22	419.049
1382.81	492.118
1386.39	431.861
1389.98	479.059
1393.56	504.31
1397.14	164.857
1400.72	102.824
1404.3	47.4082
1407.87	47.1201
1411.45	104.871
1415.02	121.567
1418.59	122.724
1422.16	57.2969
