Measurement: Raman, 514 nm, ccw, Raman Data Processed
Mineral: Hardystonite
Rruff sample: R040026
Ideal chemistry: Ca_2_ZnSi_2_O_7_
Locality: Franklin, Sussex County, New Jersey, USA
Source: University of Arizona Mineral Museum
Description: White massive
Measured chemistry: (Ca_1.98_Mn_0.02_)_Σ=2_(Zn_0.99_Al_0.01_)_Σ=1_(Si_1.99_Al_0.01_)_Σ=2_O_7_
Pin_id: S00031
Orientation: Laser parallel to c* (0 0 1). Fiducial mark perpendicular to laser is parallel to a [1 0 0]
Raman shift (cm-1)	intensity
130.922	0
135.083	141.406
139.243	198.591
143.401	306.996
147.557	360.754
151.711	249.176
155.863	205.548
160.013	167.123
164.161	210.255
168.308	166.62
172.452	262.872
176.594	76.6773
180.734	121.717
184.872	43.772
189.008	13.7627
193.143	1.27734
197.275	86.9199
201.405	115.781
205.534	430.793
209.66	814.819
213.784	1117.34
217.907	1588.1
222.027	1751.54
226.146	1849.34
230.263	1992.52
234.377	2048.13
238.49	2194.21
242.601	2177.84
246.709	2154.43
250.816	2175.88
254.921	2208.21
259.024	2189.39
263.125	2176.99
267.224	2095.46
271.321	1986.08
275.416	1752.86
279.51	1497.38
283.601	1171.65
287.69	893.924
291.778	799.998
295.863	704.712
299.947	632.831
304.029	703.215
308.108	700.604
312.186	766.817
316.262	738.878
320.336	886.002
324.408	872.325
328.478	455.624
332.546	365.176
336.612	380.349
340.677	458.491
344.739	345.958
348.799	327.707
352.858	267.296
356.915	179.699
360.969	149.996
365.022	65.9492
369.073	21.5498
373.122	47.2495
377.169	39.3037
381.215	79.7227
385.258	296.565
389.299	354.866
393.339	263.635
397.376	140.83
401.412	20.498
405.446	30.4199
409.478	70.9961
413.508	69.3779
417.536	133.731
421.562	105.067
425.586	35.832
429.609	103.123
433.629	228.749
437.648	622.431
441.665	796.281
445.68	1002.9
449.693	1122.39
453.704	1186.79
457.713	1369.93
461.721	1598.64
465.726	1863.89
469.73	2387.63
473.731	2866.87
477.731	3528.67
481.729	3721.99
485.725	3503.91
489.72	3068.53
493.712	2515.82
497.703	1989.51
501.691	1621.18
505.678	1334.92
509.663	1089.01
513.646	1063.44
517.627	849.74
521.607	709.304
525.584	632.991
529.56	699.96
533.534	583.543
537.506	658.021
541.476	774.142
545.444	913.352
549.41	1015.25
553.375	916.928
557.337	711.724
561.298	568.664
565.257	533.842
569.214	535.55
573.17	520.467
577.123	613.919
581.075	806.064
585.024	1314.7
588.972	1804.69
592.918	2029.51
596.863	2608.93
600.805	3696.89
604.746	6040.78
608.685	10912
612.621	16394
616.557	16556.3
620.49	12511.4
624.421	10619.3
628.351	8051
632.279	6029.42
636.205	5066.27
640.129	5193.89
644.051	6111.31
647.972	7966.54
651.89	11769.6
655.807	19180.5
659.722	31278.2
663.636	36223.8
667.547	27129.2
671.457	17988.4
675.365	11963.6
679.271	7644.65
683.175	5099.64
687.077	3133.58
690.978	1956.5
694.877	1141.42
698.774	798.327
702.669	392.184
706.562	341.973
710.454	75.6992
714.344	106.319
718.232	29.7812
722.118	36.8262
726.002	110.459
729.885	157.727
733.766	29.1914
737.645	29.9023
741.522	11.544
745.397	46.2871
749.271	78.5635
753.143	75.0752
757.013	25.1211
760.881	98.7285
764.748	89.7705
768.613	45.8643
772.476	60.3906
776.337	86.2988
780.196	59.8076
784.054	25.8789
787.91	112.9
791.764	242.877
795.616	298.877
799.467	331.905
803.316	316.969
807.163	239.072
811.008	433.22
814.851	480.417
818.693	548.667
822.533	826.977
826.371	745.351
830.208	1187.79
834.042	1250.3
837.875	1493.91
841.706	1865.72
845.536	2003
849.363	2252.73
853.189	2586.95
857.013	3246.64
860.836	3820.74
864.656	3225.68
868.475	2791.94
872.292	2852.97
876.108	2995.47
879.922	3491.57
883.733	4322.15
887.544	5579.2
891.352	7589.01
895.159	11159.1
898.964	18631.2
902.767	32171.9
906.568	46890.9
910.368	44055.5
914.166	29675.9
917.962	17786
921.757	10795.8
925.55	7346.8
929.341	5066.36
933.13	4022.35
936.918	3487.81
940.703	3143.53
944.488	2650.78
948.27	2440.22
952.051	2322.84
955.83	1999.65
959.607	1490.63
963.383	1349.79
967.156	1052.14
970.928	879.662
974.699	707.365
978.468	550.247
982.234	775.308
986	850.544
989.763	823.662
993.525	670.076
997.285	1036.01
1001.04	2601.82
1004.8	2134.94
1008.55	1032.81
1012.31	885.383
1016.06	1038.72
1019.81	1317.24
1023.56	1757.77
1027.31	1358.43
1031.05	1017.28
1034.79	821.322
1038.53	797.439
1042.27	701.636
1046.01	760.91
1049.75	722.113
1053.48	686.128
1057.22	652.908
1060.95	395.872
1064.68	376.191
1068.4	397.079
1072.13	523.792
1075.86	772.608
1079.58	1278.56
1083.3	1971.6
1087.02	2041.68
1090.74	1250.81
1094.45	720.97
1098.17	411.13
1101.88	328.292
1105.59	330.454
1109.3	457.61
1113.01	327.761
1116.71	177.902
1120.42	89.0898
1124.12	368.266
1127.82	118.433
1131.52	77.5742
1135.22	200.679
1138.91	47.4522
1142.61	97.5205
1146.3	191.802
1149.99	218.871
1153.68	137.404
1157.37	99.3389
1161.06	90.4443
1164.74	216.17
1168.42	319.768
1172.1	290.227
1175.78	371.508
1179.46	344.693
1183.14	390.783
1186.81	241.772
1190.48	304.649
1194.15	49.4102
1197.83	30.9668
1201.49	220.456
1205.16	120.728
1208.82	85.8008
1212.49	78.6348
1216.15	289.284
1219.81	298.899
1223.46	276.482
1227.12	229.911
1230.78	511.252
1234.43	724.514
1238.08	935.699
1241.73	853.818
1245.38	927.887
1249.03	953.909
1252.67	913.872
1256.31	766.836
1259.95	759.823
1263.6	1018.15
1267.23	1207.28
1270.87	1416.95
1274.51	1433.73
1278.14	1346.64
1281.77	1062.5
1285.4	800.886
1289.03	650.704
1292.66	722.273
1296.28	1009.59
1299.91	827.98
1303.53	767.122
1307.15	988
1310.77	1154.75
1314.38	1246.9
1318	1239.97
1321.61	1251.69
1325.23	1084.36
1328.84	743.636
1332.45	402.488
1336.06	157.874
1339.66	155.739
1343.27	156.02
1346.87	278.454
1350.47	307.033
1354.07	238.863
1357.67	99.876
1361.26	31.7637
1364.86	4.48144
1368.45	185.154
1372.04	174.449
1375.63	231.344
1379.22	319.598
1382.81	497.467
1386.39	306.359
1389.98	429.944
1393.56	365.546
1397.14	263.403
1400.72	211.849
1404.3	58.2334
1407.87	104.002
1411.45	191.008
1415.02	113.994
1418.59	102.054
1422.16	41.3477
