Measurement: Raman, 514 nm, ccw, Raman Data Processed
Mineral: Hausmannite
Rruff sample: R040091
Ideal chemistry: Mn^2+^Mn^3+^_2_O_4_
Locality: Germany
Source: University of Arizona Mineral Museum
Description: Mass of black octahedral crystals
Measured chemistry: (Mn^2+^_0.96_Zn_0.02_Mg_0.02_)Mn^3+^_2.00_O_4_
Pin_id: S00198
Orientation: Laser parallel to c* (0 0 1). Fiducial mark perpendicular to laser is parallel to a [1 0 0]
Raman shift (cm-1)	intensity
200.717	0
204.846	87.157
208.972	1.278
213.097	141.263
217.22	235.799
221.341	141.1
225.46	84.393
229.577	140.804
233.692	287.118
237.805	147.835
241.916	241.082
246.025	220.209
250.132	89.833
254.237	98.067
258.34	183.263
262.442	29.335
266.541	16.678
270.639	94.798
274.734	182.287
278.828	187.038
282.919	217.902
287.009	219.098
291.097	106.275
295.183	145.841
299.266	331.589
303.348	390.105
307.428	482.33
311.507	464.79
315.583	416.6
319.657	100.995
323.729	203.741
327.8	87.176
331.868	2.232
335.935	83.02
339.999	82.581
344.062	15.165
348.123	106.694
352.182	196.099
356.239	253.013
360.294	307.626
364.347	400.318
368.398	409.47
372.448	226.058
376.495	164.042
380.54	55.067
384.584	53.214
388.626	43.155
392.666	30.456
396.704	54.727
400.74	92.509
404.774	13.29
408.806	31.384
412.836	20.919
416.865	75.207
420.891	189.335
424.916	131.138
428.939	195.597
432.959	95.872
436.978	85.66
440.996	272.632
445.011	253.96
449.024	297.561
453.036	355.318
457.045	354.841
461.053	231.706
465.059	314.274
469.063	449.824
473.065	336.211
477.065	373.489
481.063	453.078
485.06	578.461
489.054	650.342
493.047	605.375
497.038	640.271
501.027	621.217
505.014	683.219
508.999	779.091
512.982	792.256
516.964	734.985
520.944	886.677
524.921	1322.77
528.897	1528.68
532.871	1066.63
536.844	1010.44
540.814	944.044
544.783	857.697
548.749	1115.32
552.714	1170
556.677	1456.92
560.638	1355.76
564.597	1797.06
568.555	1964.54
572.511	1837.67
576.464	1204.55
580.416	800.438
584.366	423.273
588.315	187.239
592.261	5.317
596.206	15.011
600.148	142.357
604.089	106.456
608.028	227.558
611.965	375.719
615.901	489.334
619.834	610.539
623.766	834.827
627.696	1311.57
631.624	1865.46
635.551	2630.91
639.475	4149.62
643.398	5785.64
647.318	7679.7
651.237	8283.69
655.155	7086.54
659.07	5461.6
662.984	3663.46
666.895	2552.6
670.805	1849.8
674.713	1259.09
678.62	947.428
682.524	747.36
686.427	571.178
690.328	410.184
694.227	483.239
698.124	364.701
702.02	253.861
705.913	310.008
709.805	313.52
713.695	185.352
717.584	188.112
721.47	234.463
725.355	135.689
729.238	78.632
733.119	231.509
736.998	175.014
740.876	115.441
744.752	132.576
748.626	161.619
752.498	85.051
756.368	101.613
760.237	120.387
764.104	115.453
767.969	3.157
771.832	72.716
775.693	49.345
779.553	12.044
783.411	4.51
787.267	123.808
791.122	52.064
794.974	2.814
798.825	18.613
802.674	30.57
806.522	40.55
810.367	8.14
814.211	49.241
818.053	53.528
821.893	34.491
825.732	23.738
829.568	90.844
833.403	16.43
837.236	46.343
841.068	69.554
844.898	61.55
848.726	14.344
852.552	54.991
856.376	69.633
860.199	84.941
864.02	40.52
867.839	69.544
871.656	58.644
875.472	34.451
879.286	132.847
883.098	73.883
886.909	44.994
890.717	33.806
894.524	156.428
898.33	94.227
902.133	16.581
905.935	56.559
909.735	94.596
913.533	89.102
917.33	70.988
921.124	215.302
924.918	126.575
928.709	24.991
932.499	74.341
936.286	132.084
940.073	172.846
943.857	22.289
947.64	153.231
951.421	171.046
955.2	111.354
958.978	150.469
962.753	160.039
966.527	90.627
970.3	126.879
974.071	133.108
977.84	163.443
981.607	87.535
985.372	113.034
989.136	79.103
992.898	106.448
996.659	92.208
1000.42	118.157
1004.17	46.975
1007.93	51.562
1011.68	37.811
1015.43	95.575
1019.18	74.347
1022.93	45.124
1026.68	31.323
1030.42	98
1034.17	10.968
1037.91	46.532
1041.65	97.333
1045.39	16.97
1049.12	26.543
1052.86	90.728
1056.59	160.611
1060.33	5.868
1064.06	9.834
1067.78	114.374
1071.51	90.441
1075.23	53.344
1078.96	39.338
1082.68	62.514
1086.4	15.286
1090.12	53.967
1093.83	122.849
1097.55	160.711
1101.26	115.611
1104.97	81.187
1108.68	232.807
1112.39	118.708
1116.1	128.647
1119.8	163.11
1123.5	192.033
1127.2	164.011
1130.9	97.94
1134.6	207.835
1138.3	93.88
1141.99	66.005
1145.69	253.868
1149.38	224.501
1153.07	105.6
1156.76	76.532
1160.44	193.682
1164.13	142.93
1167.81	73.113
1171.49	55.351
1175.17	186.268
1178.85	103.596
1182.52	5.157
1186.2	161.659
1189.87	187.981
1193.54	77.137
1197.21	76.054
1200.88	106.837
1204.55	163.177
1208.21	119.451
1211.88	134.264
1215.54	348.916
1219.2	79.233
1222.86	162.6
1226.51	183.575
1230.17	165.982
1233.82	52.189
1237.47	136.129
1241.12	266.94
1244.77	159.284
1248.42	79.643
1252.06	232.646
1255.71	168.443
1259.35	103.853
1262.99	64.277
1266.63	206.198
1270.26	251.677
1273.9	144.153
1277.53	70.539
1281.16	225.222
1284.8	152.632
1288.42	85.045
1292.05	222.461
1295.68	283.099
1299.3	87.444
1302.92	147.812
1306.55	143.759
1310.16	206.413
1313.78	20.663
1317.4	84.879
1321.01	122.879
1324.62	77.07
1328.24	19.374
1331.85	108.326
1335.45	172.252
1339.06	106.139
1342.66	71.981
1346.27	79.609
1349.87	38.085
1353.47	15.448
1357.07	9.742
1360.66	95.223
1364.26	124.336
1367.85	0.395
1371.44	70.395
1375.04	146.421
1378.62	21.965
1382.21	27.721
1385.8	112.61
1389.38	88.525
1392.96	40.431
1396.54	14.307
1400.12	109.116
1403.7	161.935
1407.28	32.767
1410.85	20.613
1414.42	228.468
1417.99	113.189
1421.56	34.25
1425.13	99.43
1428.7	156.791
1432.26	105.325
1435.83	68.848
1439.39	96.65
1442.95	171.493
1446.51	58.516
1450.06	54.785
1453.62	135.665
1457.17	161.553
1460.73	1.869
1464.28	55.333
1467.83	84.468
1471.37	171.381
1474.92	77.462
1478.46	139.909
1482.01	207.37
1485.55	114.474
1489.09	64.346
1492.63	136.982
1496.16	286.765
1499.7	138.545
1503.23	51.969
1506.76	169.589
1510.29	121.19
1513.82	64.019
1517.35	2.224
1520.88	0
