Measurement: Raman, 514 nm, ccw, Raman Data Processed
Mineral: Hausmannite
Rruff sample: R040091
Ideal chemistry: Mn^2+^Mn^3+^_2_O_4_
Locality: Germany
Source: University of Arizona Mineral Museum
Description: Mass of black octahedral crystals
Measured chemistry: (Mn^2+^_0.96_Zn_0.02_Mg_0.02_)Mn^3+^_2.00_O_4_
Pin_id: S00198
Orientation: Laser parallel to c* (0 0 1). Fiducial mark perpendicular to laser is parallel to a [1 0 0]
Raman shift (cm-1)	intensity
200.717	0
204.846	43.093
208.972	59.629
213.097	36.274
217.22	71.949
221.341	36.642
225.46	76.621
229.577	96.585
233.692	102.854
237.805	55.236
241.916	41.101
246.025	2.278
250.132	41.612
254.237	12.245
258.34	9.686
262.442	59.877
266.541	89.839
270.639	71.855
274.734	202.045
278.828	271.548
282.919	196.462
287.009	161.191
291.097	183.792
295.183	207.694
299.266	356.173
303.348	449.172
307.428	601.996
311.507	518.54
315.583	530.266
319.657	374.223
323.729	260.854
327.8	287.621
331.868	188.425
335.935	195.346
339.999	192.416
344.062	236.594
348.123	270.209
352.182	312.09
356.239	370.071
360.294	393.638
364.347	381.506
368.398	398.208
372.448	331.683
376.495	213.239
380.54	130.304
384.584	59.852
388.626	40.843
392.666	3.577
396.704	65.968
400.74	5.014
404.774	2.604
408.806	7.573
412.836	20.371
416.865	37.879
420.891	36.373
424.916	37.555
428.939	17.503
432.959	22.61
436.978	4.2
440.996	13.115
445.011	13.444
449.024	83.88
453.036	56.208
457.045	103.417
461.053	107.415
465.059	116.271
469.063	77.916
473.065	101.301
477.065	98.414
481.063	101.338
485.06	126.158
489.054	116.879
493.047	83.545
497.038	40.175
501.027	66.782
505.014	51.379
508.999	33.951
512.982	86.502
516.964	36.027
520.944	62.516
524.921	72.969
528.897	107.339
532.871	107.659
536.844	91.948
540.814	134.185
544.783	101.85
548.749	181.144
552.714	155.551
556.677	174.674
560.638	260.157
564.597	227.314
568.555	232.454
572.511	179.94
576.464	173.716
580.416	165.774
584.366	124.486
588.315	167.97
592.261	191.055
596.206	163.886
600.148	260.532
604.089	317.592
608.028	336.248
611.965	435.64
615.901	551.923
619.834	656.819
623.766	858.713
627.696	1220.54
631.624	1640.43
635.551	2239.39
639.475	3385.27
643.398	4597.81
647.318	5948.44
651.237	6464.03
655.155	5502.35
659.07	4211.33
662.984	2950.45
666.895	2056.98
670.805	1476.74
674.713	1021.41
678.62	873.368
682.524	628.599
686.427	576.572
690.328	439.253
694.227	431.128
698.124	337.618
702.02	248.225
705.913	283.992
709.805	257.062
713.695	232.696
717.584	287.818
721.47	185.194
725.355	153.855
729.238	176.936
733.119	249.292
736.998	173.263
740.876	176.784
744.752	209.477
748.626	158.105
752.498	127.213
756.368	159.369
760.237	129.088
764.104	195.679
767.969	122.269
771.832	110.847
775.693	76.411
779.553	120.959
783.411	25.496
787.267	182.017
791.122	72.52
794.974	74.003
798.825	131.393
802.674	119.924
806.522	62.36
810.367	32.771
814.211	40.855
818.053	73.432
821.893	12.32
825.732	11.873
829.568	42.041
833.403	11.184
837.236	16.289
841.068	56.485
844.898	28.505
848.726	51
852.552	21.161
856.376	27.24
860.199	58.491
864.02	76.303
867.839	65.758
871.656	10.038
875.472	12.727
879.286	68.514
883.098	65.653
886.909	107.765
890.717	32.155
894.524	10.124
898.33	48.066
902.133	0.055
905.935	11.261
909.735	46.496
913.533	82.147
917.33	62.799
921.124	61.36
924.918	65.411
928.709	63.308
932.499	104.735
936.286	93.477
940.073	117.815
943.857	123.811
947.64	101.277
951.421	97.484
955.2	124.646
958.978	54.765
962.753	146.038
966.527	121.404
970.3	160.395
974.071	97.507
977.84	89.132
981.607	91.986
985.372	47.306
989.136	29.373
992.898	50.355
996.659	94.011
1000.42	11.601
1004.17	7.012
1007.93	23.556
1011.68	1.19
1015.43	21.571
1019.18	102.422
1022.93	67.571
1026.68	26.452
1030.42	64.631
1034.17	63.043
1037.91	24.466
1041.65	94.785
1045.39	55.614
1049.12	92.882
1052.86	65.377
1056.59	49.299
1060.33	49.379
1064.06	13.457
1067.78	52.642
1071.51	44.805
1075.23	77.96
1078.96	84.104
1082.68	8.745
1086.4	95.424
1090.12	117.601
1093.83	40.771
1097.55	128.938
1101.26	143.099
1104.97	61.251
1108.68	19.396
1112.39	135.543
1116.1	77.716
1119.8	73.906
1123.5	170.143
1127.2	196.387
1130.9	82.63
1134.6	108.874
1138.3	83.065
1141.99	29.257
1145.69	114.542
1149.38	86.109
1153.07	135.848
1156.76	84.459
1160.44	48.743
1164.13	61.437
1167.81	42.915
1171.49	70.809
1175.17	117.43
1178.85	37.013
1182.52	47.803
1186.2	66.282
1189.87	16.161
1193.54	4.752
1197.21	36.911
1200.88	69.467
1204.55	2.608
1208.21	109.165
1211.88	70.691
1215.54	62.287
1219.2	74.509
1222.86	99.218
1226.51	125.288
1230.17	111.969
1233.82	104.611
1237.47	265.333
1241.12	137.388
1244.77	107.029
1248.42	146.714
1252.06	120.387
1255.71	95.996
1259.35	112.685
1262.99	147.189
1266.63	143.522
1270.26	108.238
1273.9	161.029
1277.53	117.527
1281.16	120.185
1284.8	90.264
1288.42	72.654
1292.05	74.925
1295.68	62.199
1299.3	99.481
1302.92	126.811
1306.55	160.052
1310.16	152.174
1313.78	25.265
1317.4	18.876
1321.01	58.603
1324.62	17.3
1328.24	37.882
1331.85	41.851
1335.45	76.462
1339.06	52.203
1342.66	24.681
1346.27	79.091
1349.87	56.428
1353.47	33.762
1357.07	82.711
1360.66	43.341
1364.26	114.617
1367.85	36.91
1371.44	28.33
1375.04	20.789
1378.62	18.904
1382.21	82.583
1385.8	66.15
1389.38	18.708
1392.96	13.244
1396.54	71.716
1400.12	36.13
1403.7	50.522
1407.28	7.864
1410.85	99.204
1414.42	60.527
1417.99	41.557
1421.56	44.187
1425.13	104.851
1428.7	50.41
1432.26	66.589
1435.83	72.323
1439.39	79.27
1442.95	45.638
1446.51	65.591
1450.06	101.973
1453.62	41.465
1457.17	119.65
1460.73	147.708
1464.28	49.254
1467.83	74.314
1471.37	129.694
1474.92	85.476
1478.46	99.953
1482.01	85.569
1485.55	37.73
1489.09	123.424
1492.63	212.968
1496.16	96.962
1499.7	157.104
1503.23	76.253
1506.76	92.574
1510.29	62.918
1513.82	45.287
1517.35	2.645
1520.88	0
