Measurement: Raman, 514 nm, ccw, Raman Data Processed
Mineral: Hausmannite
Rruff sample: R040091
Ideal chemistry: Mn^2+^Mn^3+^_2_O_4_
Locality: Germany
Source: University of Arizona Mineral Museum
Description: Mass of black octahedral crystals
Measured chemistry: (Mn^2+^_0.96_Zn_0.02_Mg_0.02_)Mn^3+^_2.00_O_4_
Pin_id: S00198
Orientation: Laser parallel to c* (0 0 1). Fiducial mark perpendicular to laser is parallel to a [1 0 0]
Raman shift (cm-1)	intensity
200.717	0
204.846	38.826
208.972	1.762
213.097	29.444
217.22	104.095
221.341	59.415
225.46	90.645
229.577	145.832
233.692	111.304
237.805	67.735
241.916	145.215
246.025	146.725
250.132	236.882
254.237	143.13
258.34	135.486
262.442	99.463
266.541	136.444
270.639	123.925
274.734	91.667
278.828	84.914
282.919	2.812
287.009	42.224
291.097	26.365
295.183	63.948
299.266	107.311
303.348	362.873
307.428	396.226
311.507	548.858
315.583	413.565
319.657	273.459
323.729	254.694
327.8	214.999
331.868	269.011
335.935	250.526
339.999	299.39
344.062	393.892
348.123	437.031
352.182	608.463
356.239	784.468
360.294	1121.51
364.347	1189.37
368.398	1135.14
372.448	964.991
376.495	638.025
380.54	366.065
384.584	235.939
388.626	112.268
392.666	31.483
396.704	54.689
400.74	49.343
404.774	58.192
408.806	46.628
412.836	79.513
416.865	34.963
420.891	24.047
424.916	26.382
428.939	58.875
432.959	67.569
436.978	64.843
440.996	4.417
445.011	33.658
449.024	20.868
453.036	9.042
457.045	24.417
461.053	57.581
465.059	62.1
469.063	139.904
473.065	213.966
477.065	30.589
481.063	39.404
485.06	90.122
489.054	126.283
493.047	127.873
497.038	143.86
501.027	122.671
505.014	141.001
508.999	66.128
512.982	183.078
516.964	113.899
520.944	93.655
524.921	153.237
528.897	148.435
532.871	192.787
536.844	149.673
540.814	222.811
544.783	275.745
548.749	263.213
552.714	275.046
556.677	308.2
560.638	246.515
564.597	336.125
568.555	456.142
572.511	379.788
576.464	374.711
580.416	278.032
584.366	261.284
588.315	248.824
592.261	266.798
596.206	364.555
600.148	363.767
604.089	505.885
608.028	573.206
611.965	764.262
615.901	913.612
619.834	1174.37
623.766	1754.4
627.696	2344.14
631.624	3221.45
635.551	4653.99
639.475	7110.04
643.398	10135.2
647.318	13611.4
651.237	14747.9
655.155	12454.6
659.07	9311.53
662.984	6449.21
666.895	4596.59
670.805	3264.75
674.713	2380.43
678.62	1773.85
682.524	1420.16
686.427	1088.36
690.328	910.823
694.227	769.105
698.124	692.5
702.02	635.959
705.913	546.736
709.805	472.661
713.695	506.528
717.584	467.071
721.47	448.936
725.355	436.57
729.238	370.888
733.119	342.111
736.998	342.091
740.876	363.713
744.752	281.844
748.626	316.541
752.498	309.1
756.368	256.694
760.237	267.984
764.104	265.959
767.969	130.856
771.832	166.84
775.693	179.721
779.553	145.248
783.411	131.69
787.267	132.049
791.122	65.364
794.974	121.746
798.825	47.905
802.674	70.968
806.522	97.935
810.367	69.802
814.211	15.558
818.053	26.203
821.893	30.698
825.732	39.907
829.568	37.418
833.403	30.973
837.236	12.582
841.068	23.96
844.898	16.789
848.726	35.306
852.552	3.83
856.376	18.13
860.199	0.361
864.02	15.606
867.839	68.358
871.656	46.347
875.472	92.548
879.286	42.698
883.098	30.135
886.909	73.812
890.717	17.86
894.524	31.239
898.33	46.468
902.133	37.049
905.935	15.501
909.735	60.201
913.533	58.4
917.33	61.674
921.124	48.643
924.918	61.495
928.709	123.284
932.499	130.912
936.286	104.464
940.073	189.821
943.857	77.842
947.64	143.889
951.421	95.756
955.2	117.533
958.978	114.102
962.753	101.14
966.527	135.87
970.3	101.9
974.071	64.747
977.84	104.11
981.607	161.902
985.372	41.738
989.136	127.626
992.898	86.836
996.659	25.521
1000.42	90.984
1004.17	63.112
1007.93	1.847
1011.68	120.164
1015.43	19.559
1019.18	9.691
1022.93	17.266
1026.68	24.72
1030.42	4.582
1034.17	6.432
1037.91	17.667
1041.65	75.263
1045.39	60.398
1049.12	42.412
1052.86	42.985
1056.59	113.527
1060.33	76.402
1064.06	10.726
1067.78	13.412
1071.51	47.504
1075.23	56.568
1078.96	66.707
1082.68	26.056
1086.4	108.441
1090.12	59.857
1093.83	84.274
1097.55	94.575
1101.26	142.06
1104.97	206.573
1108.68	198.11
1112.39	162.724
1116.1	109.361
1119.8	144.037
1123.5	137.767
1127.2	236.512
1130.9	207.297
1134.6	167.373
1138.3	183.505
1141.99	107.692
1145.69	160.881
1149.38	106.188
1153.07	163.582
1156.76	159.902
1160.44	85.463
1164.13	123.076
1167.81	53.813
1171.49	64.022
1175.17	52.893
1178.85	129.998
1182.52	120.79
1186.2	100.448
1189.87	59.49
1193.54	116.579
1197.21	132.774
1200.88	104.035
1204.55	58.242
1208.21	123.131
1211.88	107.05
1215.54	115.499
1219.2	121.027
1222.86	175.402
1226.51	114.1
1230.17	149.073
1233.82	112.096
1237.47	142.718
1241.12	143.508
1244.77	146.854
1248.42	138.008
1252.06	131.193
1255.71	191.662
1259.35	199.592
1262.99	154.573
1266.63	129.414
1270.26	235.284
1273.9	211.571
1277.53	124.614
1281.16	240.036
1284.8	158.238
1288.42	104.334
1292.05	147.413
1295.68	119.529
1299.3	99.682
1302.92	96.91
1306.55	120.693
1310.16	121.657
1313.78	91.494
1317.4	63.282
1321.01	97.938
1324.62	77.539
1328.24	39.117
1331.85	82.671
1335.45	64.161
1339.06	34.599
1342.66	28.005
1346.27	36.325
1349.87	21.58
1353.47	18.778
1357.07	18.013
1360.66	17.766
1364.26	136.343
1367.85	15.409
1371.44	20.52
1375.04	40.425
1378.62	5.226
1382.21	11.602
1385.8	55.124
1389.38	28.617
1392.96	0.12
1396.54	8.377
1400.12	8.757
1403.7	29.12
1407.28	107.462
1410.85	57.804
1414.42	74.148
1417.99	42.503
1421.56	64.879
1425.13	64.292
1428.7	92.752
1432.26	60.197
1435.83	67.389
1439.39	41.496
1442.95	123.712
1446.51	149.54
1450.06	108.206
1453.62	102.379
1457.17	81.785
1460.73	91.69
1464.28	78.487
1467.83	64.061
1471.37	86.863
1474.92	93.413
1478.46	81.617
1482.01	106.922
1485.55	78.417
1489.09	49.914
1492.63	138.139
1496.16	154.913
1499.7	113.004
1503.23	74.541
1506.76	50.22
1510.29	71.108
1513.82	56.953
1517.35	1.758
1520.88	0
