Measurement: Raman, 514 nm, ccw, Raman Data Processed
Mineral: Hauyne
Rruff sample: R050606
Ideal chemistry: Na_3_Ca(Si_3_Al_3_)O_12_(SO_4_)
Locality: Ariccia, near Rome, Italy
Source: University of Arizona Mineral Museum
Description: Blue crystal embedded in calcite
Pin_id: M01913
Orientation: Laser parallel to c* (0 0 1). Fiducial mark perpendicular to laser is parallel to a [1 0 0]
Raman shift (cm-1)	intensity
235.683	0
239.339	25.2754
242.993	74.3311
246.646	46.6309
250.298	37.9834
253.947	200.106
257.596	311.845
261.243	300.281
264.888	351.345
268.532	124.068
272.174	349.907
275.815	359.617
279.454	293.996
283.092	444.332
286.728	480.596
290.363	748.187
293.996	392.81
297.628	448.959
301.258	437.011
304.887	348.158
308.514	330.724
312.14	295.86
315.764	270.67
319.387	168.495
323.008	91.2217
326.628	104.381
330.246	49.3594
333.862	14.8643
337.478	30.7344
341.091	150.096
344.703	91.6797
348.314	48.96
351.923	212.802
355.531	183.623
359.137	333.86
362.742	482.039
366.345	606.01
369.947	403.662
373.547	607.613
377.145	625.366
380.743	695.6
384.338	732.506
387.932	915.57
391.525	673.37
395.116	826.045
398.706	904.914
402.294	1360.84
405.881	1623.11
409.466	2388.57
413.05	3165.32
416.632	4466.92
420.213	5833.12
423.792	8136.53
427.37	11227.6
430.946	14847.6
434.521	16374.8
438.094	14715.1
441.666	11698
445.236	9200.97
448.805	7147.64
452.372	5794.57
455.938	4785.18
459.502	4045.56
463.065	3437.72
466.627	2884.05
470.187	2542.94
473.745	1991.31
477.302	1828.54
480.857	1639.69
484.411	1382.76
487.964	1060.41
491.515	887.063
495.064	686.464
498.612	534.306
502.159	401.218
505.704	273.327
509.247	176.922
512.789	247.868
516.33	126.385
519.869	90.2803
523.407	126.11
526.943	310.427
530.478	700.886
534.011	1212.99
537.543	2041.76
541.073	3461.73
544.602	5013.27
548.129	5527.4
551.655	3565.64
555.179	1611.8
558.702	566.061
562.223	331.731
565.743	303.41
569.262	73.4297
572.779	430.045
576.294	344.219
579.808	432.353
583.321	628.199
586.832	527.334
590.341	618.734
593.85	676.773
597.356	721.5
600.862	827.99
604.365	1184.76
607.868	1445.07
611.368	1709.7
614.868	1643.26
618.366	1636.88
621.862	1385.67
625.357	1238.82
628.85	741.572
632.342	845.623
635.833	862.232
639.322	1132.22
642.81	1156.94
646.296	1273.67
649.78	1247.52
653.264	1053.76
656.745	610.549
660.226	413.592
663.704	188.297
667.182	135.945
670.658	76.3438
674.132	189.281
677.605	172.418
681.077	3.63086
684.547	48.1406
688.015	22.6191
691.483	104.102
694.948	86.8731
698.413	68.0117
701.875	71.9004
705.337	80.1562
708.797	141.205
712.255	215.121
715.712	67.3125
719.167	202.641
722.621	247.252
726.074	59.1152
729.525	237.234
732.975	116.494
736.423	213.096
739.87	265.303
743.315	244.832
746.759	197.465
750.202	156.613
753.643	119.732
757.082	77.5977
760.52	123.045
763.957	0.279297
767.392	165.732
770.826	224.644
774.258	129.326
777.689	304.371
781.118	144.174
784.546	309.045
787.973	167.715
791.398	88.6269
794.822	241.9
798.244	533.893
801.665	382.631
805.084	398.492
808.502	546.008
811.918	490.518
815.333	431.016
818.747	443.443
822.159	449.664
825.569	481.603
828.979	431.353
832.386	327.418
835.793	336.758
839.198	405.201
842.601	323.34
846.003	324.131
849.404	354.514
852.803	349.769
856.2	332.332
859.597	354.508
862.992	307.209
866.385	205.272
869.777	376.547
873.167	127.172
876.557	286.953
879.944	292.297
883.33	285.137
886.715	137.877
890.099	146.977
893.481	204.299
896.861	52.0547
900.24	141.619
903.618	43.2695
906.994	42.8652
910.369	18.8125
913.742	14.3008
917.114	88.3926
920.485	188.867
923.854	181.094
927.221	17.2559
930.588	8.88086
933.952	90.6289
937.316	99.5098
940.678	29.1953
944.038	238.904
947.397	282.264
950.755	494.684
954.111	643.334
957.466	1297.08
960.819	2208.53
964.171	3900.36
967.522	7796.73
970.871	13481.8
974.219	20064.9
977.565	23639.6
980.91	22503.2
984.253	21918.1
987.595	23097.9
990.936	22214.1
994.275	20181.4
997.613	18517.3
1000.95	18622.1
1004.28	17489
1007.62	14360.3
1010.95	10972.8
1014.28	8049.17
1017.61	5467.65
1020.94	4481.43
1024.26	3820.94
1027.59	3570.76
1030.91	3438.85
1034.23	3366.92
1037.56	3118.98
1040.88	2902.73
1044.19	2363.34
1047.51	2313.14
1050.83	1791.61
1054.14	1480.11
1057.45	1315.74
1060.76	1288.16
1064.07	1070.66
1067.38	1403
1070.69	1423.69
1073.99	1331.59
1077.3	1569.39
1080.6	1901.64
1083.9	1958.14
1087.2	2119.6
1090.5	2424.38
1093.79	2494.39
1097.09	2254.69
1100.38	2039.7
1103.68	1815.72
1106.97	1499.22
1110.26	1458.78
1113.55	1405.26
1116.83	1377.23
1120.12	1496.19
1123.4	1576.77
1126.68	1366.89
1129.97	1297.82
1133.25	1501.5
1136.53	1616.72
1139.8	1313.58
1143.08	1367.81
1146.35	1708.13
1149.63	1489.62
1152.9	1588.07
1156.17	1730.26
1159.44	1417.33
1162.7	1718.18
1165.97	1347.64
1169.23	1151.69
1172.5	1397.26
1175.76	895.883
1179.02	810.391
1182.28	808.707
1185.54	715.215
1188.79	533.859
1192.05	443.148
1195.3	290.543
1198.55	558.523
1201.81	166.695
1205.05	441.086
1208.3	385.312
1211.55	315.742
1214.79	407.508
1218.04	325.094
1221.28	285.481
1224.52	223.562
1227.76	97.2422
1231	312.387
1234.24	168.852
1237.47	201.043
1240.7	2.99219
1243.94	28.6445
1247.17	121.996
1250.4	240.805
1253.63	151.262
1256.86	116.574
1260.08	60.0469
1263.31	206.066
1266.53	180.254
1269.75	48.4844
1272.97	305.352
1276.19	171.805
1279.41	74.2305
1282.62	138.269
1285.84	23.293
1289.05	41.9141
1292.26	338.144
1295.47	173.566
1298.68	290.555
1301.89	220.523
1305.1	153.344
1308.3	565.231
1311.51	347.137
1314.71	302.078
1317.91	503.699
1321.11	551.641
1324.31	969.348
1327.5	490.168
1330.7	664.258
1333.89	650.633
1337.09	337.43
1340.28	607.469
1343.47	853.148
1346.65	744.816
1349.84	304.195
1353.03	402.527
1356.21	549.883
1359.4	445.297
1362.58	666.586
1365.76	570.16
1368.94	673.277
1372.12	657.332
1375.29	664.035
1378.47	589.57
1381.64	891.66
1384.81	299.684
1387.98	634.496
1391.15	623.848
1394.32	351.371
1397.49	99.4297
1400.65	155.336
1403.82	241.961
1406.98	327.586
1410.14	413.031
1413.3	413.793
1416.46	112.934
1419.62	382.934
1422.77	386.098
1425.93	131.125
1429.08	247.809
1432.23	112.473
1435.38	138.824
1438.53	275.746
1441.68	547.344
1444.82	337.391
1447.97	190.219
1451.11	296.273
1454.26	222.688
1457.4	397.676
1460.54	330.492
1463.67	445.156
1466.81	470.039
1469.95	161.172
1473.08	357.918
1476.21	238.906
1479.34	223.5
1482.47	314.301
1485.6	68.5
1488.73	269.316
1491.86	202.508
1494.98	98.4453
1498.1	396.84
1501.23	389.57
1504.35	2.0625
1507.47	470.262
1510.58	113.852
1513.7	77.4609
1516.82	80.2383
1519.93	447.894
1523.04	465.902
1526.15	706.312
1529.26	317.82
1532.37	288.262
1535.48	67.6523
1538.58	573.5
1541.69	559.606
1544.79	294.066
1547.89	310.121
1550.99	370.59
1554.09	165.848
1557.19	499.609
1560.29	196.051
