Measurement: Raman, 514 nm, ccw, Raman Data Processed
Mineral: Hauyne
Rruff sample: R050606
Ideal chemistry: Na_3_Ca(Si_3_Al_3_)O_12_(SO_4_)
Locality: Ariccia, near Rome, Italy
Source: University of Arizona Mineral Museum
Description: Blue crystal embedded in calcite
Pin_id: M01913
Orientation: Laser parallel to c* (0 0 1). Fiducial mark perpendicular to laser is parallel to a [1 0 0]
Raman shift (cm-1)	intensity
235.683	0
239.339	134.119
242.993	6.13769
246.646	42.8193
250.298	190.709
253.947	221.595
257.596	173.533
261.243	330.722
264.888	148.294
268.532	174.935
272.174	237.489
275.815	269.377
279.454	70.1123
283.092	154.378
286.728	365.888
290.363	459.961
293.996	482.607
297.628	363.082
301.258	372.351
304.887	397.588
308.514	267.111
312.14	302.013
315.764	553.812
319.387	554.934
323.008	438.888
326.628	294.208
330.246	138.581
333.862	10.7832
337.478	114.379
341.091	76.1455
344.703	86.541
348.314	87.4131
351.923	167.954
355.531	180.006
359.137	201.033
362.742	301.43
366.345	441.677
369.947	412.173
373.547	434.865
377.145	634.537
380.743	741.649
384.338	819.507
387.932	827.789
391.525	798.329
395.116	869.959
398.706	1091.47
402.294	1347.98
405.881	1689.63
409.466	2157.8
413.05	2821.52
416.632	4059.16
420.213	5264.97
423.792	7447.93
427.37	10302.8
430.946	13882.9
434.521	15741.7
438.094	14501.1
441.666	11306.4
445.236	8551.45
448.805	6402.07
452.372	4970.39
455.938	4012.83
459.502	3639.41
463.065	3115.04
466.627	2710.39
470.187	2436.83
473.745	1890.77
477.302	1593.86
480.857	1222.35
484.411	960.693
487.964	948.062
491.515	652.769
495.064	595.505
498.612	378.614
502.159	253.131
505.704	249.189
509.247	220.84
512.789	231.428
516.33	166.526
519.869	192.689
523.407	228.379
526.943	497.437
530.478	615.757
534.011	961.86
537.543	1993.24
541.073	3188
544.602	4524.74
548.129	4900.86
551.655	3700.56
555.179	1668.72
558.702	924.26
562.223	446.952
565.743	435.198
569.262	214.863
572.779	348.839
576.294	476.216
579.808	641.283
583.321	867.664
586.832	975.232
590.341	1100.25
593.85	1145.56
597.356	1769.06
600.862	2449.05
604.365	3164.13
607.868	3719.65
611.368	3787.66
614.868	3334.67
618.366	2978.25
621.862	2352.86
625.357	1685.98
628.85	1180.51
632.342	849.488
635.833	487.669
639.322	524.358
642.81	463.171
646.296	624.051
649.78	566.865
653.264	424.188
656.745	212.315
660.226	134.162
663.704	39.2051
667.182	128.444
670.658	28.3291
674.132	27.5391
677.605	84.0723
681.077	54.043
684.547	71.8613
688.015	97.9004
691.483	33.7969
694.948	4.40625
698.413	2.47656
701.875	155.853
705.337	47.5996
708.797	201.603
712.255	196.408
715.712	178.275
719.167	234.885
722.621	198.836
726.074	197.744
729.525	324.99
732.975	157.777
736.423	172.9
739.87	201.736
743.315	127.684
746.759	149.43
750.202	257.553
753.643	289.068
757.082	192.141
760.52	178.908
763.957	179.068
767.392	138.666
770.826	170.627
774.258	11.1719
777.689	12.4512
781.118	143.002
784.546	301.443
787.973	257.445
791.398	396.732
794.822	339.336
798.244	386.732
801.665	363.781
805.084	484.613
808.502	465.867
811.918	437.541
815.333	453.428
818.747	401.682
822.159	409.199
825.569	330.092
828.979	302.734
832.386	239.582
835.793	192.592
839.198	220.594
842.601	452.356
846.003	179.42
849.404	256.225
852.803	232.627
856.2	38.7324
859.597	196.209
862.992	296.756
866.385	252.506
869.777	208.832
873.167	220.865
876.557	296.58
879.944	267.865
883.33	189
886.715	132.502
890.099	152.547
893.481	10.6465
896.861	24.6738
900.24	23.1152
903.618	58.3418
906.994	18.3242
910.369	81.0469
913.742	91.7227
917.114	28.0059
920.485	99.834
923.854	102.848
927.221	125.695
930.588	140.397
933.952	28.0273
937.316	136.383
940.678	66.6562
944.038	99.9043
947.397	81.4023
950.755	338.818
954.111	522.318
957.466	1017.23
960.819	1923.56
964.171	3566.11
967.522	7397.45
970.871	12741.1
974.219	19303.8
977.565	23382.9
980.91	22581.8
984.253	21982.3
987.595	23267.1
990.936	22365.2
994.275	20395.8
997.613	18422.9
1000.95	18331.5
1004.28	17311.7
1007.62	14503.1
1010.95	10951.2
1014.28	8059.21
1017.61	5652.55
1020.94	4277.85
1024.26	3608.32
1027.59	3588.97
1030.91	3429.05
1034.23	3309.82
1037.56	3174.58
1040.88	2884.17
1044.19	2732.98
1047.51	2492.55
1050.83	1681.99
1054.14	1561.23
1057.45	1595.88
1060.76	1603.15
1064.07	1477.64
1067.38	1288.57
1070.69	1625.49
1073.99	1754.77
1077.3	1833.56
1080.6	1936.23
1083.9	2342.9
1087.2	2550.28
1090.5	2679.87
1093.79	2539.12
1097.09	2705.65
1100.38	2371.73
1103.68	1646.54
1106.97	1725.59
1110.26	1575.38
1113.55	1569.87
1116.83	1671.39
1120.12	1658.22
1123.4	1578.22
1126.68	1769.81
1129.97	1644.17
1133.25	1351.23
1136.53	1512.46
1139.8	1667.84
1143.08	1789.3
1146.35	1940.96
1149.63	1717.36
1152.9	1605.01
1156.17	1802.98
1159.44	1820.84
1162.7	1888.1
1165.97	1719.44
1169.23	1647.32
1172.5	1316.28
1175.76	1305.66
1179.02	984.219
1182.28	1010.29
1185.54	740.359
1188.79	686.621
1192.05	679.84
1195.3	387.512
1198.55	242.891
1201.81	297.422
1205.05	223.703
1208.3	131.316
1211.55	73.582
1214.79	61.0898
1218.04	54.9961
1221.28	195.535
1224.52	155.898
1227.76	174.949
1231	290.742
1234.24	39.5312
1237.47	1.08203
1240.7	51.1562
1243.94	43.1758
1247.17	102.234
1250.4	17.918
1253.63	170.312
1256.86	93.5977
1260.08	121.129
1263.31	75.5625
1266.53	297.547
1269.75	107.582
1272.97	59.8086
1276.19	98.4219
1279.41	48.7266
1282.62	38.3438
1285.84	75.5586
1289.05	115.856
1292.26	5.89062
1295.47	269.082
1298.68	194.109
1301.89	372.191
1305.1	256.391
1308.3	304.281
1311.51	353.312
1314.71	704.734
1317.91	496.82
1321.11	519.562
1324.31	592.059
1327.5	337.449
1330.7	671.016
1333.89	298.738
1337.09	678.613
1340.28	934.496
1343.47	715.828
1346.65	657.141
1349.84	734.082
1353.03	535.394
1356.21	277.836
1359.4	542.117
1362.58	608.223
1365.76	551.703
1368.94	489.656
1372.12	391.34
1375.29	398.652
1378.47	471.633
1381.64	610.711
1384.81	536.203
1387.98	344.148
1391.15	333.332
1394.32	250.34
1397.49	299.695
1400.65	404.18
1403.82	186.09
1406.98	79.8516
1410.14	219.848
1413.3	319.269
1416.46	337.824
1419.62	237.481
1422.77	148.258
1425.93	8.15625
1429.08	178.598
1432.23	38.2812
1435.38	227.184
1438.53	191.152
1441.68	401.168
1444.82	487.781
1447.97	345.789
1451.11	376.176
1454.26	125.988
1457.4	435.949
1460.54	205.996
1463.67	408.812
1466.81	362.453
1469.95	479.527
1473.08	188.863
1476.21	156
1479.34	112.332
1482.47	327.156
1485.6	224.231
1488.73	85.9727
1491.86	16.7578
1494.98	216.688
1498.1	352.449
1501.23	276.59
1504.35	154.773
1507.47	307.621
1510.58	40.7305
1513.7	67.957
1516.82	169.84
1519.93	272.82
1523.04	468.922
1526.15	346.344
1529.26	286.406
1532.37	26.4258
1535.48	313.797
1538.58	226.555
1541.69	403.656
1544.79	85.9648
1547.89	202.617
1550.99	276.375
1554.09	431.031
1557.19	372.512
1560.29	1.95703
