Measurement: Raman, 514 nm, ccw, Raman Data Processed
Mineral: Hauyne
Rruff sample: R070121
Ideal chemistry: Na_3_Ca(Si_3_Al_3_)O_12_(SO_4_)
Locality: Hesse, Germany
Source: Michael Scott
Description: Blue cut gemstones
Pin_id: M01514
Orientation: Laser parallel to a* (1 0 0). Fiducial mark perpendicular to laser is parallel to c [0 0 1]
Raman shift (cm-1)	intensity
224.706	0
228.367	11.9053
232.026	111.246
235.683	371.267
239.339	685.328
242.993	1284.06
246.646	1846.71
250.298	2769.56
253.947	3364.26
257.596	3371.17
261.243	3067.15
264.888	2376.27
268.532	1749.05
272.174	1334.38
275.815	1252.53
279.454	1301.67
283.092	1507.29
286.728	1507.37
290.363	1233.22
293.996	1007.56
297.628	874.706
301.258	686.121
304.887	560.831
308.514	389.322
312.14	428.083
315.764	417.4
319.387	371.661
323.008	156.404
326.628	68.1709
330.246	160.606
333.862	193.211
337.478	315.804
341.091	188.583
344.703	196.592
348.314	170.068
351.923	233.043
355.531	241.654
359.137	334.442
362.742	397.66
366.345	361.918
369.947	381.406
373.547	626.271
377.145	726.156
380.743	1028.12
384.338	1145.83
387.932	1207.03
391.525	1333.59
395.116	1447.53
398.706	1534.69
402.294	1819.76
405.881	2053.84
409.466	2870.18
413.05	3526.95
416.632	4571.46
420.213	5972.75
423.792	7860.25
427.37	10680.3
430.946	13906.3
434.521	17084.2
438.094	19029.8
441.666	19734.5
445.236	19056.9
448.805	17357.1
452.372	15439.2
455.938	13258.6
459.502	11226.1
463.065	9135.38
466.627	7406.58
470.187	6192.23
473.745	5081.72
477.302	4227.21
480.857	3423.75
484.411	3051.24
487.964	2295.63
491.515	2027.03
495.064	1899.93
498.612	1827.19
502.159	1700.33
505.704	1721.31
509.247	2030.45
512.789	2205.32
516.33	2725.52
519.869	3313.6
523.407	4835.62
526.943	7493.19
530.478	12198.9
534.011	20827.4
537.543	33777.6
541.073	48499.5
544.602	54308.4
548.129	43957.5
551.655	25131.3
555.179	11847
558.702	6832.97
562.223	4950.46
565.743	4318.95
569.262	4501.8
572.779	5119.01
576.294	5964.93
579.808	6289.81
583.321	6196.53
586.832	5644.1
590.341	4822.44
593.85	4508.04
597.356	4368.58
600.862	5118.94
604.365	6641.65
607.868	8205.87
611.368	8007.13
614.868	7271.35
618.366	6110.92
621.862	5006.27
625.357	3852.55
628.85	2760.42
632.342	1817.3
635.833	1522.3
639.322	1364.08
642.81	1269.5
646.296	1074.16
649.78	946.611
653.264	663.091
656.745	507.428
660.226	263.525
663.704	180.059
667.182	81.5586
670.658	124.319
674.132	62.5537
677.605	60.1885
681.077	77.2002
684.547	16.4395
688.015	72.7519
691.483	57.8691
694.948	32.0098
698.413	121.179
701.875	135.552
705.337	51.1103
708.797	145.609
712.255	56.8623
715.712	68.6289
719.167	89.7022
722.621	1.88867
726.074	52.7812
729.525	4.27734
732.975	235.031
736.423	14.9062
739.87	187.061
743.315	83.582
746.759	14.0088
750.202	69.584
753.643	34.5732
757.082	19.0674
760.52	10.7871
763.957	102.02
767.392	209.037
770.826	187.04
774.258	311.565
777.689	482.491
781.118	667.99
784.546	663.159
787.973	1040.73
791.398	1218.15
794.822	1472.95
798.244	1551.02
801.665	1776.14
805.084	1710.84
808.502	1605.77
811.918	1535.16
815.333	1268.03
818.747	1110.04
822.159	975.139
825.569	987.426
828.979	845.845
832.386	940.713
835.793	746.873
839.198	703.883
842.601	827.204
846.003	656.122
849.404	588.341
852.803	528.91
856.2	560.863
859.597	763.866
862.992	574.913
866.385	485.58
869.777	381.788
873.167	337.096
876.557	281.545
879.944	221.249
883.33	216.324
886.715	58.0957
890.099	30.4336
893.481	158.435
896.861	56.1895
900.24	17.3633
903.618	12.0723
906.994	170.745
910.369	62.7363
913.742	131.057
917.114	96.4756
920.485	61.0039
923.854	106.09
927.221	133.128
930.588	134.817
933.952	9.9082
937.316	75.3457
940.678	193.607
944.038	154.715
947.397	214.69
950.755	481.592
954.111	860.255
957.466	1356.25
960.819	2682.07
964.171	5339.98
967.522	10568.1
970.871	17783.5
974.219	22442.3
977.565	24253.4
980.91	28847.9
984.253	36530.8
987.595	42204.2
990.936	41506.3
994.275	36726.7
997.613	30570.5
1000.95	25036.6
1004.28	20292
1007.62	16402.5
1010.95	13883.1
1014.28	10987.8
1017.61	8490.83
1020.94	6622.66
1024.26	5192.06
1027.59	5047.16
1030.91	4769.54
1034.23	4908.85
1037.56	5043.04
1040.88	5724.83
1044.19	6138.19
1047.51	5931.54
1050.83	5774.25
1054.14	5375.6
1057.45	5139.48
1060.76	5149.91
1064.07	5696.05
1067.38	6352.42
1070.69	7608.88
1073.99	9055.1
1077.3	10800.8
1080.6	12902.3
1083.9	14675.2
1087.2	15457.4
1090.5	15548.2
1093.79	14239.1
1097.09	11982.4
1100.38	9918.24
1103.68	8196.87
1106.97	7059.75
1110.26	6956.94
1113.55	6715.34
1116.83	6687.52
1120.12	6500.68
1123.4	6175.56
1126.68	5759.32
1129.97	5063.17
1133.25	4429.48
1136.53	4222.81
1139.8	4017.67
1143.08	3923.97
1146.35	3753.91
1149.63	3894.24
1152.9	3677.29
1156.17	3569.84
1159.44	3431.64
1162.7	3508.09
1165.97	3183.54
1169.23	2774.29
1172.5	2590.3
1175.76	2420.74
1179.02	1924.16
1182.28	1842.34
1185.54	1427.69
1188.79	1247.31
1192.05	1053.24
1195.3	740.346
1198.55	499.598
1201.81	301.846
1205.05	308.07
1208.3	194.264
1211.55	188.41
1214.79	271.498
1218.04	187.525
1221.28	62.4785
1224.52	71.3535
1227.76	148.129
1231	57.207
1234.24	21.1328
1237.47	43.3027
1240.7	84.7559
1243.94	172.219
1247.17	128.455
1250.4	266.67
1253.63	76.1035
1256.86	0.833984
1260.08	197.734
1263.31	212.088
1266.53	163.715
1269.75	149.065
1272.97	116.035
1276.19	522.746
1279.41	45.2188
1282.62	81.7012
1285.84	76.8125
1289.05	1.28711
1292.26	245.209
1295.47	94.3047
1298.68	222.072
1301.89	433.799
1305.1	161.928
1308.3	475.154
1311.51	343.498
1314.71	503.426
1317.91	581.045
1321.11	640.344
1324.31	766.312
1327.5	822.934
1330.7	821.197
1333.89	960.096
1337.09	1097.62
1340.28	1121.76
1343.47	1194.67
1346.65	1005.07
1349.84	1161.15
1353.03	1240.93
1356.21	1030.25
1359.4	953.213
1362.58	1240.03
1365.76	930.125
1368.94	951.262
1372.12	1220.42
1375.29	1070.48
1378.47	1865.46
1381.64	2026.55
1384.81	820.262
1387.98	710.006
1391.15	557.982
1394.32	301.344
1397.49	417.223
1400.65	288.08
1403.82	516.004
1406.98	335.527
1410.14	159.353
1413.3	197.973
1416.46	263.732
1419.62	90.7519
1422.77	257.773
1425.93	19.1133
1429.08	48.7715
1432.23	181.512
1435.38	54.8594
1438.53	354.522
1441.68	456.981
1444.82	523.789
1447.97	513.936
1451.11	663.402
1454.26	590.184
1457.4	781.234
1460.54	492.531
1463.67	443.242
1466.81	341.315
1469.95	82.4492
1473.08	156.148
1476.21	196.637
1479.34	400.188
1482.47	289.123
1485.6	99.7656
1488.73	283.945
1491.86	69.8164
1494.98	76.0527
1498.1	147.232
1501.23	100.686
1504.35	221.685
1507.47	119.502
1510.58	188.269
1513.7	238.19
1516.82	154.336
1519.93	269.68
1523.04	124.32
1526.15	315.912
1529.26	95.7676
1532.37	161.852
1535.48	289.631
1538.58	203.461
1541.69	468.262
1544.79	148.482
1547.89	238.84
1550.99	315.518
1554.09	213.66
1557.19	271.92
1560.29	198.1
