Measurement: Raman, 514 nm, ccw, Raman Data Processed
Mineral: Hauyne
Rruff sample: R070121
Ideal chemistry: Na_3_Ca(Si_3_Al_3_)O_12_(SO_4_)
Locality: Hesse, Germany
Source: Michael Scott
Description: Blue cut gemstones
Pin_id: M01514
Orientation: Laser parallel to a* (1 0 0). Fiducial mark perpendicular to laser is parallel to c [0 0 1]
Raman shift (cm-1)	intensity
224.706	0
228.367	0.796875
232.026	170.312
235.683	324.495
239.339	534.809
242.993	803.167
246.646	1467
250.298	1892.77
253.947	2336.88
257.596	2546.23
261.243	2494.57
264.888	1853.48
268.532	1480.62
272.174	1024.76
275.815	1043
279.454	931.001
283.092	1174.51
286.728	1076.31
290.363	1009.91
293.996	872.345
297.628	649.698
301.258	505.87
304.887	316.025
308.514	165.503
312.14	580.454
315.764	54.5605
319.387	126.393
323.008	0.591797
326.628	62.8428
330.246	90.2178
333.862	107.873
337.478	238.192
341.091	161.461
344.703	170.595
348.314	22.833
351.923	65.6846
355.531	195.355
359.137	217.444
362.742	153.915
366.345	407.445
369.947	367.416
373.547	519.991
377.145	465.273
380.743	749.241
384.338	802.648
387.932	869.315
391.525	1017.17
395.116	1019.12
398.706	1102.1
402.294	1379.06
405.881	1522.02
409.466	1924.97
413.05	2699.88
416.632	3452.14
420.213	4348.47
423.792	5752.88
427.37	7418.77
430.946	9676.64
434.521	11936.3
438.094	13170.6
441.666	13930.7
445.236	13541.6
448.805	12521.2
452.372	10855.6
455.938	9478.06
459.502	8203.87
463.065	6663.03
466.627	5532.75
470.187	4550.63
473.745	3568.36
477.302	2949.31
480.857	2522.84
484.411	2175.71
487.964	1802.19
491.515	1504.65
495.064	1298.82
498.612	1230.86
502.159	1259.95
505.704	1250.88
509.247	1379.47
512.789	1595.76
516.33	1882.56
519.869	2478.79
523.407	3776.58
526.943	5789.5
530.478	9544.82
534.011	16362.1
537.543	26158.1
541.073	36226.8
544.602	40624.9
548.129	32576.4
551.655	18664.3
555.179	8917.84
558.702	5074.49
562.223	3584.66
565.743	3135.61
569.262	3288.95
572.779	3623.32
576.294	4181.76
579.808	4581.06
583.321	4527.23
586.832	4172.86
590.341	3475.01
593.85	3009.34
597.356	2751.47
600.862	3320.53
604.365	4130.21
607.868	4779.6
611.368	4812.56
614.868	4393.89
618.366	3849.09
621.862	3285.48
625.357	2591.12
628.85	1907.65
632.342	1384.86
635.833	1288.73
639.322	1136.81
642.81	1185.45
646.296	905.056
649.78	780.91
653.264	640.51
656.745	409.989
660.226	252.413
663.704	8.46484
667.182	149.233
670.658	58.4639
674.132	156.213
677.605	47.5371
681.077	262.626
684.547	103.699
688.015	91.626
691.483	94.5742
694.948	39.541
698.413	9.24805
701.875	34.373
705.337	163.821
708.797	89.1914
712.255	15.5977
715.712	24.8633
719.167	24.6348
722.621	53.084
726.074	93.6797
729.525	6.93164
732.975	2.99609
736.423	42.1289
739.87	79.2773
743.315	107.248
746.759	71.9434
750.202	40.0801
753.643	51.377
757.082	9.44727
760.52	273.252
763.957	56.7227
767.392	13.7832
770.826	134.853
774.258	270.303
777.689	288.195
781.118	320.305
784.546	637.295
787.973	582.398
791.398	836.363
794.822	1004.57
798.244	1236.96
801.665	1170.8
805.084	1237.13
808.502	1224.89
811.918	1030.02
815.333	985.568
818.747	958.252
822.159	721.025
825.569	737.697
828.979	877.123
832.386	813.059
835.793	530.166
839.198	763.299
842.601	433.346
846.003	466.44
849.404	486.213
852.803	481.852
856.2	624.221
859.597	382.039
862.992	376.576
866.385	269.098
869.777	408.053
873.167	197.184
876.557	195.986
879.944	39.5996
883.33	49.2891
886.715	25.3496
890.099	59.0957
893.481	1.39453
896.861	13.8887
900.24	64.3848
903.618	68.709
906.994	110.564
910.369	89.4121
913.742	101.066
917.114	65.6348
920.485	45.9746
923.854	90.7832
927.221	158.875
930.588	78.4023
933.952	168.365
937.316	190.822
940.678	325.023
944.038	133.025
947.397	319.803
950.755	520.373
954.111	692.914
957.466	1144.5
960.819	2143.03
964.171	4154.52
967.522	8053.05
970.871	12897.6
974.219	16763.3
977.565	18339.2
980.91	21293.8
984.253	26668.2
987.595	30700.9
990.936	30191.9
994.275	27200
997.613	22379.2
1000.95	18684.9
1004.28	15189.2
1007.62	12355.6
1010.95	10371
1014.28	8312.3
1017.61	6295.51
1020.94	4820.32
1024.26	3869.69
1027.59	3407.2
1030.91	3637.73
1034.23	3753.91
1037.56	3963.9
1040.88	4175.47
1044.19	4409.68
1047.51	4457.95
1050.83	4265.2
1054.14	3968.26
1057.45	3895.48
1060.76	4038.74
1064.07	4347.07
1067.38	4790.44
1070.69	5634.53
1073.99	7005.66
1077.3	8472.85
1080.6	10055.9
1083.9	11338.8
1087.2	11989.4
1090.5	12036.8
1093.79	11053.8
1097.09	9565.92
1100.38	7687.06
1103.68	6386.42
1106.97	5622.37
1110.26	5299.79
1113.55	5053.98
1116.83	5262.4
1120.12	5262.67
1123.4	4616.99
1126.68	4585.76
1129.97	3742.08
1133.25	3297.53
1136.53	3229.34
1139.8	3022.97
1143.08	2818.53
1146.35	2819.43
1149.63	2953.44
1152.9	2377.95
1156.17	2577.74
1159.44	2782.52
1162.7	2577.03
1165.97	2522.81
1169.23	2353.98
1172.5	2215.95
1175.76	1800.79
1179.02	1551.46
1182.28	1402.84
1185.54	1169.97
1188.79	1052.14
1192.05	623.381
1195.3	679.867
1198.55	425.43
1201.81	279.93
1205.05	167.373
1208.3	214.74
1211.55	194.022
1214.79	119.795
1218.04	225.1
1221.28	54.1777
1224.52	7.72461
1227.76	3.56641
1231	178.289
1234.24	114.424
1237.47	150.014
1240.7	34.2051
1243.94	153.836
1247.17	58.6426
1250.4	1.27344
1253.63	259.451
1256.86	61.543
1260.08	130.803
1263.31	186.275
1266.53	160.193
1269.75	29.8867
1272.97	448.522
1276.19	485.699
1279.41	304.107
1282.62	96.6836
1285.84	69
1289.05	211.065
1292.26	142.889
1295.47	363.914
1298.68	521.035
1301.89	559.865
1305.1	296.373
1308.3	481.553
1311.51	517.394
1314.71	632.904
1317.91	609.156
1321.11	742.146
1324.31	760.861
1327.5	795.289
1330.7	849.434
1333.89	847.285
1337.09	1154.84
1340.28	1102.02
1343.47	1158.11
1346.65	1138.34
1349.84	1068.88
1353.03	1342.43
1356.21	798.473
1359.4	898.164
1362.58	832.293
1365.76	974.305
1368.94	971.207
1372.12	876.82
1375.29	838.387
1378.47	1354.99
1381.64	1344.05
1384.81	861.086
1387.98	497.523
1391.15	503.039
1394.32	539.293
1397.49	461.543
1400.65	433.207
1403.82	289.832
1406.98	176.094
1410.14	365.254
1413.3	235.258
1416.46	335.797
1419.62	466.676
1422.77	194.894
1425.93	253.356
1429.08	411.512
1432.23	566.684
1435.38	593.742
1438.53	518.215
1441.68	824.766
1444.82	531.824
1447.97	347.387
1451.11	348.445
1454.26	534.035
1457.4	675.359
1460.54	277.391
1463.67	293.156
1466.81	267.535
1469.95	291.031
1473.08	342.418
1476.21	311.887
1479.34	123.5
1482.47	195.887
1485.6	64.918
1488.73	44.3203
1491.86	250.043
1494.98	356.742
1498.1	22.3125
1501.23	34.7891
1504.35	69.1094
1507.47	229.133
1510.58	7.59375
1513.7	249.07
1516.82	322.012
1519.93	383.141
1523.04	415.269
1526.15	530.344
1529.26	308.203
1532.37	95.1953
1535.48	232.195
1538.58	337.113
1541.69	273.141
1544.79	98.4648
1547.89	412.621
1550.99	114.125
1554.09	256.019
1557.19	5.94141
1560.29	10.3164
