Measurement: Raman, 514 nm, ccw, Raman Data Processed
Mineral: Hauyne
Rruff sample: R070557
Ideal chemistry: Na_3_Ca(Si_3_Al_3_)O_12_(SO_4_)
Locality: Badakhshan, Afghanistan
Source: Farooq Hashmi
Description: Sky blue fragment
Measured chemistry: Na_3.00_(Ca_0.84_Na_0.16_)_Σ=1_(Si_3.05_Al_2.95_)O_12_((SO_4_)_0.89_Cl_0.11_)_Σ=1_
Pin_id: M01358
Orientation: Laser parallel to a* (1 0 0). Fiducial mark perpendicular to laser is parallel to c [0 0 1]
Raman shift (cm-1)	intensity
211.271	0
216.159	42.6035
221.044	11.5322
225.926	20.375
230.806	78.6816
235.683	178.422
240.557	286.22
245.429	271.471
250.298	591.743
255.164	579.678
260.027	674.697
264.888	422.216
269.746	272.915
274.601	319.367
279.454	541.611
284.304	286.077
289.151	259.05
293.996	357.325
298.838	294.505
303.677	149.321
308.514	34.0381
313.348	201.778
318.179	232.181
323.008	151.902
327.834	57.209
332.657	38.2315
337.478	36.335
342.295	88.6856
347.111	75.0898
351.923	5.29102
356.733	277.461
361.54	87.3047
366.345	351.978
371.147	245.335
375.946	429.992
380.743	418.067
385.537	327.397
390.328	389.295
395.116	488.523
399.902	575.01
404.686	811.887
409.466	873.455
414.244	1495.03
419.019	2020.92
423.792	2940.66
428.562	3601.73
433.329	4556.65
438.094	5084.53
442.856	5341.09
447.616	5254.49
452.372	4442.45
457.126	4119.82
461.878	3571.06
466.627	2947.61
471.373	2210.96
476.116	2041.17
480.857	1606.95
485.596	1393.5
490.331	860.492
495.064	761.998
499.795	716.271
504.522	352.691
509.247	397.625
513.97	305.619
518.69	348.508
523.407	329.365
528.121	717.996
532.833	1638.5
537.543	3193.52
542.249	5038.35
546.953	4711.28
551.655	2649.39
556.354	947.014
561.05	323.328
565.743	389.586
570.434	359.279
575.123	434.434
579.808	576.826
584.491	506.44
589.172	422.967
593.85	527.283
598.525	551.162
603.197	1091
607.868	1346.85
612.535	1844.3
617.2	1600.85
621.862	1134.29
626.522	949.26
631.178	550.271
635.833	519.541
640.485	415.09
645.134	135.174
649.78	75.9668
654.424	72.3379
659.066	80.6289
663.704	20.8594
668.341	45.957
672.974	15.418
677.605	179.795
682.234	122.424
686.859	4.66406
691.483	170.644
696.103	238.127
700.721	111.234
705.337	60.7891
709.949	91.4785
714.56	244.238
719.167	235.428
723.772	338.467
728.375	244.879
732.975	151.916
737.572	311.164
742.167	394.711
746.759	133.277
751.349	356.006
755.936	358.81
760.52	285.006
765.102	361.031
769.681	573.941
774.258	449.062
778.832	547.561
783.404	223.131
787.973	503.644
792.539	694.098
797.103	332.342
801.665	659.164
806.223	744.273
810.779	598.125
815.333	827.701
819.884	581.918
824.433	652.01
828.979	714.969
833.522	681.25
838.063	385.908
842.601	667.887
847.137	450.715
851.67	619.248
856.2	414.518
860.729	628.689
865.254	355.785
869.777	432.766
874.297	662.975
878.815	607.59
883.33	513.146
887.843	224.688
892.353	189.779
896.861	253.477
901.366	16.7383
905.869	289.709
910.369	335.408
914.866	102.705
919.361	72.7773
923.854	129.277
928.344	118.85
932.831	165.748
937.316	9.98438
941.798	25.0566
946.278	10.9414
950.755	1.35742
955.23	121.885
959.702	972.617
964.171	1936.21
968.638	4714.2
973.103	7259.65
977.565	9111.59
982.025	12342.8
986.482	16320.7
990.936	14601.8
995.388	10101.5
999.837	6489.45
1004.28	3796.41
1008.73	2497.81
1013.17	2233.29
1017.61	1654.49
1022.05	1175.04
1026.48	1044.18
1030.91	828.004
1035.34	799.121
1039.77	914.289
1044.19	868.242
1048.62	837.195
1053.03	944.062
1057.45	703.688
1061.87	898.883
1066.28	1062.91
1070.69	1019.37
1075.09	1010.57
1079.5	1564.44
1083.9	1902.56
1088.3	2051.96
1092.69	1905.09
1097.09	1987.95
1101.48	1268.68
1105.87	953.894
1110.26	944.695
1114.64	946.84
1119.02	809.809
1123.4	1049.65
1127.78	938.16
1132.15	622.609
1136.53	895.664
1140.89	987.223
1145.26	744.324
1149.63	796.055
1153.99	594.734
1158.35	771.488
1162.7	616.414
1167.06	536.465
1171.41	612.848
1175.76	623.441
1180.11	207.398
1184.45	20.8672
1188.79	157.898
1193.13	96.1914
1197.47	47.9336
1201.81	156.242
1206.14	104.852
1210.47	23.707
1214.79	2.60938
1219.12	114.805
1223.44	350.184
1227.76	114.328
1232.08	242.144
1236.39	111.875
1240.7	86.1211
1245.02	189.902
1249.32	146.078
1253.63	216.562
1257.93	364.512
1262.23	141.535
1266.53	137.504
1270.82	175.562
1275.12	131.664
1279.41	299.793
1283.69	490.059
1287.98	284.441
1292.26	187.918
1296.54	419.59
1300.82	342.113
1305.1	326.465
1309.37	822.84
1313.64	413.172
1317.91	551.625
1322.17	736.156
1326.44	999.793
1330.7	901.133
1334.96	884.934
1339.21	1039.28
1343.47	862.016
1347.72	671.668
1351.97	936.93
1356.21	818.949
1360.46	673.141
1364.7	791.371
1368.94	850.148
1373.17	796.984
1377.41	678.426
1381.64	631.875
1385.87	560.16
1390.1	437.887
1394.32	470.387
1398.54	860.836
1402.76	692.148
1406.98	298.606
1411.19	328.027
1415.41	379.219
1419.62	214.625
1423.82	91.1055
1428.03	381.973
1432.23	290.371
1436.43	242.156
1440.63	250.223
1444.82	596.918
1449.02	497.981
1453.21	62.0117
1457.4	746.223
1461.58	163.473
1465.77	2.31641
1469.95	205.973
1474.12	403.34
1478.3	209.812
1482.47	182.641
1486.64	183.852
1490.81	112.699
1494.98	361.758
1499.14	212.996
1503.31	318.484
1507.47	263.691
1511.62	270.035
1515.78	370.32
1519.93	274.617
1524.08	442.242
1528.23	13.2695
1532.37	373.766
1536.51	185.707
1540.65	292.711
1544.79	530.644
1548.93	337.938
1553.06	462.492
1557.19	344.816
1561.32	1.32422
