Measurement: Raman, 514 nm, ccw, Raman Data Processed
Mineral: Hauyne
Rruff sample: R070557
Ideal chemistry: Na_3_Ca(Si_3_Al_3_)O_12_(SO_4_)
Locality: Badakhshan, Afghanistan
Source: Farooq Hashmi
Description: Sky blue fragment
Measured chemistry: Na_3.00_(Ca_0.84_Na_0.16_)_Σ=1_(Si_3.05_Al_2.95_)O_12_((SO_4_)_0.89_Cl_0.11_)_Σ=1_
Pin_id: M01358
Orientation: Laser parallel to a* (1 0 0). Fiducial mark perpendicular to laser is parallel to c [0 0 1]
Raman shift (cm-1)	intensity
211.271	0
216.159	105.381
221.044	122.451
225.926	358.018
230.806	140.898
235.683	247.112
240.557	372.389
245.429	457.506
250.298	737.944
255.164	669.466
260.027	661.64
264.888	681.102
269.746	545.467
274.601	537.283
279.454	561.414
284.304	489.069
289.151	478.384
293.996	277.06
298.838	406.683
303.677	142.329
308.514	154.312
313.348	115.325
318.179	26.0312
323.008	44.1279
327.834	147.489
332.657	174.87
337.478	225.856
342.295	28.252
347.111	25.4326
351.923	48.6387
356.733	237.261
361.54	143.091
366.345	450.877
371.147	448.043
375.946	444.853
380.743	405.383
385.537	486.92
390.328	378.035
395.116	528.606
399.902	624.615
404.686	886.523
409.466	1167.59
414.244	1700.61
419.019	2391.38
423.792	3195.76
428.562	4024.76
433.329	5174.42
438.094	5775.48
442.856	6000.98
447.616	5665.52
452.372	5199.34
457.126	4755.39
461.878	4112.49
466.627	3355.57
471.373	2629.3
476.116	2398.32
480.857	1926.26
485.596	1526.76
490.331	908.668
495.064	759.359
499.795	588.268
504.522	538.769
509.247	378.103
513.97	176.076
518.69	284.24
523.407	231.127
528.121	754.889
532.833	1650.37
537.543	3553.09
542.249	5607.51
546.953	5565.73
551.655	2666.25
556.354	1070.52
561.05	482.506
565.743	324.617
570.434	264.147
575.123	357.428
579.808	409.147
584.491	487.449
589.172	390.559
593.85	104.746
598.525	169.381
603.197	244.787
607.868	482.053
612.535	702.037
617.2	677.449
621.862	726.234
626.522	739.115
631.178	609.023
635.833	619.867
640.485	932.693
645.134	527.428
649.78	279.17
654.424	93.459
659.066	28.7383
663.704	55.084
668.341	122.881
672.974	14.5098
677.605	2.38086
682.234	139.559
686.859	33.5586
691.483	8.75977
696.103	37.9219
700.721	139.68
705.337	79.6758
709.949	49.918
714.56	86.3555
719.167	229.371
723.772	184.172
728.375	202.836
732.975	16.2402
737.572	371.695
742.167	15.9355
746.759	281.348
751.349	287.744
755.936	177.67
760.52	340.525
765.102	340.557
769.681	257.897
774.258	370.727
778.832	412.92
783.404	427.977
787.973	232.84
792.539	676.479
797.103	417.307
801.665	474.344
806.223	728.596
810.779	577.906
815.333	633.158
819.884	500.131
824.433	357.324
828.979	618.465
833.522	501.533
838.063	391.586
842.601	545.731
847.137	541.5
851.67	504.701
856.2	162.844
860.729	462.539
865.254	348.674
869.777	382.953
874.297	560.787
878.815	500.49
883.33	469.693
887.843	128.225
892.353	310.959
896.861	47.7734
901.366	83.3047
905.869	161.496
910.369	68.3223
914.866	73.6797
919.361	82.9512
923.854	182.586
928.344	43.4199
932.831	58.9004
937.316	5.29297
941.798	33.4922
946.278	22.2461
950.755	264.889
955.23	421.494
959.702	996.857
964.171	2475.58
968.638	5219.69
973.103	7857.03
977.565	9703.32
982.025	13263.8
986.482	17807.3
990.936	16595.4
995.388	11351.9
999.837	7247.12
1004.28	4289.23
1008.73	3061.22
1013.17	2559.86
1017.61	2028.7
1022.05	1461.35
1026.48	1154.37
1030.91	1368.15
1035.34	914.727
1039.77	868.867
1044.19	1039.57
1048.62	1253.46
1053.03	1028.5
1057.45	731.106
1061.87	978.328
1066.28	882.652
1070.69	1138.36
1075.09	971.519
1079.5	1522.64
1083.9	1809.06
1088.3	2013.06
1092.69	1909.04
1097.09	1438.04
1101.48	1348.59
1105.87	911.262
1110.26	884.617
1114.64	723.656
1119.02	958.902
1123.4	921.312
1127.78	836.543
1132.15	863.477
1136.53	707.238
1140.89	567.457
1145.26	546.57
1149.63	525.262
1153.99	934.711
1158.35	733.293
1162.7	700.047
1167.06	692.992
1171.41	663.184
1175.76	657.621
1180.11	421.394
1184.45	295.602
1188.79	541.234
1193.13	154.422
1197.47	88.8281
1201.81	112.773
1206.14	93.6328
1210.47	186.883
1214.79	483.566
1219.12	280.375
1223.44	225.164
1227.76	316.195
1232.08	134.457
1236.39	11.0547
1240.7	129.391
1245.02	27.8438
1249.32	34.3516
1253.63	364.066
1257.93	276.41
1262.23	417.816
1266.53	198.231
1270.82	109.336
1275.12	500.023
1279.41	466.504
1283.69	315.106
1287.98	606.812
1292.26	124.672
1296.54	360.852
1300.82	567.898
1305.1	601.156
1309.37	845.512
1313.64	431.832
1317.91	546.32
1322.17	672.941
1326.44	624.539
1330.7	832.957
1334.96	741.453
1339.21	948.82
1343.47	1014.98
1347.72	927.68
1351.97	781.113
1356.21	739.453
1360.46	449.785
1364.7	778.492
1368.94	562.363
1373.17	718.731
1377.41	757.445
1381.64	885.184
1385.87	681.25
1390.1	612.59
1394.32	422.195
1398.54	513.293
1402.76	645.496
1406.98	740.269
1411.19	422.387
1415.41	516.867
1419.62	184.566
1423.82	573.816
1428.03	504.312
1432.23	267.43
1436.43	106.086
1440.63	511.359
1444.82	87.5039
1449.02	137.621
1453.21	69.7109
1457.4	353.418
1461.58	379.715
1465.77	59.375
1469.95	176.508
1474.12	331.965
1478.3	152.188
1482.47	325.211
1486.64	25.9336
1490.81	553.266
1494.98	226.481
1499.14	127.191
1503.31	444.711
1507.47	142.406
1511.62	397.902
1515.78	357.383
1519.93	299.371
1524.08	328.016
1528.23	331.531
1532.37	450.945
1536.51	221.301
1540.65	74.3633
1544.79	147.148
1548.93	319.91
1553.06	410.894
1557.19	568.805
1561.32	1.47266
