Measurement: Raman, 514 nm, ccw, Raman Data Processed
Mineral: Hauyne
Rruff sample: R070121
Ideal chemistry: Na_3_Ca(Si_3_Al_3_)O_12_(SO_4_)
Locality: Hesse, Germany
Source: Michael Scott
Description: Blue cut gemstones
Pin_id: M01514
Orientation: Laser parallel to a* (1 0 0). Fiducial mark perpendicular to laser is parallel to c [0 0 1]
Raman shift (cm-1)	intensity
224.706	0
228.367	16.9707
232.026	153.805
235.683	409.072
239.339	751.328
242.993	1259.85
246.646	2248.34
250.298	2910.08
253.947	3597.1
257.596	3594.94
261.243	3299.61
264.888	2643.77
268.532	1922.95
272.174	1606.39
275.815	1696.21
279.454	1619.9
283.092	1862.73
286.728	1804.91
290.363	1391.37
293.996	1287.81
297.628	877.21
301.258	708.79
304.887	535.766
308.514	434.83
312.14	254.192
315.764	60.1343
319.387	59.9145
323.008	40.4199
326.628	141.931
330.246	206.886
333.862	149.37
337.478	220.613
341.091	145.865
344.703	53.5737
348.314	127.213
351.923	403.96
355.531	379.461
359.137	635.112
362.742	669.763
366.345	634.785
369.947	721.268
373.547	774.055
377.145	992.449
380.743	990.155
384.338	1067.73
387.932	1044.86
391.525	1090.46
395.116	1185.47
398.706	1381.57
402.294	1799.73
405.881	2286.3
409.466	2833.45
413.05	3776.33
416.632	4921.7
420.213	6440.49
423.792	8163.33
427.37	10618.1
430.946	13593.8
434.521	16513.5
438.094	18620.2
441.666	19534.4
445.236	19000.9
448.805	17391.3
452.372	15369.4
455.938	13407.7
459.502	11339
463.065	9275.95
466.627	7611.9
470.187	6113.35
473.745	5032.43
477.302	4074.2
480.857	3334.98
484.411	2831.21
487.964	2342.45
491.515	2001.99
495.064	1629.52
498.612	1392.51
502.159	1393.11
505.704	1268.03
509.247	1464.46
512.789	1738.37
516.33	2316.18
519.869	3145.35
523.407	4536.26
526.943	7780.22
530.478	13208.3
534.011	23162.7
537.543	37245.6
541.073	51649.9
544.602	55579.8
548.129	42529
551.655	22350.5
555.179	10504.7
558.702	6096.84
562.223	4367.96
565.743	3870.34
569.262	3969.18
572.779	4776.8
576.294	5542.79
579.808	5865.77
583.321	5505.01
586.832	4901.62
590.341	3855.06
593.85	3110.04
597.356	2692.62
600.862	2667.4
604.365	2911.72
607.868	3331.44
611.368	3462.37
614.868	3245.29
618.366	3358.89
621.862	3120.37
625.357	2832.4
628.85	2396.6
632.342	2141.5
635.833	2146.92
639.322	2128.06
642.81	1975.31
646.296	1801.13
649.78	1558.82
653.264	1253.44
656.745	703.898
660.226	413.04
663.704	241.847
667.182	246.299
670.658	96.3799
674.132	46.0508
677.605	161.244
681.077	56.1367
684.547	31.8379
688.015	154.753
691.483	94.3203
694.948	157.084
698.413	153.223
701.875	78.7246
705.337	4.65723
708.797	96.9307
712.255	128.526
715.712	103.344
719.167	193.503
722.621	193.096
726.074	150.119
729.525	113.184
732.975	283.496
736.423	240.849
739.87	200.128
743.315	236.52
746.759	15.6934
750.202	79.3359
753.643	103.147
757.082	51.1836
760.52	189.346
763.957	222.525
767.392	177.456
770.826	264.446
774.258	395.217
777.689	521.217
781.118	685.769
784.546	680.419
787.973	1092.86
791.398	1385.06
794.822	1526.39
798.244	1695.1
801.665	1819.68
805.084	1649.11
808.502	1630.69
811.918	1648.19
815.333	1297.9
818.747	1148.09
822.159	1016.34
825.569	755.913
828.979	779.107
832.386	692.915
835.793	899.209
839.198	586.158
842.601	634.14
846.003	604.296
849.404	433.276
852.803	491.123
856.2	582.835
859.597	526.316
862.992	309.684
866.385	305.726
869.777	179.577
873.167	121.476
876.557	26.7734
879.944	46.499
883.33	4.92969
886.715	34.5566
890.099	71.7647
893.481	118.053
896.861	141.259
900.24	128.201
903.618	86.6406
906.994	66.001
910.369	17.4883
913.742	19.1074
917.114	7.25195
920.485	71.0576
923.854	99.5557
927.221	153.253
930.588	54.6045
933.952	106.68
937.316	170.498
940.678	157.086
944.038	367.465
947.397	487.667
950.755	625.75
954.111	948.784
957.466	1481.76
960.819	2803.73
964.171	5810.9
967.522	11170.4
970.871	17787.4
974.219	22180.8
977.565	24153.5
980.91	28379.8
984.253	35629.8
987.595	41037
990.936	39705.7
994.275	35082.6
997.613	29133.5
1000.95	23712.1
1004.28	18927.8
1007.62	15824.5
1010.95	13299.7
1014.28	10852.6
1017.61	8086.75
1020.94	6376.42
1024.26	5146.55
1027.59	4689.94
1030.91	4489.74
1034.23	4626.23
1037.56	4909.22
1040.88	5333.28
1044.19	5534.06
1047.51	5407.43
1050.83	5271.24
1054.14	4946.72
1057.45	4501.73
1060.76	4537.31
1064.07	5101.55
1067.38	5804.31
1070.69	6989.43
1073.99	8566.89
1077.3	10534.7
1080.6	12534.9
1083.9	14229.4
1087.2	15172.2
1090.5	14675.4
1093.79	13211
1097.09	11257
1100.38	9356.81
1103.68	7695.19
1106.97	6764.89
1110.26	6363.05
1113.55	6236.66
1116.83	6201.05
1120.12	6124.81
1123.4	5591.42
1126.68	4974.36
1129.97	4197.69
1133.25	3706.63
1136.53	3467.27
1139.8	3167.55
1143.08	3208.47
1146.35	3030.08
1149.63	3114.52
1152.9	3011.2
1156.17	3217.77
1159.44	3088.9
1162.7	2995.27
1165.97	3130.67
1169.23	2659.47
1172.5	2405.52
1175.76	2276.24
1179.02	2224.19
1182.28	1868.87
1185.54	1478.53
1188.79	1193.21
1192.05	876.729
1195.3	839.045
1198.55	652.354
1201.81	528.631
1205.05	464.867
1208.3	281.06
1211.55	282.201
1214.79	246.275
1218.04	209.344
1221.28	115.353
1224.52	162.301
1227.76	97.1934
1231	113.869
1234.24	42.6777
1237.47	7.48242
1240.7	218.732
1243.94	213.043
1247.17	142.283
1250.4	99.2363
1253.63	8.92773
1256.86	85.6094
1260.08	24.6875
1263.31	53.4062
1266.53	4.4043
1269.75	147.441
1272.97	72.8965
1276.19	431.85
1279.41	69.6816
1282.62	33.9824
1285.84	43.2012
1289.05	71.8301
1292.26	253.764
1295.47	85.1816
1298.68	328.416
1301.89	277.695
1305.1	227.512
1308.3	430.215
1311.51	483.342
1314.71	330.24
1317.91	302.559
1321.11	622.922
1324.31	592
1327.5	741.201
1330.7	625.012
1333.89	841.883
1337.09	1101.38
1340.28	997.568
1343.47	1122.24
1346.65	991.826
1349.84	1363.53
1353.03	1197.89
1356.21	1142.82
1359.4	1131.75
1362.58	1317.22
1365.76	1207.61
1368.94	850.32
1372.12	1216.17
1375.29	1126.1
1378.47	1931.72
1381.64	1572.82
1384.81	840.322
1387.98	1017.94
1391.15	545.457
1394.32	362.404
1397.49	336.24
1400.65	486.508
1403.82	441.07
1406.98	366.783
1410.14	259.922
1413.3	247.203
1416.46	215.156
1419.62	174.629
1422.77	217.822
1425.93	118.807
1429.08	335.375
1432.23	130.693
1435.38	265.906
1438.53	276.088
1441.68	253.887
1444.82	149.435
1447.97	304.256
1451.11	326.336
1454.26	376.635
1457.4	371.894
1460.54	252.148
1463.67	83.7441
1466.81	154.891
1469.95	98.8496
1473.08	344.166
1476.21	230.435
1479.34	315.398
1482.47	377.315
1485.6	478.082
1488.73	172.211
1491.86	155.867
1494.98	227.152
1498.1	220.549
1501.23	0.804688
1504.35	175.938
1507.47	235.684
1510.58	169.494
1513.7	139.504
1516.82	538.543
1519.93	319.529
1523.04	583.312
1526.15	386.955
1529.26	324.303
1532.37	117.568
1535.48	153.621
1538.58	436.367
1541.69	398.906
1544.79	341.1
1547.89	21.3418
1550.99	234.057
1554.09	359.076
1557.19	137.574
1560.29	57.5254
