Measurement: Raman, 514 nm, ccw, Raman Data Processed
Mineral: Hauyne
Rruff sample: R050606
Ideal chemistry: Na_3_Ca(Si_3_Al_3_)O_12_(SO_4_)
Locality: Ariccia, near Rome, Italy
Source: University of Arizona Mineral Museum
Description: Blue crystal embedded in calcite
Pin_id: M01913
Orientation: Laser parallel to c* (0 0 1). Fiducial mark perpendicular to laser is parallel to a [1 0 0]
Raman shift (cm-1)	intensity
235.683	0
239.339	233.655
242.993	163.025
246.646	95.041
250.298	284.579
253.947	199.034
257.596	228.312
261.243	386.076
264.888	292.038
268.532	270.565
272.174	117.034
275.815	176.918
279.454	217.387
283.092	294.831
286.728	355.626
290.363	372.076
293.996	419.644
297.628	427.887
301.258	381.858
304.887	398.483
308.514	436.161
312.14	482.809
315.764	638.199
319.387	655.807
323.008	481.184
326.628	238.9
330.246	24.6191
333.862	49.8252
337.478	36.9365
341.091	97.0137
344.703	36.9658
348.314	59.3867
351.923	142.909
355.531	124.782
359.137	236.5
362.742	337.393
366.345	477.866
369.947	566.186
373.547	455.519
377.145	600.326
380.743	826.387
384.338	840.658
387.932	963.019
391.525	744.673
395.116	921.834
398.706	949.446
402.294	1299.42
405.881	1767.86
409.466	2265.24
413.05	3157.06
416.632	4353.74
420.213	5868.82
423.792	8135.95
427.37	11448.5
430.946	14900.1
434.521	16007.1
438.094	14387.7
441.666	10799.5
445.236	7904.26
448.805	6201.17
452.372	4686.01
455.938	4141.89
459.502	3455.47
463.065	2842.56
466.627	2480.91
470.187	2148.08
473.745	1714.76
477.302	1391.73
480.857	1202.61
484.411	1082.26
487.964	841.431
491.515	738.381
495.064	518.684
498.612	325.973
502.159	331.928
505.704	253.707
509.247	121.297
512.789	335.781
516.33	184.2
519.869	43.3135
523.407	339.642
526.943	426.296
530.478	635.598
534.011	1200.89
537.543	2085.08
541.073	3588.8
544.602	4771.15
548.129	5169.69
551.655	3248.52
555.179	1502.94
558.702	798.352
562.223	503.757
565.743	420.892
569.262	514.649
572.779	502.196
576.294	582.829
579.808	759.489
583.321	963.361
586.832	1062.07
590.341	1125.93
593.85	1309.66
597.356	1926.64
600.862	2803.13
604.365	3669.41
607.868	4461.2
611.368	4220.11
614.868	3966.98
618.366	3316.44
621.862	2414.31
625.357	1709.6
628.85	888.902
632.342	614.561
635.833	516.336
639.322	465.353
642.81	450.928
646.296	516.852
649.78	358.043
653.264	242.795
656.745	118.144
660.226	106.656
663.704	19.3301
667.182	56.5117
670.658	157.598
674.132	21.6426
677.605	93.418
681.077	21.8008
684.547	137.228
688.015	187.922
691.483	34.9707
694.948	53.2793
698.413	4.07617
701.875	187.369
705.337	83.9551
708.797	245.447
712.255	191.867
715.712	104.727
719.167	36.1152
722.621	220.123
726.074	235.619
729.525	325.426
732.975	367.078
736.423	222.756
739.87	173.92
743.315	291.215
746.759	205.166
750.202	273.502
753.643	91.4766
757.082	13.7637
760.52	240.221
763.957	197.106
767.392	207.543
770.826	387.547
774.258	365.102
777.689	195.478
781.118	333.111
784.546	302.998
787.973	445.309
791.398	365.795
794.822	670.695
798.244	278.775
801.665	379.309
805.084	494.938
808.502	483.988
811.918	422.389
815.333	435.387
818.747	464.877
822.159	467.293
825.569	402.027
828.979	459.422
832.386	454.935
835.793	237.484
839.198	382.502
842.601	322.25
846.003	266.402
849.404	256.756
852.803	209.748
856.2	84.8809
859.597	144.393
862.992	150.047
866.385	333.488
869.777	290.744
873.167	132.178
876.557	283.324
879.944	176.334
883.33	98.9356
886.715	22.0449
890.099	227.065
893.481	195.416
896.861	148.953
900.24	82.3633
903.618	97.6172
906.994	16.6406
910.369	40.0254
913.742	69.5488
917.114	193.019
920.485	255.998
923.854	217.82
927.221	106.1
930.588	0.390625
933.952	70.8184
937.316	163.264
940.678	97.7578
944.038	252.705
947.397	366.16
950.755	441.668
954.111	657.875
957.466	1167.94
960.819	2170.4
964.171	4096.93
967.522	8026.65
970.871	14425.6
974.219	21123
977.565	24557.3
980.91	22661.5
984.253	22570.3
987.595	24021.4
990.936	22928.1
994.275	20643.7
997.613	19189.8
1000.95	18878.3
1004.28	17895.4
1007.62	14356.2
1010.95	10891.9
1014.28	7902.72
1017.61	5576.36
1020.94	4339.03
1024.26	3768.15
1027.59	3643.54
1030.91	3690.67
1034.23	3477.6
1037.56	3197.1
1040.88	2843.14
1044.19	2757.99
1047.51	2276.97
1050.83	1950.62
1054.14	1819.98
1057.45	1522.06
1060.76	1665.1
1064.07	1787.59
1067.38	1925.57
1070.69	1889.46
1073.99	1979.91
1077.3	2313.36
1080.6	2371.75
1083.9	2561.32
1087.2	2569.94
1090.5	2998.78
1093.79	2715.98
1097.09	2963.45
1100.38	2364.13
1103.68	2077.14
1106.97	1586.74
1110.26	1563.23
1113.55	1477.35
1116.83	1682.5
1120.12	1631.01
1123.4	1906.5
1126.68	1873.73
1129.97	1932.5
1133.25	1923.66
1136.53	1878.34
1139.8	1830.94
1143.08	2092.23
1146.35	2180.88
1149.63	2369.72
1152.9	1960.49
1156.17	2309.81
1159.44	2189.76
1162.7	2311.02
1165.97	2095.32
1169.23	2046.77
1172.5	1933.98
1175.76	1367.21
1179.02	1351.07
1182.28	1195.49
1185.54	997.691
1188.79	596.137
1192.05	399.867
1195.3	646.16
1198.55	558.5
1201.81	253.715
1205.05	315.754
1208.3	613.578
1211.55	332.195
1214.79	363.578
1218.04	360.699
1221.28	100.441
1224.52	75.0078
1227.76	142.144
1231	216.004
1234.24	197.652
1237.47	41.9609
1240.7	260.102
1243.94	24.7969
1247.17	243.988
1250.4	355.316
1253.63	284.758
1256.86	172.453
1260.08	233.203
1263.31	71.4297
1266.53	170.707
1269.75	49.2734
1272.97	25.4766
1276.19	204.383
1279.41	1.32422
1282.62	68.4219
1285.84	50.9141
1289.05	133.078
1292.26	181.824
1295.47	140.836
1298.68	513.434
1301.89	333.269
1305.1	315.875
1308.3	525.867
1311.51	524.531
1314.71	1118.45
1317.91	533.797
1321.11	532.777
1324.31	479.894
1327.5	566.754
1330.7	741.316
1333.89	677.609
1337.09	657.957
1340.28	734.465
1343.47	826.039
1346.65	1041.31
1349.84	716.562
1353.03	627.973
1356.21	854.356
1359.4	508.254
1362.58	612.172
1365.76	562.723
1368.94	661.59
1372.12	665.191
1375.29	366.023
1378.47	678.898
1381.64	446.438
1384.81	829.957
1387.98	602.984
1391.15	399.129
1394.32	330.59
1397.49	156.672
1400.65	216.266
1403.82	328.031
1406.98	214.789
1410.14	217.535
1413.3	131.379
1416.46	63.6484
1419.62	430.789
1422.77	166.234
1425.93	430.625
1429.08	410.852
1432.23	359.453
1435.38	208.348
1438.53	427.629
1441.68	407.621
1444.82	432.215
1447.97	39.4648
1451.11	513.844
1454.26	499.332
1457.4	326
1460.54	146.926
1463.67	342.777
1466.81	433.324
1469.95	454.348
1473.08	305.566
1476.21	251.059
1479.34	250.586
1482.47	33.5273
1485.6	348.016
1488.73	169.312
1491.86	380.824
1494.98	394.797
1498.1	343.191
1501.23	33.1836
1504.35	521.141
1507.47	262.805
1510.58	203.672
1513.7	343.777
1516.82	453.199
1519.93	45.8203
1523.04	699.051
1526.15	324.988
1529.26	217.527
1532.37	277.68
1535.48	411.336
1538.58	324.031
1541.69	209.148
1544.79	179.559
1547.89	696.227
1550.99	521.176
1554.09	216.496
1557.19	166.434
1560.29	13.5703
