Measurement: Raman, 514 nm, ccw, Raman Data Processed
Mineral: Hauyne
Rruff sample: R070557
Ideal chemistry: Na_3_Ca(Si_3_Al_3_)O_12_(SO_4_)
Locality: Badakhshan, Afghanistan
Source: Farooq Hashmi
Description: Sky blue fragment
Measured chemistry: Na_3.00_(Ca_0.84_Na_0.16_)_Σ=1_(Si_3.05_Al_2.95_)O_12_((SO_4_)_0.89_Cl_0.11_)_Σ=1_
Pin_id: M01358
Orientation: Laser parallel to a* (1 0 0). Fiducial mark perpendicular to laser is parallel to c [0 0 1]
Raman shift (cm-1)	intensity
211.271	0
216.159	169.131
221.044	250.473
225.926	251.606
230.806	89.3906
235.683	370.037
240.557	312.359
245.429	569.139
250.298	664.338
255.164	634.967
260.027	711.643
264.888	485.49
269.746	418.803
274.601	563.023
279.454	399.894
284.304	289.279
289.151	453.664
293.996	303.287
298.838	269.879
303.677	182.764
308.514	321.475
313.348	213.35
318.179	22.9297
323.008	97.2695
327.834	65.9102
332.657	125.127
337.478	19.1504
342.295	12.3438
347.111	122.885
351.923	11.2891
356.733	111.334
361.54	65.4141
366.345	355.723
371.147	484.279
375.946	509.35
380.743	305.949
385.537	267.166
390.328	542.088
395.116	563.588
399.902	660.877
404.686	930.924
409.466	1005.88
414.244	1621.39
419.019	2099.6
423.792	2753.5
428.562	3717.33
433.329	4647.05
438.094	5084.93
442.856	5120.65
447.616	5048.62
452.372	4440.55
457.126	4137.81
461.878	3230.9
466.627	2688.22
471.373	2277.93
476.116	1928.74
480.857	1844.63
485.596	1268.84
490.331	929.908
495.064	726.828
499.795	503.529
504.522	60.0664
509.247	296.873
513.97	313.381
518.69	402.685
523.407	405.67
528.121	920.332
532.833	1569.21
537.543	3400.84
542.249	5361.75
546.953	4777.24
551.655	2430.26
556.354	728.551
561.05	446.654
565.743	222.918
570.434	399.836
575.123	551.592
579.808	498.525
584.491	359.912
589.172	362.576
593.85	476.789
598.525	667.078
603.197	924.227
607.868	1487.79
612.535	1583.14
617.2	1421.06
621.862	1351.64
626.522	627.801
631.178	481.9
635.833	458.426
640.485	396.107
645.134	317.31
649.78	97.3984
654.424	25.0137
659.066	71.5156
663.704	197.289
668.341	23.4219
672.974	153.68
677.605	53.7012
682.234	175.443
686.859	57.9727
691.483	159.68
696.103	93.6641
700.721	24.8867
705.337	135.541
709.949	104.51
714.56	35.1875
719.167	58.4355
723.772	471.43
728.375	197.006
732.975	119.791
737.572	290.65
742.167	96.7383
746.759	211.221
751.349	201.904
755.936	361.603
760.52	224.369
765.102	10.1719
769.681	300.269
774.258	296.266
778.832	473.789
783.404	557.07
787.973	507.639
792.539	554.666
797.103	724.443
801.665	641.654
806.223	607.57
810.779	529.115
815.333	643.68
819.884	458.914
824.433	625.541
828.979	701.453
833.522	589.973
838.063	697.352
842.601	535.371
847.137	741.518
851.67	447.596
856.2	529.822
860.729	383.555
865.254	418.348
869.777	528.769
874.297	699.113
878.815	740.098
883.33	770.055
887.843	315.785
892.353	460.727
896.861	376.18
901.366	245.293
905.869	3.66406
910.369	72.8125
914.866	157.176
919.361	319.527
923.854	235.449
928.344	55.7656
932.831	117.738
937.316	58.0469
941.798	83.2148
946.278	161.356
950.755	166.824
955.23	93.2539
959.702	959.215
964.171	1997.21
968.638	5063.85
973.103	6965
977.565	8836.93
982.025	12050.3
986.482	15873.9
990.936	14178.1
995.388	9566.17
999.837	5946.02
1004.28	3576.63
1008.73	2311.94
1013.17	1702.92
1017.61	1230.47
1022.05	949.336
1026.48	978.203
1030.91	1011.21
1035.34	1015.84
1039.77	849.156
1044.19	894.438
1048.62	818.793
1053.03	759
1057.45	837.469
1061.87	807.523
1066.28	1136.08
1070.69	1124.18
1075.09	1097.12
1079.5	1218.28
1083.9	1884.02
1088.3	1903.31
1092.69	1651.32
1097.09	1531.75
1101.48	1238.45
1105.87	872.777
1110.26	633.848
1114.64	733.945
1119.02	840.93
1123.4	999.539
1127.78	827.523
1132.15	883.664
1136.53	452.945
1140.89	926.859
1145.26	463.465
1149.63	581.172
1153.99	1086.14
1158.35	828.316
1162.7	596.731
1167.06	412.41
1171.41	534.5
1175.76	471.039
1180.11	593.188
1184.45	345.883
1188.79	159.277
1193.13	386.434
1197.47	193.992
1201.81	193.809
1206.14	10.1602
1210.47	60.1094
1214.79	248.152
1219.12	122.457
1223.44	114.207
1227.76	190.695
1232.08	24.6758
1236.39	125.297
1240.7	392.41
1245.02	126.508
1249.32	106.312
1253.63	144.941
1257.93	4.58203
1262.23	45.6055
1266.53	62.9375
1270.82	131.527
1275.12	242.398
1279.41	77.4531
1283.69	395.691
1287.98	610.188
1292.26	430.93
1296.54	659.871
1300.82	483.012
1305.1	363.309
1309.37	503.746
1313.64	595.312
1317.91	738.078
1322.17	782.176
1326.44	684.496
1330.7	1111.78
1334.96	890.473
1339.21	694.379
1343.47	1006.15
1347.72	793.191
1351.97	649.211
1356.21	987.242
1360.46	575.738
1364.7	837.016
1368.94	512.191
1373.17	612.707
1377.41	924.898
1381.64	460.953
1385.87	736.211
1390.1	628.894
1394.32	641.719
1398.54	786.508
1402.76	741.477
1406.98	668.754
1411.19	439.398
1415.41	494.781
1419.62	746.144
1423.82	70.2227
1428.03	535.125
1432.23	267.152
1436.43	364.367
1440.63	133.023
1444.82	176.57
1449.02	39.7227
1453.21	692.258
1457.4	303.309
1461.58	261.394
1465.77	288.644
1469.95	53.6836
1474.12	431.133
1478.3	207.352
1482.47	288.695
1486.64	192.441
1490.81	140.644
1494.98	33.5078
1499.14	354.441
1503.31	233.723
1507.47	0.269531
1511.62	428.051
1515.78	353.172
1519.93	258.434
1524.08	702.547
1528.23	259.398
1532.37	178.188
1536.51	289.449
1540.65	132.371
1544.79	376.582
1548.93	107.055
1553.06	236.707
1557.19	225.172
1561.32	375.18
