Measurement: Raman, 514 nm, ccw, Raman Data Processed
Mineral: Hedenbergite
Rruff sample: R060040
Ideal chemistry: CaFe^2+^Si_2_O_6_
Locality: Rio Marina, Elba, Italy
Source: University of Arizona Mineral Museum
Description: Radial aggregate of green thin bladed crystals
Measured chemistry: Ca_1.00_(Fe^2+^_0.89_Mg_0.09_Mn_0.02_)_Î£=1_Si_2.00_O_6_
Pin_id: M00921
Orientation: Laser parallel to -b* (0 -1 0). Fiducial mark perpendicular to laser is parallel to c [0 0 1]
Raman shift (cm-1)	intensity
262.49	0
266.136	54.8086
269.782	219.533
273.425	297.842
277.068	137.91
280.709	255.435
284.348	86.7598
287.986	165.328
291.622	33.9102
295.257	699.66
298.891	567.346
302.523	859.529
306.154	955.881
309.783	1157.8
313.41	688.219
317.037	713.215
320.661	505.715
324.285	675.736
327.906	760.762
331.527	635.623
335.145	980.144
338.763	675.238
342.379	405.137
345.993	566.021
349.606	348.049
353.218	181.408
356.828	147.367
360.436	411.519
364.043	386.574
367.649	682.121
371.253	894.371
374.856	787.898
378.457	841.328
382.057	452.109
385.655	368.863
389.252	220.279
392.847	18.9355
396.441	26.875
400.034	140.99
403.625	83.0527
407.214	48.5898
410.802	37.9199
414.389	90.4102
417.974	92.3086
421.557	270.287
425.139	170.332
428.72	89.4961
432.299	152.977
435.877	299.065
439.453	56.2773
443.028	74.9316
446.601	50.8496
450.173	125.266
453.743	158.713
457.312	170.231
460.88	5.20117
464.446	27.6738
468.01	98.5586
471.573	133.699
475.135	30.3906
478.695	265.945
482.253	177.361
485.81	205.576
489.366	352.352
492.92	333.961
496.473	371.482
500.024	364.9
503.574	240.238
507.122	266.506
510.669	269.672
514.214	83.7617
517.758	201.781
521.301	164.697
524.842	232.555
528.381	92.6543
531.919	250.971
535.456	266.32
538.991	126.523
542.524	13.791
546.056	272.908
549.587	266.324
553.116	190.957
556.644	245.488
560.17	358.625
563.695	352.195
567.218	185.568
570.74	38.3574
574.26	298.219
577.779	130.514
581.296	125.148
584.812	195.426
588.327	314.09
591.84	104.297
595.351	114.111
598.861	70.0801
602.37	90.0606
605.877	164.242
609.383	166.586
612.887	194.641
616.39	276.231
619.891	376.912
623.391	200.135
626.889	459.152
630.386	309.705
633.881	427.506
637.375	438.059
640.867	841.625
644.358	901.857
647.848	1402.31
651.335	2438.2
654.822	3688.98
658.307	4658.55
661.791	4350.23
665.273	2957.02
668.753	1592.09
672.232	970.896
675.71	628.787
679.186	349.035
682.661	567.791
686.134	300.918
689.606	205.141
693.076	294.008
696.545	390.938
700.013	259.457
703.478	24.0156
706.943	190.148
710.406	208.199
713.867	107.445
717.327	121.477
720.786	72.0547
724.243	25.0352
727.698	94.1055
731.153	179.16
734.605	92.5859
738.056	159.918
741.506	223.867
744.954	57.1836
748.401	32.8281
751.846	57.6328
755.29	69.7227
758.733	149.484
762.173	4.69531
765.613	156.785
769.051	243.914
772.487	435.641
775.922	259.082
779.356	99.332
782.788	123.969
786.218	106.266
789.648	150.984
793.075	201.43
796.501	103.926
799.926	38.6445
803.349	193.629
806.771	124.812
810.191	141.379
813.61	169.934
817.027	117.285
820.443	259.301
823.858	289.672
827.271	255.715
830.682	169.461
834.092	278.441
837.501	53.2969
840.908	64.3633
844.313	416.996
847.717	505.238
851.12	446.488
854.521	417.562
857.921	506.32
861.319	556.152
864.716	195.523
868.111	283.598
871.505	262.375
874.897	293.496
878.288	310.394
881.677	19.3477
885.065	332.742
888.452	425.227
891.837	266.84
895.22	121.332
898.602	62.9102
901.983	249.379
905.362	374.043
908.74	330.055
912.116	242.059
915.49	30.6719
918.864	172.734
922.235	456.188
925.606	198.641
928.974	105.32
932.342	27.4336
935.708	77.8438
939.072	405.516
942.435	159.461
945.796	45.5234
949.156	196.148
952.515	239.766
955.872	72.1758
959.228	141.234
962.582	164.32
965.934	267.465
969.285	418.625
972.635	56.7617
975.983	368.578
979.33	231.227
982.675	391.57
986.019	359.297
989.362	376.578
992.702	645.324
996.042	1041.52
999.38	1109.09
1002.72	2432.33
1006.05	4799.84
1009.38	7046.13
1012.72	7456.13
1016.05	5002.21
1019.38	2701.68
1022.7	1565.49
1026.03	1319.09
1029.36	895.219
1032.68	905.613
1036	840.137
1039.32	617.129
1042.64	601.016
1045.96	67.6758
1049.27	312.328
1052.59	125.606
1055.9	306.246
1059.21	578.957
1062.52	271.637
1065.83	200.109
1069.14	495.926
1072.44	522.305
1075.75	56.3594
1079.05	67.3008
1082.35	246.945
1085.65	241.297
1088.95	407.977
1092.25	273.062
1095.54	48.7656
1098.84	88.875
1102.13	493.625
1105.42	356.738
1108.71	283.301
1112	256.031
1115.28	27.9258
1118.57	289.582
1121.85	192.172
1125.13	265.688
1128.41	368.129
1131.69	34.5078
1134.97	92.2656
1138.25	90.3242
1141.52	263.293
1144.8	278.852
1148.07	241.363
1151.34	513.297
1154.61	262.715
1157.87	308.082
1161.14	91.3633
1164.4	38.3047
1167.67	177.457
1170.93	381.402
1174.19	277.805
1177.45	140.137
1180.71	146.981
1183.96	124.055
1187.22	261.172
1190.47	550.176
1193.72	158.117
1196.97	149.035
1200.22	320.965
1203.46	363.93
1206.71	41.4023
1209.95	140.211
1213.2	9.14844
1216.44	143.098
1219.68	331.074
1222.92	341.106
1226.15	37.0938
1229.39	348.879
1232.62	459.894
1235.86	404.289
1239.09	514.469
1242.32	334.699
1245.54	104.449
1248.77	177.695
1251.99	111.969
1255.22	420.801
1258.44	407.144
1261.66	311.723
1264.88	27.4219
1268.1	19.6602
1271.31	249.172
1274.53	399.754
1277.74	127.402
1280.95	372.481
1284.16	267.211
1287.37	389.055
1290.58	50.5742
1293.79	109.359
1296.99	324.934
1300.19	130.965
1303.39	59.8086
1306.6	26.082
1309.79	271.453
1312.99	237.027
1316.19	561.816
1319.38	337.988
1322.57	368.102
1325.77	345.148
1328.96	405.578
1332.14	213.125
1335.33	228.836
1338.52	160.629
1341.7	307.336
1344.88	404.383
1348.06	729.527
1351.24	574.582
1354.42	388.777
1357.6	260.547
1360.77	29.6523
1363.95	45.2969
1367.12	645.391
1370.29	598.637
1373.46	236.769
1376.63	337.356
1379.8	234.121
1382.96	367.082
1386.12	258.238
1389.29	259.598
1392.45	154.18
1395.61	126.16
1398.76	204.406
1401.92	519.867
1405.08	335.531
1408.23	249.922
1411.38	45.0273
1414.53	89.3906
1417.68	111.348
1420.83	160.293
1423.97	236.594
1427.12	201.34
1430.26	136.168
1433.4	233.188
1436.54	469.379
1439.68	70.1758
1442.82	375.172
1445.95	428.762
1449.09	294.957
1452.22	123.258
1455.35	232.301
1458.48	369.691
1461.61	556.418
1464.74	461.453
1467.87	265.832
1470.99	240.777
1474.11	291.75
1477.23	232.113
1480.35	188.836
1483.47	239.93
1486.59	578.418
1489.7	383.285
1492.82	368.008
1495.93	401.113
1499.04	337.797
1502.15	698.238
1505.26	306.977
1508.37	497
1511.47	674.238
1514.58	353.555
1517.68	174.34
1520.78	120.766
1523.88	369.887
1526.98	443.938
1530.07	534.551
1533.17	409.754
1536.26	546.836
1539.35	405.965
1542.44	446.106
1545.53	77.4492
1548.62	812.266
1551.71	364.863
1554.79	608.039
1557.88	198.965
1560.96	95.2773
1564.04	922.129
1567.12	107.152
1570.2	359.16
1573.27	338.086
