Measurement: Raman, 514 nm, ccw, Raman Data Processed
Mineral: Hedenbergite
Rruff sample: R060040
Ideal chemistry: CaFe^2+^Si_2_O_6_
Locality: Rio Marina, Elba, Italy
Source: University of Arizona Mineral Museum
Description: Radial aggregate of green thin bladed crystals
Measured chemistry: Ca_1.00_(Fe^2+^_0.89_Mg_0.09_Mn_0.02_)_Î£=1_Si_2.00_O_6_
Pin_id: M01289
Orientation: Laser parallel to a* (1 0 0). Fiducial mark perpendicular to laser is parallel to b [0 1 0]
Raman shift (cm-1)	intensity
262.49	0
266.136	99.7393
269.782	80.9522
273.425	76.3877
277.068	6.96777
280.709	79.6582
284.348	260.164
287.986	632.016
291.622	671.72
295.257	967.959
298.891	1528.93
302.523	2549.94
306.154	3604.66
309.783	3998.59
313.41	2989.35
317.037	2181.57
320.661	1584.41
324.285	1420.33
327.906	1182.46
331.527	1339.92
335.145	1239.93
338.763	1241.37
342.379	1108.46
345.993	964.201
349.606	686.636
353.218	814.865
356.828	748.148
360.436	1088.36
364.043	1078.35
367.649	1819.9
371.253	2449.29
374.856	3463.51
378.457	3065.5
382.057	2328.45
385.655	1240.32
389.252	804.12
392.847	443.824
396.441	224.44
400.034	136.971
403.625	140.418
407.214	138.398
410.802	140.506
414.389	7.92969
417.974	99.3769
421.557	63.8555
425.139	55.126
428.72	96.2988
432.299	63.0957
435.877	90.7012
439.453	161.825
443.028	49.0273
446.601	27.4463
450.173	23.8643
453.743	234.425
457.312	71.458
460.88	72.1699
464.446	123.668
468.01	20.5752
471.573	40.3633
475.135	143.222
478.695	170.54
482.253	172.664
485.81	92.5264
489.366	176.098
492.92	375.449
496.473	529.383
500.024	564.165
503.574	356.871
507.122	221.496
510.669	331.789
514.214	336.81
517.758	413.794
521.301	520.83
524.842	491.831
528.381	555.787
531.919	489.74
535.456	692.602
538.991	630.372
542.524	530.054
546.056	511.541
549.587	674.039
553.116	656.545
556.644	494.905
560.17	375.352
563.695	344.913
567.218	85.4082
570.74	223.061
574.26	66.9004
577.779	369.271
581.296	147.356
584.812	85.2451
588.327	96.0039
591.84	3.03516
595.351	126.247
598.861	140.935
602.37	45.7559
605.877	68.2598
609.383	110.51
612.887	175.111
616.39	337.22
619.891	158.987
623.391	307.26
626.889	257.66
630.386	534.104
633.881	535.981
637.375	964.309
640.867	1193.2
644.358	1686.81
647.848	2514.91
651.335	4172.53
654.822	7226.39
658.307	11817.8
661.791	13960.2
665.273	9733.09
668.753	5400.93
672.232	3204.36
675.71	2054.68
679.186	1165.17
682.661	888.269
686.134	685.404
689.606	641.656
693.076	555.098
696.545	478.459
700.013	336.393
703.478	377.223
706.943	321.326
710.406	472.57
713.867	190.44
717.327	200.379
720.786	164.533
724.243	125.135
727.698	95.1231
731.153	185.475
734.605	118.873
738.056	52.9609
741.506	95.5332
744.954	42.6973
748.401	42.252
751.846	180.338
755.29	263.428
758.733	107.463
762.173	281.387
765.613	215.111
769.051	162.654
772.487	35.0332
775.922	5.30078
779.356	82.5801
782.788	19.2461
786.218	123.883
789.648	20.3262
793.075	200.621
796.501	179.322
799.926	96.9981
803.349	93.5176
806.771	241.781
810.191	161.219
813.61	193.748
817.027	103.678
820.443	255.529
823.858	129.307
827.271	64.0039
830.682	264.613
834.092	60.5918
837.501	31.0684
840.908	175.412
844.313	295.644
847.717	406.818
851.12	866.941
854.521	797.01
857.921	717.535
861.319	290.295
864.716	499.432
868.111	374.449
871.505	282.367
874.897	214.315
878.288	158.014
881.677	416.152
885.065	241.273
888.452	201.115
891.837	264.09
895.22	312.625
898.602	206.682
901.983	315.537
905.362	199.098
908.74	460.606
912.116	146.315
915.49	233.494
918.864	358.31
922.235	268.094
925.606	440.17
928.974	86.9688
932.342	145.975
935.708	23.8555
939.072	27.6543
942.435	24.582
945.796	24.3477
949.156	52.7324
952.515	94.5254
955.872	94.7246
959.228	256.762
962.582	137.381
965.934	32.9238
969.285	100.348
972.635	86.0449
975.983	152.184
979.33	244.451
982.675	259.268
986.019	171.631
989.362	459.027
992.702	868.455
996.042	1013.91
999.38	1682.4
1002.72	3089.22
1006.05	5901.81
1009.38	11795.4
1012.72	16084.2
1016.05	11687
1019.38	6160.01
1022.7	3578.72
1026.03	2222.26
1029.36	1899.12
1032.68	1766.96
1036	1475.36
1039.32	1136.4
1042.64	909.496
1045.96	793.523
1049.27	696.613
1052.59	665.908
1055.9	545.197
1059.21	622.07
1062.52	358.477
1065.83	400.078
1069.14	313.06
1072.44	327.836
1075.75	355.273
1079.05	382.217
1082.35	317.065
1085.65	509.098
1088.95	377.307
1092.25	229.047
1095.54	236.781
1098.84	378.734
1102.13	313.801
1105.42	347.004
1108.71	212.023
1112	181.174
1115.28	288.906
1118.57	216.613
1121.85	166.029
1125.13	86.7051
1128.41	185.365
1131.69	208.008
1134.97	140.578
1138.25	147.019
1141.52	9.5625
1144.8	149.801
1148.07	163.144
1151.34	94.4609
1154.61	109.246
1157.87	41.7383
1161.14	108.541
1164.4	75.3066
1167.67	123.996
1170.93	247.627
1174.19	215.178
1177.45	171.703
1180.71	74.1992
1183.96	57.4805
1187.22	55.1582
1190.47	45.0527
1193.72	157.227
1196.97	163.369
1200.22	231.481
1203.46	242.477
1206.71	15.6055
1209.95	74.2324
1213.2	70
1216.44	170.578
1219.68	163.074
1222.92	248.555
1226.15	80.0156
1229.39	348.449
1232.62	217.873
1235.86	40.248
1239.09	118.557
1242.32	74.709
1245.54	284.334
1248.77	0.404297
1251.99	242.443
1255.22	118.506
1258.44	358.541
1261.66	372.549
1264.88	455.215
1268.1	177.113
1271.31	141.914
1274.53	105.838
1277.74	159.672
1280.95	254.318
1284.16	182.664
1287.37	165.279
1290.58	333.736
1293.79	180.68
1296.99	263.238
1300.19	195.502
1303.39	163.709
1306.6	245.053
1309.79	394.506
1312.99	198.766
1316.19	131.164
1319.38	544.678
1322.57	385.193
1325.77	263.178
1328.96	381.268
1332.14	339.742
1335.33	337.272
1338.52	448.502
1341.7	260.629
1344.88	369.451
1348.06	367.826
1351.24	118.4
1354.42	274.297
1357.6	306.223
1360.77	186.18
1363.95	204.598
1367.12	351.375
1370.29	321.949
1373.46	204.053
1376.63	334.465
1379.8	373.512
1382.96	97.7266
1386.12	118.977
1389.29	150.277
1392.45	226.69
1395.61	97.1856
1398.76	147.527
1401.92	271.117
1405.08	249.672
1408.23	162.293
1411.38	151.998
1414.53	254.894
1417.68	92.709
1420.83	386.824
1423.97	94.707
1427.12	304.541
1430.26	191.467
1433.4	241.422
1436.54	14.2207
1439.68	157.894
1442.82	341.881
1445.95	480.916
1449.09	268.889
1452.22	258.215
1455.35	425.332
1458.48	222.629
1461.61	225.17
1464.74	132.859
1467.87	383.566
1470.99	156.393
1474.11	83.4824
1477.23	226.803
1480.35	144.072
1483.47	357.428
1486.59	206.904
1489.7	376.465
1492.82	16.8535
1495.93	316.963
1499.04	285.898
1502.15	336.236
1505.26	121.342
1508.37	189.57
1511.47	158.051
1514.58	390.711
1517.68	87.6348
1520.78	3.20508
1523.88	108.189
1526.98	200.996
1530.07	552.08
1533.17	185.336
1536.26	398.91
1539.35	242.316
1542.44	106.356
1545.53	138.025
1548.62	86.7695
1551.71	227.361
1554.79	356.113
1557.88	12.1484
1560.96	250.162
1564.04	340.26
1567.12	218.369
1570.2	39.418
1573.27	0.121094
