Measurement: Raman, 514 nm, ccw, Raman Data Processed
Mineral: Hedenbergite
Rruff sample: R060040
Ideal chemistry: CaFe^2+^Si_2_O_6_
Locality: Rio Marina, Elba, Italy
Source: University of Arizona Mineral Museum
Description: Radial aggregate of green thin bladed crystals
Measured chemistry: Ca_1.00_(Fe^2+^_0.89_Mg_0.09_Mn_0.02_)_Î£=1_Si_2.00_O_6_
Pin_id: M00548
Orientation: Laser parallel to c* (0 0 1). Fiducial mark perpendicular to laser is parallel to a [1 0 0]
Raman shift (cm-1)	intensity
262.49	0
266.136	26.4316
269.782	51.0742
273.425	435.195
277.068	472.386
280.709	378.335
284.348	521.149
287.986	540.835
291.622	838.799
295.257	1063.58
298.891	1503.39
302.523	1833.04
306.154	2192.54
309.783	2154.52
313.41	1634.53
317.037	1281.71
320.661	1385.07
324.285	1533.86
327.906	2145.44
331.527	2694.05
335.145	2797.13
338.763	3348.69
342.379	2858.98
345.993	1962.35
349.606	1144.09
353.218	768.893
356.828	713.82
360.436	928.909
364.043	1392.31
367.649	2305.59
371.253	3305.73
374.856	3984.84
378.457	3294.75
382.057	2211.99
385.655	1272.21
389.252	612.72
392.847	286.383
396.441	132.5
400.034	189.501
403.625	25.918
407.214	80.791
410.802	23.8662
414.389	88.5166
417.974	0.716797
421.557	17.3105
425.139	49.8623
428.72	97.0918
432.299	218.418
435.877	119.546
439.453	219.549
443.028	140.974
446.601	186.362
450.173	134.429
453.743	142.867
457.312	130.061
460.88	61.1758
464.446	160.111
468.01	7.87012
471.573	164.189
475.135	24.0039
478.695	137.3
482.253	145.894
485.81	181.148
489.366	264.6
492.92	390.602
496.473	422.345
500.024	343.81
503.574	335.853
507.122	196.305
510.669	216.9
514.214	234.231
517.758	375.528
521.301	244.67
524.842	428.632
528.381	389.493
531.919	404.208
535.456	456.785
538.991	437.184
542.524	498.563
546.056	920.757
549.587	1358.67
553.116	1461.65
556.644	1105.17
560.17	581.161
563.695	395.644
567.218	380.496
570.74	210.856
574.26	217.833
577.779	144.904
581.296	138.657
584.812	226.363
588.327	166.677
591.84	270.462
595.351	200.664
598.861	370.504
602.37	323.431
605.877	296.889
609.383	436.219
612.887	338.488
616.39	480.988
619.891	541.725
623.391	592.42
626.889	837.053
630.386	1061.39
633.881	1376.96
637.375	1299.16
640.867	1883.44
644.358	2612.44
647.848	4210.42
651.335	6872.96
654.822	11585.2
658.307	17213
661.791	17289.3
665.273	10918.2
668.753	5786.41
672.232	3108.03
675.71	1832.38
679.186	1138
682.661	775.07
686.134	585.457
689.606	297.012
693.076	360.068
696.545	219.176
700.013	311.656
703.478	257.307
706.943	303.877
710.406	92.0137
713.867	113.967
717.327	175.393
720.786	16.7891
724.243	123.689
727.698	12.502
731.153	100.59
734.605	60.0742
738.056	67.7871
741.506	112.408
744.954	273.978
748.401	125.65
751.846	216.365
755.29	474.031
758.733	255.578
762.173	290.971
765.613	122.225
769.051	102.326
772.487	34.7402
775.922	156.914
779.356	16.3633
782.788	33.3691
786.218	110.344
789.648	136.797
793.075	211.867
796.501	93.457
799.926	115.623
803.349	97.4219
806.771	9.72266
810.191	130.057
813.61	164.191
817.027	79.9297
820.443	137.508
823.858	192.81
827.271	193.978
830.682	19.7422
834.092	419.592
837.501	398.285
840.908	253.447
844.313	585.904
847.717	984.371
851.12	1190.39
854.521	1493.45
857.921	1094.4
861.319	845.771
864.716	539.641
868.111	282.92
871.505	535.996
874.897	402.44
878.288	338.18
881.677	550.1
885.065	585.764
888.452	500.453
891.837	478.41
895.22	445.408
898.602	574.402
901.983	612.17
905.362	632.947
908.74	630.506
912.116	624.836
915.49	559.766
918.864	463.744
922.235	415.6
925.606	463.434
928.974	110.496
932.342	98.7676
935.708	52.2109
939.072	98.9102
942.435	190.648
945.796	89.6328
949.156	86.3691
952.515	65.0019
955.872	365.301
959.228	427.559
962.582	559.547
965.934	425.516
969.285	369.213
972.635	605.326
975.983	532.285
979.33	803.463
982.675	1013.72
986.019	1102.04
989.362	1668.47
992.702	2204.98
996.042	3020.57
999.38	4975.01
1002.72	8577.77
1006.05	16278.6
1009.38	29547.6
1012.72	35233.5
1016.05	21841.6
1019.38	10661
1022.7	6274.66
1026.03	4771.95
1029.36	4085.32
1032.68	3502.07
1036	2335.89
1039.32	1948.96
1042.64	1283.82
1045.96	749.057
1049.27	695.154
1052.59	608.578
1055.9	454.617
1059.21	754.938
1062.52	435.545
1065.83	498.176
1069.14	442.853
1072.44	293.268
1075.75	610.934
1079.05	314.252
1082.35	641.031
1085.65	1020.88
1088.95	766.268
1092.25	441.191
1095.54	317.289
1098.84	350.326
1102.13	334.356
1105.42	215.885
1108.71	487.523
1112	201.94
1115.28	191.881
1118.57	474.83
1121.85	320.797
1125.13	74.6211
1128.41	743.402
1131.69	236.18
1134.97	73.9961
1138.25	123.936
1141.52	122.934
1144.8	125.377
1148.07	293.584
1151.34	61.7402
1154.61	131.397
1157.87	27.3359
1161.14	85.0039
1164.4	16.4863
1167.67	158.623
1170.93	84.7832
1174.19	172.33
1177.45	11.5449
1180.71	93.2656
1183.96	7.34766
1187.22	4.72852
1190.47	110.635
1193.72	199.449
1196.97	170.16
1200.22	15.2207
1203.46	138.242
1206.71	12.6348
1209.95	183.865
1213.2	123.984
1216.44	88.0566
1219.68	149.588
1222.92	130.019
1226.15	313.307
1229.39	230.484
1232.62	153.555
1235.86	209.51
1239.09	42.8477
1242.32	118.473
1245.54	100.682
1248.77	86.7871
1251.99	217.783
1255.22	448.67
1258.44	271.457
1261.66	148.383
1264.88	191.041
1268.1	28.5391
1271.31	257.049
1274.53	189.57
1277.74	451.754
1280.95	297.547
1284.16	166.086
1287.37	151.016
1290.58	569.951
1293.79	267.404
1296.99	359.43
1300.19	322.346
1303.39	374.502
1306.6	288.828
1309.79	322.195
1312.99	176.137
1316.19	373.867
1319.38	183.799
1322.57	264.711
1325.77	450.727
1328.96	114.268
1332.14	268.35
1335.33	394.568
1338.52	380.826
1341.7	419.789
1344.88	329.639
1348.06	208.322
1351.24	362.881
1354.42	462.697
1357.6	221.565
1360.77	286.324
1363.95	335.504
1367.12	287.096
1370.29	378.772
1373.46	33.3867
1376.63	210.955
1379.8	195.643
1382.96	237.348
1386.12	99.8223
1389.29	263.527
1392.45	96.5371
1395.61	287.449
1398.76	236.26
1401.92	90.1875
1405.08	251.154
1408.23	218.156
1411.38	243.658
1414.53	277.834
1417.68	256.209
1420.83	322.664
1423.97	4.3125
1427.12	91.293
1430.26	351.172
1433.4	476.195
1436.54	461.363
1439.68	515.82
1442.82	363.906
1445.95	529.684
1449.09	399.281
1452.22	390.938
1455.35	408.566
1458.48	423.281
1461.61	315.133
1464.74	338.328
1467.87	327.664
1470.99	54.0898
1474.11	480.07
1477.23	416.231
1480.35	380.539
1483.47	197.961
1486.59	206.019
1489.7	300.453
1492.82	202.856
1495.93	176.469
1499.04	290.199
1502.15	306.062
1505.26	401.012
1508.37	222.082
1511.47	265.195
1514.58	297.348
1517.68	289.754
1520.78	383.398
1523.88	400.266
1526.98	284.898
1530.07	56.0547
1533.17	378.34
1536.26	183.129
1539.35	133.484
1542.44	204.352
1545.53	268.766
1548.62	32.8203
1551.71	287.195
1554.79	327.207
1557.88	138.066
1560.96	214.531
1564.04	168.953
1567.12	81.0586
1570.2	71.1875
1573.27	154.668
