Measurement: Raman, 514 nm, ccw, Raman Data Processed
Mineral: Hedenbergite
Rruff sample: R050030
Ideal chemistry: CaFe^2+^Si_2_O_6_
Locality: Heroult, Ontario, Canada
Source: University of Arizona Mineral Museum
Description: Green fragments
Measured chemistry: (Ca_.993_Na_.007_)(Fe_.860_Mn_.111_Mg_.029_)(Si_.993_Al_.007_)_2_O_6_
Pin_id: M00111
Orientation: Laser parallel to a* (1 0 0). Fiducial mark perpendicular to laser is parallel to b [0 1 0]
Raman shift (cm-1)	intensity
96.976	0
101.157	261.78
105.336	259.888
109.513	165.36
113.688	510.397
117.861	1751.57
122.032	2460.06
126.201	1377.93
130.367	330.339
134.532	31.135
138.695	271.556
142.856	611.782
147.014	301.586
151.171	130.499
155.325	6.095
159.478	131.521
163.629	179.747
167.777	506.18
171.924	1433.38
176.068	2033.58
180.211	1884.73
184.351	2634.36
188.49	3070.4
192.626	1470.23
196.761	513.555
200.893	138.641
205.024	68.111
209.152	83.238
213.279	24.501
217.403	42.72
221.526	51.074
225.646	189.856
229.765	435.627
233.881	344.379
237.996	75.896
242.108	83.996
246.219	45.036
250.328	2.97
254.434	16.958
258.539	2.997
262.641	8.963
266.742	90.008
270.84	106.93
274.937	334.777
279.032	511.102
283.125	779.792
287.215	1027.82
291.304	1482.01
295.391	2358.49
299.476	3389.12
303.558	3545.31
307.639	2586.77
311.718	1659.34
315.795	989.905
319.87	868.724
323.943	942.927
328.014	1305.98
332.083	2181.01
336.15	2790.93
340.215	2130.45
344.279	1499.77
348.34	1276.08
352.399	1368.38
356.457	1887.65
360.512	2966.9
364.565	5016.1
368.617	8395.26
372.666	9287.49
376.714	6080.86
380.76	3232.78
384.803	1726.51
388.845	1015.39
392.885	624.22
396.923	347.168
400.959	289.189
404.993	207.757
409.025	181.945
413.055	37.408
417.084	110.075
421.11	40.756
425.134	86.663
429.157	212.986
433.177	135.849
437.196	154.23
441.213	184.513
445.227	51.748
449.24	48.274
453.251	43.846
457.26	7.608
461.267	34.256
465.272	109.395
469.276	94.858
473.277	72.331
477.276	113.015
481.274	194.905
485.27	261.136
489.263	557.303
493.255	503.438
497.245	369.671
501.233	295.833
505.219	221.898
509.203	387.866
513.186	666.325
517.166	809.535
521.145	835.301
525.121	481.029
529.096	226.711
533.069	92.352
537.04	47.979
541.009	173.561
544.976	179.133
548.941	284.608
552.905	219.973
556.866	35.225
560.826	170.308
564.784	115.197
568.74	70.001
572.694	4.795
576.646	109.852
580.596	3.491
584.544	56.754
588.491	49.041
592.435	25.096
596.378	48.968
600.319	26.635
604.258	255.978
608.195	68.244
612.131	38.889
616.064	80.926
619.995	303.293
623.925	335.236
627.853	348.36
631.779	481.878
635.703	759.883
639.625	1258.29
643.546	2173.6
647.464	4066.3
651.381	8144.77
655.296	12584
659.209	9586.28
663.12	5278.15
667.029	2660.17
670.937	1652.3
674.842	1128
678.746	755.021
682.648	702.229
686.548	376.032
690.447	486.951
694.343	476.41
698.238	477.261
702.13	527.95
706.021	208.572
709.91	139.082
713.798	208.849
717.683	213.874
721.567	194.376
725.448	150.844
729.328	90.226
733.206	154.146
737.083	139.28
740.957	207.345
744.83	259.662
748.701	186.025
752.57	246.226
756.437	165.106
760.302	64.478
764.166	133.624
768.027	29.299
771.887	198.388
775.745	97.637
779.602	86.872
783.456	226.995
787.309	166.07
791.16	244.996
795.009	63.732
798.856	292.277
802.702	220.707
806.545	101.202
810.387	16.511
814.227	104.165
818.065	51.769
821.902	19.316
825.737	23.19
829.569	55.832
833.401	8.671
837.23	298.322
841.057	435.191
844.883	532.009
848.707	558.85
852.529	475.677
856.35	272.482
860.168	259.269
863.985	256.041
867.8	22.806
871.613	219.613
875.425	40.599
879.234	63.369
883.042	120.059
886.848	316.806
890.653	83.682
894.455	170.562
898.256	97.728
902.055	34.967
905.852	282.044
909.648	239.39
913.442	166.597
917.233	203.987
921.024	121.14
924.812	248.64
928.599	86.168
932.384	113.696
936.167	110.926
939.948	387.354
943.728	69.293
947.506	280.93
951.282	275.798
955.056	573.107
958.829	407.557
962.6	425.061
966.369	202.879
970.136	260.694
973.902	598.276
977.666	664.166
981.428	556.84
985.188	782.312
988.947	1115.85
992.704	1561.87
996.459	2723.28
1000.21	4982.08
1003.96	11831.1
1007.71	29119.9
1011.46	27889.1
1015.21	12678.4
1018.95	6328.06
1022.7	4467.9
1026.44	3851.83
1030.18	2532.75
1033.91	1890.22
1037.65	1405.19
1041.39	975.568
1045.12	916.973
1048.85	925.404
1052.58	1104.46
1056.31	835.238
1060.03	636.145
1063.76	486.436
1067.48	467.705
1071.2	389.15
1074.92	430.035
1078.63	410.912
1082.35	491.268
1086.06	411.07
1089.78	202.215
1093.49	382.75
1097.19	243.721
1100.9	94.9
1104.61	326.113
1108.31	277.127
1112.01	217.996
1115.71	89.398
1119.41	130.975
1123.11	441.76
1126.8	27.33
1130.5	134.037
1134.19	5.936
1137.88	33.051
1141.57	345.258
1145.25	108.141
1148.94	39.553
1152.62	154.357
1156.3	244.09
1159.98	107.695
1163.66	128.172
1167.34	85.219
1171.01	167.049
1174.68	12.162
1178.36	120.945
1182.02	48.959
1185.69	369.123
1189.36	239.197
1193.02	440.77
1196.69	70.549
1200.35	52.098
1204.01	72.807
1207.66	163.119
1211.32	93.525
1214.98	152.062
1218.63	369.223
1222.28	565.678
1225.93	304.16
1229.58	341.066
1233.22	376.244
1236.87	312.852
1240.51	228.389
1244.15	334.09
1247.79	339.506
1251.43	415.578
1255.07	460.137
1258.7	145.822
1262.33	281.018
1265.96	345.262
1269.59	248.57
1273.22	141.086
1276.85	153.359
1280.47	305.465
1284.1	318.363
1287.72	479.543
1291.34	347.672
1294.95	88.533
1298.57	139.422
1302.19	40.07
1305.8	98.592
1309.41	196.637
1313.02	313.908
1316.63	210.797
1320.23	261.916
1323.84	300.162
1327.44	235.145
1331.05	249.508
1334.64	183.318
1338.24	135.6
1341.84	339.91
1345.43	172.137
1349.03	363.768
1352.62	625.096
1356.21	257.436
1359.8	567.592
1363.39	307.49
1366.97	87.078
1370.56	116.156
1374.14	65.148
1377.72	203.006
1381.3	481.367
1384.87	428.471
1388.45	685.58
1392.02	662.166
1395.6	618.258
1399.17	203.439
1402.74	139.797
1406.3	269.775
1409.87	226.01
1413.43	148.656
1417	193.33
1420.56	530.682
1424.12	257.961
1427.67	600.596
1431.23	412.297
1434.79	302.588
1438.34	252.854
1441.89	309.123
1445.44	96.738
1448.99	175.627
1452.54	97.682
1456.08	385.709
1459.62	390.658
1463.17	366.904
1466.71	784.74
1470.24	583.098
1473.78	773.398
1477.32	473.445
1480.85	145.34
1484.38	216.629
1487.91	108.551
1491.44	238.428
1494.97	131.881
1498.5	226.822
1502.02	264.43
1505.54	466.07
1509.07	470.59
1512.59	194.496
