Measurement: Raman, 514 nm, ccw, Raman Data Processed
Mineral: Hedenbergite
Rruff sample: R060040
Ideal chemistry: CaFe^2+^Si_2_O_6_
Locality: Rio Marina, Elba, Italy
Source: University of Arizona Mineral Museum
Description: Radial aggregate of green thin bladed crystals
Measured chemistry: Ca_1.00_(Fe^2+^_0.89_Mg_0.09_Mn_0.02_)_Î£=1_Si_2.00_O_6_
Pin_id: M00921
Orientation: Laser parallel to -b* (0 -1 0). Fiducial mark perpendicular to laser is parallel to c [0 0 1]
Raman shift (cm-1)	intensity
262.49	0
266.136	137.799
269.782	165.84
273.425	65.5283
277.068	238.07
280.709	278.54
284.348	175.69
287.986	200.231
291.622	478.674
295.257	644.388
298.891	889.676
302.523	1465.41
306.154	1868.63
309.783	1961.55
313.41	1548.27
317.037	1472.91
320.661	1591.46
324.285	1975.84
327.906	2123.24
331.527	2505.79
335.145	2266.89
338.763	1859.98
342.379	1339.85
345.993	1124.9
349.606	670.395
353.218	759.224
356.828	943.715
360.436	1044.11
364.043	1631.68
367.649	2271.28
371.253	2679.16
374.856	2854.46
378.457	2673.97
382.057	1789.44
385.655	972.818
389.252	665.42
392.847	284.852
396.441	206.098
400.034	181.061
403.625	185.927
407.214	226.502
410.802	43.3203
414.389	81.3144
417.974	109.959
421.557	54.9756
425.139	59.2461
428.72	145.714
432.299	122.458
435.877	115.398
439.453	130.68
443.028	41.6035
446.601	17.8398
450.173	97.0918
453.743	62.5449
457.312	61.5293
460.88	89.8867
464.446	67.1074
468.01	43.8203
471.573	13.6289
475.135	95.8926
478.695	34.0566
482.253	61.8203
485.81	224.162
489.366	295.316
492.92	209.107
496.473	364.506
500.024	372.522
503.574	190.273
507.122	170.867
510.669	220.246
514.214	141.557
517.758	436.844
521.301	353.115
524.842	245.338
528.381	274.471
531.919	336.514
535.456	224.463
538.991	326.312
542.524	514.102
546.056	496.842
549.587	641.279
553.116	725.469
556.644	554.848
560.17	432.488
563.695	251.545
567.218	241.33
570.74	206.953
574.26	151.453
577.779	188.225
581.296	104.369
584.812	238.197
588.327	164.394
591.84	87.1894
595.351	11.623
598.861	255.373
602.37	110.166
605.877	128.043
609.383	310.352
612.887	212.096
616.39	96.8516
619.891	339.566
623.391	485.338
626.889	407.385
630.386	742.275
633.881	690.561
637.375	1037.25
640.867	1581.28
644.358	2113.88
647.848	3432.91
651.335	5753.9
654.822	8816.31
658.307	11501.1
661.791	10928.4
665.273	7069.71
668.753	3963.98
672.232	2021
675.71	1393.54
679.186	820.773
682.661	714.58
686.134	299.336
689.606	485.672
693.076	269.856
696.545	378.471
700.013	170.15
703.478	278.75
706.943	219.961
710.406	195.94
713.867	50.4746
717.327	131.852
720.786	268.381
724.243	19.6836
727.698	54.4824
731.153	12.4375
734.605	98.5879
738.056	146.728
741.506	136.164
744.954	209.014
748.401	75.4492
751.846	164.096
755.29	180.475
758.733	179.881
762.173	220.166
765.613	119.678
769.051	268.127
772.487	269.793
775.922	89.5391
779.356	45.8887
782.788	6.91602
786.218	220.082
789.648	219.352
793.075	83.7676
796.501	131.053
799.926	112.82
803.349	69.5078
806.771	187.682
810.191	94.1035
813.61	36.3672
817.027	33.4512
820.443	122.853
823.858	126.791
827.271	77.2148
830.682	37.6836
834.092	197.779
837.501	104.023
840.908	275.16
844.313	712.748
847.717	1245.89
851.12	1774.8
854.521	1712.1
857.921	1110.79
861.319	782.117
864.716	512.894
868.111	286.473
871.505	291.447
874.897	302.828
878.288	324.772
881.677	308.391
885.065	207.639
888.452	420.742
891.837	337.81
895.22	474.82
898.602	195.744
901.983	390.062
905.362	275.775
908.74	304.242
912.116	313.836
915.49	183.137
918.864	146.926
922.235	72.6934
925.606	448.834
928.974	196.932
932.342	61.8926
935.708	330.039
939.072	47.7969
942.435	260.943
945.796	137.389
949.156	44.5449
952.515	207.504
955.872	51.7793
959.228	26.8691
962.582	98.2285
965.934	279.734
969.285	145.377
972.635	185.156
975.983	219.227
979.33	568.363
982.675	680.758
986.019	623.201
989.362	965.312
992.702	1225.91
996.042	1944.97
999.38	3037.01
1002.72	5545.09
1006.05	10605.2
1009.38	16895
1012.72	17954.6
1016.05	11084.3
1019.38	5454.59
1022.7	3546.74
1026.03	2611.8
1029.36	2051.17
1032.68	1680.11
1036	1289.54
1039.32	928.822
1042.64	755.467
1045.96	557.354
1049.27	758.238
1052.59	519.5
1055.9	352.654
1059.21	274.488
1062.52	413.596
1065.83	377.219
1069.14	216.147
1072.44	299.5
1075.75	318.025
1079.05	194.289
1082.35	77.9473
1085.65	304.982
1088.95	124.348
1092.25	207.082
1095.54	240.568
1098.84	256.984
1102.13	124.578
1105.42	334.111
1108.71	446.82
1112	173.397
1115.28	213.744
1118.57	206.023
1121.85	206.232
1125.13	290.369
1128.41	139.434
1131.69	96.4336
1134.97	173.367
1138.25	93.7676
1141.52	35.7988
1144.8	45.2578
1148.07	331.633
1151.34	72.9473
1154.61	193.244
1157.87	71.6465
1161.14	129.775
1164.4	81.8047
1167.67	44.5605
1170.93	15.1211
1174.19	222.617
1177.45	258.973
1180.71	43.1133
1183.96	128.498
1187.22	247.019
1190.47	129.262
1193.72	49.377
1196.97	401.793
1200.22	371.883
1203.46	224.871
1206.71	196.879
1209.95	375.824
1213.2	72.6797
1216.44	306.535
1219.68	153.322
1222.92	44.0059
1226.15	72.4551
1229.39	137.846
1232.62	195.018
1235.86	34.1855
1239.09	159.289
1242.32	101.322
1245.54	310.025
1248.77	121.603
1251.99	267.438
1255.22	282.695
1258.44	312.406
1261.66	216.012
1264.88	298.596
1268.1	336.203
1271.31	306.5
1274.53	416.383
1277.74	319.31
1280.95	328.25
1284.16	20.1055
1287.37	186.01
1290.58	157.906
1293.79	320.533
1296.99	525.979
1300.19	169.381
1303.39	198.293
1306.6	323.5
1309.79	526.106
1312.99	487.715
1316.19	497.316
1319.38	565.875
1322.57	455.277
1325.77	508.961
1328.96	455.934
1332.14	464.414
1335.33	345.184
1338.52	429.969
1341.7	344.828
1344.88	329.617
1348.06	96.5352
1351.24	356.188
1354.42	192.336
1357.6	306.34
1360.77	291.402
1363.95	262.074
1367.12	464.164
1370.29	305.988
1373.46	229.926
1376.63	338.848
1379.8	440.738
1382.96	209.656
1386.12	141.606
1389.29	422.59
1392.45	453.609
1395.61	159.699
1398.76	289.934
1401.92	140.219
1405.08	357.555
1408.23	40.8867
1411.38	68.9258
1414.53	59.125
1417.68	175.777
1420.83	243.301
1423.97	217.074
1427.12	80.9531
1430.26	28.0547
1433.4	79.1406
1436.54	278.43
1439.68	349.152
1442.82	244.664
1445.95	245.227
1449.09	354.719
1452.22	247.578
1455.35	267.914
1458.48	343.359
1461.61	303.926
1464.74	258.617
1467.87	340.637
1470.99	140.816
1474.11	167.102
1477.23	279.519
1480.35	325.09
1483.47	167.82
1486.59	302.731
1489.7	28.8086
1492.82	42.6172
1495.93	102.719
1499.04	334.535
1502.15	165.434
1505.26	70.4531
1508.37	262.531
1511.47	273.473
1514.58	290.84
1517.68	264.656
1520.78	217.32
1523.88	400.602
1526.98	199.949
1530.07	23.3516
1533.17	78.4023
1536.26	17.5664
1539.35	212.652
1542.44	198.727
1545.53	219.383
1548.62	335.727
1551.71	139.945
1554.79	447.5
1557.88	195.019
1560.96	57.3086
1564.04	165.195
1567.12	112.812
1570.2	108.055
1573.27	164.25
