Measurement: Raman, 514 nm, ccw, Raman Data Processed
Mineral: Hedenbergite
Rruff sample: R060040
Ideal chemistry: CaFe^2+^Si_2_O_6_
Locality: Rio Marina, Elba, Italy
Source: University of Arizona Mineral Museum
Description: Radial aggregate of green thin bladed crystals
Measured chemistry: Ca_1.00_(Fe^2+^_0.89_Mg_0.09_Mn_0.02_)_Î£=1_Si_2.00_O_6_
Pin_id: M00548
Orientation: Laser parallel to c* (0 0 1). Fiducial mark perpendicular to laser is parallel to a [1 0 0]
Raman shift (cm-1)	intensity
262.49	0
266.136	19.293
269.782	255.443
273.425	661.892
277.068	981.78
280.709	1073.19
284.348	979.774
287.986	734.638
291.622	814.661
295.257	1021.23
298.891	1158.02
302.523	1591.31
306.154	1712.27
309.783	1538.94
313.41	1077.49
317.037	977.627
320.661	736.852
324.285	968.081
327.906	1273.44
331.527	1792.53
335.145	2095.23
338.763	2756.09
342.379	2592.85
345.993	1656.59
349.606	1097.81
353.218	678.703
356.828	663.915
360.436	1071.88
364.043	1483.41
367.649	2195.51
371.253	3461.03
374.856	4198.25
378.457	3570.16
382.057	2235.93
385.655	1237.62
389.252	608.743
392.847	250.322
396.441	85.7314
400.034	153.8
403.625	5.79492
407.214	56.9297
410.802	185.796
414.389	53.1357
417.974	52.626
421.557	106.721
425.139	3.31152
428.72	11.7129
432.299	140.076
435.877	331.457
439.453	375.315
443.028	228.173
446.601	397.383
450.173	49.6435
453.743	213.939
457.312	42.876
460.88	68.2168
464.446	80.1904
468.01	80.5752
471.573	54.5234
475.135	14.044
478.695	3.69043
482.253	13.5615
485.81	129.139
489.366	156.949
492.92	463.503
496.473	497.84
500.024	181.95
503.574	256.85
507.122	159.417
510.669	328.565
514.214	375.024
517.758	537.02
521.301	464.766
524.842	268.474
528.381	393.136
531.919	278.674
535.456	183.051
538.991	259.067
542.524	577.064
546.056	890.523
549.587	1567.12
553.116	1556.33
556.644	1117.49
560.17	579.759
563.695	317.2
567.218	374.403
570.74	178.086
574.26	216.598
577.779	174.087
581.296	145.898
584.812	211.507
588.327	79.1807
591.84	165.358
595.351	242.221
598.861	353.987
602.37	299.022
605.877	442.632
609.383	540.756
612.887	476.708
616.39	459.558
619.891	562.519
623.391	683.947
626.889	771.735
630.386	736.85
633.881	722.221
637.375	1098.44
640.867	1450.98
644.358	1850.06
647.848	2757.94
651.335	4641.46
654.822	7524.69
658.307	10780.7
661.791	11086
665.273	7344.03
668.753	4078.53
672.232	2313.74
675.71	1409.06
679.186	897.615
682.661	589.169
686.134	459.167
689.606	461.904
693.076	416.256
696.545	223.536
700.013	49.835
703.478	272.014
706.943	30.1074
710.406	459.389
713.867	430.881
717.327	242.662
720.786	201.603
724.243	76.4609
727.698	173.525
731.153	139.098
734.605	32.1758
738.056	42.125
741.506	136.912
744.954	133.506
748.401	126.894
751.846	310.113
755.29	2.30664
758.733	266.481
762.173	106.473
765.613	150.33
769.051	292.955
772.487	68.3555
775.922	118.49
779.356	141.326
782.788	139.158
786.218	155.867
789.648	0.433594
793.075	128.815
796.501	57.0684
799.926	124.42
803.349	110.58
806.771	27.0215
810.191	14.7207
813.61	30.8242
817.027	156.779
820.443	35.4238
823.858	338.816
827.271	338.963
830.682	519.785
834.092	793.269
837.501	1018.24
840.908	971.109
844.313	774.561
847.717	643.518
851.12	862.322
854.521	1058.52
857.921	831.924
861.319	619.834
864.716	520.789
868.111	201.334
871.505	314.535
874.897	340.463
878.288	414.324
881.677	302.842
885.065	306.434
888.452	500.357
891.837	325.203
895.22	377.898
898.602	494.606
901.983	451.281
905.362	469.865
908.74	565.385
912.116	434.795
915.49	354.09
918.864	446.475
922.235	249.16
925.606	404.121
928.974	77.1406
932.342	63.8672
935.708	34.2715
939.072	15.8496
942.435	42.7871
945.796	184.898
949.156	204.988
952.515	250.541
955.872	164.623
959.228	29.3535
962.582	220.289
965.934	447.416
969.285	488.504
972.635	206.705
975.983	365.475
979.33	508.639
982.675	629.828
986.019	831.998
989.362	1057.96
992.702	1692.92
996.042	2389.47
999.38	3707.39
1002.72	6386.98
1006.05	12034.7
1009.38	21586.4
1012.72	26586.2
1016.05	16952
1019.38	8219.96
1022.7	5114.61
1026.03	3884.88
1029.36	3321.59
1032.68	2866.82
1036	2150.84
1039.32	1540.88
1042.64	1051.6
1045.96	884.025
1049.27	495.117
1052.59	719.24
1055.9	464.768
1059.21	296.635
1062.52	488.41
1065.83	339.846
1069.14	402.701
1072.44	398.445
1075.75	415.932
1079.05	562.738
1082.35	1853.24
1085.65	5535.03
1088.95	2640.62
1092.25	658.975
1095.54	407.467
1098.84	240.978
1102.13	117.08
1105.42	99.5449
1108.71	123.719
1112	317.721
1115.28	116.978
1118.57	247.801
1121.85	301.361
1125.13	13.502
1128.41	93.3359
1131.69	327.385
1134.97	84.8457
1138.25	92.8574
1141.52	20.2324
1144.8	177.172
1148.07	47.9492
1151.34	306.906
1154.61	73.6484
1157.87	67.6914
1161.14	12.9883
1164.4	262.978
1167.67	42.9629
1170.93	37.7051
1174.19	216.152
1177.45	12.6348
1180.71	80.6309
1183.96	74.1699
1187.22	133.486
1190.47	113.932
1193.72	314.898
1196.97	209.6
1200.22	25.1738
1203.46	279.547
1206.71	32.8086
1209.95	54.7402
1213.2	425.44
1216.44	89.9199
1219.68	158.006
1222.92	76.7481
1226.15	222.508
1229.39	71.7676
1232.62	429.695
1235.86	183.238
1239.09	194.135
1242.32	11.5371
1245.54	89.3066
1248.77	27.9121
1251.99	688.604
1255.22	180.397
1258.44	332.535
1261.66	76.8945
1264.88	96.2363
1268.1	345.041
1271.31	308.207
1274.53	249.529
1277.74	201.06
1280.95	228.066
1284.16	93.207
1287.37	150.051
1290.58	303.324
1293.79	208.119
1296.99	168.742
1300.19	383.791
1303.39	89.0488
1306.6	113.869
1309.79	265.217
1312.99	190.727
1316.19	226.701
1319.38	235.963
1322.57	232.789
1325.77	198.49
1328.96	298.94
1332.14	334.062
1335.33	223.242
1338.52	366.461
1341.7	281.82
1344.88	281.174
1348.06	135.033
1351.24	213.231
1354.42	206.883
1357.6	163.531
1360.77	213.117
1363.95	237.744
1367.12	84.4629
1370.29	341.627
1373.46	74.5859
1376.63	212.627
1379.8	140.486
1382.96	114.644
1386.12	177.684
1389.29	187.566
1392.45	97.5137
1395.61	49.127
1398.76	279.887
1401.92	51.3398
1405.08	77.125
1408.23	188.908
1411.38	16.002
1414.53	217.672
1417.68	125.078
1420.83	262.598
1423.97	227.809
1427.12	494.045
1430.26	237.137
1433.4	520.254
1436.54	799.984
1439.68	513.432
1442.82	491.203
1445.95	327.66
1449.09	606.59
1452.22	561.277
1455.35	447.359
1458.48	398.344
1461.61	134.434
1464.74	1.17578
1467.87	230.008
1470.99	151.562
1474.11	100.121
1477.23	46.8633
1480.35	25.4922
1483.47	159.691
1486.59	167.953
1489.7	152.586
1492.82	143.793
1495.93	135.121
1499.04	383.383
1502.15	200.66
1505.26	208.016
1508.37	350.262
1511.47	189.172
1514.58	306.891
1517.68	245.019
1520.78	223.852
1523.88	264.586
1526.98	213.316
1530.07	325.898
1533.17	503.824
1536.26	393.387
1539.35	220.781
1542.44	252.543
1545.53	163.977
1548.62	305.723
1551.71	307.957
1554.79	374.606
1557.88	221.043
1560.96	243.156
1564.04	218.469
1567.12	247.891
1570.2	195.336
1573.27	77.7539
