Measurement: Raman, 514 nm, ccw, Raman Data Processed
Mineral: Hedenbergite
Rruff sample: R060040
Ideal chemistry: CaFe^2+^Si_2_O_6_
Locality: Rio Marina, Elba, Italy
Source: University of Arizona Mineral Museum
Description: Radial aggregate of green thin bladed crystals
Measured chemistry: Ca_1.00_(Fe^2+^_0.89_Mg_0.09_Mn_0.02_)_Î£=1_Si_2.00_O_6_
Pin_id: M00921
Orientation: Laser parallel to -b* (0 -1 0). Fiducial mark perpendicular to laser is parallel to c [0 0 1]
Raman shift (cm-1)	intensity
262.49	0
266.136	98.3613
269.782	295.835
273.425	51.331
277.068	362.876
280.709	153.349
284.348	285.665
287.986	331.596
291.622	685.2
295.257	886.511
298.891	1442.25
302.523	2022.6
306.154	2201.51
309.783	2012.46
313.41	1681.48
317.037	1089.19
320.661	800.488
324.285	850.621
327.906	810.235
331.527	805.926
335.145	417.371
338.763	596.029
342.379	407.481
345.993	518.637
349.606	450.768
353.218	401.617
356.828	280.909
360.436	391.825
364.043	438.633
367.649	456.423
371.253	424.847
374.856	587.899
378.457	506.874
382.057	299.764
385.655	157.56
389.252	172.612
392.847	55.7998
396.441	50.292
400.034	69.2588
403.625	114.487
407.214	2.72266
410.802	172.107
414.389	68.2852
417.974	205.394
421.557	234.482
425.139	54.1641
428.72	166.228
432.299	174.043
435.877	64.9941
439.453	301.283
443.028	301.074
446.601	167.801
450.173	116.812
453.743	19.9648
457.312	60.8809
460.88	164.934
464.446	233.277
468.01	86.5664
471.573	144.414
475.135	112.012
478.695	217.527
482.253	240.365
485.81	441.365
489.366	418.131
492.92	456.787
496.473	621.348
500.024	517.809
503.574	452.088
507.122	253.191
510.669	173.217
514.214	207.152
517.758	175.014
521.301	265.799
524.842	128.516
528.381	274.15
531.919	201.033
535.456	207.781
538.991	258.322
542.524	187.943
546.056	209.379
549.587	261.947
553.116	419.051
556.644	203.596
560.17	90.7363
563.695	280.74
567.218	310.275
570.74	154.779
574.26	45.5703
577.779	187.719
581.296	38.3516
584.812	86.6699
588.327	182.394
591.84	162.244
595.351	87.5762
598.861	113.084
602.37	73.5664
605.877	50.4277
609.383	124.426
612.887	135.574
616.39	63.8457
619.891	176.432
623.391	371.143
626.889	531.596
630.386	597.762
633.881	518.9
637.375	587.283
640.867	835.648
644.358	1422.03
647.848	2346.62
651.335	3849.42
654.822	5829.33
658.307	7681.24
661.791	7164.12
665.273	4474.54
668.753	2686.81
672.232	1510.15
675.71	906.32
679.186	520.734
682.661	421.377
686.134	413.166
689.606	126.535
693.076	525.947
696.545	320.613
700.013	115.252
703.478	43.5254
706.943	82.0938
710.406	79.0449
713.867	116.574
717.327	170.451
720.786	41.8008
724.243	23.1113
727.698	27.8945
731.153	114.781
734.605	44.123
738.056	16.459
741.506	1.95117
744.954	107.049
748.401	5.01953
751.846	267.012
755.29	124.373
758.733	188.115
762.173	129.881
765.613	188.719
769.051	49.6973
772.487	92.3711
775.922	171.981
779.356	302.168
782.788	87.1973
786.218	97.2227
789.648	95.9004
793.075	138.414
796.501	233.213
799.926	90.6777
803.349	32.293
806.771	60.6133
810.191	276.695
813.61	232.834
817.027	28.5039
820.443	144.537
823.858	146.305
827.271	226.791
830.682	334.268
834.092	43.584
837.501	250.617
840.908	258.459
844.313	229.424
847.717	151.998
851.12	373.914
854.521	376.125
857.921	257.822
861.319	237.613
864.716	242.174
868.111	121.965
871.505	331.406
874.897	246.529
878.288	390.185
881.677	369.322
885.065	122.336
888.452	181.539
891.837	245.861
895.22	319.244
898.602	356.377
901.983	454.139
905.362	190.344
908.74	112
912.116	198.315
915.49	300.07
918.864	113.238
922.235	323.549
925.606	188.199
928.974	50.3457
932.342	262.711
935.708	238.736
939.072	317.518
942.435	67.5176
945.796	221.863
949.156	208.859
952.515	173.365
955.872	300.603
959.228	95.082
962.582	309.078
965.934	212.551
969.285	251.176
972.635	133.856
975.983	249.199
979.33	339.781
982.675	637.387
986.019	537.394
989.362	569.125
992.702	950.783
996.042	1302.41
999.38	2301.87
1002.72	4435.18
1006.05	8134.43
1009.38	12048.8
1012.72	12573
1016.05	7613.49
1019.38	3829.36
1022.7	2100.43
1026.03	1401.36
1029.36	1355.45
1032.68	1031.53
1036	878.078
1039.32	725.574
1042.64	513.205
1045.96	492.644
1049.27	499.068
1052.59	89.7793
1055.9	162.81
1059.21	482.012
1062.52	14.1758
1065.83	187.881
1069.14	200.834
1072.44	163.58
1075.75	279.193
1079.05	267.578
1082.35	356.559
1085.65	164.654
1088.95	148.422
1092.25	394.066
1095.54	186.291
1098.84	117.553
1102.13	47.5723
1105.42	237.199
1108.71	64.209
1112	273.34
1115.28	298.891
1118.57	128.357
1121.85	87.7363
1125.13	256.027
1128.41	146.273
1131.69	236.402
1134.97	3.45312
1138.25	82.3477
1141.52	241.082
1144.8	57.7402
1148.07	138.266
1151.34	65.6094
1154.61	81.8398
1157.87	274.984
1161.14	47.9473
1164.4	157.004
1167.67	81.0996
1170.93	159.555
1174.19	194.725
1177.45	124.301
1180.71	16.8184
1183.96	118.012
1187.22	91.3223
1190.47	77.5195
1193.72	98.1602
1196.97	165.615
1200.22	31.5469
1203.46	422.566
1206.71	112.439
1209.95	101.945
1213.2	72.5312
1216.44	477.99
1219.68	70.6152
1222.92	52.5605
1226.15	144.59
1229.39	102.658
1232.62	153.412
1235.86	113.586
1239.09	260.379
1242.32	209.404
1245.54	189.754
1248.77	368.779
1251.99	60.7988
1255.22	0.150391
1258.44	300.231
1261.66	203.574
1264.88	266.598
1268.1	255.106
1271.31	525.465
1274.53	617.648
1277.74	350.602
1280.95	511.875
1284.16	283.289
1287.37	281.742
1290.58	446.84
1293.79	155.582
1296.99	148.234
1300.19	268.914
1303.39	91.1602
1306.6	305.992
1309.79	192.441
1312.99	458.902
1316.19	615.965
1319.38	404.894
1322.57	348.789
1325.77	541.801
1328.96	397.547
1332.14	454.34
1335.33	420.902
1338.52	409.328
1341.7	436.606
1344.88	482.125
1348.06	591.875
1351.24	498.609
1354.42	215.441
1357.6	317.223
1360.77	275.254
1363.95	227.344
1367.12	79.6016
1370.29	269.102
1373.46	63.5781
1376.63	377.148
1379.8	218.695
1382.96	139.309
1386.12	222.07
1389.29	233.953
1392.45	167.961
1395.61	348.148
1398.76	227.484
1401.92	130.965
1405.08	291.641
1408.23	193.453
1411.38	272.363
1414.53	213.387
1417.68	169.461
1420.83	37.8086
1423.97	35.6875
1427.12	131.047
1430.26	52.5547
1433.4	72.6211
1436.54	343.078
1439.68	303.887
1442.82	434.297
1445.95	296.066
1449.09	549.191
1452.22	429.781
1455.35	456.188
1458.48	341.066
1461.61	605.293
1464.74	171.93
1467.87	194.883
1470.99	264.039
1474.11	308.367
1477.23	103.914
1480.35	68.668
1483.47	279.688
1486.59	490.981
1489.7	317.551
1492.82	311.402
1495.93	313.547
1499.04	106.254
1502.15	353.039
1505.26	361.418
1508.37	359.035
1511.47	360.629
1514.58	403.348
1517.68	430.465
1520.78	184.004
1523.88	104.801
1526.98	448.121
1530.07	480.863
1533.17	296.512
1536.26	315.09
1539.35	73.2539
1542.44	224.988
1545.53	225.445
1548.62	522.727
1551.71	429.941
1554.79	478.648
1557.88	189.426
1560.96	396.758
1564.04	464.16
1567.12	445.992
1570.2	305.578
1573.27	10.6289
