Measurement: Raman, 514 nm, ccw, Raman Data Processed
Mineral: Hedenbergite
Rruff sample: R050030
Ideal chemistry: CaFe^2+^Si_2_O_6_
Locality: Heroult, Ontario, Canada
Source: University of Arizona Mineral Museum
Description: Green fragments
Measured chemistry: (Ca_.993_Na_.007_)(Fe_.860_Mn_.111_Mg_.029_)(Si_.993_Al_.007_)_2_O_6_
Pin_id: M00481
Orientation: Laser parallel to (-1 0 -1). Fiducial mark perpendicular to laser is parallel to b [0 1 0]
Raman shift (cm-1)	intensity
49.184	0
53.401	190.002
57.617	313.689
61.83	472.729
66.041	229.83
70.25	10.922
74.456	65.6
78.661	191.226
82.863	245.061
87.064	483.63
91.262	734.448
95.458	769.874
99.652	620.87
103.843	225.61
108.033	213.702
112.22	484.797
116.406	290.376
120.589	583.751
124.77	767.267
128.949	505.574
133.126	263.471
137.301	190.238
141.473	144.699
145.644	184.645
149.812	205.837
153.979	244.971
158.143	459.961
162.305	1046.91
166.465	784.712
170.623	599.39
174.778	1046.84
178.932	1081.76
183.083	846.072
187.233	756.818
191.38	469.16
195.525	228.144
199.669	79.783
203.81	32.188
207.949	16.271
212.085	59.271
216.22	16.742
220.353	46.055
224.483	263.119
228.612	904.269
232.738	966.752
236.863	374.614
240.985	60.299
245.105	10.803
249.223	27.901
253.339	11.365
257.453	11.957
261.565	148.901
265.675	316.093
269.783	520.625
273.888	667.779
277.992	640.871
282.093	765.132
286.193	992.255
290.29	1486.68
294.386	2485.22
298.479	4279.06
302.57	6148.11
306.659	5932.85
310.746	4230
314.831	2897.76
318.914	2310.65
322.995	2338.22
327.074	2646.79
331.151	2466.17
335.226	1938.37
339.299	1432.86
343.37	1018.23
347.438	786.066
351.505	645.286
355.57	651.023
359.632	675.116
363.693	979.263
367.751	1466.62
371.808	2059.39
375.862	1833.63
379.914	1121.33
383.965	563.3
388.013	396.6
392.06	269.035
396.104	223.206
400.146	150.061
404.186	101.93
408.225	126.291
412.261	30.532
416.295	7.808
420.327	7.549
424.357	4.904
428.386	9.164
432.412	17.621
436.436	71.382
440.458	21.218
444.478	14.872
448.496	31.99
452.513	39.658
456.527	149.815
460.539	426.861
464.549	622.844
468.557	364.788
472.563	204.706
476.567	112.592
480.57	96.444
484.57	247.293
488.568	617.203
492.564	877.161
496.558	504.108
500.551	134.032
504.541	97.955
508.529	6.875
512.515	24.265
516.5	22.507
520.482	21.222
524.462	16.92
528.441	38.634
532.417	8.402
536.391	46.287
540.364	30.327
544.334	125.456
548.303	223.16
552.269	254.736
556.234	172.819
560.197	52.39
564.157	60.258
568.116	29.29
572.073	18.253
576.027	35.455
579.98	17.748
583.931	58.568
587.88	26.3
591.827	87.715
595.772	120.731
599.715	140.785
603.656	174.515
607.595	262.572
611.532	293.99
615.468	410.924
619.401	627.315
623.332	678.635
627.262	927.104
631.189	1230.22
635.115	1623.12
639.039	2239.4
642.96	3371.62
646.88	5429.81
650.798	10136.8
654.714	19464.6
658.628	25103.3
662.54	17243
666.45	9220.65
670.358	4844.58
674.264	2909.51
678.169	1804.21
682.071	1200.71
685.972	812.326
689.87	638.311
693.767	423.638
697.662	378.384
701.555	285.461
705.446	218.51
709.335	139.53
713.222	114.522
717.107	138.49
720.99	157.444
724.872	120.385
728.751	130.273
732.629	64.825
736.504	63.697
740.378	99.599
744.25	148.214
748.12	149.141
751.988	195.078
755.854	171.003
759.719	131.922
763.581	128.833
767.442	129.73
771.3	101.61
775.157	14.466
779.012	28.285
782.865	0.043
786.716	4.744
790.565	12.281
794.413	33.979
798.258	75.55
802.102	9.462
805.943	32.438
809.783	37.204
813.621	53.848
817.457	2.675
821.292	17.672
825.124	40.057
828.954	18.08
832.783	23.2
836.61	3.3
840.435	119.371
844.258	354.431
848.079	764.486
851.898	1006.54
855.715	647.577
859.531	317.606
863.345	256.631
867.157	157.665
870.967	221.714
874.775	147.791
878.581	206.912
882.386	192.055
886.188	191.241
889.989	215.46
893.788	212.71
897.585	297.976
901.38	375.275
905.174	324.59
908.965	332.928
912.755	373.28
916.543	274.657
920.329	281.05
924.113	296.489
927.895	276.857
931.676	251.452
935.454	330.305
939.231	335.294
943.006	423.482
946.78	460.56
950.551	361.614
954.32	470.405
958.088	543.459
961.854	619.557
965.618	651.746
969.38	732.298
973.141	820.77
976.9	965.534
980.656	1224.82
984.411	1587.53
988.165	1873.55
991.916	2575.37
995.665	3728.23
999.413	5965.13
1003.16	11388.3
1006.9	25511.3
1010.65	44824.4
1014.39	28118.2
1018.12	12173.6
1021.86	6477.19
1025.6	4435.57
1029.33	3351.45
1033.06	2573.77
1036.79	1869.04
1040.52	1514.99
1044.25	1300.32
1047.97	1023.62
1051.69	876.706
1055.41	793.544
1059.13	728.575
1062.85	651.653
1066.57	515.207
1070.28	480.896
1073.99	461.793
1077.7	485.273
1081.41	475.625
1085.12	399.43
1088.82	467.271
1092.52	430.932
1096.22	275.827
1099.92	314.577
1103.62	287.32
1107.32	221.262
1111.01	274.212
1114.7	223.123
1118.39	219.001
1122.08	369.089
1125.77	170.14
1129.45	150.185
1133.14	150.762
1136.82	147.631
1140.5	112.449
1144.18	57.146
1147.85	3.47
1151.53	50.165
1155.2	67.618
1158.87	9.353
1162.54	15.187
1166.21	10.018
1169.88	42.042
1173.54	38.358
1177.2	50.015
1180.86	24.426
1184.52	19.188
1188.18	41.167
1191.83	11.447
1195.49	15.261
1199.14	27.458
1202.79	16.878
1206.44	57.642
1210.08	8.919
1213.73	42.35
1217.37	75.418
1221.01	133.526
1224.65	14.699
1228.29	22.745
1231.93	92.85
1235.56	65.586
1239.19	7.155
1242.83	31.643
1246.46	117.067
1250.08	76.419
1253.71	137.698
1257.33	111.245
1260.96	72.5
1264.58	86.547
1268.19	91.756
1271.81	83.48
1275.43	57.047
1279.04	72.409
1282.65	18.375
1286.27	53.964
1289.87	47.133
1293.48	14.696
1297.09	61.266
1300.69	56.254
1304.29	13.403
1307.89	16.896
1311.49	57.13
1315.09	131.552
1318.68	109.903
1322.28	106.982
1325.87	64.366
1329.46	114.601
1333.05	89.272
1336.63	48.582
1340.22	118.009
1343.8	49.972
1347.38	53.457
1350.96	105.519
1354.54	141.936
1358.12	117.848
1361.69	124.325
1365.26	81.089
1368.83	32.536
1372.4	65.263
1375.97	99.693
1379.54	57.127
1383.1	99.219
1386.66	130.168
1390.23	193.957
1393.79	243.574
1397.34	48.069
1400.9	62.366
1404.45	88.045
1408.01	10.776
1411.56	49.727
1415.11	63.255
1418.66	66.595
1422.2	8.301
1425.75	18.502
1429.29	86.445
1432.83	58.425
1436.37	47.646
1439.91	101.854
1443.44	123.608
1446.98	43.051
1450.51	38.163
1454.04	90.36
1457.57	72.63
1461.1	112.173
1464.63	144.189
1468.15	188.849
1471.67	72.128
1475.19	88.644
1478.71	177.361
1482.23	107.251
1485.75	107.283
1489.26	90.999
1492.78	20.169
1496.29	15.424
1499.8	59.597
1503.31	65.809
1506.81	66.679
1510.32	173.724
1513.82	161.694
