Measurement: Raman, 514 nm, ccw, Raman Data Processed
Mineral: Hedenbergite
Rruff sample: R060040
Ideal chemistry: CaFe^2+^Si_2_O_6_
Locality: Rio Marina, Elba, Italy
Source: University of Arizona Mineral Museum
Description: Radial aggregate of green thin bladed crystals
Measured chemistry: Ca_1.00_(Fe^2+^_0.89_Mg_0.09_Mn_0.02_)_Î£=1_Si_2.00_O_6_
Pin_id: M01289
Orientation: Laser parallel to a* (1 0 0). Fiducial mark perpendicular to laser is parallel to b [0 1 0]
Raman shift (cm-1)	intensity
262.49	0
266.136	1.71728
269.782	109.593
273.425	58.3081
277.068	77.7173
280.709	229.264
284.348	408.761
287.986	583.411
291.622	750.549
295.257	987.68
298.891	1470.77
302.523	2190.11
306.154	2860.61
309.783	2918.48
313.41	1806.19
317.037	1274.12
320.661	891.024
324.285	930.63
327.906	872.104
331.527	1184.57
335.145	1373.19
338.763	1899.65
342.379	1999.46
345.993	1729.24
349.606	1437.27
353.218	1187.19
356.828	1443.76
360.436	1962.29
364.043	3117.93
367.649	4669.95
371.253	7346.49
374.856	9982.97
378.457	9231.96
382.057	5827.62
385.655	3296.05
389.252	1737.23
392.847	1024.16
396.441	606.845
400.034	412.289
403.625	349.506
407.214	265.778
410.802	92.0127
414.389	11.2256
417.974	10.9521
421.557	73.0078
425.139	30.6738
428.72	44.2881
432.299	58.8926
435.877	49.581
439.453	116.945
443.028	72.667
446.601	94.9824
450.173	35.4541
453.743	59.3867
457.312	50.5332
460.88	3.36328
464.446	37.9522
468.01	102.353
471.573	49.2978
475.135	57.2363
478.695	151.065
482.253	229.327
485.81	237.113
489.366	290.188
492.92	319.66
496.473	423.76
500.024	542.617
503.574	423.19
507.122	522.436
510.669	578.359
514.214	838.017
517.758	1176.5
521.301	1365.85
524.842	1238.07
528.381	796.199
531.919	571.212
535.456	291.181
538.991	378.135
542.524	373.979
546.056	456.696
549.587	701.24
553.116	616.318
556.644	573.875
560.17	392.57
563.695	417.151
567.218	202.492
570.74	215.5
574.26	94.9228
577.779	36.9453
581.296	30.9961
584.812	62.0928
588.327	107.239
591.84	140.756
595.351	62.7695
598.861	47.4727
602.37	118.832
605.877	91.2812
609.383	116.18
612.887	129
616.39	52.8613
619.891	26.0127
623.391	263.526
626.889	139.203
630.386	255.656
633.881	436.196
637.375	523.423
640.867	620.529
644.358	1013.76
647.848	1559.99
651.335	2722.91
654.822	4558.56
658.307	7315.23
661.791	8564.06
665.273	5954.52
668.753	3302.25
672.232	1886.05
675.71	1210.5
679.186	756.943
682.661	705.197
686.134	599.632
689.606	394.124
693.076	356.843
696.545	308.123
700.013	277.757
703.478	286.843
706.943	265.053
710.406	262.056
713.867	331.661
717.327	114.576
720.786	156.389
724.243	168.935
727.698	131.582
731.153	116.735
734.605	207.557
738.056	243.02
741.506	200.882
744.954	170.199
748.401	223.541
751.846	118.594
755.29	257.733
758.733	146.42
762.173	223.069
765.613	136.164
769.051	91.2197
772.487	166.207
775.922	86.1328
779.356	75.9981
782.788	102.799
786.218	86.5361
789.648	79.1816
793.075	21.9795
796.501	53.457
799.926	22.8428
803.349	34.8848
806.771	10.0234
810.191	144.955
813.61	9.23535
817.027	99.1494
820.443	103.416
823.858	88.6211
827.271	13.2119
830.682	36.8799
834.092	119.93
837.501	104.074
840.908	67.3398
844.313	247.249
847.717	212.806
851.12	271.011
854.521	331.412
857.921	340.59
861.319	324.638
864.716	189.223
868.111	219.784
871.505	197.898
874.897	138.802
878.288	271.704
881.677	200.137
885.065	159.51
888.452	183.847
891.837	268.071
895.22	232.452
898.602	330.886
901.983	230.335
905.362	239.748
908.74	287.043
912.116	200.47
915.49	31.8789
918.864	359.12
922.235	215.186
925.606	92.4043
928.974	125.564
932.342	114.957
935.708	31.8125
939.072	49.6348
942.435	53.7754
945.796	11.3418
949.156	123.431
952.515	85.2109
955.872	125.015
959.228	294.529
962.582	122.752
965.934	190.792
969.285	394.312
972.635	320.619
975.983	446.478
979.33	411.001
982.675	460.771
986.019	639.58
989.362	850.431
992.702	1396.32
996.042	1937.26
999.38	2958.41
1002.72	5379.46
1006.05	10705.6
1009.38	21050.3
1012.72	28939.5
1016.05	18745
1019.38	9261.06
1022.7	5389.72
1026.03	4080.95
1029.36	3325.72
1032.68	2861.01
1036	2149.03
1039.32	1513.54
1042.64	1152.98
1045.96	972.451
1049.27	624.249
1052.59	649.207
1055.9	515.686
1059.21	574.285
1062.52	385.199
1065.83	316.732
1069.14	285.281
1072.44	290.888
1075.75	311.709
1079.05	347.256
1082.35	392.168
1085.65	237.141
1088.95	321.147
1092.25	344.147
1095.54	176.152
1098.84	273.03
1102.13	242.2
1105.42	421.257
1108.71	237.626
1112	284.801
1115.28	212.965
1118.57	129.116
1121.85	266.255
1125.13	178.379
1128.41	1.48926
1131.69	70.5723
1134.97	164.676
1138.25	105.722
1141.52	273.731
1144.8	162.833
1148.07	17.792
1151.34	119.438
1154.61	94.6904
1157.87	11.7441
1161.14	56.8242
1164.4	163.019
1167.67	95.5127
1170.93	102.862
1174.19	99.3984
1177.45	22.1982
1180.71	139.113
1183.96	118.387
1187.22	174.632
1190.47	148.85
1193.72	164.01
1196.97	287.127
1200.22	176.231
1203.46	295.331
1206.71	66.4356
1209.95	232.808
1213.2	239.872
1216.44	223.901
1219.68	111.897
1222.92	241.86
1226.15	37.79
1229.39	96.667
1232.62	232.48
1235.86	89.2549
1239.09	77.9922
1242.32	235.694
1245.54	199.363
1248.77	179.001
1251.99	151.608
1255.22	58.1846
1258.44	205.555
1261.66	51.9258
1264.88	194.459
1268.1	156.817
1271.31	93.5752
1274.53	118.842
1277.74	216.975
1280.95	123.018
1284.16	140.356
1287.37	145.804
1290.58	11.2949
1293.79	96.1807
1296.99	66.6875
1300.19	112.673
1303.39	157.718
1306.6	41.4287
1309.79	270.495
1312.99	76.9268
1316.19	130.166
1319.38	185.349
1322.57	300.003
1325.77	185.306
1328.96	151.424
1332.14	206.742
1335.33	127.048
1338.52	357.362
1341.7	242.678
1344.88	96.0068
1348.06	266.372
1351.24	220.767
1354.42	107.135
1357.6	203.861
1360.77	195.201
1363.95	224.739
1367.12	37.0996
1370.29	201.691
1373.46	206.336
1376.63	212.035
1379.8	136.775
1382.96	226.568
1386.12	249.404
1389.29	296.266
1392.45	284.178
1395.61	55.1309
1398.76	177.172
1401.92	168.154
1405.08	206.459
1408.23	202.934
1411.38	36.8027
1414.53	102.793
1417.68	90.6523
1420.83	168.984
1423.97	83.457
1427.12	101.182
1430.26	94.8516
1433.4	140.086
1436.54	240.203
1439.68	242.654
1442.82	186.473
1445.95	36.4766
1449.09	112.951
1452.22	254.269
1455.35	285.565
1458.48	172.547
1461.61	64.9707
1464.74	117.504
1467.87	146.172
1470.99	170.006
1474.11	165.984
1477.23	245.102
1480.35	155.363
1483.47	215.803
1486.59	53.5312
1489.7	148.494
1492.82	259.75
1495.93	239.074
1499.04	325.566
1502.15	232.301
1505.26	73.6562
1508.37	324.262
1511.47	226.049
1514.58	493.055
1517.68	308.465
1520.78	354.918
1523.88	190.668
1526.98	318.731
1530.07	269.934
1533.17	210.658
1536.26	370.889
1539.35	424.602
1542.44	172.938
1545.53	204
1548.62	287.518
1551.71	280.123
1554.79	120.103
1557.88	398.879
1560.96	420.795
1564.04	440.721
1567.12	214.25
1570.2	183.522
1573.27	5.61328
