Measurement: Raman, 514 nm, ccw, Raman Data Processed
Mineral: Hedenbergite
Rruff sample: R050030
Ideal chemistry: CaFe^2+^Si_2_O_6_
Locality: Heroult, Ontario, Canada
Source: University of Arizona Mineral Museum
Description: Green fragments
Measured chemistry: (Ca_.993_Na_.007_)(Fe_.860_Mn_.111_Mg_.029_)(Si_.993_Al_.007_)_2_O_6_
Pin_id: M00478
Orientation: Laser parallel to c* (0 0 1). Fiducial mark perpendicular to laser is parallel to a [1 0 0]
Raman shift (cm-1)	intensity
110.777	0
114.949	38.656
119.119	298.419
123.286	569.398
127.452	419.468
131.615	101.522
135.777	83.093
139.937	184.042
144.094	234.668
148.25	393.87
152.403	408.299
156.555	376.715
160.705	290.786
164.853	198.848
168.998	333.333
173.142	478.541
177.284	836.328
181.424	976.777
185.562	576.518
189.698	457.903
193.831	320.014
197.963	156.397
202.093	163.111
206.221	139.071
210.347	16.035
214.472	24.381
218.594	53.44
222.714	214.21
226.832	110.893
230.948	0.287
235.063	23.791
239.175	110.393
243.286	50.444
247.394	5.06
251.501	101.337
255.605	107.687
259.708	228.989
263.808	384.25
267.907	647.485
272.004	813.783
276.099	972.547
280.192	1062.15
284.283	1286.16
288.372	1814.36
292.459	2464.83
296.544	3369.51
300.627	3730.35
304.709	3611.75
308.788	2656.73
312.865	1653.37
316.941	1226.31
321.015	1406.97
325.086	1825.11
329.156	2845.24
333.224	4062.33
337.29	5587.43
341.354	4661.53
345.416	2733.66
349.476	1650.78
353.534	1514.91
357.591	1687.04
361.645	2540.15
365.698	4421.26
369.748	7308.34
373.797	9337.16
377.844	7139.44
381.889	3623.84
385.932	1842.7
389.973	1062.79
394.012	595.517
398.049	391.19
402.084	269.416
406.118	263.983
410.15	148.456
414.179	109.92
418.207	86.891
422.233	105.524
426.257	45.296
430.279	232.495
434.299	212.851
438.318	276.708
442.334	189.918
446.349	60.083
450.361	3.861
454.372	58.089
458.381	43.622
462.388	55.612
466.394	19.82
470.397	58.289
474.398	59.043
478.398	40.995
482.396	131.005
486.391	217.825
490.385	407.635
494.377	456.355
498.368	195.03
502.356	240.7
506.342	137.329
510.327	359.868
514.31	525.297
518.291	819.611
522.27	918.814
526.247	667.904
530.222	551.872
534.196	335.72
538.167	382.451
542.137	676.085
546.105	1363.61
550.071	2317.36
554.035	2290.87
557.998	1215.42
561.958	500.933
565.917	309.976
569.874	146.74
573.829	90.931
577.782	92.428
581.733	157.448
585.683	202.07
589.63	192.037
593.576	147.332
597.52	186.59
601.462	230.312
605.402	207.453
609.341	226.46
613.277	255.019
617.212	356.659
621.145	411.34
625.076	518.021
629.006	527.989
632.933	759.18
636.859	1110.92
640.783	1493.91
644.705	2556.58
648.625	4679.6
652.543	8953.94
656.46	14421.6
660.375	13285.4
664.288	7158.51
668.199	3619.34
672.108	2134.51
676.016	1363.87
679.921	786.266
683.825	504.115
687.727	496.719
691.628	223.897
695.526	348.457
699.423	181.281
703.318	148.859
707.211	145.833
711.102	35.68
714.992	123.246
718.879	24.982
722.765	146.377
726.649	44.628
730.532	72.471
734.412	76.995
738.291	33.516
742.168	76.637
746.043	81.114
749.916	135.196
753.788	203.718
757.658	152.7
761.526	134.594
765.392	45.44
769.257	149.267
773.119	101.001
776.98	133.192
780.839	22.363
784.697	1.882
788.552	55.275
792.406	20.446
796.258	31.33
800.108	106.607
803.957	43.454
807.804	101.79
811.649	125.276
815.492	57.039
819.333	19.037
823.173	73.045
827.011	69.993
830.847	15.889
834.681	44.728
838.514	208.591
842.345	304.539
846.174	628.506
850.001	1126.49
853.827	921.474
857.651	568.523
861.473	182.248
865.293	127.671
869.112	264.546
872.928	247.863
876.744	332.435
880.557	338.313
884.369	401.355
888.178	419.391
891.987	558.84
895.793	703.815
899.598	754.211
903.401	961.252
907.202	908.034
911.001	974.197
914.799	847.438
918.595	535.24
922.389	544.36
926.182	397.454
929.972	417.444
933.761	337.48
937.549	395.764
941.334	317.975
945.118	302.773
948.9	413.613
952.681	406.795
956.459	377.003
960.236	583.676
964.012	622.845
967.785	682.574
971.557	643.729
975.327	714.037
979.095	960.655
982.862	1017.66
986.627	1192.31
990.39	1596.97
994.152	2355.57
997.912	3514.99
1001.67	5929.33
1005.43	12573.1
1009.18	31147
1012.93	48722.1
1016.68	26665.6
1020.43	12281.6
1024.18	8176.83
1027.93	7245.71
1031.67	6214.44
1035.42	4066.23
1039.16	2535.82
1042.9	2095.65
1046.63	1516.73
1050.37	1113.93
1054.11	1172.21
1057.84	767.813
1061.57	745.664
1065.3	698.099
1069.03	421.09
1072.75	513.813
1076.47	541.904
1080.2	345.523
1083.92	445.129
1087.64	320.314
1091.36	269.488
1095.07	292.061
1098.79	194.688
1102.5	280.999
1106.21	189.347
1109.92	337.865
1113.62	193.023
1117.33	162.983
1121.04	226.343
1124.74	257.492
1128.44	96.581
1132.14	83.849
1135.83	131.147
1139.53	162.842
1143.22	6.353
1146.92	52.308
1150.61	55.056
1154.3	36.615
1157.98	210.55
1161.67	28.863
1165.35	83.646
1169.04	83.096
1172.72	36.698
1176.4	16.31
1180.07	25.669
1183.75	159.97
1187.42	73.04
1191.1	70.813
1194.77	156.885
1198.44	103.393
1202.1	91.053
1205.77	219.911
1209.43	164.661
1213.1	170.041
1216.76	31.473
1220.42	107.356
1224.07	175.029
1227.73	255.273
1231.38	168.493
1235.04	22.858
1238.69	131.336
1242.34	134.995
1245.99	239.764
1249.63	241.784
1253.28	213.633
1256.92	183.069
1260.56	254.088
1264.2	134.916
1267.84	178.218
1271.48	231.119
1275.11	153.199
1278.74	198.546
1282.38	128.232
1286.01	23.553
1289.63	6.753
1293.26	103.854
1296.89	161.399
1300.51	163.735
1304.13	24.146
1307.75	41.956
1311.37	87.155
1314.99	142.585
1318.6	30.974
1322.22	112.839
1325.83	136.573
1329.44	80.387
1333.05	157.946
1336.66	162.42
1340.26	108.722
1343.87	148.05
1347.47	246.177
1351.07	197.27
1354.67	165.163
1358.27	72.596
1361.86	148.13
1365.46	101.179
1369.05	171.786
1372.64	86.1
1376.23	259.847
1379.82	318.545
1383.41	186.07
1386.99	229.697
1390.57	180
1394.16	130.871
1397.74	149.23
1401.32	300.299
1404.89	354.986
1408.47	287.959
1412.04	234.629
1415.61	50.84
1419.18	348.119
1422.75	54.324
1426.32	179.672
1429.89	256.273
1433.45	140.695
1437.01	99.109
1440.58	124.545
1444.13	255.631
1447.69	174.865
1451.25	347
1454.81	276.396
1458.36	224.586
1461.91	386.916
1465.46	302.328
1469.01	481.182
1472.56	272.322
1476.1	425.326
1479.64	145.859
1483.19	288.91
1486.73	226.363
1490.27	121.201
1493.81	91.768
1497.34	229.709
1500.88	222.275
1504.41	137.291
1507.94	187.182
1511.47	158.969
1515	211.723
1518.53	167.488
1522.05	49.016
