Measurement: Raman, 514 nm, ccw, Raman Data Processed
Mineral: Hedenbergite
Rruff sample: R050030
Ideal chemistry: CaFe^2+^Si_2_O_6_
Locality: Heroult, Ontario, Canada
Source: University of Arizona Mineral Museum
Description: Green fragments
Measured chemistry: (Ca_.993_Na_.007_)(Fe_.860_Mn_.111_Mg_.029_)(Si_.993_Al_.007_)_2_O_6_
Pin_id: M00284
Orientation: Laser parallel to -b* (0 -1 0). Fiducial mark perpendicular to laser is parallel to -c [0 0 -1]
Raman shift (cm-1)	intensity
91.262	0
95.458	92.712
99.652	40.035
103.843	261.348
108.033	397.594
112.22	1126.92
116.406	1411.5
120.589	2404.93
124.77	2637.66
128.949	1636.63
133.126	1021.05
137.301	836.26
141.473	796.747
145.644	772.226
149.812	704.45
153.979	811.221
158.143	745.332
162.305	938.632
166.465	883.99
170.623	917.281
174.778	1191.41
178.932	1082.75
183.083	632.491
187.233	583.857
191.38	364.931
195.525	373.8
199.669	268.208
203.81	208.953
207.949	168.347
212.085	157.162
216.22	131.201
220.353	154.483
224.483	231.087
228.612	343.032
232.738	464.241
236.863	260.649
240.985	80.249
245.105	60.966
249.223	44.779
253.339	93.859
257.453	146.202
261.565	123.041
265.675	292.416
269.783	440.257
273.888	535.935
277.992	575.891
282.093	592.284
286.193	466.308
290.29	496.08
294.386	766.863
298.479	1357.42
302.57	1880.68
306.659	1869.15
310.746	1248.78
314.831	855.513
318.914	899.056
322.995	1178.75
327.074	1445.89
331.151	1454.87
335.226	1081.67
339.299	760.187
343.37	462.176
347.438	254.329
351.505	290.952
355.57	339.626
359.632	338.159
363.693	559.523
367.751	1019.3
371.808	1512.34
375.862	1460.31
379.914	883.083
383.965	432.466
388.013	321.189
392.06	159.884
396.104	67.54
400.146	26.187
404.186	21.918
408.225	82.343
412.261	8.992
416.295	3.769
420.327	15.168
424.357	10.77
428.386	70.79
432.412	73.576
436.436	60.215
440.458	54.906
444.478	29.283
448.496	11.315
452.513	5.727
456.527	67.027
460.539	12.835
464.549	30.767
468.557	32.562
472.563	22.359
476.567	17.962
480.57	39.498
484.57	11.2
488.568	101.974
492.564	248.182
496.558	191.387
500.551	68.482
504.541	33.496
508.529	66.291
512.515	14.999
516.5	51.516
520.482	4.167
524.462	28.898
528.441	76.787
532.417	29.489
536.391	118.982
540.364	20.298
544.334	214.819
548.303	281.293
552.269	281.385
556.234	184.546
560.197	97.887
564.157	149.12
568.116	154.621
572.073	76.79
576.027	189.514
579.98	127.631
583.931	128.476
587.88	180.945
591.827	105.157
595.772	185.607
599.715	148.715
603.656	208.247
607.595	218.501
611.532	151.31
615.468	218.404
619.401	341.335
623.332	342.865
627.262	422.149
631.189	510.011
635.115	804.507
639.039	876.868
642.96	1385.8
646.88	2216.41
650.798	4123.18
654.714	8100.2
658.628	9153.72
662.54	5818.75
666.45	2904.25
670.358	1575.08
674.264	1144.07
678.169	657.649
682.071	519.318
685.972	266.421
689.87	367.804
693.767	205.616
697.662	220.159
701.555	128.568
705.446	101.019
709.335	158.234
713.222	248.229
717.107	85.927
720.99	68.727
724.872	107.864
728.751	152.211
732.629	15.993
736.504	86.417
740.378	141.65
744.25	127.388
748.12	164.641
751.988	213.5
755.854	163.073
759.719	114.722
763.581	79.222
767.442	6.411
771.3	6.232
775.157	2.219
779.012	11.551
782.865	47.629
786.716	20.076
790.565	114.931
794.413	39.562
798.258	33.877
802.102	92.079
805.943	48.585
809.783	68.371
813.621	17.52
817.457	110.241
821.292	112.841
825.124	35.101
828.954	87.202
832.783	19.187
836.61	81.053
840.435	322.787
844.258	424.412
848.079	876.01
851.898	877.64
855.715	558.575
859.531	469.368
863.345	140.075
867.157	111.373
870.967	242.202
874.775	52.208
878.581	62.953
882.386	132.622
886.188	161.481
889.989	111.125
893.788	91.271
897.585	41.43
901.38	231.231
905.174	211.44
908.965	191.32
912.755	280.989
916.543	230.354
920.329	198.326
924.113	165.009
927.895	172.786
931.676	260.994
935.454	119.963
939.231	166.12
943.006	172.312
946.78	264.567
950.551	199.903
954.32	327.173
958.088	215.336
961.854	323.859
965.618	161.714
969.38	48.31
973.141	311.532
976.9	399.216
980.656	488.822
984.411	688.707
988.165	708.397
991.916	857.969
995.665	1299.17
999.413	2128.12
1003.16	4491.48
1006.9	9972.16
1010.65	18342.9
1014.39	11484
1018.12	4907.36
1021.86	2579.75
1025.6	2053.33
1029.33	1477.67
1033.06	1148.5
1036.79	700.618
1040.52	871.027
1044.25	660.953
1047.97	620.164
1051.69	559.91
1055.41	431.048
1059.13	470.658
1062.85	300.481
1066.57	249.848
1070.28	428.852
1073.99	338.156
1077.7	396.476
1081.41	635.366
1085.12	2694.21
1088.82	833.102
1092.52	392.152
1096.22	130.895
1099.92	239.47
1103.62	287.841
1107.32	206.26
1111.01	153.891
1114.7	142.328
1118.39	231.397
1122.08	229.099
1125.77	116.953
1129.45	280.315
1133.14	188.907
1136.82	157.091
1140.5	44.805
1144.18	157.822
1147.85	220.081
1151.53	594.486
1155.2	5.458
1158.87	55.374
1162.54	117.613
1166.21	125.119
1169.88	220.031
1173.54	55.734
1177.2	67.671
1180.86	1.853
1184.52	124.979
1188.18	297.865
1191.83	181.447
1195.49	117.41
1199.14	99.742
1202.79	142.006
1206.44	102.217
1210.08	190.513
1213.73	279.445
1217.37	189.526
1221.01	297.243
1224.65	174.579
1228.29	217.932
1231.93	247.73
1235.56	214.326
1239.19	309.583
1242.83	244.4
1246.46	228.822
1250.08	302.219
1253.71	336.521
1257.33	179.203
1260.96	232
1264.58	244.342
1268.19	266.471
1271.81	198.057
1275.43	558.408
1279.04	315.973
1282.65	223.73
1286.27	215.764
1289.87	182.4
1293.48	84.754
1297.09	69.77
1300.69	72.455
1304.29	55.258
1307.89	2.953
1311.49	295.488
1315.09	274.668
1318.68	196.443
1322.28	244.773
1325.87	201.646
1329.46	138.25
1333.05	35.695
1336.63	31.803
1340.22	47.498
1343.8	212.969
1347.38	216.754
1350.96	252.359
1354.54	298.848
1358.12	118.195
1361.69	123.576
1365.26	97.752
1368.83	119.373
1372.4	3.031
1375.97	295.002
1379.54	376.543
1383.1	295.576
1386.66	517.285
1390.23	242.375
1393.79	117.371
1397.34	219.08
1400.9	124.385
1404.45	141.609
1408.01	61.18
1411.56	159.662
1415.11	347.146
1418.66	404.438
1422.2	206.076
1425.75	324.922
1429.29	298.482
1432.83	213.783
1436.37	162.881
1439.91	343.344
1443.44	332.951
1446.98	469.576
1450.51	375.924
1454.04	656.615
1457.57	564.23
1461.1	584.803
1464.63	392.732
1468.15	454.611
1471.67	307.701
1475.19	169.615
1478.71	191.664
1482.23	209.004
1485.75	160.307
1489.26	118.436
1492.78	168.619
1496.29	0
