Measurement: Raman, 514 nm, ccw, Raman Data Processed
Mineral: Hedenbergite
Rruff sample: R050030
Ideal chemistry: CaFe^2+^Si_2_O_6_
Locality: Heroult, Ontario, Canada
Source: University of Arizona Mineral Museum
Description: Green fragments
Measured chemistry: (Ca_.993_Na_.007_)(Fe_.860_Mn_.111_Mg_.029_)(Si_.993_Al_.007_)_2_O_6_
Pin_id: M00284
Orientation: Laser parallel to -b* (0 -1 0). Fiducial mark perpendicular to laser is parallel to -c [0 0 -1]
Raman shift (cm-1)	intensity
92.661	0
96.856	48.554
101.049	15.413
105.24	411.886
109.429	650.819
113.616	1293.17
117.8	2120
121.983	4309.33
126.163	4362.25
130.342	2325.63
134.518	1214.02
138.692	912.874
142.864	886.762
147.034	831.815
151.201	859.14
155.367	798.995
159.53	831.691
163.692	986.45
167.851	1150.99
172.008	1305.1
176.163	1712.79
180.316	1134.78
184.467	488.876
188.616	310.287
192.762	298.201
196.907	156.465
201.049	63.197
205.189	52.427
209.328	53.046
213.464	39.815
217.598	64.61
221.73	12.473
225.86	11.703
229.988	70.926
234.113	8.762
238.237	79.532
242.359	34.746
246.478	57.139
250.595	32.864
254.711	99.318
258.824	63.028
262.935	98.266
267.044	190.812
271.151	369.425
275.256	532.639
279.359	688.536
283.46	550.132
287.559	536.804
291.656	507.427
295.75	747.154
299.843	1338.81
303.933	1810.85
308.022	1856.44
312.108	1567.38
316.193	1584.53
320.275	2109.38
324.355	2947.12
328.434	4032.64
332.51	3753.45
336.584	2832.12
340.656	1945.33
344.726	1199.63
348.794	998.922
352.86	835.396
356.924	1009.03
360.986	1552.07
365.046	2615.43
369.104	4665.95
373.159	6557.09
377.213	5657.73
381.265	3408.1
385.315	1811.52
389.362	1097.84
393.408	799.547
397.451	523.996
401.493	371.679
405.533	342.441
409.57	170.185
413.606	176.826
417.639	128.066
421.671	62.657
425.7	11.699
429.728	83.237
433.753	67.35
437.777	23.169
441.798	73.884
445.818	1.554
449.835	45.738
453.851	107.886
457.864	49.903
461.876	41.714
465.885	33.648
469.893	39.755
473.898	74.03
477.902	28.872
481.903	30.608
485.903	85.239
489.9	184.828
493.896	185.416
497.889	22.968
501.881	8.431
505.87	72.764
509.858	18.967
513.844	30.091
517.827	9.001
521.809	96.681
525.789	118.205
529.766	14.581
533.742	80.796
537.716	66.861
541.688	183.778
545.657	206.56
549.625	286.224
553.591	211.756
557.555	66.158
561.517	108.788
565.477	144.939
569.435	216.44
573.391	123.425
577.345	100.826
581.297	134.199
585.248	195.662
589.196	166.881
593.142	168.057
597.086	156.807
601.029	276.459
604.969	211.28
608.908	302.289
612.844	363.549
616.779	361.685
620.712	418.45
624.642	562.525
628.571	764.011
632.498	889.968
636.423	1259
640.346	1863.68
644.267	2701.1
648.186	4844.41
652.103	9421.78
656.019	16336.9
659.932	16919.8
663.843	9891.77
667.753	4911.45
671.66	2670.2
675.566	1498.31
679.47	1067.77
683.372	686.864
687.271	505.832
691.169	420.966
695.065	293.167
698.96	203.583
702.852	243.06
706.742	292.769
710.631	301.65
714.517	78.5
718.402	189.29
722.284	118.028
726.165	116.65
730.044	65.061
733.921	173.426
737.796	131.542
741.669	129.793
745.54	167.579
749.41	185.407
753.277	183.338
757.143	251.168
761.006	238.924
764.868	96.681
768.728	84.371
772.586	28.075
776.442	79.383
780.297	16.753
784.149	44.06
787.999	71.308
791.848	31.152
795.695	54.132
799.54	97.342
803.382	20.921
807.224	44.792
811.063	28.908
814.9	63.18
818.736	112.383
822.569	2.277
826.401	47.119
830.231	67.937
834.059	102.945
837.885	317.894
841.709	762.787
845.532	1977.69
849.352	3352.61
853.171	2877.62
856.988	1592.58
860.803	887.501
864.616	542.406
868.427	277.097
872.236	131.888
876.044	246.727
879.849	201.204
883.653	95.841
887.455	90.443
891.255	165.367
895.054	153.19
898.85	154.929
902.645	89.792
906.438	114.656
910.229	139.507
914.018	94.337
917.805	68.716
921.59	113.216
925.374	134.806
929.156	125.563
932.936	132.491
936.714	176.266
940.49	188.547
944.264	159.755
948.037	108.086
951.808	181.555
955.577	158.499
959.344	275.488
963.109	76.707
966.872	236.055
970.634	350.551
974.394	364.12
978.152	344.058
981.908	488.405
985.663	542.643
989.415	747.64
993.166	1192.83
996.915	2017.14
1000.66	3482.61
1004.41	7048.27
1008.15	17874.5
1011.89	25690.7
1015.63	14520.5
1019.37	6560.16
1023.11	3636.7
1026.84	2328.21
1030.57	1924.64
1034.31	1391.36
1038.03	1091.09
1041.76	948.674
1045.49	812.789
1049.21	778.559
1052.93	625.734
1056.65	663.239
1060.37	538.991
1064.09	494.881
1067.8	559.929
1071.52	554.661
1075.23	539.808
1078.94	604.978
1082.64	1519.45
1086.35	2533.78
1090.05	648.61
1093.76	382.821
1097.46	437.376
1101.16	341.901
1104.85	236.492
1108.55	231.034
1112.24	245.429
1115.93	149.69
1119.62	294.515
1123.31	208.526
1127	312.984
1130.68	272.309
1134.37	137.372
1138.05	112.815
1141.72	120.465
1145.4	246.976
1149.08	222.067
1152.75	188.973
1156.42	115.248
1160.1	159.539
1163.76	53.704
1167.43	7.532
1171.1	14.582
1174.76	157.348
1178.42	170.069
1182.08	101.033
1185.74	171.706
1189.4	136.57
1193.05	108.341
1196.7	29.881
1200.36	7.03
1204.01	221.784
1207.65	278.999
1211.3	256.16
1214.94	342.789
1218.59	129.625
1222.23	226.456
1225.87	297.604
1229.5	276.866
1233.14	320.467
1236.77	415.908
1240.41	439.878
1244.04	333.587
1247.66	206.736
1251.29	189.297
1254.92	232.404
1258.54	215.143
1262.16	127.078
1265.78	288.59
1269.4	419.621
1273.02	401.248
1276.63	130.955
1280.25	140.107
1283.86	37.852
1287.47	14.18
1291.08	170.119
1294.68	105.686
1298.29	0.625
1301.89	323.775
1305.49	176.701
1309.09	321.48
1312.69	141.938
1316.29	151.666
1319.88	2.643
1323.47	15.918
1327.06	93.117
1330.65	177.365
1334.24	227.557
1337.83	223.744
1341.41	179.127
1344.99	324.262
1348.57	200.234
1352.15	146.654
1355.73	132.143
1359.31	158.156
1362.88	353.018
1366.45	256.725
1370.02	420.158
1373.59	403.234
1377.16	315.137
1380.73	308.492
1384.29	465.312
1387.85	304.197
1391.41	348.033
1394.97	151.326
1398.53	255.109
1402.09	204.627
1405.64	231.881
1409.19	483.719
1412.74	484.592
1416.29	224.006
1419.84	113.971
1423.38	222.797
1426.93	95.123
1430.47	163.953
1434.01	346.475
1437.55	140.137
1441.09	431.754
1444.62	459.395
1448.16	772.633
1451.69	630.451
1455.22	411.268
1458.75	534.955
1462.28	241.99
1465.8	189.322
1469.33	254.799
1472.85	354.627
1476.37	369.686
1479.89	333.541
1483.4	119.844
