Measurement: Raman, 514 nm, ccw, Raman Data Processed
Mineral: Hedenbergite
Rruff sample: R060040
Ideal chemistry: CaFe^2+^Si_2_O_6_
Locality: Rio Marina, Elba, Italy
Source: University of Arizona Mineral Museum
Description: Radial aggregate of green thin bladed crystals
Measured chemistry: Ca_1.00_(Fe^2+^_0.89_Mg_0.09_Mn_0.02_)_Î£=1_Si_2.00_O_6_
Pin_id: M01578
Orientation: Laser parallel to (-1 0 -1). Fiducial mark perpendicular to laser is parallel to -b [0 -1 0]
Raman shift (cm-1)	intensity
262.49	0
266.136	7.49609
269.782	35.8525
273.425	200.891
277.068	234.834
280.709	307.815
284.348	313.581
287.986	433.5
291.622	526.395
295.257	568.96
298.891	792.092
302.523	1117.29
306.154	1389.72
309.783	1318.54
313.41	1139.48
317.037	1075.72
320.661	1152.71
324.285	1341.31
327.906	1724.7
331.527	2177.96
335.145	2640.65
338.763	2874.51
342.379	2481.99
345.993	1801.72
349.606	998.597
353.218	761.648
356.828	623.458
360.436	827.563
364.043	1155.11
367.649	1726.59
371.253	2941.49
374.856	3648.33
378.457	3644.16
382.057	2398.16
385.655	1203.63
389.252	710.199
392.847	424.748
396.441	275.742
400.034	179.744
403.625	6.38965
407.214	0.702148
410.802	3.49512
414.389	39.6494
417.974	99.21
421.557	255.733
425.139	161.773
428.72	40.5469
432.299	21.7812
435.877	83.0312
439.453	92.9277
443.028	164.76
446.601	121.769
450.173	54.2412
453.743	62.9688
457.312	60.1055
460.88	103.648
464.446	36.0918
468.01	24.9082
471.573	149.466
475.135	120.445
478.695	149.213
482.253	250.624
485.81	207.561
489.366	157.676
492.92	304.079
496.473	202.2
500.024	144.539
503.574	262.206
507.122	267.997
510.669	277.221
514.214	259.177
517.758	263.04
521.301	184.81
524.842	327.607
528.381	222.231
531.919	161.465
535.456	341.732
538.991	199.269
542.524	323.262
546.056	696.188
549.587	934.689
553.116	1091.62
556.644	719.752
560.17	562.996
563.695	274.963
567.218	274.555
570.74	268.602
574.26	148.254
577.779	174.238
581.296	18.5918
584.812	127.084
588.327	130.549
591.84	70.709
595.351	109.803
598.861	85.5547
602.37	75.5019
605.877	372.607
609.383	168.127
612.887	208.09
616.39	341.932
619.891	238.465
623.391	179.209
626.889	261.062
630.386	612.504
633.881	597.193
637.375	848.377
640.867	1096.29
644.358	1660.5
647.848	2252.41
651.335	3468.34
654.822	6101.75
658.307	9110.13
661.791	9902.84
665.273	6364.99
668.753	3312.26
672.232	1892.83
675.71	1244.89
679.186	778.455
682.661	621.734
686.134	495.272
689.606	238.631
693.076	241.606
696.545	68.0781
700.013	145.777
703.478	378.207
706.943	309.26
710.406	283.977
713.867	234.473
717.327	25.9004
720.786	45.9727
724.243	47.4102
727.698	115.762
731.153	282.924
734.605	112.322
738.056	68.3926
741.506	113.49
744.954	139.34
748.401	260.027
751.846	175.973
755.29	7.9082
758.733	132.75
762.173	207.434
765.613	38.9785
769.051	22.3438
772.487	350.527
775.922	313.555
779.356	64.4356
782.788	270.113
786.218	54.5781
789.648	24.8105
793.075	235.816
796.501	194.441
799.926	82.7481
803.349	62.8086
806.771	207.59
810.191	153.256
813.61	69.3359
817.027	34.75
820.443	58.6797
823.858	80.5742
827.271	108.775
830.682	221.389
834.092	73.0918
837.501	37.4668
840.908	189.322
844.313	374.736
847.717	718.881
851.12	1274.95
854.521	1541.9
857.921	912.357
861.319	407.721
864.716	485.279
868.111	5.09961
871.505	141.695
874.897	167.918
878.288	316.24
881.677	505.654
885.065	270.277
888.452	366.047
891.837	438.728
895.22	303.228
898.602	383.647
901.983	247.152
905.362	248.752
908.74	431.816
912.116	284.42
915.49	370.498
918.864	341.215
922.235	309.168
925.606	192.185
928.974	145.043
932.342	286.408
935.708	304.555
939.072	64.7676
942.435	64.8242
945.796	163.498
949.156	27.8145
952.515	168.977
955.872	250.455
959.228	340.68
962.582	94.5352
965.934	510.84
969.285	148.934
972.635	259.08
975.983	332.848
979.33	285.586
982.675	500.33
986.019	522.084
989.362	801.857
992.702	1073.65
996.042	1428.47
999.38	2348.38
1002.72	3817.81
1006.05	7470.93
1009.38	14471.2
1012.72	19264.5
1016.05	12240.7
1019.38	6202.62
1022.7	3646.74
1026.03	2872.04
1029.36	2553.2
1032.68	1847.71
1036	2255.72
1039.32	1434.12
1042.64	998.924
1045.96	683.477
1049.27	428.435
1052.59	663.896
1055.9	231.426
1059.21	359.754
1062.52	418.326
1065.83	354.83
1069.14	310.637
1072.44	215.977
1075.75	224.699
1079.05	184.373
1082.35	403.066
1085.65	531.086
1088.95	409.781
1092.25	121.529
1095.54	355.863
1098.84	212.158
1102.13	157.012
1105.42	229.992
1108.71	356.172
1112	309.928
1115.28	249.639
1118.57	217.303
1121.85	377.973
1125.13	206.539
1128.41	60.0547
1131.69	232.518
1134.97	21.9297
1138.25	45.2852
1141.52	212.578
1144.8	0.742188
1148.07	63.2363
1151.34	300.596
1154.61	96.4336
1157.87	47.8574
1161.14	193.678
1164.4	53.1387
1167.67	144.197
1170.93	36.6992
1174.19	275.959
1177.45	51.9297
1180.71	75.6035
1183.96	176.252
1187.22	186.445
1190.47	205.016
1193.72	165.293
1196.97	18.8555
1200.22	61.6621
1203.46	376.182
1206.71	111.531
1209.95	87.8203
1213.2	23.0469
1216.44	126.041
1219.68	260.816
1222.92	19.7109
1226.15	47.6816
1229.39	86.7324
1232.62	246.07
1235.86	34.6719
1239.09	440.416
1242.32	152.43
1245.54	128.371
1248.77	76.2402
1251.99	96.0352
1255.22	167.762
1258.44	255.338
1261.66	255.92
1264.88	443.188
1268.1	278.482
1271.31	96.7285
1274.53	114.012
1277.74	399.207
1280.95	52.416
1284.16	199.59
1287.37	202.516
1290.58	485.574
1293.79	52.9316
1296.99	193.291
1300.19	227.709
1303.39	12.4629
1306.6	272.789
1309.79	201.857
1312.99	234.541
1316.19	44.0586
1319.38	186.842
1322.57	81.4258
1325.77	112.754
1328.96	541.324
1332.14	282.496
1335.33	240.023
1338.52	107.711
1341.7	276.055
1344.88	527.863
1348.06	242.609
1351.24	325.863
1354.42	32.4023
1357.6	353.984
1360.77	138.109
1363.95	15.1836
1367.12	276.688
1370.29	296.359
1373.46	324.547
1376.63	294.555
1379.8	202.223
1382.96	311.168
1386.12	277.176
1389.29	60.2383
1392.45	285.312
1395.61	166.43
1398.76	214.617
1401.92	191.922
1405.08	388.32
1408.23	27.7734
1411.38	383.391
1414.53	146.125
1417.68	185.016
1420.83	303.144
1423.97	169.5
1427.12	103.039
1430.26	231.879
1433.4	259.875
1436.54	302.441
1439.68	183.414
1442.82	85.9141
1445.95	163.394
1449.09	330.508
1452.22	168.582
1455.35	134.922
1458.48	157.449
1461.61	324.273
1464.74	177.012
1467.87	186.309
1470.99	286.812
1474.11	75.5469
1477.23	148.457
1480.35	354.555
1483.47	353.852
1486.59	55.3555
1489.7	237.875
1492.82	162.465
1495.93	295.234
1499.04	141.312
1502.15	320.18
1505.26	298.25
1508.37	113.934
1511.47	238.508
1514.58	452.125
1517.68	342.379
1520.78	318.5
1523.88	169.969
1526.98	383.734
1530.07	503.812
1533.17	261.594
1536.26	297.32
1539.35	218.461
1542.44	159.496
1545.53	195.441
1548.62	483.008
1551.71	515.004
1554.79	338.856
1557.88	396.168
1560.96	62.6172
1564.04	293.32
1567.12	292.223
1570.2	109.098
1573.27	0.152344
