Measurement: Raman, 514 nm, ccw, Raman Data Processed
Mineral: Hedenbergite
Rruff sample: R050030
Ideal chemistry: CaFe^2+^Si_2_O_6_
Locality: Heroult, Ontario, Canada
Source: University of Arizona Mineral Museum
Description: Green fragments
Measured chemistry: (Ca_.993_Na_.007_)(Fe_.860_Mn_.111_Mg_.029_)(Si_.993_Al_.007_)_2_O_6_
Pin_id: M00478
Orientation: Laser parallel to c* (0 0 1). Fiducial mark perpendicular to laser is parallel to a [1 0 0]
Raman shift (cm-1)	intensity
101.036	0
105.212	349.168
109.387	178.635
113.559	25.705
117.729	339.716
121.897	404.61
126.063	510.583
130.228	246.14
134.39	20.433
138.55	125.664
142.709	145.462
146.865	358.751
151.019	252.489
155.171	386.831
159.322	225.888
163.47	243.018
167.617	288.188
171.761	388.963
175.904	528.556
180.044	692.087
184.183	465.961
188.319	375.891
192.454	292.897
196.586	124.267
200.717	101.525
204.846	125.823
208.972	175.824
213.097	13.732
217.22	15.711
221.341	101.068
225.46	313.355
229.577	563.574
233.692	438.723
237.805	193.317
241.916	74.656
246.025	54.253
250.132	15.792
254.237	175.264
258.34	262.664
262.442	419.51
266.541	751.92
270.639	1061.6
274.734	1241.29
278.828	1390.49
282.919	1597.25
287.009	1982.09
291.097	2587.44
295.183	3609.7
299.266	4017.22
303.348	3898.64
307.428	3165.37
311.507	2145.12
315.583	1600.67
319.657	1774.98
323.729	2598.43
327.8	3726.55
331.868	5568.68
335.935	7011.8
339.999	7185.89
344.062	4352.24
348.123	2479.38
352.182	1782.4
356.239	1711.39
360.294	2314.34
364.347	3860.25
368.398	6307.09
372.448	8513.85
376.495	7435.19
380.54	4373.85
384.584	2217.37
388.626	1262.78
392.666	742.106
396.704	504.346
400.74	267.505
404.774	227.578
408.806	118.413
412.836	202.337
416.865	213.2
420.891	120.029
424.916	28.796
428.939	176.829
432.959	161.521
436.978	224.156
440.996	223.626
445.011	0.007
449.024	5.225
453.036	5.236
457.045	60.041
461.053	26.708
465.059	29.233
469.063	19.124
473.065	4.165
477.065	6.755
481.063	20.02
485.06	217.613
489.054	314.417
493.047	337.54
497.038	306.921
501.027	187.229
505.014	118.439
508.999	150.528
512.982	329.503
516.964	543.365
520.944	739.118
524.921	609.749
528.897	443.252
532.871	370.626
536.844	368.892
540.814	621.129
544.783	1214.27
548.749	2303.28
552.714	3051.44
556.677	1733.17
560.638	812.074
564.597	378.522
568.555	304.361
572.511	177.792
576.464	233.147
580.416	238.777
584.366	101.361
588.315	141.895
592.261	205.591
596.206	172.004
600.148	220.447
604.089	202.886
608.028	423.238
611.965	394.023
615.901	434.603
619.834	539.477
623.766	552.848
627.696	774.227
631.624	873.379
635.551	1269.2
639.475	1803.04
643.398	2746.82
647.318	4758.85
651.237	9087.27
655.155	16310.7
659.07	18206.4
662.984	11346.2
666.895	5599.26
670.805	2718.94
674.713	1626.21
678.62	1056.06
682.524	706.013
686.427	565.874
690.328	324.638
694.227	237.309
698.124	140.888
702.02	196.377
705.913	29.778
709.805	117.085
713.695	61.29
717.584	74.4
721.47	22.005
725.355	89.297
729.238	113.106
733.119	134.732
736.998	1.812
740.876	103.265
744.752	41.314
748.626	100.482
752.498	87.312
756.368	94.559
760.237	172.565
764.104	56.556
767.969	79.43
771.832	21.514
775.693	102.522
779.553	17.444
783.411	15.625
787.267	17.337
791.122	102.656
794.974	57.294
798.825	6.649
802.674	7.486
806.522	8.847
810.367	30.216
814.211	1.771
818.053	42.622
821.893	1.389
825.732	23.157
829.568	19.417
833.403	188.819
837.236	136.047
841.068	403.288
844.898	827.574
848.726	1700.91
852.552	1800.26
856.376	836.646
860.199	522.806
864.02	383.364
867.839	269.837
871.656	307.238
875.472	245.709
879.286	314.22
883.098	346.778
886.909	468.183
890.717	607.196
894.524	699.947
898.33	787.979
902.133	997.041
905.935	1210.18
909.735	1215.25
913.533	833.317
917.33	771.586
921.124	581.416
924.918	297.095
928.709	286.329
932.499	237.171
936.286	235.244
940.073	321.125
943.857	294.553
947.64	328.372
951.421	398.684
955.2	364.85
958.978	463.871
962.753	675.709
966.527	656.773
970.3	624.12
974.071	672.172
977.84	884.776
981.607	1043.85
985.372	1341.22
989.136	1700.12
992.898	2382.97
996.659	3348.34
1000.42	5532.22
1004.17	10262.5
1007.93	25427.5
1011.68	51918.6
1015.43	38461.7
1019.18	17204
1022.93	9607.88
1026.68	8066.93
1030.42	6874.28
1034.17	4902.22
1037.91	3273.75
1041.65	2118.48
1045.39	1590.43
1049.12	1271.13
1052.86	959.888
1056.59	910.159
1060.33	815.61
1064.06	685.834
1067.78	574.049
1071.51	449.016
1075.23	526.461
1078.96	434.288
1082.68	466.97
1086.4	319.288
1090.12	363.267
1093.83	285.357
1097.55	394.634
1101.26	338.707
1104.97	367.622
1108.68	224.85
1112.39	259.548
1116.1	127.89
1119.8	98.641
1123.5	260.896
1127.2	102.078
1130.9	4.937
1134.6	131.53
1138.3	128.599
1141.99	22.029
1145.69	10.855
1149.38	61.758
1153.07	1.03
1156.76	88.124
1160.44	86.006
1164.13	9.15
1167.81	109.333
1171.49	90.485
1175.17	63.312
1178.85	60.268
1182.52	54.141
1186.2	136.498
1189.87	138.156
1193.54	121.499
1197.21	62.502
1200.88	28.307
1204.55	220.401
1208.21	80.299
1211.88	53.469
1215.54	73.645
1219.2	35.349
1222.86	22.957
1226.51	64.425
1230.17	106.27
1233.82	109.359
1237.47	110.11
1241.12	49.565
1244.77	125.939
1248.42	185.015
1252.06	187.485
1255.71	80.719
1259.35	22.836
1262.99	54.593
1266.63	171.982
1270.26	36.266
1273.9	111.637
1277.53	34.652
1281.16	196.66
1284.8	25.648
1288.42	108.902
1292.05	42.397
1295.68	50.298
1299.3	41.476
1302.92	133.552
1306.55	105.675
1310.16	152.619
1313.78	91.34
1317.4	173.005
1321.01	161.249
1324.62	26.06
1328.24	194.965
1331.85	94.551
1335.45	85.391
1339.06	98.783
1342.66	153.979
1346.27	137.385
1349.87	49.01
1353.47	154.705
1357.07	206.647
1360.66	186.229
1364.26	157.921
1367.85	65.76
1371.44	175.179
1375.04	124.144
1378.62	140.88
1382.21	123.623
1385.8	62.955
1389.38	38.679
1392.96	236.725
1396.54	167.365
1400.12	120.003
1403.7	202.561
1407.28	68.839
1410.85	96.378
1414.42	50.757
1417.99	85.406
1421.56	173.528
1425.13	70.201
1428.7	204.914
1432.26	94.116
1435.83	196.316
1439.39	237.001
1442.95	328.909
1446.51	259.73
1450.06	261.171
1453.62	288.293
1457.17	294.158
1460.73	253.357
1464.28	178.724
1467.83	234.103
1471.37	179.704
1474.92	142.164
1478.46	56.132
1482.01	242.395
1485.55	236.681
1489.09	67.046
1492.63	107.788
1496.16	167.019
1499.7	188.053
1503.23	112.548
1506.76	147.256
1510.29	71.881
1513.82	112.393
1517.35	17.498
1520.88	10.871
1524.4	0
