Measurement: Raman, 514 nm, ccw, Raman Data Processed
Mineral: Hedenbergite
Rruff sample: R060040
Ideal chemistry: CaFe^2+^Si_2_O_6_
Locality: Rio Marina, Elba, Italy
Source: University of Arizona Mineral Museum
Description: Radial aggregate of green thin bladed crystals
Measured chemistry: Ca_1.00_(Fe^2+^_0.89_Mg_0.09_Mn_0.02_)_Î£=1_Si_2.00_O_6_
Pin_id: M01578
Orientation: Laser parallel to (-1 0 -1). Fiducial mark perpendicular to laser is parallel to -b [0 -1 0]
Raman shift (cm-1)	intensity
262.49	0
266.136	40.6103
269.782	2.00879
273.425	258.728
277.068	263.079
280.709	340.273
284.348	316.096
287.986	485.594
291.622	747.982
295.257	784.153
298.891	717.2
302.523	907.889
306.154	1063.73
309.783	1066.37
313.41	718.504
317.037	554.427
320.661	649
324.285	624.268
327.906	806.339
331.527	1287.37
335.145	1831.05
338.763	2015.51
342.379	1898.94
345.993	1333.93
349.606	852.364
353.218	663.105
356.828	663.879
360.436	898.74
364.043	1261.23
367.649	1864.67
371.253	2704.63
374.856	3298.88
378.457	2912.44
382.057	1946.28
385.655	1100
389.252	688.514
392.847	448.862
396.441	168.047
400.034	244.356
403.625	14.627
407.214	51.2861
410.802	77.9766
414.389	184.375
417.974	194.852
421.557	32.4219
425.139	63.625
428.72	229.359
432.299	112.814
435.877	200.803
439.453	233.098
443.028	109.051
446.601	28.3828
450.173	158.908
453.743	103.564
457.312	16.457
460.88	69.8047
464.446	70.0625
468.01	21.6172
471.573	29.1895
475.135	83.291
478.695	99.9356
482.253	112.516
485.81	63.3965
489.366	93.625
492.92	160.383
496.473	183.102
500.024	266.707
503.574	168.56
507.122	243.607
510.669	392.221
514.214	369.922
517.758	353.416
521.301	384.818
524.842	342.131
528.381	201.397
531.919	221.658
535.456	184.934
538.991	210.117
542.524	365.293
546.056	487.09
549.587	820.701
553.116	865.457
556.644	489.935
560.17	365.643
563.695	258.699
567.218	119.223
570.74	80.6172
574.26	76.4668
577.779	91.6231
581.296	135.19
584.812	95.1719
588.327	97.207
591.84	34.1992
595.351	4.36523
598.861	263.203
602.37	195.666
605.877	378.441
609.383	302.18
612.887	104.277
616.39	226.223
619.891	350.029
623.391	96.7344
626.889	186.394
630.386	353.682
633.881	495.685
637.375	695.096
640.867	634.703
644.358	1037.56
647.848	1105.1
651.335	2202.29
654.822	3111
658.307	4794.73
661.791	4884.31
665.273	3396.62
668.753	1852.58
672.232	1090.72
675.71	713.731
679.186	642.721
682.661	306.772
686.134	245.619
689.606	167.482
693.076	181.019
696.545	129.709
700.013	386.478
703.478	257.691
706.943	248.428
710.406	105.912
713.867	211.846
717.327	26.0957
720.786	173.228
724.243	80.7363
727.698	31.5391
731.153	150.348
734.605	185.428
738.056	136.41
741.506	149.435
744.954	265.881
748.401	182.254
751.846	98.1621
755.29	155.363
758.733	70.4394
762.173	107.301
765.613	133.111
769.051	21.7441
772.487	162.184
775.922	207.443
779.356	14.5176
782.788	136.418
786.218	21.9844
789.648	26.3613
793.075	86.3301
796.501	9.57227
799.926	21.3711
803.349	48.8789
806.771	7.45312
810.191	18.2695
813.61	15.9473
817.027	182.16
820.443	177.283
823.858	8.39062
827.271	32.334
830.682	162.652
834.092	121.381
837.501	29.4629
840.908	191.647
844.313	227.768
847.717	426.777
851.12	687.609
854.521	592.408
857.921	496.625
861.319	570.785
864.716	415.838
868.111	339.371
871.505	302.945
874.897	259.832
878.288	403.81
881.677	345.984
885.065	428.482
888.452	502.738
891.837	212.107
895.22	321.078
898.602	298.07
901.983	305.469
905.362	265.029
908.74	323.096
912.116	237.393
915.49	378.463
918.864	257.414
922.235	225.422
925.606	135.084
928.974	82.2617
932.342	312.527
935.708	79.0019
939.072	17.7695
942.435	139.162
945.796	131.541
949.156	205.818
952.515	99.5215
955.872	25.0996
959.228	284.623
962.582	195.053
965.934	83.541
969.285	305.918
972.635	218.688
975.983	367.225
979.33	334.412
982.675	423.369
986.019	310.223
989.362	560.076
992.702	694.887
996.042	942.635
999.38	1500.79
1002.72	2814.59
1006.05	5347.25
1009.38	9690.15
1012.72	11709.4
1016.05	7282.05
1019.38	4016.2
1022.7	2524.49
1026.03	1859.33
1029.36	1544.08
1032.68	1075.15
1036	735.062
1039.32	649.799
1042.64	547.502
1045.96	598.984
1049.27	384.973
1052.59	495.57
1055.9	297.201
1059.21	322.512
1062.52	332.106
1065.83	207.406
1069.14	327.529
1072.44	298.502
1075.75	95.1543
1079.05	391.043
1082.35	362.227
1085.65	560.896
1088.95	403.695
1092.25	338.217
1095.54	260.875
1098.84	145.435
1102.13	51.9629
1105.42	172.283
1108.71	212.08
1112	171.641
1115.28	105.012
1118.57	232.328
1121.85	480.578
1125.13	180.787
1128.41	9.9375
1131.69	273.143
1134.97	182.894
1138.25	147.957
1141.52	70.8926
1144.8	188.775
1148.07	114.603
1151.34	64.5879
1154.61	124.773
1157.87	30.0117
1161.14	244.188
1164.4	245.312
1167.67	231.516
1170.93	60.0938
1174.19	227.734
1177.45	271.504
1180.71	190.795
1183.96	45.6074
1187.22	128.85
1190.47	38.3418
1193.72	111.404
1196.97	137.473
1200.22	129.486
1203.46	119.231
1206.71	274.019
1209.95	93.1172
1213.2	124.551
1216.44	447.184
1219.68	124.82
1222.92	142.414
1226.15	282.906
1229.39	313.371
1232.62	502.418
1235.86	58.1055
1239.09	370.609
1242.32	311.644
1245.54	229.805
1248.77	315.969
1251.99	188.031
1255.22	248.035
1258.44	373.852
1261.66	149.453
1264.88	72.1289
1268.1	265.773
1271.31	202.246
1274.53	142.684
1277.74	56.8633
1280.95	264.176
1284.16	163.812
1287.37	89.668
1290.58	530.879
1293.79	395.938
1296.99	308.82
1300.19	134.695
1303.39	103.656
1306.6	134.137
1309.79	17.082
1312.99	86.6953
1316.19	112.441
1319.38	238.914
1322.57	446.57
1325.77	296.223
1328.96	505.562
1332.14	462.195
1335.33	393.781
1338.52	386.227
1341.7	84.9062
1344.88	163.394
1348.06	204.91
1351.24	162.41
1354.42	318.84
1357.6	116.32
1360.77	248.809
1363.95	167.406
1367.12	126.738
1370.29	223.019
1373.46	162.277
1376.63	16.7227
1379.8	311.184
1382.96	29.6523
1386.12	178.434
1389.29	181.961
1392.45	295.707
1395.61	261.285
1398.76	242.887
1401.92	152.527
1405.08	63.2227
1408.23	105.918
1411.38	118.648
1414.53	421.676
1417.68	367.762
1420.83	414.902
1423.97	226.977
1427.12	187.91
1430.26	72.3633
1433.4	233.863
1436.54	15.8789
1439.68	376.793
1442.82	305.547
1445.95	19.5117
1449.09	258.543
1452.22	606.758
1455.35	200.102
1458.48	133.5
1461.61	243.098
1464.74	38.75
1467.87	385.441
1470.99	437.16
1474.11	181.609
1477.23	293.09
1480.35	307.609
1483.47	278.168
1486.59	18.0625
1489.7	324.801
1492.82	333.863
1495.93	298.019
1499.04	289.227
1502.15	317.586
1505.26	498.062
1508.37	80.6367
1511.47	389.461
1514.58	262.434
1517.68	379.481
1520.78	120.644
1523.88	370.055
1526.98	146.289
1530.07	326.816
1533.17	19.4805
1536.26	416.668
1539.35	94.418
1542.44	165.148
1545.53	162.777
1548.62	187.383
1551.71	149.617
1554.79	314.203
1557.88	23.5508
1560.96	31.8867
1564.04	80.5703
1567.12	182.562
1570.2	64.6133
1573.27	62.8984
