Measurement: Raman, 514 nm, ccw, Raman Data Processed
Mineral: Hedenbergite
Rruff sample: R050030
Ideal chemistry: CaFe^2+^Si_2_O_6_
Locality: Heroult, Ontario, Canada
Source: University of Arizona Mineral Museum
Description: Green fragments
Measured chemistry: (Ca_.993_Na_.007_)(Fe_.860_Mn_.111_Mg_.029_)(Si_.993_Al_.007_)_2_O_6_
Pin_id: M00478
Orientation: Laser parallel to c* (0 0 1). Fiducial mark perpendicular to laser is parallel to a [1 0 0]
Raman shift (cm-1)	intensity
102.428	0
106.604	461.623
110.777	19.175
114.949	23.548
119.119	70.881
123.286	168.748
127.452	243.215
131.615	149.495
135.777	91.007
139.937	162.356
144.094	336.216
148.25	443.294
152.403	445.334
156.555	346.316
160.705	235.261
164.853	231.031
168.998	390.481
173.142	481.5
177.284	756.999
181.424	666.907
185.562	380.172
189.698	353.556
193.831	281.861
197.963	170.407
202.093	165.566
206.221	144.528
210.347	84.297
214.472	35.749
218.594	105.227
222.714	156.705
226.832	404.196
230.948	602.698
235.063	381.215
239.175	113.748
243.286	75.292
247.394	98.848
251.501	186.408
255.605	236.971
259.708	334.536
263.808	536.271
267.907	806.381
272.004	907.849
276.099	1171.13
280.192	1419.07
284.283	1662.62
288.372	2162.92
292.459	2985.87
296.544	3813.8
300.627	4021.83
304.709	3767.89
308.788	2853.56
312.865	1926.05
316.941	1639.04
321.015	2007.77
325.086	2764.57
329.156	4360.15
333.224	6005.65
337.29	7391.19
341.354	5949.78
345.416	3409.54
349.476	2045.18
353.534	1812.85
357.591	2001.54
361.645	2939.25
365.698	5021.97
369.748	8023.69
373.797	9487.4
377.844	7155.08
381.889	3736.74
385.932	1960.36
389.973	1193.96
394.012	735.524
398.049	446.056
402.084	321.558
406.118	288.044
410.15	184.52
414.179	99.961
418.207	113.407
422.233	125.834
426.257	177.325
430.279	209.683
434.299	206.07
438.318	223.531
442.334	123.935
446.349	31.303
450.361	21.372
454.372	17.199
458.381	0.843
462.388	19.299
466.394	51.639
470.397	15.268
474.398	60.083
478.398	77.186
482.396	28.377
486.391	46.881
490.385	212.357
494.377	253.865
498.368	106.374
502.356	108.859
506.342	131.327
510.327	226.75
514.31	352.115
518.291	582.402
522.27	704.631
526.247	576.788
530.222	383.861
534.196	273.85
538.167	438.752
542.137	796.567
546.105	1505.29
550.071	2541.93
554.035	2287.55
557.998	1095.23
561.958	540.378
565.917	334.494
569.874	198.918
573.829	210.246
577.782	109.053
581.733	211.374
585.683	213.446
589.63	240.072
593.576	98.12
597.52	195.743
601.462	209.127
605.402	270.492
609.341	332.723
613.277	324.661
617.212	423.987
621.145	451.558
625.076	570.388
629.006	655.658
632.933	1001.43
636.859	1427.78
640.783	1914.99
644.705	3252.94
648.625	5845.32
652.543	11210.4
656.46	17727.9
660.375	16035.6
664.288	8829.53
668.199	4360.03
672.108	2487.66
676.016	1509.24
679.921	911.844
683.825	569.102
687.727	418.259
691.628	331.318
695.526	344.534
699.423	236.142
703.318	148.91
707.211	79.583
711.102	134.162
714.992	139.649
718.879	81.028
722.765	73.261
726.649	124.381
730.532	43.607
734.412	18.206
738.291	63.93
742.168	65.46
746.043	26.942
749.916	97.213
753.788	156.48
757.658	113.676
761.526	58.812
765.392	56.889
769.257	102.948
773.119	22.9
776.98	64.146
780.839	6.292
784.697	56.46
788.552	35.282
792.406	3.927
796.258	21.13
800.108	44.551
803.957	42.945
807.804	65.667
811.649	43.567
815.492	84.59
819.333	53.212
823.173	64.94
827.011	19.615
830.847	40.746
834.681	125.803
838.514	252.324
842.345	439.827
846.174	986.338
850.001	1699.88
853.827	1263.4
857.651	701.931
861.473	413.422
865.293	291.036
869.112	336.502
872.928	304.407
876.744	220.3
880.557	426.97
884.369	373.656
888.178	468.244
891.987	542.887
895.793	597.529
899.598	798.359
903.401	993.091
907.202	1051.92
911.001	1107.92
914.799	862.615
918.595	609.394
922.389	421.107
926.182	371.255
929.972	265.633
933.761	405.17
937.549	336.273
941.334	243.959
945.118	303.039
948.9	363.715
952.681	383.631
956.459	487.649
960.236	459.103
964.012	528.594
967.785	656.813
971.557	606.444
975.327	680.257
979.095	909.748
982.862	1031.64
986.627	1023.5
990.39	1592.48
994.152	2324.86
997.912	3637.01
1001.67	5997.34
1005.43	13181.8
1009.18	32632
1012.93	49728
1016.68	27851.6
1020.43	12373.6
1024.18	7845.3
1027.93	6537.37
1031.67	5464.33
1035.42	3664.25
1039.16	2530.88
1042.9	1908.47
1046.63	1434.3
1050.37	1092.44
1054.11	1057.88
1057.84	749.616
1061.57	709.623
1065.3	560.28
1069.03	494.868
1072.75	471.641
1076.47	444.493
1080.2	404.937
1083.92	322.319
1087.64	330.489
1091.36	342.825
1095.07	276.083
1098.79	269.187
1102.5	311.069
1106.21	160.46
1109.92	196.381
1113.62	171.769
1117.33	217.587
1121.04	256.634
1124.74	229.326
1128.44	32.665
1132.14	117.848
1135.83	88.719
1139.53	11.972
1143.22	21.681
1146.92	49.495
1150.61	116.498
1154.3	19.576
1157.98	85.778
1161.67	63.085
1165.35	35.009
1169.04	71.242
1172.72	47.539
1176.4	15.348
1180.07	51.365
1183.75	15.699
1187.42	165.196
1191.1	54.481
1194.77	105.657
1198.44	20.455
1202.1	51.205
1205.77	34.12
1209.43	91.294
1213.1	119.927
1216.76	66.858
1220.42	154.161
1224.07	152.002
1227.73	231.56
1231.38	147.785
1235.04	127.927
1238.69	39.352
1242.34	155.31
1245.99	156.466
1249.63	112.438
1253.28	153.436
1256.92	34.775
1260.56	181.758
1264.2	62.704
1267.84	122.262
1271.48	166.301
1275.11	28.522
1278.74	81.897
1282.38	94.092
1286.01	93.182
1289.63	115.828
1293.26	59.152
1296.89	1.797
1300.51	105.091
1304.13	67.001
1307.75	63.137
1311.37	152.571
1314.99	146.26
1318.6	74.066
1322.22	156.43
1325.83	198.319
1329.44	115.036
1333.05	128.924
1336.66	107.714
1340.26	150.635
1343.87	147.473
1347.47	143.43
1351.07	278.603
1354.67	218.673
1358.27	21.215
1361.86	126.609
1365.46	102.168
1369.05	90.787
1372.64	114.208
1376.23	136.256
1379.82	156.343
1383.41	146.474
1386.99	159.254
1390.57	234.8
1394.16	15.833
1397.74	243.409
1401.32	130.47
1404.89	117.059
1408.47	72.004
1412.04	178.493
1415.61	15.901
1419.18	176.512
1422.75	121.564
1426.32	253.98
1429.89	137.943
1433.45	183.244
1437.01	151.095
1440.58	93.721
1444.13	168.656
1447.69	178.946
1451.25	217.86
1454.81	220.512
1458.36	182.69
1461.91	226.011
1465.46	157.714
1469.01	348.15
1472.56	300.036
1476.1	267.974
1479.64	161.202
1483.19	199.6
1486.73	206.202
1490.27	112.33
1493.81	76.156
1497.34	170.444
1500.88	192.576
1504.41	177.629
1507.94	230.101
1511.47	19.126
1515	94.774
1518.53	122.423
