Measurement: Raman, 514 nm, ccw, Raman Data Processed
Mineral: Hedenbergite
Rruff sample: R050030
Ideal chemistry: CaFe^2+^Si_2_O_6_
Locality: Heroult, Ontario, Canada
Source: University of Arizona Mineral Museum
Description: Green fragments
Measured chemistry: (Ca_.993_Na_.007_)(Fe_.860_Mn_.111_Mg_.029_)(Si_.993_Al_.007_)_2_O_6_
Pin_id: M00111
Orientation: Laser parallel to a* (1 0 0). Fiducial mark perpendicular to laser is parallel to b [0 1 0]
Raman shift (cm-1)	intensity
101.157	0
105.336	110.146
109.513	68.921
113.688	781.7
117.861	2723.46
122.032	4319.28
126.201	2839.41
130.367	921.388
134.532	163.554
138.695	160.644
142.856	228.068
147.014	77.879
151.171	6.624
155.325	61
159.478	246.317
163.629	242.553
167.777	590.121
171.924	1599.76
176.068	2110.3
180.211	1514.68
184.351	1281.18
188.49	1280.56
192.626	590.245
196.761	306.44
200.893	116.149
205.024	95.342
209.152	18.052
213.279	93.144
217.403	19.643
221.526	79.367
225.646	124.979
229.765	188.44
233.881	260.742
237.996	99.742
242.108	43.795
246.219	58.806
250.328	18.109
254.434	1.042
258.539	6.748
262.641	22.627
266.742	70.491
270.84	41.815
274.937	212.844
279.032	249.979
283.125	432.501
287.215	585.643
291.304	966.153
295.391	1682.96
299.476	2896.23
303.558	3195.51
307.639	2508.46
311.718	1690.9
315.795	1024.04
319.87	789.653
323.943	771.472
328.014	938.512
332.083	1165.4
336.15	1194.11
340.215	904.374
344.279	778.143
348.34	516.399
352.399	729.483
356.457	912.375
360.512	1214.21
364.565	2491.93
368.617	3360.93
372.666	3698.2
376.714	2400.53
380.76	1387.4
384.803	768.266
388.845	519.029
392.885	424.225
396.923	135.6
400.959	199.558
404.993	178.996
409.025	248.153
413.055	70.416
417.084	153.341
421.11	53.196
425.134	127.524
429.157	144.04
433.177	203.311
437.196	176.068
441.213	108.449
445.227	84.669
449.24	141.666
453.251	41.525
457.26	174.696
461.267	17.777
465.272	5.562
469.276	31.284
473.277	94.605
477.276	193.42
481.274	242.12
485.27	178.753
489.263	312.391
493.255	293.988
497.245	289.5
501.233	160.958
505.219	134.349
509.203	69.68
513.186	116.944
517.166	99.152
521.145	235.32
525.121	193.472
529.096	141.612
533.069	39.741
537.04	7.855
541.009	166.076
544.976	134.296
548.941	102.458
552.905	200.558
556.866	21.437
560.826	156.469
564.784	134.311
568.74	182.165
572.694	71.866
576.646	0.395
580.596	67.845
584.544	45.682
588.491	6.599
592.435	10.812
596.378	228.396
600.319	55.979
604.258	183.776
608.195	123.006
612.131	0.454
616.064	85.567
619.995	290.726
623.925	297.152
627.853	397.023
631.779	539.067
635.703	826.217
639.625	1296.08
643.546	2190.01
647.464	3781.23
651.381	7908.43
655.296	12055.6
659.209	9505.71
663.12	5132.96
667.029	2550.16
670.937	1647.29
674.842	1024.75
678.746	743.68
682.648	574.97
686.548	291.412
690.447	227.707
694.343	213.786
698.238	360.168
702.13	296.308
706.021	122.568
709.91	218.771
713.798	263.001
717.683	88.011
721.567	174.022
725.448	20.175
729.328	222.378
733.206	156.691
737.083	144.161
740.957	238.191
744.83	108.256
748.701	143.473
752.57	281.091
756.437	3.649
760.302	18.18
764.166	117.143
768.027	1.567
771.887	113.662
775.745	218.849
779.602	168.836
783.456	12.065
787.309	49.771
791.16	174.741
795.009	129.641
798.856	184.382
802.702	288.901
806.545	153.313
810.387	40.062
814.227	114.17
818.065	78.354
821.902	112.474
825.737	16.541
829.569	29.452
833.401	65.551
837.23	238.191
841.057	401.894
844.883	765.564
848.707	1039.31
852.529	613.024
856.35	416.722
860.168	240.463
863.985	254.197
867.8	127.977
871.613	331.766
875.425	135.562
879.234	97.394
883.042	181.066
886.848	17.301
890.653	37.671
894.455	41.328
898.256	115.176
902.055	40.929
905.852	202.903
909.648	245.877
913.442	58.096
917.233	61.778
921.024	74.743
924.812	287.677
928.599	111.349
932.384	44.978
936.167	427.125
939.948	325.826
943.728	69.349
947.506	169.982
951.282	296.539
955.056	345.953
958.829	249.353
962.6	179.644
966.369	253.097
970.136	136.2
973.902	309.29
977.666	392.309
981.428	173.278
985.188	332.482
988.947	585.961
992.704	779.887
996.459	1231.51
1000.21	2405.44
1003.96	6000.51
1007.71	14989.9
1011.46	14595.4
1015.21	6944.15
1018.95	3438.67
1022.7	2243.97
1026.44	1911.72
1030.18	1506.67
1033.91	1011.57
1037.65	828.335
1041.39	601.241
1045.12	646.014
1048.85	511.977
1052.58	814.744
1056.31	749.397
1060.03	464.058
1063.76	448.796
1067.48	385.195
1071.2	353.854
1074.92	379.263
1078.63	504.19
1082.35	474.065
1086.06	458.879
1089.78	263.084
1093.49	317.975
1097.19	503.02
1100.9	108.402
1104.61	323.871
1108.31	449.283
1112.01	401.877
1115.71	86.709
1119.41	231.977
1123.11	286.689
1126.8	91.369
1130.5	197.492
1134.19	103.281
1137.88	239.453
1141.57	445.854
1145.25	210.141
1148.94	35.695
1152.62	146.164
1156.3	201.949
1159.98	107.242
1163.66	250.83
1167.34	77.266
1171.01	243.557
1174.68	98.51
1178.36	124.764
1182.02	31.357
1185.69	375.338
1189.36	319.092
1193.02	155.592
1196.69	154.969
1200.35	314.617
1204.01	311.75
1207.66	299.486
1211.32	50.789
1214.98	302.697
1218.63	423.48
1222.28	467.646
1225.93	348.99
1229.58	389.838
1233.22	446.826
1236.87	346.928
1240.51	316.541
1244.15	355.877
1247.79	394.977
1251.43	474.822
1255.07	463.189
1258.7	514.242
1262.33	279.857
1265.96	427.33
1269.59	314.658
1273.22	61.342
1276.85	307.896
1280.47	243.959
1284.1	310.473
1287.72	375.34
1291.34	252.076
1294.95	156.754
1298.57	241.947
1302.19	80.135
1305.8	261.898
1309.41	179.594
1313.02	290.645
1316.63	251.309
1320.23	309.031
1323.84	238.961
1327.44	225.686
1331.05	114.115
1334.64	112.293
1338.24	89.834
1341.84	196.039
1345.43	273.127
1349.03	529.795
1352.62	705.938
1356.21	453.033
1359.8	487.566
1363.39	352.18
1366.97	145.93
1370.56	79.566
1374.14	193.279
1377.72	309.959
1381.3	422.643
1384.87	636.832
1388.45	378.777
1392.02	492.422
1395.6	364.699
1399.17	285.025
1402.74	199.811
1406.3	318.029
1409.87	161.834
1413.43	167.709
1417	253.781
1420.56	441.756
1424.12	197.797
1427.67	558.982
1431.23	470.334
1434.79	218.145
1438.34	248.023
1441.89	190.277
1445.44	8.264
1448.99	160.902
1452.54	77.98
1456.08	400.41
1459.62	443.41
1463.17	376.715
1466.71	741.635
1470.24	771.67
1473.78	779.459
1477.32	488.094
1480.85	222.373
1484.38	240.643
1487.91	18.924
1491.44	211.484
1494.97	140.492
1498.5	121.475
1502.02	275.645
1505.54	646.441
1509.07	586.139
1512.59	250.289
