Measurement: Raman, 514 nm, ccw, Raman Data Processed
Mineral: Hedenbergite
Rruff sample: R050030
Ideal chemistry: CaFe^2+^Si_2_O_6_
Locality: Heroult, Ontario, Canada
Source: University of Arizona Mineral Museum
Description: Green fragments
Measured chemistry: (Ca_.993_Na_.007_)(Fe_.860_Mn_.111_Mg_.029_)(Si_.993_Al_.007_)_2_O_6_
Pin_id: M00111
Orientation: Laser parallel to a* (1 0 0). Fiducial mark perpendicular to laser is parallel to b [0 1 0]
Raman shift (cm-1)	intensity
96.976	0
101.157	196.221
105.336	235.206
109.513	115.521
113.688	356.313
117.861	861.057
122.032	1036.99
126.201	488.721
130.367	119.176
134.532	5.253
138.695	135.85
142.856	305.849
147.014	114.234
151.171	4.901
155.325	29.028
159.478	69.434
163.629	42.892
167.777	236.817
171.924	828.134
176.068	1470.96
180.211	1264.87
184.351	1343
188.49	1311.39
192.626	674.092
196.761	208.274
200.893	35.993
205.024	26.016
209.152	27.816
213.279	12.326
217.403	5.548
221.526	138.866
225.646	298.275
229.765	538.772
233.881	429.329
237.996	252.234
242.108	100.39
246.219	67.92
250.328	98.535
254.434	42.293
258.539	72.35
262.641	91.667
266.742	181.39
270.84	157.891
274.937	294.827
279.032	503.448
283.125	672.031
287.215	960.438
291.304	1461.86
295.391	2309.56
299.476	3304.95
303.558	3504.75
307.639	2471.98
311.718	1392.46
315.795	851.941
319.87	767.403
323.943	831.809
328.014	1098.28
332.083	1686.81
336.15	2068.38
340.215	1689.99
344.279	1438.62
348.34	1337.3
352.399	1547
356.457	2430.72
360.512	3877.47
364.565	7024.23
368.617	11995
372.666	13166.7
376.714	8428.86
380.76	4327.87
384.803	2242.02
388.845	1368.78
392.885	750.53
396.923	438.271
400.959	334.041
404.993	239.687
409.025	248.379
413.055	165.652
417.084	88.989
421.11	70.629
425.134	82.56
429.157	85.201
433.177	86.488
437.196	2.812
441.213	54.606
445.227	80.39
449.24	59.711
453.251	39.978
457.26	60.182
461.267	49.837
465.272	71.808
469.276	3.37
473.277	53.842
477.276	100.308
481.274	167.769
485.27	227.21
489.263	312.65
493.255	243.054
497.245	119.484
501.233	186.894
505.219	392.242
509.203	605.606
513.186	1106.71
517.166	1536.13
521.145	1439.29
525.121	762.387
529.096	327.458
533.069	54.465
537.04	87.398
541.009	92.279
544.976	177.108
548.941	267.845
552.905	266.491
556.866	86.043
560.826	90.483
564.784	133.779
568.74	41.952
572.694	32.821
576.646	116.852
580.596	94.225
584.544	41.362
588.491	8.138
592.435	34.895
596.378	100.095
600.319	75.566
604.258	138.634
608.195	93.885
612.131	44.85
616.064	56.733
619.995	254.729
623.925	264.029
627.853	319.726
631.779	420.556
635.703	699.681
639.625	1053.18
643.546	1836.2
647.464	3366.11
651.381	7170.76
655.296	11072.4
659.209	8510.63
663.12	4584.42
667.029	2402.39
670.937	1569.07
674.842	1084.79
678.746	775.252
682.648	592.11
686.548	342.922
690.447	513.93
694.343	429.963
698.238	373.899
702.13	342.598
706.021	227.329
709.91	251.961
713.798	236.441
717.683	196.124
721.567	136.578
725.448	62.535
729.328	145.851
733.206	88.861
737.083	245.875
740.957	203.164
744.83	211.111
748.701	151.909
752.57	262.306
756.437	206.528
760.302	131.892
764.166	138.405
768.027	81.724
771.887	87.187
775.745	144.799
779.602	129.403
783.456	92.971
787.309	136.416
791.16	45.706
795.009	40.897
798.856	104.982
802.702	96.966
806.545	66.789
810.387	14.584
814.227	76.937
818.065	18.357
821.902	29.619
825.737	114.21
829.569	35.027
833.401	13.817
837.23	103.231
841.057	152.223
844.883	197.203
848.707	330.187
852.529	143.167
856.35	236.18
860.168	119.274
863.985	58.211
867.8	5.532
871.613	98.716
875.425	61.942
879.234	4.958
883.042	18.356
886.848	141.844
890.653	5.471
894.455	139.179
898.256	102.983
902.055	46.852
905.852	160.778
909.648	174.754
913.442	158.77
917.233	212.828
921.024	26.934
924.812	211.084
928.599	125.309
932.384	139.126
936.167	263.153
939.948	372.095
943.728	121.926
947.506	216.338
951.282	216.224
955.056	400.145
958.829	357.282
962.6	416.151
966.369	440.866
970.136	438.677
973.902	612.392
977.666	797.305
981.428	701.141
985.188	1105.45
988.947	1456.97
992.704	2132.05
996.459	3528.11
1000.21	6543.69
1003.96	15589.4
1007.71	37103.4
1011.46	34229.9
1015.21	15308.6
1018.95	7775.38
1022.7	5621.89
1026.44	4513.16
1030.18	3277.45
1033.91	2194.55
1037.65	1471.58
1041.39	1028.66
1045.12	996.216
1048.85	814.155
1052.58	901.292
1056.31	778.364
1060.03	515.713
1063.76	343.381
1067.48	481.054
1071.2	318.993
1074.92	338.978
1078.63	326.661
1082.35	514.137
1086.06	351.555
1089.78	209.2
1093.49	256.771
1097.19	274.396
1100.9	142.167
1104.61	230.06
1108.31	327.834
1112.01	195.745
1115.71	73.854
1119.41	141.956
1123.11	259.872
1126.8	38.246
1130.5	3.006
1134.19	97.718
1137.88	97.018
1141.57	17.292
1145.25	37.556
1148.94	5.916
1152.62	81.738
1156.3	5.405
1159.98	0.006
1163.66	31.706
1167.34	168.487
1171.01	103.529
1174.68	72.887
1178.36	53.825
1182.02	21.711
1185.69	199.38
1189.36	126.372
1193.02	43.695
1196.69	129.292
1200.35	135.753
1204.01	82.105
1207.66	177.515
1211.32	113.109
1214.98	59.007
1218.63	304.857
1222.28	363.952
1225.93	249.481
1229.58	207.968
1233.22	338.469
1236.87	253.894
1240.51	187.976
1244.15	172.662
1247.79	336.2
1251.43	380.212
1255.07	443.478
1258.7	147.113
1262.33	180.331
1265.96	263.393
1269.59	146.309
1273.22	59.508
1276.85	104.025
1280.47	206.176
1284.1	297.831
1287.72	357.778
1291.34	187.579
1294.95	107.183
1298.57	148.372
1302.19	27.535
1305.8	142.168
1309.41	116.572
1313.02	213.998
1316.63	250.948
1320.23	225.369
1323.84	241.639
1327.44	157.277
1331.05	152.765
1334.64	147.916
1338.24	141.779
1341.84	265.759
1345.43	169.781
1349.03	414.264
1352.62	386.873
1356.21	329.341
1359.8	401.404
1363.39	285.803
1366.97	145.324
1370.56	13.203
1374.14	42.028
1377.72	330.75
1381.3	419.524
1384.87	307.896
1388.45	465.687
1392.02	442.959
1395.6	389.882
1399.17	355.318
1402.74	276.896
1406.3	176.832
1409.87	114.993
1413.43	19.279
1417	189.743
1420.56	311.578
1424.12	180.032
1427.67	529.688
1431.23	380.395
1434.79	209.091
1438.34	238.355
1441.89	198.411
1445.44	108.02
1448.99	94.05
1452.54	167.706
1456.08	260.195
1459.62	353.553
1463.17	325.209
1466.71	503.006
1470.24	468.539
1473.78	605.764
1477.32	427.434
1480.85	79.332
1484.38	357.15
1487.91	246.975
1491.44	205.914
1494.97	144.98
1498.5	204.314
1502.02	326.131
1505.54	410.463
1509.07	336.375
1512.59	160.779
1516.1	31.24
