Measurement: Raman, 514 nm, ccw, Raman Data Processed
Mineral: Hedenbergite
Rruff sample: R050030
Ideal chemistry: CaFe^2+^Si_2_O_6_
Locality: Heroult, Ontario, Canada
Source: University of Arizona Mineral Museum
Description: Green fragments
Measured chemistry: (Ca_.993_Na_.007_)(Fe_.860_Mn_.111_Mg_.029_)(Si_.993_Al_.007_)_2_O_6_
Pin_id: M00481
Orientation: Laser parallel to (-1 0 -1). Fiducial mark perpendicular to laser is parallel to b [0 1 0]
Raman shift (cm-1)	intensity
49.184	0
53.401	289.013
57.617	472.899
61.83	516.604
66.041	282.133
70.25	13.053
74.456	14.871
78.661	76.143
82.863	253.295
87.064	358.322
91.262	963.056
95.458	1181.91
99.652	1154.47
103.843	931.96
108.033	640.938
112.22	1077.2
116.406	552.937
120.589	594.401
124.77	693.998
128.949	358.202
133.126	229.295
137.301	264.948
141.473	387.842
145.644	586.095
149.812	535.484
153.979	766.048
158.143	607.101
162.305	534.786
166.465	463.189
170.623	544.785
174.778	1049.64
178.932	1436.12
183.083	1918.29
187.233	3174.23
191.38	2417.85
195.525	891.162
199.669	258.194
203.81	30.956
207.949	22.576
212.085	27.852
216.22	0.829
220.353	21.69
224.483	157.541
228.612	645.405
232.738	708.038
236.863	288.603
240.985	39.35
245.105	25.687
249.223	28.909
253.339	38.412
257.453	57.759
261.565	106.775
265.675	289.728
269.783	437.633
273.888	624.281
277.992	764.576
282.093	948.304
286.193	1286.6
290.29	1887.8
294.386	2535.99
298.479	3430.64
302.57	4308.8
306.659	4099.78
310.746	2863.19
314.831	1880.4
318.914	1497.49
322.995	1487.77
327.074	1780.4
331.151	2280.69
335.226	3035.77
339.299	3139.35
343.37	2198.78
347.438	1581.05
351.505	1447.17
355.57	1688.14
359.632	2271.97
363.693	3812.25
367.751	6720.53
371.808	9586.56
375.862	8230.94
379.914	4749.96
383.965	2458.39
388.013	1403.76
392.06	691.186
396.104	478.955
400.146	236.665
404.186	189.059
408.225	49.946
412.261	48.776
416.295	31.793
420.327	29.944
424.357	32.724
428.386	53.433
432.412	219.442
436.436	363.894
440.458	182.595
444.478	49.742
448.496	20.078
452.513	18.434
456.527	25.744
460.539	140.666
464.549	220.466
468.557	74.158
472.563	35.699
476.567	69.071
480.57	147.327
484.57	384.479
488.568	886.7
492.564	1514.85
496.558	1161.99
500.551	560.106
504.541	349.197
508.529	312.247
512.515	378.31
516.5	658.352
520.482	923.381
524.462	639.404
528.441	304.477
532.417	193.717
536.391	159.132
540.364	271.733
544.334	668.489
548.303	1740.26
552.269	1977.91
556.234	994.429
560.197	394.818
564.157	215.93
568.116	74.959
572.073	49.321
576.027	0.32
579.98	2.436
583.931	47.527
587.88	17.872
591.827	69.474
595.772	15.03
599.715	20.687
603.656	13.992
607.595	44.654
611.532	118.174
615.468	143.128
619.401	220.785
623.332	204.237
627.262	319.642
631.189	546.038
635.115	758.431
639.039	1110.55
642.96	1702.87
646.88	2810.61
650.798	5414.79
654.714	10652.5
658.628	14679.5
662.54	10724.9
666.45	5714.2
670.358	3020.56
674.264	1911.32
678.169	1209.54
682.071	816.665
685.972	569.996
689.87	443.482
693.767	443.694
697.662	481.749
701.555	483.645
705.446	352.385
709.335	259.97
713.222	157.403
717.107	145.689
720.99	206.83
724.872	168.54
728.751	181.623
732.629	140.979
736.504	128.751
740.378	162.974
744.25	257.981
748.12	296.713
751.988	361
755.854	448.9
759.719	337.391
763.581	277.771
767.442	236.702
771.3	161.976
775.157	87.318
779.012	71.565
782.865	36.743
786.716	2.108
790.565	4.922
794.413	11.391
798.258	14.787
802.102	7.865
805.943	28.583
809.783	1.418
813.621	39.387
817.457	0.456
821.292	0.276
825.124	15.893
828.954	37.587
832.783	41.438
836.61	38.411
840.435	15.535
844.258	77.971
848.079	229.524
851.898	390.124
855.715	286.095
859.531	127.058
863.345	133.149
867.157	171.372
870.967	151.72
874.775	115.232
878.581	133.363
882.386	184.74
886.188	268.766
889.989	357.583
893.788	361.349
897.585	371.991
901.38	482.919
905.174	489.099
908.965	478.476
912.755	457.049
916.543	254.784
920.329	200.673
924.113	26.621
927.895	33.848
931.676	48.938
935.454	27.64
939.231	38.812
943.006	51.431
946.78	207.607
950.551	168.979
954.32	200.305
958.088	241.871
961.854	341.87
965.618	343.765
969.38	390.963
973.141	473.33
976.9	565.397
980.656	750.799
984.411	1115.64
988.165	1333.16
991.916	1999.78
995.665	2956.35
999.413	5041.01
1003.16	9773.89
1006.9	22248.4
1010.65	41736.4
1014.39	28505.3
1018.12	13041.1
1021.86	7661.12
1025.6	6060.5
1029.33	4947.66
1033.06	3604.43
1036.79	2359.05
1040.52	1804.24
1044.25	1328.18
1047.97	1078.91
1051.69	839.662
1055.41	667.977
1059.13	593.439
1062.85	522.875
1066.57	460.336
1070.28	436.898
1073.99	378.01
1077.7	293.494
1081.41	353.02
1085.12	346.901
1088.82	252.273
1092.52	325.217
1096.22	209.197
1099.92	216.287
1103.62	247.286
1107.32	234.745
1111.01	241.807
1114.7	204.09
1118.39	237.648
1122.08	267.169
1125.77	46.146
1129.45	119.376
1133.14	95.803
1136.82	84.119
1140.5	42.975
1144.18	18.369
1147.85	116.376
1151.53	8.372
1155.2	39.958
1158.87	32.625
1162.54	80.328
1166.21	53.028
1169.88	134.635
1173.54	71.785
1177.2	23.431
1180.86	81.225
1184.52	70.089
1188.18	78.182
1191.83	97.423
1195.49	78.933
1199.14	146.665
1202.79	195.306
1206.44	120.086
1210.08	135.772
1213.73	95.239
1217.37	146.107
1221.01	223.45
1224.65	165.282
1228.29	278.592
1231.93	331.395
1235.56	197.019
1239.19	147.252
1242.83	144.972
1246.46	364.3
1250.08	256.811
1253.71	187.921
1257.33	203.702
1260.96	310.196
1264.58	197.067
1268.19	257.516
1271.81	184.861
1275.43	252.868
1279.04	221.21
1282.65	143.216
1286.27	133.42
1289.87	216.324
1293.48	133.344
1297.09	128.617
1300.69	149.532
1304.29	42.189
1307.89	73.445
1311.49	106.474
1315.09	134.673
1318.68	171.969
1322.28	111.98
1325.87	78.782
1329.46	127.786
1333.05	142.413
1336.63	147.196
1340.22	170.359
1343.8	208.149
1347.38	172.083
1350.96	237.945
1354.54	195.66
1358.12	141.396
1361.69	214.396
1365.26	198.091
1368.83	213.198
1372.4	256.585
1375.97	186.95
1379.54	45.375
1383.1	52.668
1386.66	237.442
1390.23	134.379
1393.79	207.108
1397.34	184.409
1400.9	52.273
1404.45	139.59
1408.01	61.451
1411.56	60.055
1415.11	73.645
1418.66	121.677
1422.2	70.371
1425.75	61.175
1429.29	58.749
1432.83	55.199
1436.37	113.317
1439.91	62.21
1443.44	88.186
1446.98	69.047
1450.51	219.381
1454.04	135.088
1457.57	70.337
1461.1	19.011
1464.63	13.798
1468.15	91.378
1471.67	106.212
1475.19	85.959
1478.71	92.932
1482.23	153.251
1485.75	82.19
1489.26	56.73
1492.78	86.883
1496.29	104.627
1499.8	62.158
1503.31	213.656
1506.81	203.629
1510.32	160.859
1513.82	155.462
1517.32	203.958
