Measurement: Raman, 514 nm, ccw, Raman Data Processed
Mineral: Hedenbergite
Rruff sample: R050030
Ideal chemistry: CaFe^2+^Si_2_O_6_
Locality: Heroult, Ontario, Canada
Source: University of Arizona Mineral Museum
Description: Green fragments
Measured chemistry: (Ca_.993_Na_.007_)(Fe_.860_Mn_.111_Mg_.029_)(Si_.993_Al_.007_)_2_O_6_
Pin_id: M00481
Orientation: Laser parallel to (-1 0 -1). Fiducial mark perpendicular to laser is parallel to b [0 1 0]
Raman shift (cm-1)	intensity
49.184	0
53.401	55.517
57.617	96.617
61.83	97.104
66.041	79.173
70.25	88.185
74.456	352.514
78.661	453.083
82.863	443.18
87.064	261.064
91.262	13.947
95.458	5.136
99.652	39.617
103.843	135.565
108.033	261.217
112.22	398.409
116.406	356.48
120.589	515.158
124.77	614.581
128.949	382.302
133.126	228.063
137.301	237.455
141.473	211.637
145.644	171.682
149.812	206.847
153.979	213.026
158.143	82.024
162.305	138.644
166.465	190.492
170.623	317.553
174.778	840.689
178.932	959.795
183.083	683.843
187.233	601.821
191.38	328.687
195.525	157.493
199.669	106.262
203.81	74.995
207.949	34.677
212.085	19.752
216.22	5.041
220.353	27.989
224.483	121.039
228.612	318.059
232.738	472.01
236.863	248.993
240.985	119.281
245.105	102.569
249.223	71.666
253.339	67.751
257.453	60.161
261.565	57.721
265.675	112.573
269.783	124.204
273.888	154.513
277.992	256.188
282.093	391.323
286.193	544.656
290.29	832.662
294.386	1229.88
298.479	1849.04
302.57	2482.54
306.659	2273.04
310.746	1630.15
314.831	1025.36
318.914	713.426
322.995	634.646
327.074	644.581
331.151	773.082
335.226	1087.37
339.299	1108.62
343.37	1004.84
347.438	963.029
351.505	1111.19
355.57	1517.32
359.632	2245.21
363.693	3755.08
367.751	6542.36
371.808	9492.36
375.862	8948.56
379.914	5411.43
383.965	2880.79
388.013	1547.87
392.06	913.376
396.104	586.775
400.146	364.095
404.186	222.031
408.225	158.265
412.261	114.447
416.295	16.563
420.327	1.385
424.357	26.5
428.386	11.591
432.412	55.31
436.436	25.573
440.458	28.814
444.478	42.344
448.496	24.269
452.513	1.699
456.527	9.088
460.539	86.695
464.549	122.423
468.557	46.916
472.563	103.361
476.567	20.757
480.57	12.107
484.57	37.423
488.568	131.714
492.564	175.99
496.558	180.277
500.551	134.543
504.541	230.768
508.529	317.965
512.515	553.166
516.5	909.323
520.482	1233.45
524.462	875.56
528.441	520.709
532.417	245.843
536.391	124.966
540.364	87.101
544.334	188.229
548.303	331.33
552.269	324.379
556.234	252.375
560.197	87.315
564.157	50.204
568.116	37.045
572.073	51.842
576.027	41.1
579.98	32.692
583.931	20.738
587.88	15.736
591.827	50.272
595.772	15.864
599.715	4.141
603.656	17.968
607.595	6.903
611.532	31.667
615.468	57.258
619.401	95.746
623.332	148.178
627.262	167.454
631.189	264.782
635.115	372.58
639.039	491.938
642.96	816.003
646.88	1400.94
650.798	2735.57
654.714	5495.75
658.628	7623.7
662.54	5791.94
666.45	3268.7
670.358	1906.84
674.264	1233.38
678.169	772.849
682.071	582.538
685.972	415.17
689.87	377.618
693.767	258.051
697.662	253.421
701.555	208.73
705.446	184.975
709.335	184.16
713.222	125.284
717.107	69.349
720.99	128.212
724.872	122.982
728.751	103.687
732.629	105.195
736.504	120.261
740.378	119.898
744.25	216.357
748.12	249.945
751.988	313.87
755.854	308.187
759.719	293.688
763.581	209.965
767.442	201.398
771.3	226.981
775.157	113.552
779.012	73.911
782.865	86.429
786.716	31.923
790.565	4.603
794.413	13.166
798.258	5.778
802.102	25.433
805.943	46.175
809.783	2.939
813.621	49.997
817.457	36.977
821.292	10.934
825.124	0.236
828.954	6.545
832.783	20.284
836.61	50.086
840.435	61.407
844.258	50.88
848.079	121.339
851.898	222.795
855.715	164.251
859.531	106.706
863.345	105.166
867.157	121.666
870.967	126.204
874.775	85.771
878.581	57.355
882.386	79.981
886.188	130.637
889.989	130.347
893.788	148.136
897.585	148.025
901.38	163.177
905.174	212.096
908.965	192.231
912.755	173.42
916.543	127.675
920.329	167.97
924.113	171.306
927.895	101.672
931.676	136.061
935.454	177.444
939.231	181.876
943.006	167.679
946.78	237.018
950.551	199.831
954.32	263.401
958.088	253.157
961.854	347.612
965.618	310.403
969.38	373.3
973.141	447.551
976.9	536.805
980.656	688.948
984.411	927.023
988.165	1185.77
991.916	1525.88
995.665	2225.94
999.413	3613.02
1003.16	7080.15
1006.9	15955.3
1010.65	30170.6
1014.39	20878.3
1018.12	9454.84
1021.86	5580.37
1025.6	4288.91
1029.33	3385.6
1033.06	2416.57
1036.79	1622.39
1040.52	1350.95
1044.25	990.088
1047.97	841.057
1051.69	770.899
1055.41	576.726
1059.13	493.676
1062.85	450.697
1066.57	352.301
1070.28	339.465
1073.99	367.927
1077.7	335.882
1081.41	340.811
1085.12	272.733
1088.82	293.666
1092.52	317.614
1096.22	264.698
1099.92	183.46
1103.62	190.485
1107.32	187.712
1111.01	163.921
1114.7	179.099
1118.39	176.379
1122.08	185.869
1125.77	114.209
1129.45	113.014
1133.14	140.945
1136.82	67.556
1140.5	110.448
1144.18	67.736
1147.85	14.473
1151.53	26.285
1155.2	19.254
1158.87	0.867
1162.54	26.568
1166.21	29.878
1169.88	74.167
1173.54	61.43
1177.2	24.502
1180.86	51.656
1184.52	83.738
1188.18	46.521
1191.83	13.554
1195.49	84.467
1199.14	51.036
1202.79	10.523
1206.44	25.932
1210.08	6.239
1213.73	26.734
1217.37	44.93
1221.01	39.256
1224.65	57.506
1228.29	66.825
1231.93	54.481
1235.56	65.812
1239.19	23.694
1242.83	32.404
1246.46	51.365
1250.08	50.078
1253.71	34.707
1257.33	104.259
1260.96	96.782
1264.58	20.277
1268.19	70.802
1271.81	12.138
1275.43	10.305
1279.04	47.561
1282.65	39.463
1286.27	77.259
1289.87	52.038
1293.48	29.633
1297.09	21.355
1300.69	16.247
1304.29	16.956
1307.89	32.792
1311.49	27.77
1315.09	46.319
1318.68	91.306
1322.28	77.437
1325.87	50.383
1329.46	76.86
1333.05	9.553
1336.63	17.551
1340.22	36.913
1343.8	38.288
1347.38	40.41
1350.96	129.655
1354.54	26.564
1358.12	128.983
1361.69	79.833
1365.26	36.106
1368.83	26.437
1372.4	41.425
1375.97	55.139
1379.54	82.666
1383.1	26.828
1386.66	121.077
1390.23	56.763
1393.79	122.427
1397.34	75.721
1400.9	137.236
1404.45	27.111
1408.01	10.749
1411.56	23.386
1415.11	64.996
1418.66	48.933
1422.2	30.091
1425.75	46.685
1429.29	102.427
1432.83	61.112
1436.37	53.214
1439.91	85.258
1443.44	59.001
1446.98	87.962
1450.51	24.23
1454.04	72.205
1457.57	67.816
1461.1	47.135
1464.63	68.208
1468.15	108.833
1471.67	85.608
1475.19	77.593
1478.71	149.657
1482.23	40.069
1485.75	92.325
1489.26	20.721
1492.78	39.73
1496.29	50.475
1499.8	100.375
1503.31	142.338
1506.81	105.69
1510.32	68.963
1513.82	125.703
1517.32	103.235
1520.82	0.177
