Measurement: Raman, 514 nm, ccw, Raman Data Processed
Mineral: Hedenbergite
Rruff sample: R060040
Ideal chemistry: CaFe^2+^Si_2_O_6_
Locality: Rio Marina, Elba, Italy
Source: University of Arizona Mineral Museum
Description: Radial aggregate of green thin bladed crystals
Measured chemistry: Ca_1.00_(Fe^2+^_0.89_Mg_0.09_Mn_0.02_)_Î£=1_Si_2.00_O_6_
Pin_id: M00548
Orientation: Laser parallel to c* (0 0 1). Fiducial mark perpendicular to laser is parallel to a [1 0 0]
Raman shift (cm-1)	intensity
262.49	0
266.136	158.208
269.782	223.585
273.425	201.004
277.068	227.934
280.709	180.284
284.348	172.618
287.986	514.282
291.622	387.144
295.257	733.051
298.891	1241.79
302.523	1431.26
306.154	1725.58
309.783	1711.62
313.41	1296.03
317.037	969.919
320.661	665.997
324.285	958.874
327.906	1073.39
331.527	1160.79
335.145	1415.25
338.763	1792.18
342.379	1752.81
345.993	1362.46
349.606	1185.63
353.218	1110.97
356.828	1361.42
360.436	1608.63
364.043	2173.34
367.649	3529.16
371.253	4508.39
374.856	5270.91
378.457	4098.78
382.057	2654.47
385.655	1430.12
389.252	874.207
392.847	436.24
396.441	191.424
400.034	43.6895
403.625	56.7637
407.214	152.652
410.802	38.8105
414.389	17.9141
417.974	60.5781
421.557	86.7188
425.139	115.014
428.72	174.475
432.299	121.613
435.877	294.607
439.453	259.031
443.028	267.1
446.601	99.7051
450.173	242.762
453.743	276.315
457.312	275.42
460.88	228.113
464.446	256.4
468.01	4.29297
471.573	18.7969
475.135	141.873
478.695	75.0898
482.253	15.9863
485.81	160.664
489.366	7.66211
492.92	198.361
496.473	382.879
500.024	170.225
503.574	179.398
507.122	241.416
510.669	246.217
514.214	555.803
517.758	691.025
521.301	506.059
524.842	463.967
528.381	383.785
531.919	522.621
535.456	262.494
538.991	439.375
542.524	311.398
546.056	539.416
549.587	681.656
553.116	621.162
556.644	470.69
560.17	285.117
563.695	259.34
567.218	217.377
570.74	246.156
574.26	298.029
577.779	302.268
581.296	168.315
584.812	332.059
588.327	338.783
591.84	287.815
595.351	231.947
598.861	380.656
602.37	330.656
605.877	315.893
609.383	499.719
612.887	676.277
616.39	787.527
619.891	779.533
623.391	797.481
626.889	677.529
630.386	713.916
633.881	888.598
637.375	815.109
640.867	1039.37
644.358	1377.18
647.848	1945.22
651.335	3358.21
654.822	3968.91
658.307	5256.87
661.791	5135.93
665.273	3549.42
668.753	2535.89
672.232	1502.3
675.71	1208.54
679.186	905.869
682.661	685.527
686.134	644.785
689.606	605.068
693.076	609.652
696.545	585.982
700.013	398.143
703.478	458.615
706.943	378.051
710.406	347.32
713.867	433.481
717.327	313.377
720.786	444.303
724.243	299.078
727.698	377.478
731.153	207.9
734.605	166.348
738.056	385.58
741.506	214.586
744.954	311.065
748.401	458.922
751.846	238.732
755.29	353.582
758.733	319.295
762.173	251.772
765.613	74.6094
769.051	159.432
772.487	45.7168
775.922	13.8535
779.356	31.5859
782.788	193.773
786.218	19.6523
789.648	145.557
793.075	12.2461
796.501	23.1094
799.926	110.08
803.349	50.4102
806.771	147.371
810.191	114.576
813.61	30.2402
817.027	15.2109
820.443	75.9277
823.858	69.6934
827.271	42.7852
830.682	48.8223
834.092	152.414
837.501	75.6094
840.908	60.4688
844.313	269.457
847.717	376.643
851.12	209.709
854.521	407.695
857.921	303.469
861.319	99.0371
864.716	70.6055
868.111	125.4
871.505	337.24
874.897	73.8633
878.288	333.197
881.677	288.361
885.065	317.303
888.452	269.037
891.837	16.5469
895.22	309.772
898.602	450.449
901.983	462.07
905.362	190.428
908.74	426.322
912.116	323.633
915.49	324.103
918.864	238.205
922.235	114.598
925.606	152.906
928.974	255.26
932.342	50.6621
935.708	122.969
939.072	58.9258
942.435	246.228
945.796	58.9492
949.156	94.3555
952.515	71.1133
955.872	318.85
959.228	172.08
962.582	117.488
965.934	175.732
969.285	412.619
972.635	59.1699
975.983	230.996
979.33	516.367
982.675	445.422
986.019	558.211
989.362	756.988
992.702	1202.06
996.042	1780.78
999.38	2280.41
1002.72	4437.23
1006.05	8828.14
1009.38	15034.7
1012.72	15427
1016.05	9285.31
1019.38	5012.73
1022.7	3269.33
1026.03	2461.19
1029.36	2213.86
1032.68	1710.68
1036	1223.44
1039.32	765.83
1042.64	628.672
1045.96	665.932
1049.27	348.658
1052.59	447.877
1055.9	431.115
1059.21	427.904
1062.52	324.935
1065.83	320.734
1069.14	361.463
1072.44	350.123
1075.75	409.959
1079.05	360.494
1082.35	556.809
1085.65	637.666
1088.95	752.014
1092.25	225.172
1095.54	125.404
1098.84	370.211
1102.13	248.94
1105.42	145.701
1108.71	62.0332
1112	148.41
1115.28	20.9492
1118.57	167.408
1121.85	154.994
1125.13	106.242
1128.41	95.1133
1131.69	34.1914
1134.97	91.918
1138.25	71.8496
1141.52	297.414
1144.8	196.769
1148.07	85.3106
1151.34	225.486
1154.61	322.777
1157.87	82.6914
1161.14	31.6602
1164.4	41.4707
1167.67	118.279
1170.93	141.869
1174.19	298.338
1177.45	93.2754
1180.71	138.154
1183.96	301.637
1187.22	180.336
1190.47	144.568
1193.72	61.8066
1196.97	314.955
1200.22	91.0273
1203.46	90.0078
1206.71	179.975
1209.95	151.174
1213.2	237.049
1216.44	307.928
1219.68	139.779
1222.92	28.4551
1226.15	390.086
1229.39	233.617
1232.62	310.062
1235.86	37.4375
1239.09	93.3086
1242.32	137.213
1245.54	232.775
1248.77	42.2773
1251.99	256.15
1255.22	64.6348
1258.44	78.1484
1261.66	124.516
1264.88	237.695
1268.1	12.4414
1271.31	202.305
1274.53	438.723
1277.74	316.508
1280.95	399.769
1284.16	295.336
1287.37	494.262
1290.58	104.59
1293.79	77.7188
1296.99	225.844
1300.19	302.414
1303.39	271.594
1306.6	360.871
1309.79	415.867
1312.99	87.457
1316.19	422.894
1319.38	183.703
1322.57	454.113
1325.77	165.137
1328.96	341.176
1332.14	480
1335.33	19.1523
1338.52	369.527
1341.7	689.535
1344.88	656.793
1348.06	378.832
1351.24	454.195
1354.42	449.231
1357.6	441.867
1360.77	247.918
1363.95	150.492
1367.12	273.973
1370.29	236.062
1373.46	284.66
1376.63	257.773
1379.8	146.371
1382.96	129.504
1386.12	290.441
1389.29	155.066
1392.45	73.1289
1395.61	330.836
1398.76	252.344
1401.92	210.777
1405.08	60.1016
1408.23	226.285
1411.38	54.6016
1414.53	215.199
1417.68	53.8945
1420.83	314.957
1423.97	298.438
1427.12	265.656
1430.26	77.0703
1433.4	126.254
1436.54	302.758
1439.68	441.625
1442.82	200.527
1445.95	287.809
1449.09	270.344
1452.22	338.227
1455.35	29.832
1458.48	184.094
1461.61	75.6602
1464.74	164.231
1467.87	183.887
1470.99	1.55859
1474.11	43.293
1477.23	177.078
1480.35	13.9336
1483.47	300.035
1486.59	332.188
1489.7	175.445
1492.82	245.09
1495.93	166.125
1499.04	21.3945
1502.15	318.211
1505.26	71.3438
1508.37	159.859
1511.47	68.5742
1514.58	465.414
1517.68	218.039
1520.78	407.82
1523.88	215.797
1526.98	495.961
1530.07	360.781
1533.17	437.891
1536.26	538.711
1539.35	436.746
1542.44	361.602
1545.53	487.203
1548.62	264.285
1551.71	481.316
1554.79	282.203
1557.88	443.559
1560.96	83.4648
1564.04	310.449
1567.12	314.328
1570.2	492.723
1573.27	158.398
