Measurement: Raman, 514 nm, ccw, Raman Data Processed
Mineral: Hedenbergite
Rruff sample: R060040
Ideal chemistry: CaFe^2+^Si_2_O_6_
Locality: Rio Marina, Elba, Italy
Source: University of Arizona Mineral Museum
Description: Radial aggregate of green thin bladed crystals
Measured chemistry: Ca_1.00_(Fe^2+^_0.89_Mg_0.09_Mn_0.02_)_Î£=1_Si_2.00_O_6_
Pin_id: M01289
Orientation: Laser parallel to a* (1 0 0). Fiducial mark perpendicular to laser is parallel to b [0 1 0]
Raman shift (cm-1)	intensity
262.49	0
266.136	89.7988
269.782	21.5381
273.425	161.976
277.068	31.9004
280.709	178.005
284.348	284.89
287.986	498.045
291.622	536.049
295.257	767.426
298.891	1300.37
302.523	1874.39
306.154	2484.8
309.783	2416.13
313.41	1744.5
317.037	1130.08
320.661	927.477
324.285	822.186
327.906	916.375
331.527	1017.28
335.145	1412.13
338.763	1851.21
342.379	1818.67
345.993	1364.65
349.606	1261.3
353.218	928.497
356.828	1070.04
360.436	1346.41
364.043	1767.39
367.649	2816.48
371.253	4154.03
374.856	5467.83
378.457	4811.48
382.057	3103.95
385.655	1600.14
389.252	940.029
392.847	596.62
396.441	305.921
400.034	82.9463
403.625	204.696
407.214	26.4727
410.802	66.4463
414.389	34.2051
417.974	56.584
421.557	9.57227
425.139	20.7861
428.72	58.1318
432.299	69.2793
435.877	7.24609
439.453	19.0293
443.028	18.3252
446.601	106.746
450.173	47.9121
453.743	126.978
457.312	193.826
460.88	7.93066
464.446	150.193
468.01	66.6602
471.573	25.9561
475.135	93.0498
478.695	238.474
482.253	237.662
485.81	209.035
489.366	345.838
492.92	457.496
496.473	699.848
500.024	578.687
503.574	483.172
507.122	521.368
510.669	568.238
514.214	486.872
517.758	789.278
521.301	902.565
524.842	699.801
528.381	546.871
531.919	582.83
535.456	527.648
538.991	437.296
542.524	551.287
546.056	631.314
549.587	609.845
553.116	642.26
556.644	634.798
560.17	568.979
563.695	337.712
567.218	369.144
570.74	442.398
574.26	318.488
577.779	166.613
581.296	165.783
584.812	81.8516
588.327	31.9805
591.84	8.75
595.351	109.886
598.861	33.5293
602.37	34.8213
605.877	146.851
609.383	31.001
612.887	75.9814
616.39	143.043
619.891	36.7978
623.391	267.794
626.889	204.329
630.386	252.056
633.881	429.59
637.375	491.577
640.867	706.14
644.358	948.644
647.848	1531.05
651.335	2685.53
654.822	5423.14
658.307	7699.49
661.791	8827.22
665.273	6114.98
668.753	3393.08
672.232	1960.05
675.71	1185.05
679.186	832.058
682.661	716.75
686.134	477.692
689.606	357.389
693.076	425.839
696.545	358.884
700.013	254.273
703.478	371.518
706.943	354.879
710.406	224.749
713.867	220.59
717.327	237.884
720.786	170.293
724.243	80.8809
727.698	141.625
731.153	42.6426
734.605	227.734
738.056	51.0127
741.506	206.317
744.954	164.804
748.401	120.851
751.846	129.743
755.29	196.323
758.733	237.441
762.173	108.418
765.613	11.1777
769.051	169.305
772.487	16.001
775.922	136.607
779.356	74.1348
782.788	58.5801
786.218	172.945
789.648	76.208
793.075	35.3535
796.501	48.2676
799.926	30.0371
803.349	15.3955
806.771	43.8496
810.191	118.295
813.61	51.3682
817.027	91.7109
820.443	13.5645
823.858	44.2549
827.271	89.7988
830.682	66.9297
834.092	31.6934
837.501	53.5781
840.908	15.1914
844.313	176.957
847.717	299.069
851.12	288.853
854.521	538.838
857.921	290.092
861.319	130.858
864.716	324.789
868.111	294.144
871.505	276.858
874.897	240.582
878.288	78.499
881.677	248.358
885.065	286.507
888.452	211.684
891.837	233.856
895.22	227.664
898.602	236.905
901.983	222.228
905.362	126.653
908.74	44.541
912.116	149.831
915.49	220.969
918.864	230.06
922.235	99.2549
925.606	317.146
928.974	217.605
932.342	56.4238
935.708	140.388
939.072	95.3789
942.435	146.06
945.796	120.011
949.156	109.291
952.515	60.6826
955.872	179.892
959.228	98.1416
962.582	58.4717
965.934	111.935
969.285	227.329
972.635	131.086
975.983	272.477
979.33	174.158
982.675	413.088
986.019	315.06
989.362	506.078
992.702	854.143
996.042	1246.26
999.38	1855.42
1002.72	3608.63
1006.05	6803.93
1009.38	12872.3
1012.72	17930.7
1016.05	12049
1019.38	6179.51
1022.7	3413.08
1026.03	2489.69
1029.36	2173.38
1032.68	1792.63
1036	1427.65
1039.32	1120.25
1042.64	927.929
1045.96	769.027
1049.27	477.137
1052.59	737.363
1055.9	607.59
1059.21	504.25
1062.52	509.522
1065.83	363.17
1069.14	486.691
1072.44	313.89
1075.75	352.884
1079.05	425.625
1082.35	245.392
1085.65	356.857
1088.95	239.764
1092.25	269.715
1095.54	343.286
1098.84	137.383
1102.13	172.509
1105.42	134.674
1108.71	281.931
1112	251.154
1115.28	206.394
1118.57	115.644
1121.85	96.9053
1125.13	104.201
1128.41	268.484
1131.69	258.773
1134.97	125.135
1138.25	167.208
1141.52	37.9853
1144.8	3.85449
1148.07	13.7012
1151.34	68.2041
1154.61	6.41602
1157.87	245.634
1161.14	21.7441
1164.4	88.7656
1167.67	215.154
1170.93	16.9854
1174.19	37.2441
1177.45	153.655
1180.71	41.0059
1183.96	21.2959
1187.22	9.43359
1190.47	139.776
1193.72	13.9658
1196.97	123.174
1200.22	117.357
1203.46	35.5352
1206.71	121.722
1209.95	84.876
1213.2	50.0147
1216.44	129.136
1219.68	181.227
1222.92	64.2881
1226.15	125.614
1229.39	80.5713
1232.62	306.494
1235.86	169.384
1239.09	94.4785
1242.32	167.296
1245.54	170.076
1248.77	198.82
1251.99	46.5312
1255.22	229.212
1258.44	287.854
1261.66	38.46
1264.88	126.023
1268.1	93.5488
1271.31	124.035
1274.53	262.481
1277.74	196.07
1280.95	211.461
1284.16	325.573
1287.37	122.862
1290.58	141.08
1293.79	176.735
1296.99	71.2695
1300.19	62.665
1303.39	277.217
1306.6	186.9
1309.79	248.577
1312.99	153.099
1316.19	135.306
1319.38	248.942
1322.57	137.976
1325.77	273.616
1328.96	226.236
1332.14	184.829
1335.33	225.129
1338.52	571.71
1341.7	236.579
1344.88	90.1143
1348.06	273.642
1351.24	16.8516
1354.42	237.413
1357.6	86.8848
1360.77	284.348
1363.95	0.806641
1367.12	117.205
1370.29	106.639
1373.46	85.0654
1376.63	270.479
1379.8	253.599
1382.96	125.941
1386.12	239.293
1389.29	144.528
1392.45	105.805
1395.61	363.088
1398.76	234.341
1401.92	87.7481
1405.08	99.0557
1408.23	94.7285
1411.38	120.802
1414.53	112.162
1417.68	169.596
1420.83	6.92969
1423.97	113.548
1427.12	218.568
1430.26	175.032
1433.4	154.944
1436.54	212.908
1439.68	66.0059
1442.82	228.296
1445.95	134.704
1449.09	177.227
1452.22	61.3193
1455.35	144.339
1458.48	194.383
1461.61	259.406
1464.74	33.0254
1467.87	154.068
1470.99	189.904
1474.11	192.052
1477.23	26.2334
1480.35	51.4375
1483.47	218.683
1486.59	33.9824
1489.7	19.3457
1492.82	261.739
1495.93	376.007
1499.04	79.8457
1502.15	218.57
1505.26	86.2519
1508.37	90.3965
1511.47	55.6016
1514.58	24.4883
1517.68	22.3867
1520.78	134.35
1523.88	125.318
1526.98	195.356
1530.07	156.494
1533.17	146.674
1536.26	157.029
1539.35	164.57
1542.44	160.93
1545.53	114.377
1548.62	5.44336
1551.71	79.7949
1554.79	390.379
1557.88	120.932
1560.96	180.336
1564.04	119.557
1567.12	80.4531
1570.2	32.1777
1573.27	158.734
