Measurement: Raman, 514 nm, ccw, Raman Data Processed
Mineral: Hedenbergite
Rruff sample: R050030
Ideal chemistry: CaFe^2+^Si_2_O_6_
Locality: Heroult, Ontario, Canada
Source: University of Arizona Mineral Museum
Description: Green fragments
Measured chemistry: (Ca_.993_Na_.007_)(Fe_.860_Mn_.111_Mg_.029_)(Si_.993_Al_.007_)_2_O_6_
Pin_id: M00284
Orientation: Laser parallel to -b* (0 -1 0). Fiducial mark perpendicular to laser is parallel to -c [0 0 -1]
Raman shift (cm-1)	intensity
87.064	0
91.262	1.361
95.458	49.111
99.652	143.045
103.843	483.927
108.033	748.406
112.22	1289.44
116.406	1752.04
120.589	3175.95
124.77	4078.37
128.949	2640.68
133.126	1293.31
137.301	1001.69
141.473	871.57
145.644	758.836
149.812	679.429
153.979	671.428
158.143	695.53
162.305	859.887
166.465	988.243
170.623	948.287
174.778	1415.05
178.932	1475.11
183.083	766.8
187.233	460.928
191.38	261.451
195.525	216.511
199.669	114.404
203.81	101.038
207.949	49.042
212.085	6.138
216.22	105.324
220.353	116.663
224.483	83.16
228.612	363.721
232.738	451.343
236.863	220.014
240.985	91.7
245.105	24.042
249.223	31.136
253.339	40.49
257.453	67.303
261.565	69.637
265.675	181.984
269.783	557.092
273.888	669.396
277.992	601.845
282.093	465.992
286.193	346.281
290.29	540.609
294.386	882.972
298.479	1464.33
302.57	2226.49
306.659	2397.72
310.746	1930.11
314.831	1535.9
318.914	1415
322.995	1766.3
327.074	2263.13
331.151	2260.93
335.226	1907.72
339.299	1338.55
343.37	859.125
347.438	561.531
351.505	483.102
355.57	550.25
359.632	573.332
363.693	912.027
367.751	1667.8
371.808	2480.85
375.862	2485.19
379.914	1634.85
383.965	900.507
388.013	550.731
392.06	262.921
396.104	232.027
400.146	183.129
404.186	90.507
408.225	91.185
412.261	52.054
416.295	54.551
420.327	57.805
424.357	66.087
428.386	71.988
432.412	14.883
436.436	59.085
440.458	13.496
444.478	4.804
448.496	16.636
452.513	29.676
456.527	29.228
460.539	22.667
464.549	5.314
468.557	28.595
472.563	29.379
476.567	47.736
480.57	10.422
484.57	94.727
488.568	227.804
492.564	307.853
496.558	108.796
500.551	139.699
504.541	17.476
508.529	50.04
512.515	12.465
516.5	104.691
520.482	137.741
524.462	107.632
528.441	80.354
532.417	51.879
536.391	157.197
540.364	95.317
544.334	142.413
548.303	283.396
552.269	266.693
556.234	191.165
560.197	133.758
564.157	16.587
568.116	127.138
572.073	205.314
576.027	83.617
579.98	90.192
583.931	175.613
587.88	88.59
591.827	113.146
595.772	86.222
599.715	194.624
603.656	252.243
607.595	188.233
611.532	237.32
615.468	265.846
619.401	395.645
623.332	408.923
627.262	536.241
631.189	683.449
635.115	926.92
639.039	1235.95
642.96	1840.65
646.88	3039.06
650.798	5493
654.714	10609.8
658.628	13565.4
662.54	9571.58
666.45	4782.86
670.358	2389.24
674.264	1499.03
678.169	926.306
682.071	576.348
685.972	462.612
689.87	368.425
693.767	214.265
697.662	249.724
701.555	105.423
705.446	230.938
709.335	176.401
713.222	91.675
717.107	36.558
720.99	97.421
724.872	81.236
728.751	34.802
732.629	58.568
736.504	130.928
740.378	144.502
744.25	187.683
748.12	210.887
751.988	274.219
755.854	247.806
759.719	141.301
763.581	134.486
767.442	97.766
771.3	9.092
775.157	6.146
779.012	6.686
782.865	99.435
786.716	29.319
790.565	4.722
794.413	27.234
798.258	49.482
802.102	68.601
805.943	22.976
809.783	45.705
813.621	115.256
817.457	26.081
821.292	26.77
825.124	52.714
828.954	47.63
832.783	42.123
836.61	107.956
840.435	367.963
844.258	707.919
848.079	1357.84
851.898	1577.73
855.715	957.151
859.531	617.048
863.345	296.126
867.157	185.562
870.967	264.712
874.775	104.198
878.581	28.979
882.386	57.753
886.188	117.077
889.989	76.734
893.788	201.259
897.585	145.698
901.38	135.604
905.174	185.485
908.965	148.959
912.755	225.143
916.543	204.908
920.329	224.121
924.113	201.581
927.895	196.137
931.676	242.329
935.454	270.64
939.231	289.049
943.006	176.734
946.78	312.205
950.551	245.615
954.32	290.622
958.088	399.082
961.854	386.928
965.618	302.191
969.38	320.9
973.141	395.883
976.9	521.217
980.656	620.789
984.411	857.777
988.165	997.56
991.916	1319.45
995.665	2419.94
999.413	3122.99
1003.16	6086.15
1006.9	14015.9
1010.65	26076.2
1014.39	18163
1018.12	8027.27
1021.86	4030.66
1025.6	2877.09
1029.33	2128.09
1033.06	1689.25
1036.79	1032.62
1040.52	872.832
1044.25	808.5
1047.97	671.114
1051.69	632.035
1055.41	573.231
1059.13	583.727
1062.85	464.924
1066.57	335.437
1070.28	335.321
1073.99	365.569
1077.7	395.78
1081.41	455.213
1085.12	645.151
1088.82	344.771
1092.52	425.056
1096.22	295.027
1099.92	234.98
1103.62	304.122
1107.32	244.184
1111.01	323.649
1114.7	313.136
1118.39	211.928
1122.08	260.507
1125.77	99.941
1129.45	240.19
1133.14	169.783
1136.82	309.793
1140.5	29.004
1144.18	58.479
1147.85	59.502
1151.53	47.48
1155.2	124.526
1158.87	16.386
1162.54	186.004
1166.21	18.232
1169.88	164.2
1173.54	41.043
1177.2	67.32
1180.86	64.979
1184.52	110.863
1188.18	177.447
1191.83	134.494
1195.49	130.379
1199.14	95.135
1202.79	129.174
1206.44	22.9
1210.08	85.984
1213.73	178.639
1217.37	171.414
1221.01	313.961
1224.65	246.74
1228.29	269.834
1231.93	242.115
1235.56	73.18
1239.19	133.283
1242.83	302.836
1246.46	232.061
1250.08	371.205
1253.71	309.531
1257.33	267.66
1260.96	355.98
1264.58	313.105
1268.19	181.691
1271.81	300.896
1275.43	397.438
1279.04	313.006
1282.65	276.867
1286.27	126.557
1289.87	246.508
1293.48	3.971
1297.09	5.789
1300.69	125.602
1304.29	29.068
1307.89	93.477
1311.49	246.264
1315.09	203.039
1318.68	207.945
1322.28	246.598
1325.87	161.367
1329.46	35.758
1333.05	10.816
1336.63	95.014
1340.22	199.893
1343.8	383.16
1347.38	235.551
1350.96	358.393
1354.54	370.955
1358.12	464.926
1361.69	214.07
1365.26	221.744
1368.83	63.545
1372.4	383.791
1375.97	310.428
1379.54	258.428
1383.1	539.58
1386.66	568.229
1390.23	476.393
1393.79	258.738
1397.34	237.023
1400.9	106.334
1404.45	294.996
1408.01	28.371
1411.56	254.338
1415.11	398.965
1418.66	476.516
1422.2	422.312
1425.75	513.598
1429.29	535.857
1432.83	380.432
1436.37	223.92
1439.91	144.561
1443.44	12.652
1446.98	0
