Measurement: Raman, 514 nm, ccw, Raman Data Processed
Mineral: Hedenbergite
Rruff sample: R060040
Ideal chemistry: CaFe^2+^Si_2_O_6_
Locality: Rio Marina, Elba, Italy
Source: University of Arizona Mineral Museum
Description: Radial aggregate of green thin bladed crystals
Measured chemistry: Ca_1.00_(Fe^2+^_0.89_Mg_0.09_Mn_0.02_)_Î£=1_Si_2.00_O_6_
Pin_id: M01578
Orientation: Laser parallel to (-1 0 -1). Fiducial mark perpendicular to laser is parallel to -b [0 -1 0]
Raman shift (cm-1)	intensity
262.49	0
266.136	109.14
269.782	154.367
273.425	198.157
277.068	68.2393
280.709	264.45
284.348	539.382
287.986	604.909
291.622	635.303
295.257	1018.07
298.891	1376.2
302.523	1790.84
306.154	2451.2
309.783	2442.89
313.41	1741.16
317.037	1065.73
320.661	883.55
324.285	679.442
327.906	836.515
331.527	1025.87
335.145	1304.58
338.763	1493.08
342.379	1458.04
345.993	1267.79
349.606	1009.12
353.218	984.7
356.828	1251.37
360.436	1814.02
364.043	2721.93
367.649	4322.32
371.253	6630.38
374.856	8831.65
378.457	7934.66
382.057	5046.34
385.655	2791.89
389.252	1487.27
392.847	900.491
396.441	439.553
400.034	347.465
403.625	205.232
407.214	238.309
410.802	186.49
414.389	82.7871
417.974	92.8125
421.557	246.23
425.139	102.091
428.72	68.6133
432.299	82.1094
435.877	59.7852
439.453	81.4297
443.028	114.367
446.601	102.202
450.173	79.3076
453.743	69.9414
457.312	34.7891
460.88	48.6162
464.446	27.9238
468.01	219.825
471.573	68.792
475.135	12.373
478.695	114.494
482.253	156.847
485.81	288.721
489.366	387.857
492.92	420.512
496.473	442.055
500.024	469.438
503.574	414.57
507.122	480.335
510.669	566.886
514.214	632.278
517.758	1028.62
521.301	1232.86
524.842	1025.99
528.381	742.03
531.919	451.14
535.456	487.198
538.991	383.176
542.524	526.069
546.056	410.906
549.587	750.706
553.116	636.455
556.644	642.282
560.17	511.414
563.695	169.8
567.218	134.305
570.74	183.388
574.26	143.159
577.779	2.20996
581.296	46.1602
584.812	55.6094
588.327	81.8936
591.84	95.3584
595.351	5.59668
598.861	60.081
602.37	278.249
605.877	111.314
609.383	49.6309
612.887	151.575
616.39	13.3477
619.891	105.01
623.391	195.82
626.889	287.382
630.386	375.635
633.881	330.68
637.375	475.739
640.867	691.748
644.358	986.899
647.848	1639.66
651.335	2493.53
654.822	4224.9
658.307	6468.66
661.791	7355.18
665.273	5190.22
668.753	3156.75
672.232	1718
675.71	1231.63
679.186	836.473
682.661	654.658
686.134	538.459
689.606	524.189
693.076	401.672
696.545	457.381
700.013	560.727
703.478	189.988
706.943	308.873
710.406	470.111
713.867	197.019
717.327	447.783
720.786	171.703
724.243	172.973
727.698	206.924
731.153	160.31
734.605	216.568
738.056	313.262
741.506	231.861
744.954	315.324
748.401	259.01
751.846	204.342
755.29	336.891
758.733	246.15
762.173	301.801
765.613	260.353
769.051	65.8164
772.487	263.17
775.922	189.393
779.356	231.512
782.788	521.539
786.218	242.478
789.648	44.666
793.075	61.9473
796.501	57.9941
799.926	220.07
803.349	108.287
806.771	87.918
810.191	97.6328
813.61	219.793
817.027	49.0449
820.443	144.148
823.858	20.9414
827.271	82.7109
830.682	89.2481
834.092	84.709
837.501	27.0996
840.908	205.394
844.313	67.5762
847.717	442.693
851.12	349.68
854.521	299.695
857.921	187.644
861.319	226.609
864.716	150.559
868.111	366.721
871.505	283.338
874.897	342.268
878.288	268.223
881.677	340.174
885.065	247.315
888.452	377.447
891.837	225.523
895.22	116.629
898.602	95.582
901.983	611.436
905.362	276.328
908.74	466.935
912.116	294.129
915.49	467.231
918.864	186.039
922.235	335.103
925.606	313.088
928.974	49.8691
932.342	119.617
935.708	37.7422
939.072	203.977
942.435	114.459
945.796	70.0059
949.156	228.397
952.515	134.508
955.872	227.481
959.228	178.615
962.582	335.682
965.934	417.639
969.285	409.231
972.635	253.902
975.983	303.117
979.33	408.272
982.675	611.559
986.019	732.006
989.362	1095.49
992.702	1342.01
996.042	1907.68
999.38	3064.28
1002.72	5452.98
1006.05	10407.7
1009.38	18957.6
1012.72	25241.5
1016.05	16904
1019.38	8729.47
1022.7	5102.98
1026.03	3789.02
1029.36	3168.09
1032.68	2849.55
1036	2097.42
1039.32	1516.69
1042.64	1186.95
1045.96	808.201
1049.27	844.561
1052.59	381.947
1055.9	606.356
1059.21	372.805
1062.52	272.486
1065.83	306.023
1069.14	213.764
1072.44	214.426
1075.75	353.324
1079.05	252.207
1082.35	281.713
1085.65	431.801
1088.95	269.416
1092.25	216.652
1095.54	134.982
1098.84	167.324
1102.13	237.678
1105.42	24.3848
1108.71	151.779
1112	299.19
1115.28	325.6
1118.57	281.31
1121.85	348.84
1125.13	59.2402
1128.41	230.637
1131.69	78.0332
1134.97	59.5684
1138.25	106.848
1141.52	7.10547
1144.8	9.34766
1148.07	109.561
1151.34	75.6992
1154.61	59.793
1157.87	24.8652
1161.14	157.922
1164.4	102.883
1167.67	196.488
1170.93	98.5606
1174.19	194.793
1177.45	163.539
1180.71	80.7637
1183.96	49.375
1187.22	267.963
1190.47	91.5234
1193.72	109.014
1196.97	62.8125
1200.22	149.283
1203.46	8.64844
1206.71	149.381
1209.95	134.736
1213.2	120.061
1216.44	177.822
1219.68	202.975
1222.92	91.5801
1226.15	431.147
1229.39	86.6777
1232.62	197.178
1235.86	165.533
1239.09	142.799
1242.32	224.027
1245.54	123.228
1248.77	123.389
1251.99	105.512
1255.22	447.598
1258.44	228.525
1261.66	110.555
1264.88	15.6504
1268.1	173.391
1271.31	188.062
1274.53	134.723
1277.74	196.914
1280.95	163.109
1284.16	37.3887
1287.37	389.15
1290.58	357.902
1293.79	228.283
1296.99	304.258
1300.19	94.1484
1303.39	83.3789
1306.6	77
1309.79	27.5273
1312.99	50.0605
1316.19	403.602
1319.38	246.147
1322.57	82.8301
1325.77	247.744
1328.96	242.328
1332.14	235.394
1335.33	57.0508
1338.52	265.943
1341.7	233.477
1344.88	311.027
1348.06	286.123
1351.24	286.713
1354.42	307.332
1357.6	400.963
1360.77	349.629
1363.95	212.99
1367.12	260.744
1370.29	188.543
1373.46	447.389
1376.63	224.981
1379.8	117.805
1382.96	214.815
1386.12	221.883
1389.29	227.008
1392.45	76.0742
1395.61	120.404
1398.76	282.312
1401.92	73.8242
1405.08	339.453
1408.23	82.9746
1411.38	166.865
1414.53	292.885
1417.68	77.0391
1420.83	411.397
1423.97	130.107
1427.12	246.797
1430.26	260.143
1433.4	196.522
1436.54	300.379
1439.68	143.908
1442.82	98.4902
1445.95	244.238
1449.09	332.023
1452.22	365.137
1455.35	137.234
1458.48	14.5254
1461.61	491.512
1464.74	163.191
1467.87	83.9863
1470.99	198.035
1474.11	182.287
1477.23	402.693
1480.35	307.988
1483.47	242.676
1486.59	186.859
1489.7	228.211
1492.82	304.621
1495.93	569.953
1499.04	181.435
1502.15	304.238
1505.26	158.408
1508.37	284.773
1511.47	429.34
1514.58	126.1
1517.68	245.34
1520.78	202.062
1523.88	282.221
1526.98	569.838
1530.07	231.031
1533.17	119.783
1536.26	422.152
1539.35	618.258
1542.44	244.185
1545.53	362.102
1548.62	236.182
1551.71	503.994
1554.79	195.861
1557.88	374.502
1560.96	566.629
1564.04	257.262
1567.12	256.522
1570.2	209.141
1573.27	0.146484
