Measurement: Raman, 514 nm, ccw, Raman Data Processed
Mineral: Hemimorphite
Rruff sample: R040117
Ideal chemistry: Zn_4_Si_2_O_7_(OH)_2_H_2_O
Locality: Durango, Mexico
Source: University of Arizona Mineral Museum
Description: Colorless thin tabular crystals in a sheaflike aggregate
Measured chemistry: Zn_4.05_Si_1.97_O_7_((OH)_0.99_F_0.01_)_2_Â·H_2_O
Pin_id: L00159
Orientation: Laser parallel to -a* (-1 0 0). Fiducial mark perpendicular to laser is parallel to b [0 1 0]
Raman shift (cm-1)	intensity
102.428	0
105.212	212.234
107.995	933.539
110.777	1244.3
113.559	1696.97
116.339	2113.9
119.119	2440.83
121.897	3413.11
124.675	5431.1
127.452	8212.01
130.228	11480.1
133.003	13702.5
135.777	13376.8
138.55	10254.4
141.323	7124.33
144.094	4942.73
146.865	3431.6
149.635	2853.7
152.403	2578.99
155.171	2373.39
157.939	2886.16
160.705	3554.1
163.47	4577.77
166.235	5429.86
168.998	5837.36
171.761	5578.82
174.523	3331.06
177.284	1534
180.044	304.838
182.803	116.439
185.562	154.357
188.319	41.156
191.076	69.242
193.831	152.08
196.586	117.43
199.34	149.941
202.093	352.375
204.846	508.912
207.597	744.154
210.347	834.215
213.097	993.939
215.846	752.428
218.594	601.133
221.341	580.004
224.087	529.076
226.832	298.086
229.577	306.723
232.32	154.957
235.063	152.879
237.805	210.564
240.545	58.029
243.286	35.252
246.025	162.174
248.763	98.727
251.501	154.855
254.237	40.4
256.973	51.238
259.708	160.203
262.442	446.359
265.175	603.9
267.907	592.248
270.639	152.764
273.369	121.873
276.099	609.316
278.828	1378.42
281.556	1498.47
284.283	1539.08
287.009	1199.89
289.734	830.65
292.459	421.115
295.183	401.203
297.905	210.863
300.627	160.008
303.348	21.412
306.069	166.441
308.788	43.324
311.507	48.904
314.224	134.467
316.941	296.545
319.657	749.246
322.372	1141.39
325.086	2393.39
327.8	4074.48
330.512	5316.47
333.224	4886.52
335.935	3467.38
338.645	2430.63
341.354	1641.46
344.062	1201.08
346.769	1077.09
349.476	896.229
352.182	995.635
354.887	1030.36
357.591	980.207
360.294	1151.61
362.996	1212.02
365.698	1202.49
368.398	1164.18
371.098	1124.08
373.797	1243.14
376.495	1447.71
379.192	1656.08
381.889	1784.3
384.584	1883.84
387.279	2380.86
389.973	2706.38
392.666	2920.7
395.358	3434.7
398.049	3708.2
400.74	3867.62
403.429	3913.77
406.118	4043.02
408.806	3735.26
411.493	3492.41
414.179	3354.17
416.865	3066.27
419.549	2607.81
422.233	2330.9
424.916	2017.5
427.598	1845.43
430.279	1934.38
432.959	2070.75
435.639	2529.47
438.318	3022.26
440.996	4277.44
443.673	5649.52
446.349	7209.86
449.024	8920.87
451.699	10550.7
454.372	10472
457.045	7765.67
459.717	6046.29
462.388	4090.47
465.059	2679.67
467.728	1841.03
470.397	1509.62
473.065	1108.84
475.732	681.174
478.398	741.109
481.063	475.715
483.728	720.211
486.391	464.816
489.054	338.539
491.716	401.965
494.377	265.066
497.038	217.844
499.697	70.293
502.356	262.369
505.014	174.1
507.671	145.508
510.327	86.676
512.982	347.615
515.637	278.307
518.291	238.82
520.944	249.188
523.596	109.307
526.247	9.176
528.897	218.768
531.547	178.256
534.196	82.498
536.844	86.387
539.491	45.031
542.137	63.428
544.783	171.57
547.427	249.467
550.071	587.148
552.714	634.637
555.356	721.93
557.998	859.039
560.638	776.455
563.278	383.475
565.917	210.201
568.555	436.721
571.192	283.184
573.829	293.424
576.464	147.457
579.099	273.83
581.733	340.441
584.366	37.137
586.999	134.445
589.63	169.523
592.261	2.436
594.891	174.822
597.52	178.934
600.148	15.938
602.776	263.223
605.402	29.748
608.028	55.945
610.653	141.959
613.277	147.771
615.901	273.346
618.523	11.238
621.145	204.023
623.766	109.242
626.386	264.477
629.006	329.689
631.624	104.904
634.242	90.566
636.859	231.068
639.475	366.178
642.09	371.916
644.705	449.512
647.318	371.637
649.931	654.889
652.543	708.631
655.155	1190.71
657.765	1412.12
660.375	1542.77
662.984	2693.37
665.592	4023.74
668.199	5674.63
670.805	8930.33
673.411	10998.1
676.016	12095
678.62	10666.8
681.223	8067.84
683.825	5868.55
686.427	3665.67
689.028	2748.06
691.628	2061.25
694.227	1702.19
696.825	1131.93
699.423	902.102
702.02	771.088
704.616	731.84
707.211	564.025
709.805	506.131
712.399	378.156
714.992	300.102
717.584	381.969
720.175	333.752
722.765	264.812
725.355	206.443
727.944	42.762
730.532	228.289
733.119	328.619
735.705	439.379
738.291	109.908
740.876	69.48
743.46	100.508
746.043	128.977
748.626	456.557
751.207	244.799
753.788	213.994
756.368	68.238
758.947	137.258
761.526	305.211
764.104	303.383
766.68	212.465
769.257	288.838
771.832	422.33
774.406	169.5
776.98	258.033
779.553	186.338
782.125	205.926
784.697	173.773
787.267	321.643
789.837	220.041
792.406	208.047
794.974	16.477
797.542	175.418
800.108	136.141
802.674	32.719
805.239	181.555
807.804	180.367
810.367	9.168
812.93	12.055
815.492	116.723
818.053	205.488
820.613	74.254
823.173	67.043
825.732	48.543
828.29	250.039
830.847	258.215
833.403	66.355
835.959	15.535
838.514	52.559
841.068	49.43
843.621	378.484
846.174	6.414
848.726	254.363
851.277	162.297
853.827	440.23
856.376	838.168
858.925	696.098
861.473	714.008
864.02	801.906
866.566	749.785
869.112	467.648
871.656	215.047
874.2	372.707
876.744	150.504
879.286	178.254
881.828	392.047
884.369	369.871
886.909	869.715
889.448	517.156
891.987	853.988
894.524	771.25
897.061	1051.58
899.598	1238.94
902.133	1576.86
904.668	1434.87
907.202	1756.44
909.735	2344.18
912.267	2922.23
914.799	3740.62
917.33	4459.07
919.86	7177.59
922.389	10786.2
924.918	15614.9
927.445	19843.7
929.972	23632.7
932.499	24461.7
935.024	19290.8
937.549	12190
940.073	7839.37
942.596	5449.19
945.118	3693.45
947.64	2819.97
950.161	2059.51
952.681	1737.68
955.2	1637.77
957.719	1608.37
960.236	1008.36
962.753	1348.12
965.27	1277.13
967.785	1366.24
970.3	1406.25
972.814	1351.52
975.327	802.211
977.84	1290.28
980.351	1788.02
982.862	1186.87
985.372	815.133
987.882	1243.69
990.39	1392.26
992.898	1120.86
995.405	1009.48
997.912	1038.14
1000.42	1086.84
1002.92	985.645
1005.43	794.699
1007.93	603.832
1010.43	576.137
1012.93	622.617
1015.43	552.297
1017.93	742.047
1020.43	1011.86
1022.93	821.711
1025.43	691.609
1027.93	511.539
1030.42	616.113
1032.92	771.66
1035.42	771.914
1037.91	576.102
1040.4	542.98
1042.9	783.551
1045.39	604.172
1047.88	395.152
1050.37	466.84
1052.86	1009.54
1055.35	692.547
1057.84	435.883
1060.33	519.574
1062.81	753.668
1065.3	528.172
1067.78	253.109
1070.27	288.52
1072.75	624.465
1075.23	471.016
1077.72	778.258
1080.2	326.281
1082.68	655.211
1085.16	735.176
1087.64	346.203
1090.12	21.633
1092.59	461.84
1095.07	476.809
1097.55	313.531
1100.02	282.312
1102.5	363.512
1104.97	239.336
1107.44	365.148
1109.92	6.566
1112.39	457.367
1114.86	315.891
1117.33	184.059
