Measurement: Raman, 514 nm, ccw, Raman Data Processed
Mineral: Hemimorphite
Rruff sample: R040117
Ideal chemistry: Zn_4_Si_2_O_7_(OH)_2_H_2_O
Locality: Durango, Mexico
Source: University of Arizona Mineral Museum
Description: Colorless thin tabular crystals in a sheaflike aggregate
Measured chemistry: Zn_4.05_Si_1.97_O_7_((OH)_0.99_F_0.01_)_2_Â·H_2_O
Pin_id: L00159
Orientation: Laser parallel to -a* (-1 0 0). Fiducial mark perpendicular to laser is parallel to b [0 1 0]
Raman shift (cm-1)	intensity
96.858	0
101.036	195.055
105.212	956.293
109.387	1933.9
113.559	2706.92
117.729	3421.53
121.897	5890.37
126.063	12162.2
130.228	22315.7
134.39	26323.2
138.55	19489.6
142.709	10944.9
146.865	6019.01
151.019	3877.32
155.171	2948.52
159.322	2847.02
163.47	3282.6
167.617	3946.27
171.761	3437.56
175.904	1556.81
180.044	424.198
184.183	160.954
188.319	157.072
192.454	63.301
196.586	52.789
200.717	444.602
204.846	820.305
208.972	1319.42
213.097	1677.32
217.22	1424.05
221.341	1111.61
225.46	741.609
229.577	804.188
233.692	575.73
237.805	494.516
241.916	503.747
246.025	462.812
250.132	371.517
254.237	349.832
258.34	237.739
262.442	148.206
266.541	394.958
270.639	813.447
274.734	1017.75
278.828	1275.56
282.919	1105.65
287.009	677.219
291.097	369.6
295.183	142.409
299.266	94.714
303.348	192.251
307.428	291.009
311.507	361.624
315.583	153.529
319.657	63.238
323.729	929.088
327.8	2634.33
331.868	3469.02
335.935	2224.23
339.999	1148.98
344.062	565.454
348.123	407.221
352.182	324.838
356.239	194.844
360.294	344.817
364.347	318.021
368.398	412.074
372.448	618.849
376.495	718.564
380.54	854.824
384.584	1060.24
388.626	1311.77
392.666	1601.55
396.704	1860.69
400.74	1999.41
404.774	2197.72
408.806	2015.57
412.836	1653.04
416.865	1259.98
420.891	1196.43
424.916	1262.91
428.939	1350.84
432.959	1619.53
436.978	2117.16
440.996	3492.96
445.011	6126.37
449.024	10622.7
453.036	13187.3
457.045	9991.46
461.053	5948.02
465.059	3354.62
469.063	2003.06
473.065	1417.77
477.065	979.318
481.063	709.518
485.06	527.539
489.054	404.609
493.047	421.01
497.038	245.827
501.027	149.865
505.014	173.211
508.999	195.858
512.982	296.457
516.964	191.029
520.944	217.213
524.921	154.692
528.897	114.111
532.871	102.693
536.844	79.485
540.814	167.44
544.783	253.75
548.749	329.482
552.714	625.147
556.677	932.364
560.638	700.656
564.597	477.245
568.555	348.852
572.511	371.453
576.464	385.23
580.416	357.225
584.366	168.862
588.315	169.866
592.261	70.352
596.206	180.293
600.148	39.75
604.089	138.58
608.028	56.847
611.965	15.376
615.901	111.913
619.834	11.041
623.766	16.055
627.696	46.538
631.624	121.27
635.551	20.434
639.475	3.891
643.398	50.849
647.318	111.27
651.237	343.072
655.155	360.866
659.07	555.671
662.984	848.989
666.895	1501.5
670.805	2665.94
674.713	3630.65
678.62	3302.08
682.524	1902.48
686.427	1128.37
690.328	849.471
694.227	468.215
698.124	377.021
702.02	157.201
705.913	30.385
709.805	124.297
713.695	178.02
717.584	241.498
721.47	104.746
725.355	117.838
729.238	200.707
733.119	223.48
736.998	56.135
740.876	97.566
744.752	117.84
748.626	235.902
752.498	96.227
756.368	235.438
760.237	328.729
764.104	256.492
767.969	133.963
771.832	371.682
775.693	512.65
779.553	281.17
783.411	103.002
787.267	210.912
791.122	18.887
794.974	234.965
798.825	75.613
802.674	94.887
806.522	15.961
810.367	87.23
814.211	88.615
818.053	0.033
821.893	31.51
825.732	37.008
829.568	204.492
833.403	35.98
837.236	157.553
841.068	30.711
844.898	191.248
848.726	63.393
852.552	255.738
856.376	388.219
860.199	400.385
864.02	513.029
867.839	443.309
871.656	494.348
875.472	434.582
879.286	347.129
883.098	670.129
886.909	661.164
890.717	1034.72
894.524	1027.92
898.33	1531.21
902.133	2104.64
905.935	2438.19
909.735	3401.86
913.533	4775.76
917.33	7629.81
921.124	14494
924.918	25978.4
928.709	34773
932.499	35267.8
936.286	20982.8
940.073	10608.1
943.857	6023.46
947.64	3685.85
951.421	2674.44
955.2	1929.16
958.978	1465.04
962.753	1139.38
966.527	845.42
970.3	982.016
974.071	1048.41
977.84	810.979
981.607	663.088
985.372	520.455
989.136	598.002
992.898	797.475
996.659	755.299
1000.42	743.094
1004.17	462.086
1007.93	533.824
1011.68	382.066
1015.43	370.674
1019.18	458.801
1022.93	396.951
1026.68	496.459
1030.42	443.377
1034.17	368.896
1037.91	245.578
1041.65	463.412
1045.39	191.479
1049.12	379.779
1052.86	298.314
1056.59	318.977
1060.33	256.084
1064.06	95.307
1067.78	164.686
1071.51	274.354
1075.23	295.422
1078.96	294.566
1082.68	325.195
1086.4	346.244
1090.12	77.469
1093.83	158.893
1097.55	90.381
1101.26	47.945
1104.97	16.047
1108.68	176.143
1112.39	108.873
1116.1	132.062
1119.8	285.727
1123.5	439.889
1127.2	464.58
1130.9	409.836
1134.6	45.674
1138.3	202.109
1141.99	45.129
1145.69	9.314
1149.38	11.676
1153.07	33.887
1156.76	218.076
1160.44	329.309
1164.13	381.98
1167.81	186.229
1171.49	7.1
1175.17	137.352
1178.85	66.342
1182.52	0
