Measurement: Raman, 514 nm, ccw, Raman Data Processed
Mineral: Hemimorphite
Rruff sample: R040117
Ideal chemistry: Zn_4_Si_2_O_7_(OH)_2_H_2_O
Locality: Durango, Mexico
Source: University of Arizona Mineral Museum
Description: Colorless thin tabular crystals in a sheaflike aggregate
Measured chemistry: Zn_4.05_Si_1.97_O_7_((OH)_0.99_F_0.01_)_2_Â·H_2_O
Pin_id: L00527
Orientation: Laser parallel to b* (0 1 0). Fiducial mark perpendicular to laser is parallel to -c [0 0 -1]
Raman shift (cm-1)	intensity
87.101	0
91.284	147.114
95.465	1437.79
99.644	3773.15
103.82	8492.16
107.995	15917.1
112.168	18902.7
116.339	12707.3
120.508	7652.16
124.675	7918.9
128.84	11588.3
133.003	16702.6
137.164	14266.5
141.323	7976.88
145.48	4564.68
149.635	3658.59
153.788	3936.52
157.939	5366.43
162.088	9297.79
166.235	16440.4
170.38	22705.8
174.523	18297.6
178.664	9410.33
182.803	3859.04
186.94	1458.37
191.076	284.203
195.209	152.244
199.34	383.297
203.47	349.241
207.597	317.59
211.722	1875.03
215.846	3163.09
219.967	2772.6
224.087	1903.05
228.204	1184.91
232.32	731.531
236.434	356.679
240.545	248.098
244.655	71.703
248.763	52.553
252.869	43.5
256.973	86.478
261.075	110.809
265.175	214.29
269.273	250.246
273.369	57.466
277.463	271.203
281.556	355.211
285.646	272.6
289.734	173.179
293.821	221.879
297.905	19.549
301.988	119.862
306.069	11.585
310.147	187.792
314.224	299.697
318.299	672.186
322.372	1772.58
326.443	5233.55
330.512	10678.6
334.579	9470.76
338.645	5214.59
342.708	2987.34
346.769	2267.28
350.829	1993.42
354.887	1883.65
358.942	1777.92
362.996	1833.87
367.048	2039.58
371.098	2191.43
375.146	2435.55
379.192	3047.44
383.236	3607.41
387.279	4325.11
391.319	5053.06
395.358	5900.73
399.394	6438.12
403.429	6575.22
407.462	6002.01
411.493	4934.68
415.522	4053.69
419.549	2873.14
423.575	2000.07
427.598	1442.68
431.619	1104.87
435.639	908.604
439.657	682.078
443.673	800.12
447.687	1009.65
451.699	1430.83
455.709	1231.19
459.717	639.268
463.724	398.614
467.728	146.298
471.731	1.713
475.732	8.551
479.731	7.74
483.728	31.132
487.723	6.749
491.716	17.846
495.708	21.932
499.697	60.466
503.685	14.098
507.671	46.095
511.655	58.886
515.637	9.205
519.617	68.963
523.596	67.648
527.572	31.591
531.547	43.535
535.52	87.704
539.491	104.488
543.46	284.793
547.427	833.658
551.393	1698.09
555.356	2483.69
559.318	2065.64
563.278	963.77
567.236	502.467
571.192	457.758
575.147	321.507
579.099	118.606
583.05	172.238
586.999	140.945
590.946	122.193
594.891	103.89
598.834	60.914
602.776	44.489
606.715	92.689
610.653	125.229
614.589	35.298
618.523	45.916
622.456	62.199
626.386	194.041
630.315	193.497
634.242	175.007
638.167	115.02
642.09	156.459
646.012	217.965
649.931	289.885
653.849	345.235
657.765	428.925
661.679	686.419
665.592	1144.48
669.502	2124.72
673.411	3476.03
677.318	3812
681.223	2597.15
685.126	1670.55
689.028	920.749
692.927	567.765
696.825	393.552
700.721	351.162
704.616	260.546
708.508	191.127
712.399	162.714
716.288	199.493
720.175	146.081
724.06	152.483
727.944	41.291
731.825	35.315
735.705	229.176
739.584	103.979
743.46	1.76
747.334	212.053
751.207	100.043
755.078	51.841
758.947	12.464
762.815	163.768
766.68	206.433
770.544	176.979
774.406	98.148
778.267	120.3
782.125	133.204
785.982	96.482
789.837	139.168
793.69	61.037
797.542	8.518
801.391	11.906
805.239	12.078
809.085	56.259
812.93	50.517
816.772	15.018
820.613	0.472
824.452	25.796
828.29	91.112
832.125	53.529
835.959	11.791
839.791	87.088
843.621	72.492
847.45	182.045
851.277	56.635
855.102	161.23
858.925	285.838
862.746	230.464
866.566	165.117
870.384	399.805
874.2	484.532
878.015	579.306
881.828	391.349
885.639	503.863
889.448	648.798
893.256	792.855
897.061	1027.86
900.865	1072.96
904.668	1378.12
908.468	1773.52
912.267	2448.91
916.064	3494.62
919.86	5510.44
923.653	10146.4
927.445	19262.5
931.236	34408.7
935.024	32085
938.811	16231.5
942.596	8426.7
946.379	4685.38
950.161	2841.19
953.94	1993.19
957.719	1440.09
961.495	1165.02
965.27	882.87
969.043	809.533
972.814	706.802
976.583	651.608
980.351	673.092
984.117	580.76
987.882	486.935
991.644	320.476
995.405	341.598
999.165	220.929
1002.92	358.649
1006.68	277.243
1010.43	356.121
1014.18	405.395
1017.93	195.146
1021.68	175.131
1025.43	185.187
1029.18	145.047
1032.92	185.133
1036.66	235.364
1040.4	245.843
1044.14	306.483
1047.88	187.248
1051.62	78.094
1055.35	129.013
1059.08	99.998
1062.81	164.688
1066.54	192.149
1070.27	253.299
1073.99	64.49
1077.72	95.723
1081.44	117.003
1085.16	218.328
1088.88	190.402
1092.59	191.983
1096.31	36.62
1100.02	124.756
1103.73	16.056
1107.44	7.488
1111.15	149.465
1114.86	30.99
1118.57	132.232
1122.27	294.289
1125.97	245.688
1129.67	200.611
1133.37	181.692
1137.07	184.74
1140.76	217.676
1144.45	100.859
1148.15	314.788
1151.84	181.927
1155.53	113.184
1159.21	52.424
1162.9	5.899
1166.58	76.063
1170.26	194.233
1173.94	238.427
1177.62	126.439
1181.3	220.471
1184.97	260.789
1188.65	277.961
1192.32	245.472
1195.99	335.971
1199.66	496.184
1203.33	396.539
1206.99	456.572
1210.65	465.862
1214.32	314.979
1217.98	283.787
1221.64	401.964
1225.29	431.518
1228.95	520.564
1232.6	539.108
1236.26	337.856
1239.91	315.996
1243.56	320.057
1247.2	237.12
1250.85	197.962
1254.49	164.664
1258.13	361.092
1261.78	364.645
1265.41	330.52
1269.05	386.009
1272.69	250.9
1276.32	165.458
1279.95	6.362
1283.59	107
1287.21	113.825
1290.84	123.899
1294.47	326.813
1298.09	308.212
1301.72	70.745
1305.34	99.619
1308.96	49.216
1312.58	8.575
1316.19	46.285
1319.81	95.674
1323.42	73.854
1327.03	181.613
1330.64	41.13
1334.25	25.545
1337.86	191.658
1341.46	137.419
1345.07	142.838
1348.67	167.92
1352.27	172.667
1355.87	247.09
1359.46	331.222
1363.06	405.102
1366.65	508.765
1370.25	442.25
1373.84	116.492
1377.43	69.908
1381.02	72.007
1384.6	172.651
1388.18	323.092
1391.77	232.683
1395.35	332.435
1398.93	330.982
1402.51	464.543
1406.08	360.036
1409.66	231.127
1413.23	197.709
1416.8	191.342
1420.37	37.178
1423.94	151.172
1427.51	125.957
1431.08	183.131
1434.64	319.783
1438.2	336.236
1441.76	344.432
1445.32	302.412
1448.88	393.85
1452.43	185.322
1455.99	250.471
1459.54	103.627
1463.09	235.416
1466.64	296.264
1470.19	338.068
1473.74	338.223
1477.28	499.941
1480.83	633.992
1484.37	467.006
1487.91	440.09
1491.45	323.049
1494.98	236.078
1498.52	280.07
1502.05	117.002
1505.59	35.984
1509.12	147.672
1512.65	14.068
1516.17	317.463
1519.7	333.125
