Measurement: Raman, 514 nm, ccw, Raman Data Processed
Mineral: Hemimorphite
Rruff sample: R040117
Ideal chemistry: Zn_4_Si_2_O_7_(OH)_2_H_2_O
Locality: Durango, Mexico
Source: University of Arizona Mineral Museum
Description: Colorless thin tabular crystals in a sheaflike aggregate
Measured chemistry: Zn_4.05_Si_1.97_O_7_((OH)_0.99_F_0.01_)_2_Â·H_2_O
Pin_id: L00228
Orientation: Laser parallel to c* (0 0 1). Fiducial mark perpendicular to laser is parallel to -a [-1 0 0]
Raman shift (cm-1)	intensity
47.964	0
52.166	65.341
56.365	86.308
60.563	165.788
64.758	47.073
68.952	14.885
73.144	6.783
77.333	832.794
81.521	1717.62
85.706	2291.75
89.89	3120.55
94.071	4128.43
98.251	5639.61
102.428	9138.6
106.604	15470.4
110.777	20674.4
114.949	16020.6
119.119	9758.72
123.286	8078.93
127.452	9571.15
131.615	15515.3
135.777	19860.4
139.937	13806.1
144.094	7962
148.25	5998.47
152.403	5665.81
156.555	6206.09
160.705	8407.75
164.853	12677.7
168.998	17188.7
173.142	15930.6
177.284	9713.37
181.424	4967.19
185.562	2373.47
189.698	1189.21
193.831	743.514
197.963	383.885
202.093	348.166
206.221	847.296
210.347	2048.22
214.472	3138.77
218.594	2953.12
222.714	2431.4
226.832	1787.46
230.948	1215.5
235.063	895.191
239.175	633.369
243.286	543.072
247.394	333.745
251.501	325.305
255.605	214.682
259.708	13.811
263.808	57.366
267.907	5.099
272.004	73.163
276.099	167.796
280.192	187.978
284.283	319.693
288.372	597.948
292.459	756.704
296.544	1202.96
300.627	1700.72
304.709	2323.95
308.788	2528.16
312.865	2382.2
316.941	2013.22
321.015	1748.66
325.086	1854.23
329.156	3050.37
333.224	5113.69
337.29	5242.86
341.354	3660.23
345.416	2441.12
349.476	2010.63
353.534	1735.8
357.591	1557.28
361.645	1760.36
365.698	1881.39
369.748	2074.91
373.797	2248.56
377.844	2809.33
381.889	3358.23
385.932	3983.83
389.973	4636.02
394.012	5539.62
398.049	6551.37
402.084	6953.17
406.118	6335.07
410.15	5397.06
414.179	4289.14
418.207	3109.28
422.233	2070.47
426.257	1468.36
430.279	1121.46
434.299	860.123
438.318	635.352
442.334	584.356
446.349	566.683
450.361	655.027
454.372	563.891
458.381	397.534
462.388	182.468
466.394	78.616
470.397	64.451
474.398	88.859
478.398	74.38
482.396	5.651
486.391	88.658
490.385	72.226
494.377	67.431
498.368	22.493
502.356	36.974
506.342	0.01
510.327	29.242
514.31	15.1
518.291	83.163
522.27	27.005
526.247	41.458
530.222	17.324
534.196	8.574
538.167	6.683
542.137	58.473
546.105	51.928
550.071	22.071
554.035	113.874
557.998	158.383
561.958	250.602
565.917	443.524
569.874	710.146
573.829	1024.52
577.782	1456.53
581.733	1550.23
585.683	1178.62
589.63	717.706
593.576	345.492
597.52	198.956
601.462	98.088
605.402	67.991
609.341	93.342
613.277	25.223
617.212	96.571
621.145	62.425
625.076	163.815
629.006	118.067
632.933	118.748
636.859	62.978
640.783	94.474
644.705	133.58
648.625	91.908
652.543	180.297
656.46	128.027
660.375	265.115
664.288	394.477
668.199	552.641
672.108	814.597
676.016	1316.22
679.921	2411.07
683.825	3209.52
687.727	3378.09
691.628	2161.38
695.526	1500.61
699.423	1030.7
703.318	905.908
707.211	649.498
711.102	475.684
714.992	328.07
718.879	352.287
722.765	372.29
726.649	294.083
730.532	207.672
734.412	163.058
738.291	119.25
742.168	194.25
746.043	236.065
749.916	195.699
753.788	226.091
757.658	180.255
761.526	123.983
765.392	142.32
769.257	120.973
773.119	166.332
776.98	172.88
780.839	199.648
784.697	188.331
788.552	130.529
792.406	72.456
796.258	49.167
800.108	12.533
803.957	7.127
807.804	71.565
811.649	39.7
815.492	73.343
819.333	13.085
823.173	74.424
827.011	16.905
830.847	5.742
834.681	25.46
838.514	39.628
842.345	85.818
846.174	120.046
850.001	126.389
853.827	135.799
857.651	181.233
861.473	191.69
865.293	169.176
869.112	295.674
872.928	276.188
876.744	342.722
880.557	432.28
884.369	491.81
888.178	580.433
891.987	718.094
895.793	906.8
899.598	1088.55
903.401	1301.36
907.202	1544.22
911.001	2095.14
914.799	3059.02
918.595	4807.11
922.389	8785.39
926.182	17803.8
929.972	34072.4
933.761	29641.2
937.549	14550.1
941.334	7289.1
945.118	4310.85
948.9	2620.09
952.681	1783.09
956.459	1291.45
960.236	1137.89
964.012	996.645
967.785	880.771
971.557	857.739
975.327	909.77
979.095	977.258
982.862	950.854
986.627	874.566
990.39	717.011
994.152	637.37
997.912	620.836
1001.67	690.643
1005.43	571.596
1009.18	528.679
1012.93	419.89
1016.68	388.175
1020.43	263.614
1024.18	230.234
1027.93	196.957
1031.67	202.817
1035.42	186.894
1039.16	234.069
1042.9	296.387
1046.63	124.809
1050.37	109.323
1054.11	46.929
1057.84	77.615
1061.57	128.379
1065.3	91.217
1069.03	143.118
1072.75	96.075
1076.47	85.182
1080.2	39.249
1083.92	87.438
1087.64	74.6
1091.36	145.796
1095.07	47.055
1098.79	2.755
1102.5	71.533
1106.21	6.703
1109.92	51.195
1113.62	23.547
1117.33	122.163
1121.04	179.532
1124.74	233.182
1128.44	104.345
1132.14	84.565
1135.83	128.519
1139.53	162.065
1143.22	70.469
1146.92	172.577
1150.61	156.259
1154.3	78.817
1157.98	15.978
1161.67	59.696
1165.35	45.257
1169.04	87.892
1172.72	152.083
1176.4	143.972
1180.07	198.921
1183.75	176.125
1187.42	196.215
1191.1	219.286
1194.77	202.326
1198.44	285.247
1202.1	297.994
1205.77	428.11
1209.43	454.028
1213.1	274.633
1216.76	164.757
1220.42	92.93
1224.07	233.223
1227.73	272.531
1231.38	288.264
1235.04	248.803
1238.69	240.064
1242.34	171.619
1245.99	151.954
1249.63	178.748
1253.28	99.179
1256.92	215.951
1260.56	122.19
1264.2	138.125
1267.84	186.601
1271.48	120.549
1275.11	229.52
1278.74	36.888
1282.38	3.652
1286.01	104.971
1289.63	118.977
1293.26	41.719
1296.89	168.185
1300.51	32.489
1304.13	78.422
1307.75	36.157
1311.37	128.879
1314.99	14.935
1318.6	45.938
1322.22	69.53
1325.83	66.784
1329.44	118.697
1333.05	52.36
1336.66	114.764
1340.26	13.945
1343.87	2.096
1347.47	96.635
1351.07	19.17
1354.67	132.52
1358.27	246.712
1361.86	379.764
1365.46	300.707
1369.05	291.265
1372.64	204.338
1376.23	84.134
1379.82	162.591
1383.41	159.822
1386.99	159.738
1390.57	114.449
1394.16	198.699
1397.74	228.414
1401.32	142.611
1404.89	277.795
1408.47	101.733
1412.04	157.976
1415.61	164.545
1419.18	181.085
1422.75	90.856
1426.32	112.335
1429.89	144.529
1433.45	130.703
1437.01	116.56
1440.58	274.982
1444.13	262.268
1447.69	328.188
1451.25	15.872
1454.81	201.861
1458.36	137.107
1461.91	211.415
1465.46	214.24
1469.01	127.495
1472.56	302.809
1476.1	169.847
1479.64	247.012
1483.19	153.712
1486.73	229.717
1490.27	156.913
1493.81	123.045
1497.34	154.43
1500.88	44.499
1504.41	6.113
1507.94	69.886
1511.47	4.691
1515	38.712
