Measurement: Raman, 514 nm, ccw, Raman Data Processed
Mineral: Hemimorphite
Rruff sample: R040117
Ideal chemistry: Zn_4_Si_2_O_7_(OH)_2_H_2_O
Locality: Durango, Mexico
Source: University of Arizona Mineral Museum
Description: Colorless thin tabular crystals in a sheaflike aggregate
Measured chemistry: Zn_4.05_Si_1.97_O_7_((OH)_0.99_F_0.01_)_2_Â·H_2_O
Pin_id: L00228
Orientation: Laser parallel to c* (0 0 1). Fiducial mark perpendicular to laser is parallel to -a [-1 0 0]
Raman shift (cm-1)	intensity
78.729	0
82.916	263.243
87.101	1053.15
91.284	1989.22
95.465	2420.7
99.644	3092.17
103.82	3614.7
107.995	4010.65
112.168	4323.52
116.339	5011.35
120.508	5368.01
124.675	5375.05
128.84	6401.61
133.003	7684.47
137.164	8210.77
141.323	7597.65
145.48	7086.99
149.635	6950.1
153.788	7557.9
157.939	9620.36
162.088	12413.8
166.235	15311.8
170.38	16264.4
174.523	10807.1
178.664	4245.65
182.803	1277.43
186.94	520.208
191.076	462.05
195.209	323.957
199.34	486.606
203.47	989.773
207.597	1053.25
211.722	886.654
215.846	789.578
219.967	661.948
224.087	283.805
228.204	195.648
232.32	128.19
236.434	180.94
240.545	16.711
244.655	60.051
248.763	129.661
252.869	41.14
256.973	201.701
261.075	311.709
265.175	340.63
269.273	389.535
273.369	299.223
277.463	99.856
281.556	11.354
285.646	13.771
289.734	2.761
293.821	207.962
297.905	561.639
301.988	1053.9
306.069	1744.87
310.147	2784.65
314.224	3503.3
318.299	3620.9
322.372	4107.46
326.443	5622.91
330.512	8387.39
334.579	10479.6
338.645	8107.72
342.708	5051.65
346.769	3523.18
350.829	2684.75
354.887	2845.48
358.942	2395.9
362.996	2546.74
367.048	2520.5
371.098	3121.21
375.146	3819.32
379.192	4631.9
383.236	5472.51
387.279	6941.64
391.319	9027.46
395.358	11318.6
399.394	12830.3
403.429	14102.6
407.462	14144.6
411.493	13046.1
415.522	10465.4
419.549	8312.99
423.575	7080.62
427.598	6119.14
431.619	5223.64
435.639	4840.39
439.657	5339.49
443.673	6712.62
447.687	9221.48
451.699	14648.6
455.709	19508.1
459.717	15389.7
463.724	8371.17
467.728	4731.98
471.731	2772.11
475.732	1981.57
479.731	1357.01
483.728	1328.56
487.723	756.1
491.716	663.035
495.708	579.43
499.697	435.364
503.685	470.912
507.671	336.073
511.655	350.978
515.637	295.554
519.617	209.779
523.596	253.759
527.572	27.42
531.547	110.541
535.52	67.11
539.491	155.854
543.46	25.669
547.427	12.25
551.393	7.654
555.356	100.346
559.318	117.93
563.278	395.132
567.236	971.997
571.192	1668.52
575.147	2924.73
579.099	5170.91
583.05	6207.44
586.999	4904.65
590.946	3142.95
594.891	2102.25
598.834	1333.81
602.776	1163.6
606.715	933.963
610.653	664.33
614.589	464.429
618.523	634.587
622.456	944.279
626.386	663.746
630.315	702.996
634.242	852.034
638.167	1020.87
642.09	1143.51
646.012	1418.28
649.931	1618.96
653.849	1961.52
657.765	2927.02
661.679	3911.15
665.592	5154.72
669.502	7467.23
673.411	11842
677.318	19402.2
681.223	31092.3
685.126	39262.9
689.028	33073.3
692.927	21532.1
696.825	13589
700.721	9029.6
704.616	6022.39
708.508	3977.22
712.399	2947.8
716.288	2300.8
720.175	1705.76
724.06	1051.27
727.944	596.718
731.825	652.095
735.705	347.404
739.584	242.645
743.46	307.809
747.334	172.88
751.207	87.846
755.078	22.685
758.947	147.383
762.815	231.947
766.68	246.39
770.544	90.709
774.406	264.906
778.267	388.993
782.125	382.971
785.982	426.842
789.837	220.611
793.69	284.284
797.542	297.858
801.391	151.34
805.239	54.69
809.085	52.169
812.93	89.329
816.772	66.774
820.613	65.471
824.452	142.666
828.29	51.154
832.125	159.969
835.959	119.279
839.791	78.92
843.621	21.192
847.45	51.45
851.277	17.979
855.102	152.791
858.925	233.73
862.746	284.805
866.566	295.971
870.384	217.18
874.2	268.418
878.015	289.658
881.828	190.9
885.639	372.144
889.448	463.394
893.256	414.653
897.061	465.924
900.865	446.982
904.668	657.688
908.468	1147.91
912.267	1558.51
916.064	1979.52
919.86	3230.65
923.653	6161.87
927.445	13603.4
931.236	19493.3
935.024	13716.4
938.811	6258.06
942.596	3039.71
946.379	1541.42
950.161	1203.17
953.94	994.674
957.719	993.88
961.495	1057.86
965.27	879.617
969.043	1436.73
972.814	1766.7
976.583	2173.08
980.351	2271.79
984.117	1762.21
987.882	1482.4
991.644	1235.05
995.405	1056.97
999.165	1483.55
1002.92	1493.52
1006.68	1327.16
1010.43	1091
1014.18	915.087
1017.93	651.639
1021.68	708.164
1025.43	632.93
1029.18	639.332
1032.92	564.977
1036.66	560.826
1040.4	476.994
1044.14	443.223
1047.88	559.662
1051.62	466.244
1055.35	592.934
1059.08	559.725
1062.81	476.619
1066.54	303.598
1070.27	210.643
1073.99	457.754
1077.72	294.934
1081.44	323.023
1085.16	399.535
1088.88	186.889
1092.59	54.285
1096.31	76.104
1100.02	99.865
1103.73	207.461
1107.44	175.732
1111.15	214.182
1114.86	92.307
1118.57	151.074
1122.27	649.785
1125.97	179.107
1129.67	229.027
1133.37	279.484
1137.07	267.893
1140.76	160.471
1144.45	136.709
1148.15	112.424
1151.84	86.115
1155.53	51.336
1159.21	80.438
1162.9	21.059
1166.58	9.65
1170.26	127.213
1173.94	34.678
1177.62	73.412
1181.3	129.877
1184.97	238.057
1188.65	351.98
1192.32	317.879
1195.99	405.297
1199.66	394.178
1203.33	462.301
1206.99	370.246
1210.65	467.143
1214.32	473.289
1217.98	618.877
1221.64	724.844
1225.29	750.697
1228.95	515.725
1232.6	461.619
1236.26	366.088
1239.91	280.365
1243.56	414.668
1247.2	418.625
1250.85	342.396
1254.49	217.648
1258.13	319.438
1261.78	272.412
1265.41	265.109
1269.05	177.598
1272.69	88.957
1276.32	190.551
1279.95	220.314
1283.59	219.174
1287.21	32.555
1290.84	224.963
1294.47	308.365
1298.09	4.561
1301.72	0.607
1305.34	4.754
1308.96	30.834
1312.58	92.555
1316.19	204.566
1319.81	156.32
1323.42	78.326
1327.03	70.322
1330.64	40.344
1334.25	39.648
1337.86	80.039
1341.46	229.014
1345.07	167.641
1348.67	285.848
1352.27	433.672
1355.87	581.164
1359.46	491.738
1363.06	508.863
1366.65	425.801
1370.25	312.33
1373.84	107.955
1377.43	349.348
1381.02	505.781
1384.6	670.965
1388.18	604.867
1391.77	608.572
1395.35	491.102
1398.93	470.951
1402.51	377.824
1406.08	312.441
1409.66	289.238
1413.23	389.426
1416.8	211.426
1420.37	260.768
1423.94	351.84
1427.51	271.188
1431.08	322.426
1434.64	467.312
1438.2	174.715
1441.76	192.092
1445.32	257.805
1448.88	311.262
1452.43	244.838
1455.99	306.369
1459.54	515.012
1463.09	721.943
1466.64	438.016
1470.19	554.896
1473.74	515.844
1477.28	560.332
1480.83	463.57
1484.37	307.508
1487.91	181.723
1491.45	387.531
1494.98	276.094
1498.52	276.955
1502.05	340.723
1505.59	519.203
1509.12	42.314
1512.65	375.783
1516.17	0
