Measurement: Raman, 514 nm, ccw, Raman Data Processed
Mineral: Hemimorphite
Rruff sample: R040117
Ideal chemistry: Zn_4_Si_2_O_7_(OH)_2_H_2_O
Locality: Durango, Mexico
Source: University of Arizona Mineral Museum
Description: Colorless thin tabular crystals in a sheaflike aggregate
Measured chemistry: Zn_4.05_Si_1.97_O_7_((OH)_0.99_F_0.01_)_2_Â·H_2_O
Pin_id: L00527
Orientation: Laser parallel to b* (0 1 0). Fiducial mark perpendicular to laser is parallel to -c [0 0 -1]
Raman shift (cm-1)	intensity
96.858	0
101.036	132.468
105.212	799.715
109.387	1480.02
113.559	1879.54
117.729	2563.61
121.897	4550.31
126.063	9558.05
130.228	19811.1
134.39	27081.2
138.55	20643.1
142.709	11596.6
146.865	6404.02
151.019	3975.63
155.171	2876.84
159.322	2667.6
163.47	2877
167.617	3195.82
171.761	3223.77
175.904	1681.07
180.044	507.717
184.183	52.422
188.319	96.284
192.454	170.186
196.586	164.49
200.717	460.154
204.846	878.664
208.972	1298.24
213.097	1605.43
217.22	1548.61
221.341	1142.76
225.46	899.052
229.577	753.515
233.692	622.072
237.805	679.508
241.916	647.813
246.025	526.576
250.132	495.326
254.237	464.029
258.34	342.657
262.442	352.933
266.541	632.987
270.639	953.66
274.734	1369.97
278.828	1680.02
282.919	1252.72
287.009	717.363
291.097	243.435
295.183	50.548
299.266	111.67
303.348	293.727
307.428	195.995
311.507	218.684
315.583	241.908
319.657	125.971
323.729	449.343
327.8	1974.39
331.868	3379.17
335.935	2163.68
339.999	967.922
344.062	481.898
348.123	287.316
352.182	136.372
356.239	81.946
360.294	190.125
364.347	201.64
368.398	254.019
372.448	359.033
376.495	423.104
380.54	565.795
384.584	644.143
388.626	924.175
392.666	1249.78
396.704	1425.07
400.74	1507.21
404.774	1654.94
408.806	1589.49
412.836	1343.74
416.865	1127.7
420.891	1091.42
424.916	1095.26
428.939	1129.5
432.959	1376.61
436.978	1713.32
440.996	2707.96
445.011	5007.24
449.024	9212.89
453.036	13066.2
457.045	10584.3
461.053	6119.35
465.059	3520.18
469.063	1885.12
473.065	1346.4
477.065	845.541
481.063	684.445
485.06	535.105
489.054	358.486
493.047	285.636
497.038	222.403
501.027	270.343
505.014	174.141
508.999	129.353
512.982	193.104
516.964	193.895
520.944	194.03
524.921	25.52
528.897	147.926
532.871	139.775
536.844	88.938
540.814	31.552
544.783	21.406
548.749	240.681
552.714	559.642
556.677	818.993
560.638	600.427
564.597	415.548
568.555	305.906
572.511	353.146
576.464	284.643
580.416	204.119
584.366	179.692
588.315	135.705
592.261	40.983
596.206	75.567
600.148	0.274
604.089	103.556
608.028	176.752
611.965	20.481
615.901	41.779
619.834	43.765
623.766	95.753
627.696	107.901
631.624	19.681
635.551	12.992
639.475	105.903
643.398	88.972
647.318	133.908
651.237	336.214
655.155	268.501
659.07	617.299
662.984	789.816
666.895	1229.62
670.805	2316.78
674.713	3445.49
678.62	3090.49
682.524	1885.19
686.427	880.584
690.328	695.916
694.227	458.13
698.124	378.185
702.02	224.662
705.913	142.762
709.805	81.419
713.695	309.896
717.584	116.34
721.47	216.203
725.355	24.091
729.238	51.826
733.119	159.386
736.998	43.387
740.876	33.293
744.752	139.25
748.626	180.868
752.498	154.818
756.368	17.498
760.237	169.832
764.104	233.2
767.969	23.877
771.832	95.99
775.693	256.822
779.553	194.302
783.411	148.566
787.267	249.57
791.122	12.596
794.974	16.115
798.825	29.257
802.674	3.948
806.522	2.123
810.367	122.127
814.211	113.741
818.053	9.562
821.893	115.365
825.732	61.177
829.568	147.009
833.403	42.902
837.236	8.852
841.068	64.897
844.898	120.979
848.726	37.209
852.552	163.661
856.376	170.305
860.199	377.03
864.02	313.666
867.839	319.75
871.656	283.375
875.472	280.113
879.286	326.883
883.098	494.367
886.909	816.889
890.717	911.373
894.524	1121.63
898.33	1485.97
902.133	1703.56
905.935	2151.5
909.735	3249.59
913.533	4437.79
917.33	6816.25
921.124	12654.9
924.918	23253.7
928.709	33222.8
932.499	34912.1
936.286	21901.5
940.073	10941.2
943.857	5913.45
947.64	3950.36
951.421	2519.27
955.2	1870.07
958.978	1373.8
962.753	978.357
966.527	638.289
970.3	678.1
974.071	627.949
977.84	536.875
981.607	367.094
985.372	188.578
989.136	269.316
992.898	359.783
996.659	228.318
1000.42	400.936
1004.17	194.227
1007.93	477.541
1011.68	180.797
1015.43	174.41
1019.18	158.262
1022.93	182.248
1026.68	296.4
1030.42	350.822
1034.17	175.604
1037.91	290.807
1041.65	126.283
1045.39	211.953
1049.12	197.762
1052.86	273.68
1056.59	279.676
1060.33	175.746
1064.06	241.578
1067.78	216.605
1071.51	134.326
1075.23	90.605
1078.96	246.918
1082.68	233.367
1086.4	250.004
1090.12	73.271
1093.83	63.539
1097.55	39.852
1101.26	63.953
1104.97	87.498
1108.68	58.562
1112.39	254.775
1116.1	41.209
1119.8	67.307
1123.5	294.914
1127.2	311.152
1130.9	248.672
1134.6	224.52
1138.3	212.979
1141.99	92.531
1145.69	106.955
1149.38	4.637
1153.07	51.914
1156.76	227.398
1160.44	316.678
1164.13	327.295
1167.81	234.127
1171.49	198.686
1175.17	206.293
1178.85	317.342
1182.52	428.924
1186.2	452.713
1189.87	429.559
1193.54	700.232
1197.21	666.291
1200.88	469.793
1204.55	463.977
1208.21	386.617
1211.88	339.256
1215.54	650.738
1219.2	501.734
1222.86	692.41
1226.51	573.811
1230.17	488.609
1233.82	269.09
1237.47	236.619
1241.12	385.732
1244.77	497.756
1248.42	434.518
1252.06	499.838
1255.71	458.072
1259.35	416.506
1262.99	463.225
1266.63	90.225
1270.26	396.797
1273.9	223.225
1277.53	72.102
1281.16	157.049
1284.8	190.268
1288.42	82.018
1292.05	283.727
1295.68	15.66
1299.3	55.25
1302.92	114.746
1306.55	141.133
1310.16	222.574
1313.78	70.508
1317.4	147.979
1321.01	84.912
1324.62	111.043
1328.24	83.588
1331.85	210.855
1335.45	25.318
1339.06	117.955
1342.66	230.74
1346.27	343.062
1349.87	354.941
1353.47	546.391
1357.07	347.439
1360.66	358.152
1364.26	648.574
1367.85	138.77
1371.44	1.184
1375.04	250.018
1378.62	269.465
1382.21	411.84
1385.8	621.668
1389.38	620.855
1392.96	619.396
1396.54	526.164
1400.12	223.217
1403.7	396.273
1407.28	251.99
1410.85	329.08
1414.42	275.715
1417.99	346.537
1421.56	277.994
1425.13	408.211
1428.7	385.502
1432.26	445.41
1435.83	413.795
1439.39	343.863
1442.95	102.646
1446.51	366.955
1450.06	438.279
1453.62	516.15
1457.17	453.863
1460.73	558.223
1464.28	519.896
1467.83	661.607
1471.37	561.615
1474.92	563.705
1478.46	480.545
1482.01	207.514
1485.55	93.76
1489.09	161.348
1492.63	319.027
1496.16	318.025
1499.7	270.377
1503.23	465.562
1506.76	484.043
1510.29	57.797
1513.82	249.322
1517.35	303.732
1520.88	261.836
