Measurement: Raman, 514 nm, ccw, Raman Data Processed
Mineral: Hemimorphite
Rruff sample: R040117
Ideal chemistry: Zn_4_Si_2_O_7_(OH)_2_H_2_O
Locality: Durango, Mexico
Source: University of Arizona Mineral Museum
Description: Colorless thin tabular crystals in a sheaflike aggregate
Measured chemistry: Zn_4.05_Si_1.97_O_7_((OH)_0.99_F_0.01_)_2_Â·H_2_O
Pin_id: L00159
Orientation: Laser parallel to -a* (-1 0 0). Fiducial mark perpendicular to laser is parallel to b [0 1 0]
Raman shift (cm-1)	intensity
98.251	0
101.036	201.93
103.82	567.51
106.604	1443.7
109.387	1895.94
112.168	2458.98
114.949	2673.39
117.729	2835.32
120.508	2908.44
123.286	3404.46
126.063	3695.11
128.84	4344
131.615	4857.53
134.39	4554.57
137.164	3843.96
139.937	3559.74
142.709	3021.64
145.48	2916.36
148.25	2981.26
151.019	3307.69
153.788	3957.05
156.555	4710.44
159.322	5968.7
162.088	7912.57
164.853	9784
167.617	11273.6
170.38	10476.1
173.142	7723.56
175.904	4103.09
178.664	1846.1
181.424	704.242
184.183	290.311
186.94	427.551
189.698	454.934
192.454	455.025
195.209	706.215
197.963	577.975
200.717	690.578
203.47	704.709
206.221	778.844
208.972	823.293
211.722	888.195
214.472	853.465
217.22	899.053
219.967	694.877
222.714	480.92
225.46	376.926
228.204	262.672
230.948	278.121
233.692	373.27
236.434	288.174
239.175	12.986
241.916	287.723
244.655	152.242
247.394	366.438
250.132	330.297
252.869	263.701
255.605	166.707
258.34	89.393
261.075	218.293
263.808	655.779
266.541	756.779
269.273	693.227
272.004	477.662
274.734	501.023
277.463	233.811
280.192	43.832
282.919	511.809
285.646	640.008
288.372	508.209
291.097	676.23
293.821	634
296.544	681.496
299.266	648.656
301.988	715.443
304.709	741.785
307.428	757.424
310.147	912.16
312.865	876.051
315.583	1199.17
318.299	1461.58
321.015	2293.33
323.729	3914.46
326.443	6605.09
329.156	8935.26
331.868	9195.72
334.579	7095.45
337.29	4934.2
339.999	3422.92
342.708	2542.42
345.416	2328.73
348.123	2031.87
350.829	1780.95
353.534	1698.3
356.239	1676.33
358.942	1713.44
361.645	1839.92
364.347	1947.09
367.048	2053.73
369.748	2219.95
372.448	2539.45
375.146	2493.17
377.844	2785.32
380.54	3165.67
383.236	3691.98
385.932	4249.59
388.626	4694.37
391.319	5598.55
394.012	5972.57
396.704	6846.66
399.394	7379.24
402.084	7675.08
404.774	7928.03
407.462	7699.52
410.15	7251.76
412.836	6524.43
415.522	5888.83
418.207	5248.07
420.891	4677.77
423.575	4159.68
426.257	3785.05
428.939	3401.44
431.619	3170.7
434.299	3325.14
436.978	3050.32
439.657	3670.94
442.334	4437.64
445.011	5914.01
447.687	8215.84
450.361	10156.5
453.036	10845.8
455.709	9470.1
458.381	6886.23
461.053	4618.43
463.724	3297.18
466.394	2374.92
469.063	1413.25
471.731	1370.67
474.398	1130.37
477.065	915.049
479.731	671.857
482.396	538.418
485.06	404.775
487.723	430.951
490.385	186.914
493.047	562.725
495.708	368.324
498.368	443.734
501.027	68.938
503.685	253.906
506.342	238.666
508.999	343.236
511.655	297.658
514.31	161.969
516.964	306.162
519.617	370.246
522.27	434.211
524.921	458.066
527.572	291.787
530.222	4.549
532.871	149.029
535.52	242.406
538.167	105.537
540.814	188.441
543.46	1.209
546.105	283.803
548.749	539.072
551.393	748.65
554.035	1070.92
556.677	1283.08
559.318	665.145
561.958	487.143
564.597	739.08
567.236	250.93
569.874	332.754
572.511	355.102
575.147	296.746
577.782	322.168
580.416	194.471
583.05	207.072
585.683	179.195
588.315	224.393
590.946	61.799
593.576	72.547
596.206	167.326
598.834	92.381
601.462	102.037
604.089	84.635
606.715	29.525
609.341	364.225
611.965	80.77
614.589	112.027
617.212	16.086
619.834	130.475
622.456	214.492
625.076	38.443
627.696	222.314
630.315	216.311
632.933	360.055
635.551	273.904
638.167	517.641
640.783	731.432
643.398	512.828
646.012	1161.25
648.625	1064.47
651.237	1758.19
653.849	1855.06
656.46	2592.59
659.07	3555.67
661.679	5128.25
664.288	7230.74
666.895	10933.7
669.502	15958.4
672.108	22533.8
674.713	25481
677.318	24220.3
679.921	18455.1
682.524	12957.9
685.126	9385.72
687.727	6788.1
690.328	4799.64
692.927	3414.51
695.526	2369.7
698.124	2031.04
700.721	1760.32
703.318	1492.26
705.913	904.572
708.508	1036.84
711.102	919.076
713.695	891.273
716.288	383.436
718.879	615.561
721.47	467.65
724.06	354.068
726.649	299.783
729.238	511.561
731.825	37.254
734.412	13.715
736.998	34.812
739.584	286.143
742.168	146.719
744.752	237.717
747.334	134.838
749.916	285.34
752.498	283.854
755.078	210.484
757.658	15.377
760.237	115.322
762.815	254.48
765.392	115.148
767.969	58.951
770.544	55.363
773.119	54.633
775.693	472.229
778.267	162.883
780.839	222.85
783.411	63.457
785.982	214.023
788.552	64.549
791.122	145.037
793.69	225.49
796.258	124.084
798.825	73.816
801.391	196.336
803.957	6.377
806.522	73.701
809.085	73.867
811.649	15.896
814.211	205.629
816.772	15.309
819.333	9.957
821.893	124.484
824.452	163.969
827.011	213.354
829.568	342.533
832.125	28.334
834.681	100.715
837.236	79.727
839.791	61.316
842.345	147.521
844.898	176.309
847.45	275.051
850.001	183.805
852.552	212.555
855.102	111.279
857.651	159.988
860.199	538.668
862.746	407.32
865.293	165.949
867.839	264.549
870.384	373.129
872.928	371.686
875.472	90.219
878.015	76.336
880.557	67.137
883.098	514.932
885.639	389.451
888.178	377.018
890.717	534.828
893.256	492.801
895.793	281.082
898.33	717.123
900.865	305.174
903.401	803.611
905.935	942.137
908.468	830.748
911.001	927.164
913.533	1135.83
916.064	1734.64
918.595	2303.42
921.124	2977.73
923.653	4202.9
926.182	7211.78
928.709	10791
931.236	14490.4
933.761	12979.8
936.286	8329.17
938.811	5078.85
941.334	3668.5
943.857	2468.5
946.379	1758.56
948.9	1692.58
951.421	1458.43
953.94	1019.21
956.459	899.086
958.978	865.785
961.495	1125.97
964.012	986.906
966.527	833.098
969.043	1041.51
971.557	1205.22
974.071	1842.86
976.583	2029.93
979.095	1377.56
981.607	1636.59
984.117	1861.55
986.627	1560.52
989.136	1159.5
991.644	758.5
994.152	807.516
996.659	970.07
999.165	754.219
1001.67	543.121
1004.17	482.125
1006.68	721.191
1009.18	500.352
1011.68	449.539
1014.18	748.793
1016.68	828.102
1019.18	467.504
1021.68	187.098
1024.18	476.711
1026.68	346.32
1029.18	495.926
1031.67	265.473
1034.17	525.25
1036.66	515.289
1039.16	745.5
1041.65	585.773
1044.14	506.328
1046.63	807.254
1049.12	769.121
1051.62	391.391
1054.11	513.922
1056.59	506.945
1059.08	400.66
1061.57	554.805
1064.06	558.918
1066.54	564.57
1069.03	510.312
1071.51	406.73
1073.99	313.953
1076.47	402.098
1078.96	481.758
1081.44	421.719
1083.92	453.441
1086.4	306.641
1088.88	401.508
1091.36	578.348
1093.83	207.535
1096.31	50.434
1098.79	285.027
1101.26	164.746
1103.73	319.941
1106.21	418.746
1108.68	216.25
1111.15	719.906
1113.62	0
