Measurement: Raman, 514 nm, ccw, Raman Data Processed
Mineral: Hemimorphite
Rruff sample: R040117
Ideal chemistry: Zn_4_Si_2_O_7_(OH)_2_H_2_O
Locality: Durango, Mexico
Source: University of Arizona Mineral Museum
Description: Colorless thin tabular crystals in a sheaflike aggregate
Measured chemistry: Zn_4.05_Si_1.97_O_7_((OH)_0.99_F_0.01_)_2_Â·H_2_O
Pin_id: L00527
Orientation: Laser parallel to b* (0 1 0). Fiducial mark perpendicular to laser is parallel to -c [0 0 -1]
Raman shift (cm-1)	intensity
87.101	0
91.284	194.204
95.465	1586.31
99.644	3144.7
103.82	5433.73
107.995	9257.12
112.168	11123.7
116.339	10519.2
120.508	10506.5
124.675	13040.1
128.84	17747.6
133.003	24295.2
137.164	21565.1
141.323	12884.6
145.48	7282.11
149.635	4851.34
153.788	4043.22
157.939	4129.2
162.088	5600.23
166.235	8470.33
170.38	10370.9
174.523	7821.4
178.664	3783.27
182.803	944.34
186.94	46.399
191.076	133.734
195.209	663.415
199.34	725.141
203.47	641.85
207.597	909.585
211.722	1383.24
215.846	1687.76
219.967	1332.94
224.087	858.384
228.204	573.798
232.32	339.038
236.434	23.82
240.545	37.882
244.655	178.943
248.763	136.989
252.869	108.322
256.973	164.67
261.075	192.022
265.175	170.271
269.273	93.239
273.369	307.169
277.463	579.9
281.556	533.975
285.646	368.722
289.734	193.675
293.821	71.652
297.905	138.045
301.988	166.075
306.069	156.102
310.147	128.269
314.224	52.711
318.299	120.891
322.372	683.467
326.443	2555.86
330.512	5428.24
334.579	5160.57
338.645	2758.94
342.708	1449.95
346.769	1018.84
350.829	1114.62
354.887	1017.72
358.942	940.651
362.996	1037.95
367.048	1255.84
371.098	1233.88
375.146	1396.96
379.192	1639
383.236	2058.28
387.279	2483.74
391.319	2717.25
395.358	3139.98
399.394	3541.94
403.429	3538.46
407.462	3487.86
411.493	2857.56
415.522	2630.86
419.549	2038.73
423.575	1549.08
427.598	1361.02
431.619	1333.6
435.639	1415.52
439.657	1947.48
443.673	2733.86
447.687	4811.55
451.699	7792.65
455.709	7811.95
459.717	4751.15
463.724	2698.82
467.728	1665.26
471.731	1076.78
475.732	559.266
479.731	441.829
483.728	369.244
487.723	355.346
491.716	266.875
495.708	236.829
499.697	145.878
503.685	126.879
507.671	141.139
511.655	177.352
515.637	152.734
519.617	207.301
523.596	151.069
527.572	44.079
531.547	86.197
535.52	227.499
539.491	118.046
543.46	247.836
547.427	406.973
551.393	805.515
555.356	1623.47
559.318	1271.16
563.278	949.007
567.236	665.58
571.192	591.977
575.147	508.421
579.099	364.918
583.05	321.2
586.999	147.15
590.946	114.783
594.891	30.479
598.834	105.605
602.776	19.998
606.715	43.859
610.653	137.478
614.589	0.49
618.523	76.486
622.456	53.213
626.386	90.533
630.315	174.726
634.242	211.612
638.167	19.334
642.09	76.901
646.012	211.54
649.931	368.211
653.849	462.334
657.765	453.689
661.679	673.214
665.592	1010.08
669.502	1910.26
673.411	3123.59
677.318	3484.28
681.223	2448.34
685.126	1511.42
689.028	885.045
692.927	562.18
696.825	275.613
700.721	373.648
704.616	263.733
708.508	174.137
712.399	94.38
716.288	64.466
720.175	204.392
724.06	134.17
727.944	83.81
731.825	73.309
735.705	202.664
739.584	121.81
743.46	79.504
747.334	175.621
751.207	160.393
755.078	176.887
758.947	99.773
762.815	134.393
766.68	290.969
770.544	215.64
774.406	157.071
778.267	180.738
782.125	205.981
785.982	122.247
789.837	198.688
793.69	213.993
797.542	30.215
801.391	22.985
805.239	46.337
809.085	50.698
812.93	112.37
816.772	35.579
820.613	78.803
824.452	52.11
828.29	105.562
832.125	140.867
835.959	62.803
839.791	36.54
843.621	49.771
847.45	286.126
851.277	282.55
855.102	159.089
858.925	245.741
862.746	262.415
866.566	308.796
870.384	305.071
874.2	411.172
878.015	657.729
881.828	494.122
885.639	500.366
889.448	756.729
893.256	1032.95
897.061	1279.51
900.865	1374.8
904.668	1781.49
908.468	2418.22
912.267	3565.17
916.064	5602.27
919.86	9669.09
923.653	16956.3
927.445	26723.7
931.236	35511.3
935.024	29958.9
938.811	15546.6
942.596	8272.16
946.379	4886.98
950.161	2936.05
953.94	2070.86
957.719	1854.83
961.495	1372.35
965.27	1365.35
969.043	917.18
972.814	930.641
976.583	896.385
980.351	823.477
984.117	745.848
987.882	743.381
991.644	510.588
995.405	429.482
999.165	448.918
1002.92	541.629
1006.68	402.91
1010.43	395.889
1014.18	656.613
1017.93	517.08
1021.68	227.697
1025.43	327.98
1029.18	328.689
1032.92	359.467
1036.66	300.455
1040.4	501.416
1044.14	432.438
1047.88	263.492
1051.62	184.885
1055.35	276.061
1059.08	237.264
1062.81	558.488
1066.54	369.756
1070.27	381.014
1073.99	152.445
1077.72	193.863
1081.44	485.17
1085.16	226.664
1088.88	199.379
1092.59	211.279
1096.31	116.67
1100.02	164.637
1103.73	73.926
1107.44	147.412
1111.15	169.297
1114.86	81.236
1118.57	82.504
1122.27	474.363
1125.97	125.879
1129.67	82.086
1133.37	80.652
1137.07	204.719
1140.76	228.307
1144.45	76.469
1148.15	313.984
1151.84	254.771
1155.53	180.012
1159.21	69.627
1162.9	58.457
1166.58	60.613
1170.26	347.314
1173.94	288.094
1177.62	187.75
1181.3	248.504
1184.97	304.205
1188.65	354.971
1192.32	383.891
1195.99	302.639
1199.66	413.662
1203.33	392.463
1206.99	529.971
1210.65	648.777
1214.32	365.953
1217.98	252.521
1221.64	438.668
1225.29	596.301
1228.95	653.135
1232.6	788.799
1236.26	474.875
1239.91	441.471
1243.56	401.43
1247.2	305.768
1250.85	466.891
1254.49	210.566
1258.13	532.055
1261.78	425.012
1265.41	508.854
1269.05	392.527
1272.69	314.871
1276.32	182.639
1279.95	68.623
1283.59	211.09
1287.21	13.105
1290.84	12.291
1294.47	400.654
1298.09	435.074
1301.72	50.668
1305.34	293.654
1308.96	248.742
1312.58	16.182
1316.19	161.121
1319.81	263.35
1323.42	366.861
1327.03	140.182
1330.64	172.486
1334.25	304.352
1337.86	395.684
1341.46	96.562
1345.07	206.701
1348.67	326.666
1352.27	146.199
1355.87	565.293
1359.46	724.023
1363.06	703.742
1366.65	691.926
1370.25	589.51
1373.84	278.986
1377.43	174.566
1381.02	95.021
1384.6	230.93
1388.18	386.898
1391.77	511.285
1395.35	555.938
1398.93	469.613
1402.51	516.775
1406.08	288.48
1409.66	140.039
1413.23	243.18
1416.8	308.908
1420.37	81.166
1423.94	169.314
1427.51	197.486
1431.08	191.199
1434.64	309.078
1438.2	640.098
1441.76	382.99
1445.32	463.107
1448.88	642.881
1452.43	347.592
1455.99	455.25
1459.54	251.051
1463.09	344.949
1466.64	443.145
1470.19	635.898
1473.74	226.678
1477.28	591.227
1480.83	742.988
1484.37	695.844
1487.91	499.016
1491.45	431.188
1494.98	573.32
1498.52	118.453
1502.05	13.641
1505.59	106.232
1509.12	189.869
1512.65	9.467
1516.17	324.316
1519.7	0
