Measurement: Raman, 514 nm, ccw, Raman Data Processed
Mineral: Hemimorphite
Rruff sample: R040117
Ideal chemistry: Zn_4_Si_2_O_7_(OH)_2_H_2_O
Locality: Durango, Mexico
Source: University of Arizona Mineral Museum
Description: Colorless thin tabular crystals in a sheaflike aggregate
Measured chemistry: Zn_4.05_Si_1.97_O_7_((OH)_0.99_F_0.01_)_2_Â·H_2_O
Pin_id: L00228
Orientation: Laser parallel to c* (0 0 1). Fiducial mark perpendicular to laser is parallel to -a [-1 0 0]
Raman shift (cm-1)	intensity
67.554	0
71.747	92.504
75.937	165.564
80.125	508.634
84.311	1713.6
88.496	2529.6
92.678	3818.87
96.858	5344.16
101.036	7478.85
105.212	11337.3
109.387	16766.2
113.559	16373.1
117.729	11459.9
121.897	9374.09
126.063	10940.4
130.228	13877.7
134.39	16196.1
138.55	13696
142.709	8407.52
146.865	5770.47
151.019	5104.78
155.171	5608.71
159.322	6692.41
163.47	9428.24
167.617	13847.2
171.761	14594.2
175.904	9685.15
180.044	4865.85
184.183	2308.08
188.319	1196.76
192.454	624.855
196.586	459.698
200.717	316.697
204.846	406.756
208.972	1114.95
213.097	2115.82
217.22	2402.32
221.341	1751.42
225.46	1334.17
229.577	1084.9
233.692	722.504
237.805	420.12
241.916	409.06
246.025	206.459
250.132	100.348
254.237	9.084
258.34	123.41
262.442	241.217
266.541	284.069
270.639	235.325
274.734	77.999
278.828	62.983
282.919	106.65
287.009	94.809
291.097	320.4
295.183	529.469
299.266	1174.25
303.348	1437
307.428	1802.39
311.507	1874.14
315.583	1644.6
319.657	1532.01
323.729	1710.58
327.8	2424.61
331.868	3911.64
335.935	4901.1
339.999	3772.3
344.062	2388.16
348.123	1662.14
352.182	1289.31
356.239	1283.64
360.294	1263.12
364.347	1323.7
368.398	1545.36
372.448	1878.06
376.495	2030.85
380.54	2413.2
384.584	3101.5
388.626	3902.27
392.666	4723.94
396.704	5600.79
400.74	6223.27
404.774	6355.44
408.806	5687.73
412.836	4390.08
416.865	3332.18
420.891	2658.09
424.916	1824.58
428.939	1357.29
432.959	980.586
436.978	871.333
440.996	907.657
445.011	1036.95
449.024	1532.4
453.036	2303.01
457.045	2682.27
461.053	1581.49
465.059	638.068
469.063	287.916
473.065	134.208
477.065	66.366
481.063	15.282
485.06	20.493
489.054	3.688
493.047	118.615
497.038	85.362
501.027	0.334
505.014	169.669
508.999	270.807
512.982	469.752
516.964	881.458
520.944	1020.93
524.921	740.155
528.897	471.239
532.871	138.134
536.844	22.793
540.814	57.964
544.783	15.407
548.749	38.358
552.714	47.918
556.677	203.891
560.638	331.231
564.597	326.225
568.555	374.874
572.511	714.176
576.464	1423.13
580.416	1853.02
584.366	1742.89
588.315	1062.95
592.261	752.023
596.206	485.357
600.148	279.525
604.089	222.551
608.028	40.836
611.965	156.359
615.901	121.186
619.834	61.482
623.766	22.083
627.696	93.15
631.624	118.667
635.551	190.515
639.475	53.95
643.398	136.573
647.318	256.46
651.237	327.675
655.155	440.268
659.07	470.42
662.984	725.008
666.895	1113.39
670.805	2059.59
674.713	2904.67
678.62	4278.4
682.524	6453.92
686.427	7797.12
690.328	6264.45
694.227	4012.61
698.124	2522.68
702.02	1571.99
705.913	1140.42
709.805	1058.48
713.695	798.77
717.584	476.312
721.47	354.143
725.355	381.718
729.238	299.036
733.119	226.104
736.998	132.924
740.876	169.491
744.752	245.808
748.626	151.865
752.498	167.646
756.368	113.126
760.237	117.884
764.104	179.539
767.969	285.935
771.832	323.644
775.693	168.784
779.553	154.182
783.411	173.029
787.267	30.577
791.122	31.222
794.974	20.501
798.825	33.295
802.674	53.483
806.522	30.165
810.367	43.946
814.211	17.654
818.053	68.799
821.893	65.567
825.732	12.573
829.568	9.737
833.403	42.913
837.236	164.597
841.068	27.432
844.898	40.772
848.726	50.867
852.552	192.572
856.376	304.347
860.199	256.215
864.02	278.194
867.839	180.29
871.656	312.402
875.472	124.507
879.286	366.604
883.098	578.706
886.909	670.815
890.717	522.509
894.524	744.53
898.33	906.396
902.133	1517.36
905.935	1349.2
909.735	1650.77
913.533	2132.42
917.33	3314.62
921.124	5977.06
924.918	12109.8
928.709	24932.6
932.499	29745.7
936.286	16379
940.073	7752.13
943.857	4506.79
947.64	3140.12
951.421	2320.61
955.2	1961.86
958.978	1965.3
962.753	2138.17
966.527	2697.47
970.3	3414.43
974.071	4202.83
977.84	4646.14
981.607	4307.31
985.372	3670.25
989.136	2860.76
992.898	2363.19
996.659	1849.58
1000.42	1565.29
1004.17	1331.24
1007.93	957.414
1011.68	933.83
1015.43	740.473
1019.18	737.36
1022.93	634.457
1026.68	621.825
1030.42	419.474
1034.17	227.385
1037.91	315.52
1041.65	223.82
1045.39	392.273
1049.12	350.866
1052.86	209.603
1056.59	268.479
1060.33	167.487
1064.06	276.616
1067.78	185.88
1071.51	205.258
1075.23	254.737
1078.96	124.317
1082.68	63.987
1086.4	43.876
1090.12	63.73
1093.83	113.653
1097.55	86.371
1101.26	65.784
1104.97	5.569
1108.68	44.742
1112.39	55.295
1116.1	75.652
1119.8	129.834
1123.5	30.18
1127.2	46.82
1130.9	123.832
1134.6	136.472
1138.3	234.139
1141.99	81.459
1145.69	167.471
1149.38	54.414
1153.07	93.566
1156.76	104.207
1160.44	225.371
1164.13	186.071
1167.81	153.909
1171.49	171.227
1175.17	115.681
1178.85	162.192
1182.52	254.411
1186.2	153.082
1189.87	198.255
1193.54	249.74
1197.21	241.431
1200.88	352.96
1204.55	204.295
1208.21	184.479
1211.88	353.979
1215.54	336.683
1219.2	445.6
1222.86	225.462
1226.51	405.258
1230.17	145.262
1233.82	394.198
1237.47	272.859
1241.12	359.939
1244.77	186.237
1248.42	252.461
1252.06	199.919
1255.71	227.124
1259.35	234.167
1262.99	61.145
1266.63	137.31
1270.26	232.656
1273.9	130.6
1277.53	65.31
1281.16	18.264
1284.8	128.156
1288.42	24.79
1292.05	47.035
1295.68	71.078
1299.3	30.226
1302.92	42.506
1306.55	142.826
1310.16	52.599
1313.78	121.824
1317.4	79.508
1321.01	1.467
1324.62	69.868
1328.24	31.949
1331.85	1.429
1335.45	185.596
1339.06	201.864
1342.66	287.189
1346.27	162.208
1349.87	226.878
1353.47	251.394
1357.07	3.969
1360.66	340.081
1364.26	83.798
1367.85	87.039
1371.44	270.062
1375.04	282.215
1378.62	374.418
1382.21	505.367
1385.8	296.068
1389.38	237.662
1392.96	349.668
1396.54	288.124
1400.12	285.404
1403.7	220.523
1407.28	330.525
1410.85	264.576
1414.42	239.576
1417.99	236.889
1421.56	242.143
1425.13	74.855
1428.7	114.391
1432.26	219.822
1435.83	113.064
1439.39	232.596
1442.95	322.934
1446.51	271.496
1450.06	430.213
1453.62	496.371
1457.17	335.387
1460.73	305.646
1464.28	365.352
1467.83	195.355
1471.37	346.283
1474.92	178.855
1478.46	20.271
1482.01	193.135
1485.55	207.865
1489.09	329.271
1492.63	201.193
1496.16	264.863
