Measurement: Raman, 514 nm, ccw, Raman Data Processed
Mineral: Heulandite-Ca
Rruff sample: R040021
Ideal chemistry: NaCa_4_(Si_27_Al_9_)O_72_24H_2_O
Locality: Prospect Park, Patterson, Passaic County, New Jersey, USA
Source: University of Arizona Mineral Museum
Description: Group of colorless lamellar crystals
Measured chemistry: Na_0.25_(Na_0.55_K_0.45_)_Σ=1_(Ca_2.42_Na_0.85_Sr_0.73_)_Σ=4.00_(Si_27.60_Al_8.40_)_Σ=36_O_72_·24H_2_O ; H_2_O estimated by difference
Pin_id: m00223
Orientation: Laser parallel to -c [0 0 -1]. Fiducial mark perpendicular to laser is parallel to b* (0 1 0)
Raman shift (cm-1)	intensity
96.161	0
100.34	513.588
104.516	1431.66
108.691	2593.32
112.864	4153.55
117.034	6840
121.203	6970.78
125.369	6335.67
129.534	5288.73
133.696	5060.46
137.857	4679.41
142.016	4982.95
146.172	5216.23
150.327	5174.27
154.48	5234.94
158.63	5062.77
162.779	4414.84
166.926	3640.13
171.07	2522.11
175.213	1785.26
179.354	1338.25
183.493	683.836
187.63	531.207
191.765	375.994
195.898	3.383
200.029	186.525
204.158	188.537
208.285	308.766
212.41	439.562
216.533	394.814
220.654	299.645
224.773	245.529
228.891	77.229
233.006	76.98
237.119	483.57
241.231	887.146
245.34	1371.04
249.448	1932.26
253.553	1958.18
257.657	2227.85
261.758	2256.01
265.858	2234.38
269.956	1965.75
274.052	2016.98
278.146	2071.56
282.237	2280.02
286.327	2212.78
290.416	2490.26
294.502	2869.4
298.586	3066.16
302.668	3100.47
306.749	3241.33
310.827	3560.29
314.903	4256.19
318.978	4705.37
323.051	5226.77
327.121	5885.35
331.19	6184.93
335.257	6665.5
339.322	7111.29
343.385	7663.85
347.446	8561.4
351.505	9635.88
355.563	10996.1
359.618	12420.8
363.672	13919.4
367.723	15616.9
371.773	17275.1
375.821	18958
379.866	20361
383.91	22893.4
387.952	26535.1
391.992	30393.4
396.031	35684.7
400.067	39854.7
404.101	41046.8
408.134	37438.9
412.165	32720.4
416.193	26598.6
420.22	21140.3
424.245	16031.4
428.268	12497.6
432.289	9050.6
436.309	7311.48
440.326	6146.22
444.342	5632.84
448.355	5775.42
452.367	6362
456.377	7991.67
460.385	10673.5
464.391	13837.6
468.395	16751
472.398	19298.7
476.398	24088
480.397	27664.8
484.394	26272.3
488.389	20101.6
492.382	13717.8
496.373	8758.03
500.362	5639.2
504.349	3491.36
508.335	2531.5
512.319	1732.66
516.3	1142.12
520.28	698.514
524.259	652.189
528.235	420.375
532.209	275.111
536.182	17.043
540.152	44.258
544.121	259.992
548.088	309.484
552.053	95.742
556.017	70.258
559.978	152.629
563.938	238.686
567.895	144.822
571.851	32.096
575.805	240.754
579.758	385.963
583.708	835.041
587.657	1077.21
591.603	1679.52
595.548	2250.98
599.491	3002.04
603.432	3724.98
607.372	4481.81
611.309	4342.55
615.245	4095.23
619.179	3471.82
623.111	2806.34
627.041	1750.76
630.97	1465.11
634.896	992.365
638.821	705.535
642.744	806.611
646.665	782.154
650.584	521.365
654.502	538.256
658.418	347.035
662.331	96.934
666.244	63.998
670.154	213.766
674.062	286.469
677.969	147.344
681.874	148.287
685.777	217.457
689.678	342.146
693.577	56.318
697.475	541.41
701.371	324.629
705.265	233.139
709.157	53.752
713.047	364.324
716.936	5.77
720.823	157.93
724.708	229.268
728.591	339.395
732.472	224.916
736.352	235.41
740.23	380.627
744.106	316.5
747.98	208.566
751.853	441.535
755.723	358.08
759.592	569.955
763.459	835.492
767.325	980.496
771.188	1110.79
775.05	866.316
778.91	1089.5
782.768	1012.9
786.625	784.928
790.479	616.186
794.332	368.064
798.183	350.555
802.033	160.654
805.88	96.662
809.726	69.389
813.57	56.238
817.413	26.389
821.253	87.973
825.092	49.885
828.929	102.176
832.764	226.262
836.598	83.311
840.429	64.217
844.259	41.234
848.088	13.029
851.914	71.482
855.739	139.178
859.562	123.57
863.383	43.465
867.203	143.355
871.02	201.701
874.836	41.59
878.65	169.084
882.463	105.084
886.274	40.045
890.083	15.621
893.89	36.551
897.695	82.666
901.499	5.041
905.301	69.406
909.102	163.48
912.9	267.297
916.697	10.148
920.492	25.912
924.285	23.016
928.077	27.695
931.867	210.139
935.655	222.35
939.442	167.34
943.226	256.139
947.009	347.742
950.791	390.166
954.57	458.193
958.348	372.836
962.124	448.812
965.899	517.744
969.671	598.994
973.442	703.785
977.211	668.711
980.979	857.084
984.745	604.195
988.509	759.723
992.271	1144.68
996.032	1225
999.791	882.604
1003.55	1659.49
1007.3	1442.17
1011.06	1393.89
1014.81	1520.31
1018.56	1620.66
1022.31	1812.94
1026.06	1609.25
1029.8	1843.35
1033.55	1694.41
1037.29	1682.08
1041.03	2012.46
1044.77	1899.12
1048.5	1642.49
1052.24	2127.72
1055.97	1977.37
1059.7	2103.24
1063.43	2138.17
1067.16	2083.09
1070.89	2397.78
1074.61	2725.23
1078.34	2936.35
1082.06	3416.52
1085.78	3716.38
1089.5	3820.84
1093.21	4042.66
1096.93	4105.77
1100.64	4637.66
1104.35	4443.73
1108.06	4771.56
1111.77	4698.59
1115.48	4816.48
1119.18	4990.64
1122.89	5360.17
1126.59	4757.41
1130.29	4960.07
1133.99	4692.54
1137.68	4412.94
1141.38	4386.85
1145.07	4238.52
1148.76	4126.92
1152.45	3656.09
1156.14	3727.53
1159.83	3241.03
1163.51	3140.41
1167.19	2725.21
1170.88	2430.53
1174.56	2189.69
1178.23	1624.15
1181.91	1538.91
1185.59	1244.5
1189.26	1002.79
1192.93	1122.43
1196.6	706.283
1200.27	735.92
1203.94	649.822
1207.6	401.895
1211.27	428.943
1214.93	192.092
1218.59	264.688
1222.25	233.359
1225.9	362.654
1229.56	159.203
1233.21	66.254
1236.86	200.986
1240.51	214.848
1244.16	155.373
1247.81	219.678
1251.45	43.666
1255.1	259.832
1258.74	110.824
1262.38	71.537
1266.02	248.984
1269.66	90.334
1273.29	92.084
1276.93	113.053
1280.56	129.279
1284.19	17.436
1287.82	116.393
1291.45	77.844
1295.07	52.869
1298.7	99.385
1302.32	103.721
1305.94	85.619
1309.56	30.705
1313.18	79.34
1316.8	30.23
1320.41	143.463
1324.02	293.119
1327.63	65.764
1331.24	140.602
1334.85	74.324
1338.46	67.459
1342.06	160.943
1345.67	63.969
1349.27	321.672
1352.87	85.303
1356.47	57.607
1360.07	181.592
1363.66	206.824
1367.25	183.07
1370.85	105.154
1374.44	308.98
1378.03	315.961
1381.61	198.557
1385.2	319.275
1388.78	549.238
1392.37	223.926
1395.95	254.965
1399.53	452.684
1403.1	337.051
1406.68	523.533
1410.26	420.447
1413.83	86.609
1417.4	272.25
1420.97	258.068
1424.54	319.082
1428.1	470.314
1431.67	189.799
1435.23	254.615
1438.8	418.699
1442.36	516.559
1445.91	724.24
1449.47	597.865
1453.03	734.154
1456.58	714.594
1460.13	643.025
1463.68	530.707
1467.23	839.674
1470.78	663.066
1474.33	651.279
1477.87	358.525
1481.42	407.729
1484.96	274.941
1488.5	62.391
1492.04	62.777
1495.57	7.742
1499.11	0
