Measurement: Raman, 514 nm, ccw, Raman Data Processed
Mineral: Heulandite-Ca
Rruff sample: R040021
Ideal chemistry: NaCa_4_(Si_27_Al_9_)O_72_24H_2_O
Locality: Prospect Park, Patterson, Passaic County, New Jersey, USA
Source: University of Arizona Mineral Museum
Description: Group of colorless lamellar crystals
Measured chemistry: Na_0.25_(Na_0.55_K_0.45_)_Σ=1_(Ca_2.42_Na_0.85_Sr_0.73_)_Σ=4.00_(Si_27.60_Al_8.40_)_Σ=36_O_72_·24H_2_O ; H_2_O estimated by difference
Pin_id: l00406
Orientation: Laser parallel to -b* (0 -1 0). Fiducial mark perpendicular to laser is parallel to c [0 0 1]
Raman shift (cm-1)	intensity
91.981	0
96.161	401.951
100.34	903.738
104.516	1847.84
108.691	2732.56
112.864	4053.92
117.034	8415.11
121.203	8110.14
125.369	9092.15
129.534	12381
133.696	14893.5
137.857	19162.3
142.016	21118.5
146.172	21594.3
150.327	19204.5
154.48	15823.1
158.63	12385.3
162.779	9633.34
166.926	7046.44
171.07	5064.34
175.213	3267.64
179.354	1854.45
183.493	706.346
187.63	138.055
191.765	337.836
195.898	124.021
200.029	78.75
204.158	247.273
208.285	189.148
212.41	314.898
216.533	443.209
220.654	638.941
224.773	1040.37
228.891	1622.72
233.006	2559.97
237.119	3522.29
241.231	4844.16
245.34	5750.28
249.448	5802.97
253.553	5747.19
257.657	5444.64
261.758	4712.44
265.858	3854.84
269.956	3041.75
274.052	1879.21
278.146	1066.53
282.237	596.742
286.327	26.206
290.416	218.78
294.502	542.729
298.586	463.393
302.668	243.706
306.749	356.793
310.827	72.51
314.903	191.951
318.978	455.403
323.051	923.001
327.121	1249.67
331.19	1733.73
335.257	1925.39
339.322	2387.84
343.385	2682.21
347.446	3478.77
351.505	4173.74
355.563	5086.12
359.618	6353.69
363.672	8018.35
367.723	10437.3
371.773	12450.8
375.821	13597.9
379.866	16230
383.91	19459.5
387.952	22919.1
391.992	26977.5
396.031	31754.7
400.067	33637.6
404.101	33635.2
408.134	30109.6
412.165	25166.8
416.193	20773.1
420.22	16364.2
424.245	12701.2
428.268	9268.23
432.289	7112.31
436.309	5477.44
440.326	4242.23
444.342	3684.95
448.355	3249.35
452.367	3596.8
456.377	3803.46
460.385	4935.1
464.391	6086.69
468.395	7602.76
472.398	10766.1
476.398	15633.7
480.397	21622.2
484.394	24001.1
488.389	20602.5
492.382	14526.8
496.373	9116.71
500.362	5614.82
504.349	3574.65
508.335	2462.34
512.319	1597.61
516.3	1313.03
520.28	1110.84
524.259	917.501
528.235	854.442
532.209	725.239
536.182	806.652
540.152	562.296
544.121	588.515
548.088	394.355
552.053	287.811
556.017	46.294
559.978	13.195
563.938	23.086
567.895	640.407
571.851	185.906
575.805	285.615
579.758	639.541
583.708	1016.82
587.657	1473.28
591.603	2040.61
595.548	3002.16
599.491	4020.21
603.432	4821.88
607.372	4992.59
611.309	4750.31
615.245	4393.58
619.179	3878.85
623.111	3353.01
627.041	2886.75
630.97	1835.73
634.896	1077.57
638.821	906.71
642.744	832.854
646.665	859.869
650.584	562.682
654.502	405.246
658.418	271.491
662.331	237.684
666.244	151.948
670.154	226.371
674.062	60.846
677.969	143.044
681.874	20.886
685.777	112.229
689.678	194.705
693.577	324.071
697.475	226.646
701.371	377.194
705.265	619.479
709.157	572.529
713.047	479.413
716.936	459.819
720.823	687.806
724.708	570.214
728.591	604.082
732.472	503.347
736.352	614.164
740.23	549.536
744.106	755.66
747.98	844.992
751.853	864.925
755.723	1156.92
759.592	1787.33
763.459	2233.88
767.325	2769.77
771.188	3497.89
775.05	4396.89
778.91	4763.78
782.768	4718.94
786.625	4267.47
790.479	3687.3
794.332	3274.14
798.183	2768.01
802.033	2683.85
805.88	2763.21
809.726	3195.82
813.57	3665.11
817.413	3575.73
821.253	3030.55
825.092	2238.4
828.929	1668
832.764	1161.56
836.598	1010.58
840.429	867.167
844.259	773.98
848.088	762.454
851.914	647.101
855.739	914.224
859.562	1070.26
863.383	940.495
867.203	464.767
871.02	288.776
874.836	158.018
878.65	251.159
882.463	165.125
886.274	81.924
890.083	143.509
893.89	206.818
897.695	259.884
901.499	213.715
905.301	59.302
909.102	71.616
912.9	39.312
916.697	121.594
920.492	143.482
924.285	174.144
928.077	50.653
931.867	158.679
935.655	59.386
939.442	21.626
943.226	38.022
947.009	68.692
950.791	138.478
954.57	101.051
958.348	85.415
962.124	87.583
965.899	225.605
969.671	269.625
973.442	271.951
977.211	372.548
980.979	481.33
984.745	901.205
988.509	1003.2
992.271	1102.17
996.032	1412.58
999.791	1295.92
1003.55	1513.75
1007.3	1844.51
1011.06	2000.08
1014.81	2032.52
1018.56	2133.83
1022.31	2578.01
1026.06	2631.53
1029.8	2615.4
1033.55	2607.08
1037.29	2617.09
1041.03	2496.13
1044.77	2493.8
1048.5	2673.32
1052.24	2600.04
1055.97	2649.52
1059.7	2571.47
1063.43	2542.41
1067.16	2845.61
1070.89	2862.14
1074.61	3071.59
1078.34	3489.51
1082.06	3907.16
1085.78	4004.44
1089.5	4148.7
1093.21	4325.61
1096.93	4565.62
1100.64	4609.82
1104.35	4750.62
1108.06	4557.44
1111.77	4383.43
1115.48	4252.17
1119.18	4442.7
1122.89	4765.28
1126.59	4222.91
1130.29	4133.35
1133.99	3904.74
1137.68	3639.41
1141.38	3315.37
1145.07	3383.72
1148.76	3079.32
1152.45	2964.54
1156.14	2731.66
1159.83	2565.89
1163.51	2402.07
1167.19	2180.14
1170.88	1824.21
1174.56	1784.3
1178.23	1581.32
1181.91	1284.29
1185.59	1039.65
1189.26	836.063
1192.93	597.026
1196.6	534.84
1200.27	456.837
1203.94	486.28
1207.6	40.585
1211.27	45.376
1214.93	87.86
1218.59	88.872
1222.25	118.688
1225.9	112.098
1229.56	206.998
1233.21	161.082
1236.86	196.274
1240.51	100.396
1244.16	163.744
1247.81	56.61
1251.45	118.075
1255.1	97.354
1258.74	70.08
1262.38	68.133
1266.02	182.646
1269.66	140.701
1273.29	430.428
1276.93	160.648
1280.56	143.863
1284.19	218.109
1287.82	58.73
1291.45	36.904
1295.07	262.117
1298.7	201.395
1302.32	195.744
1305.94	281.174
1309.56	438.689
1313.18	433.207
1316.8	479.27
1320.41	530.693
1324.02	486.793
1327.63	303.273
1331.24	156.725
1334.85	118.447
1338.46	149.064
1342.06	336.301
1345.67	10.59
1349.27	12
1352.87	86.779
1356.47	157.697
1360.07	83.066
1363.66	318.223
1367.25	247.146
1370.85	328.268
1374.44	346.355
1378.03	239.92
1381.61	315.016
1385.2	476.732
1388.78	368.045
1392.37	344.287
1395.95	90.986
1399.53	78.078
1403.1	186.057
1406.68	26.607
1410.26	1.756
1413.83	95.246
1417.4	44.021
1420.97	92.119
1424.54	13.859
1428.1	5.494
