Measurement: Raman, 514 nm, ccw, Raman Data Processed
Mineral: Heulandite-Ca
Rruff sample: R050017
Ideal chemistry: NaCa_4_(Si_27_Al_9_)O_72_24H_2_O
Locality: Poona, Maharashtra State, India
Source: Eugene Schlepp
Description: Single crystals
Measured chemistry: (Ca_.70_Na_.22_K_.02_[box]_0.06_)_5_(Si_0.77_Al_0.23_)_36_O_72_Â·24H_2_O
Pin_id: L00517
Orientation: Laser parallel to c* (0 0 1). Fiducial mark perpendicular to laser is parallel to -a [-1 0 0]
Raman shift (cm-1)	intensity
220.654	0
224.773	158.555
228.891	13.426
233.006	38.033
237.119	11.098
241.231	527.721
245.34	827.449
249.448	607.473
253.553	990.666
257.657	1019.35
261.758	1028.28
265.858	1102.91
269.956	1237.81
274.052	880.375
278.146	951.871
282.237	1250.73
286.327	934.521
290.416	805.9
294.502	373.598
298.586	324.475
302.668	198.428
306.749	445.41
310.827	513.988
314.903	712.561
318.978	1150.48
323.051	1628.73
327.121	1901.89
331.19	2563.97
335.257	2655.99
339.322	2822.23
343.385	3234.86
347.446	3468.68
351.505	4165.41
355.563	4977.01
359.618	5946.45
363.672	7010.72
367.723	8421.01
371.773	9341.85
375.821	11122.1
379.866	13460
383.91	16004
387.952	18774.1
391.992	22733.7
396.031	27791.6
400.067	30983.1
404.101	32170.1
408.134	30785.4
412.165	26049.5
416.193	21680.1
420.22	17705.5
424.245	14107.2
428.268	10242.7
432.289	8092.37
436.309	5398.11
440.326	4306.88
444.342	3581.61
448.355	3351.27
452.367	3936.82
456.377	4791.24
460.385	6890.49
464.391	8662.54
468.395	9899.35
472.398	11331.9
476.398	13646.1
480.397	17694
484.394	20156.5
488.389	18066.7
492.382	12807.5
496.373	7715.84
500.362	4674.83
504.349	2678.05
508.335	1606.88
512.319	930.291
516.3	872.574
520.28	474.965
524.259	201.857
528.235	168.686
532.209	72.961
536.182	62.328
540.152	22.514
544.121	53.057
548.088	123.229
552.053	32.73
556.017	21.5
559.978	273.723
563.938	83.258
567.895	24.172
571.851	98.498
575.805	142.018
579.758	644.928
583.708	636.732
587.657	1121
591.603	1250.03
595.548	1906.07
599.491	2638.59
603.432	3314.16
607.372	3704.9
611.309	4098.95
615.245	3856.35
619.179	3489.2
623.111	3238.58
627.041	3011.32
630.97	2153.4
634.896	1356.83
638.821	1197.63
642.744	1232.83
646.665	1384.33
650.584	999.119
654.502	1136.14
658.418	850.379
662.331	137.812
666.244	227.357
670.154	9.898
674.062	14.213
677.969	50.328
681.874	38.707
685.777	21.799
689.678	57.402
693.577	232.273
697.475	142.184
701.371	236.4
705.265	514.469
709.157	318.035
713.047	93.393
716.936	286.854
720.823	327.645
724.708	93.184
728.591	359.982
732.472	225.734
736.352	241.119
740.23	104.906
744.106	329.373
747.98	371.258
751.853	343.82
755.723	436.777
759.592	800.404
763.459	996.119
767.325	985.197
771.188	1285.06
775.05	1470.74
778.91	1345.23
782.768	1399.99
786.625	1389.44
790.479	1297.22
794.332	1153.4
798.183	821.549
802.033	713.67
805.88	1039.49
809.726	904.008
813.57	627.023
817.413	937.762
821.253	688.396
825.092	526.709
828.929	759.986
832.764	743.639
836.598	735.656
840.429	665.184
844.259	637.533
848.088	577.553
851.914	347.834
855.739	304.986
859.562	315.936
863.383	302.467
867.203	357.535
871.02	25.076
874.836	157.059
878.65	62.414
882.463	79.664
886.274	101.811
890.083	88.111
893.89	170.836
897.695	249.605
901.499	221.848
905.301	54.211
909.102	53.439
912.9	142.992
916.697	62.715
920.492	23.891
924.285	55.848
928.077	83.244
931.867	59.305
935.655	57.783
939.442	83.562
943.226	127.766
947.009	51.48
950.791	188.316
954.57	193.84
958.348	111.088
962.124	164.26
965.899	231.656
969.671	441.076
973.442	343.395
977.211	339.723
980.979	621.127
984.745	1010.57
988.509	1209.08
992.271	1192.63
996.032	1482.5
999.791	1563.94
1003.55	2106.98
1007.3	2021.37
1011.06	2227.67
1014.81	2291.74
1018.56	2430.2
1022.31	2757.51
1026.06	2648.71
1029.8	2595.14
1033.55	2572.96
1037.29	2636.56
1041.03	2275.53
1044.77	2201.35
1048.5	2383.2
1052.24	2288.5
1055.97	1898.67
1059.7	1736.77
1063.43	1859.75
1067.16	1938.22
1070.89	2138.86
1074.61	2261.57
1078.34	2594.25
1082.06	2703.14
1085.78	3101.38
1089.5	3089.02
1093.21	2995.49
1096.93	3274.11
1100.64	3432.39
1104.35	3735.58
1108.06	3856.94
1111.77	3973.82
1115.48	4130.97
1119.18	3765.39
1122.89	4308.45
1126.59	4056.71
1130.29	4146.35
1133.99	3872.08
1137.68	4128.93
1141.38	3964.03
1145.07	4045.67
1148.76	3762.42
1152.45	3864.8
1156.14	3735.45
1159.83	3513.4
1163.51	3290.25
1167.19	3213.06
1170.88	2712.74
1174.56	2722.35
1178.23	2484.99
1181.91	2266.6
1185.59	1751.84
1189.26	1585.35
1192.93	1255.2
1196.6	1296.27
1200.27	911.986
1203.94	740.129
1207.6	346.08
1211.27	277.521
1214.93	341.105
1218.59	207.787
1222.25	27.541
1225.9	118.574
1229.56	84.996
1233.21	21.277
1236.86	133.67
1240.51	212.789
1244.16	118.27
1247.81	239.006
1251.45	125.502
1255.1	106.594
1258.74	164.229
1262.38	118.479
1266.02	283.385
1269.66	117.867
1273.29	300.404
1276.93	274.436
1280.56	217.104
1284.19	34.238
1287.82	154.072
1291.45	31.773
1295.07	142.432
1298.7	230.057
1302.32	167.691
1305.94	154.326
1309.56	460.842
1313.18	276.814
1316.8	455.486
1320.41	484.953
1324.02	380.781
1327.63	165.814
1331.24	391.764
1334.85	4.5
1338.46	100.053
1342.06	101.818
1345.67	26.432
1349.27	30.818
1352.87	270.014
1356.47	280.371
1360.07	259.062
1363.66	371.262
1367.25	205.973
1370.85	376.473
1374.44	517.898
1378.03	189.428
1381.61	455.061
1385.2	570.217
1388.78	369.936
1392.37	193.332
1395.95	369.283
1399.53	35.369
1403.1	127.463
1406.68	66.369
1410.26	73.205
1413.83	221.455
1417.4	11.941
1420.97	191.939
1424.54	0
