Measurement: Raman, 514 nm, ccw, Raman Data Processed
Mineral: Heulandite-Ca
Rruff sample: R050097
Ideal chemistry: NaCa_4_(Si_27_Al_9_)O_72_24H_2_O
Locality: Rat's Nest Claim, Custer County, Idaho, USA
Source: John Cornish
Description: Pale pink coffin-shaped tabular single crystals
Measured chemistry: (Ca_0.66_Na_0.30_K_0.04_)_5_(Si_0.77_Al_0.23_)_36_O_72_Â·24H_2_O
Pin_id: L00063
Orientation: Laser parallel to (-1 0 -1). Fiducial mark perpendicular to laser is parallel to -b [0 -1 0]
Raman shift (cm-1)	intensity
138.81	0
143.767	122.711
148.72	561.427
153.671	613.814
158.619	585.277
163.563	441.076
168.504	273.418
173.442	67.6919
178.377	173.104
183.309	333.601
188.238	534.73
193.163	664.85
198.086	561.47
203.005	429.441
207.921	184.373
212.834	147.726
217.744	51.832
222.651	56.4531
227.555	69.4048
232.456	83.3218
237.354	27.2349
242.248	74.0195
247.14	252.442
252.028	321.392
256.914	448.205
261.796	487.141
266.675	400.983
271.551	283.023
276.425	394.136
281.295	323.165
286.162	389.206
291.026	586.536
295.887	561.596
300.745	670.319
305.6	769.461
310.451	815.149
315.3	964.828
320.146	1233.58
324.989	1518.91
329.829	1587.1
334.666	1755.22
339.5	1775.82
344.33	1986.38
349.158	2181.75
353.983	2552.92
358.805	3025.31
363.624	3567.19
368.44	4123.59
373.253	4821.82
378.062	5522.56
382.869	6597.72
387.673	8040.37
392.474	9517.82
397.273	11459.5
402.068	12487.2
406.86	12113.5
411.649	9797.34
416.435	7862.91
421.219	5922.58
425.999	4208.48
430.776	3212.75
435.551	2304.59
440.323	1829.68
445.091	1601.69
449.857	1585.25
454.62	1951.43
459.38	2652.33
464.137	3591
468.891	4385.58
473.642	5436.15
478.39	6640.78
483.136	7889.48
487.878	6992.25
492.618	4952.1
497.355	2718.08
502.089	1523.46
506.82	846.299
511.548	467.298
516.273	287.639
520.996	207.28
525.715	130.562
530.432	72.8735
535.146	16.7642
539.857	92.166
544.565	54.5708
549.27	39.6533
553.972	99.5742
558.672	13.5962
563.369	41.4868
568.063	84.3169
572.754	38.3272
577.442	49.9951
582.127	105.331
586.81	187.813
591.49	419.497
596.167	579.933
600.841	720.413
605.513	1137.08
610.181	1086.16
614.847	998.593
619.51	802.901
624.17	574.207
628.828	444.551
633.482	293.826
638.134	131.058
642.783	147.199
647.43	26.2485
652.073	72.1831
656.714	102.95
661.352	52.5283
665.987	10.7124
670.62	16.7456
675.25	31.3101
679.877	102.53
684.501	23.7939
689.122	19.5337
693.741	81.9116
698.357	55.6992
702.97	49.085
707.581	70.6235
712.189	177.701
716.794	71.9941
721.396	176.621
725.996	174.167
730.593	128.669
735.187	79.0093
739.779	163.75
744.368	145.93
748.954	132.524
753.538	159.042
758.118	145.105
762.696	146.004
767.272	232.583
771.845	384.704
776.415	359.868
780.982	359.767
785.547	371.449
790.109	211.958
794.668	239.914
799.225	157.964
803.779	159.123
808.33	188.606
812.879	72.5869
817.425	177.321
821.968	101.308
826.509	30.231
831.047	86.1475
835.583	1.2666
840.116	11.8413
844.646	53.6279
849.174	28.5093
853.699	10.3203
858.221	48.8867
862.741	8.0083
867.258	58.5122
871.772	22.1426
876.284	32.0591
880.793	2.63428
885.3	74.9907
889.804	30.9194
894.306	34.3711
898.805	25.8555
903.301	23.3023
907.795	16.2207
912.286	17.5547
916.774	18.5151
921.26	15.9355
925.744	62.4609
930.225	58.6763
934.703	25.7061
939.179	34.6475
943.652	92.4448
948.122	38.1773
952.59	13.9541
957.056	54.061
961.519	122.266
965.979	93.9116
970.437	157.794
974.892	254.5
979.345	215.343
983.795	216.041
988.243	300.764
992.688	345.918
997.131	360.498
1001.57	424.648
1006.01	505.036
1010.44	393.449
1014.88	476.078
1019.31	472.498
1023.73	445.875
1028.16	353
1032.58	422.274
1037	456.208
1041.42	413.883
1045.83	520.245
1050.25	505.95
1054.66	508.508
1059.06	550.049
1063.47	520.268
1067.87	568.602
1072.27	578.04
1076.67	723.179
1081.07	780.746
1085.46	885.421
1089.85	1040.51
1094.24	1167.46
1098.62	1170.55
1103.01	1229.76
1107.38	1303.62
1111.76	1358.1
1116.14	1397
1120.51	1557.07
1124.88	1569.56
1129.25	1449.17
1133.62	1531.39
1137.98	1420.79
1142.34	1381.11
1146.7	1416.01
1151.06	1259.71
1155.41	1224.53
1159.76	1091.02
1164.11	905.89
1168.46	958.046
1172.8	879.034
1177.14	735.137
1181.48	574.686
1185.82	441.029
1190.15	397.478
1194.48	394.004
1198.81	297.478
1203.14	202.243
1207.47	75.0039
1211.79	81.5474
1216.11	105.481
1220.43	5.46973
1224.74	36.5112
1229.06	48.6826
1233.37	38.936
1237.67	35.48
1241.98	49.4517
1246.28	107.459
1250.59	14.5039
1254.88	1.5459
1259.18	6.66455
1263.47	42.54
1267.77	34.8115
1272.06	29.4351
1276.34	5.75391
1280.63	23.8306
1284.91	63.8755
1289.19	83.9482
1293.47	54.8897
1297.74	90.8325
1302.02	38.7895
1306.29	139.538
1310.56	146.196
1314.82	114.027
1319.09	86.8984
1323.35	47.061
1327.61	27.3398
1331.87	130.534
1336.12	4.63086
1340.37	121.608
1344.62	84.5674
1348.87	227.358
1353.12	71.4653
1357.36	124.203
1361.6	132.173
1365.84	76.5405
1370.08	144.972
1374.31	16.7251
1378.54	175.329
1382.77	17.958
1387	87.5264
1391.22	11.7632
1395.45	63.9907
1399.67	8.74854
1403.88	73.2227
1408.1	65.4653
1412.32	172.788
1416.53	82.856
1420.74	81.7729
1424.94	34.0654
1429.15	137.544
1433.35	162.017
1437.55	52.0098
1441.75	63.3438
1445.94	85.9419
1450.14	118.272
1454.33	156.761
1458.52	100.833
1462.71	153.195
1466.89	106.095
1471.07	199.831
1475.25	3.60742
1479.43	133.41
1483.61	160.253
1487.78	73.4731
1491.95	88.7651
1496.12	71.708
1500.29	174.02
1504.45	196.512
1508.62	85.9902
1512.78	129.251
1516.94	20.5176
1521.09	187.785
1525.25	189.294
1529.4	24.7422
1533.55	46.5171
1537.69	189.424
1541.84	20.2705
1545.98	170.85
1550.12	153.042
1554.26	83.4473
1558.4	70.9111
1562.54	0
