Measurement: Raman, 514 nm, ccw, Raman Data Processed
Mineral: Heulandite-Ca
Rruff sample: R040021
Ideal chemistry: NaCa_4_(Si_27_Al_9_)O_72_24H_2_O
Locality: Prospect Park, Patterson, Passaic County, New Jersey, USA
Source: University of Arizona Mineral Museum
Description: Group of colorless lamellar crystals
Measured chemistry: Na_0.25_(Na_0.55_K_0.45_)_Σ=1_(Ca_2.42_Na_0.85_Sr_0.73_)_Σ=4.00_(Si_27.60_Al_8.40_)_Σ=36_O_72_·24H_2_O ; H_2_O estimated by difference
Pin_id: m00146
Orientation: Laser parallel to [-1 0 -1]. Fiducial mark perpendicular to laser is parallel to b* (0 1 0)
Raman shift (cm-1)	intensity
94.768	0
98.947	499.059
103.124	1156.91
107.3	2369.33
111.473	3984.34
115.644	7056.31
119.813	6996.21
123.981	6556.5
128.146	5500.81
132.309	5035.79
136.47	4677.5
140.63	5192.2
144.787	5590.18
148.942	5642.45
153.096	5848.45
157.247	5720.01
161.396	5027.88
165.544	3857.74
169.689	2838.47
173.833	2017.12
177.974	1360.92
182.114	821.305
186.251	640.404
190.387	332.819
194.52	141.966
198.652	80.303
202.782	113.415
206.909	286.377
211.035	519.958
215.159	392.032
219.281	336.688
223.4	231.364
227.518	102.069
231.634	97.049
235.748	384.002
239.86	728.552
243.97	1294.24
248.079	1694.36
252.185	1894.93
256.289	1954.21
260.391	2129.9
264.492	2082.51
268.59	2025.82
272.687	2049.76
276.781	2086.25
280.874	2171.49
284.964	2276.95
289.053	2520.06
293.14	2988.81
297.225	3080.2
301.308	3125.16
305.389	3504.78
309.468	3694.25
313.545	4283.58
317.62	4878.81
321.693	5422.87
325.765	6204.2
329.834	6624.84
333.902	7239.35
337.967	7513.65
342.031	8102.91
346.093	8655.26
350.153	9824.59
354.21	10947.5
358.267	12441.5
362.321	14223.9
366.373	15894.7
370.423	17823.7
374.471	19489.6
378.518	20719
382.563	23086.5
386.605	26485.7
390.646	30474.1
394.685	36645.2
398.722	42929.3
402.757	45651.2
406.79	44278.6
410.821	38750.9
414.851	31670.7
418.878	24727.7
422.904	18812.2
426.927	14303.8
430.949	10473.3
434.969	8520.65
438.987	6752.94
443.003	6186.17
447.018	6105.42
451.03	6672.73
455.041	8474.2
459.049	10996.9
463.056	14427.9
467.061	17130.3
471.064	19609.1
475.065	23847.4
479.064	28309.4
483.062	28405.2
487.057	23047.9
491.051	16028.5
495.043	10277.1
499.032	6793.72
503.02	4295.66
507.007	2851.95
510.991	2076.59
514.973	1317.21
518.954	932.59
522.933	762.456
526.91	577.603
530.885	228.573
534.858	137.783
538.829	96.865
542.799	236.428
546.766	240.46
550.732	170.915
554.696	167.699
558.658	201.419
562.618	137.13
566.576	112.045
570.533	68.505
574.488	72.318
578.44	344.348
582.391	658.517
586.341	968.619
590.288	1371.67
594.233	2003.69
598.177	2811.71
602.119	3916.73
606.059	4876.79
609.997	5069.83
613.933	4749.86
617.868	3824.88
621.801	3400.88
625.731	1989.85
629.66	1533.8
633.588	1214.72
637.513	784.613
641.437	772.475
645.358	596.536
649.278	566.257
653.196	377.289
657.113	291.062
661.027	171.418
664.94	79.96
668.851	149.857
672.76	177.28
676.667	208.64
680.572	153.238
684.476	259.697
688.378	244.286
692.278	15.485
696.176	372.392
700.072	315.801
703.967	242.914
707.86	82.863
711.751	416.793
715.64	58.348
719.527	248.84
723.413	212.415
727.297	352.249
731.179	265.789
735.059	275.258
738.937	384.223
742.814	330.055
746.689	313.77
750.562	535.19
754.433	580.422
758.303	557.229
762.17	835.341
766.036	1060.43
769.901	971.746
773.763	1063.93
777.624	1009.22
781.482	905.375
785.339	726.904
789.195	588.481
793.048	410.343
796.9	376.428
800.75	178.656
804.598	36.578
808.445	201.597
812.289	221.291
816.132	12.977
819.973	58.292
823.813	42.249
827.65	8.806
831.486	82.228
835.32	22.047
839.152	104.223
842.983	73.406
846.812	7.95
850.639	128.919
854.464	71.189
858.288	84.413
862.11	31.104
865.93	72.943
869.748	29.156
873.564	41.308
877.379	1.052
881.192	41.532
885.004	29.416
888.813	10.66
892.621	72.667
896.427	5.752
900.232	95.373
904.034	64.937
907.835	114.234
911.634	63.885
915.432	33.074
919.227	115.833
923.021	37.195
926.813	106.188
930.604	148.832
934.393	216.14
938.18	92.13
941.965	151.793
945.749	115.73
949.53	255.189
953.311	193.237
957.089	413.16
960.866	449.789
964.641	467.804
968.414	410.062
972.185	657.279
975.955	719.5
979.723	712.631
983.49	644.775
987.254	682.83
991.017	899.769
994.779	950.081
998.538	893.701
1002.3	1313.92
1006.05	1331.32
1009.81	1269.83
1013.56	1378.61
1017.31	1507.48
1021.06	1673.73
1024.81	1582.1
1028.55	1582.47
1032.3	1624.35
1036.04	1666.6
1039.78	1730.55
1043.52	1884.63
1047.26	1737.5
1050.99	1881.53
1054.73	1854.44
1058.46	1844.61
1062.19	2045.26
1065.92	2052.22
1069.65	2140.22
1073.37	2572.95
1077.1	2762.05
1080.82	3252.33
1084.54	3668.53
1088.26	4107.94
1091.97	4287.85
1095.69	4452.44
1099.4	4989.03
1103.12	4960.46
1106.83	5181.26
1110.54	5229.42
1114.24	5287.76
1117.95	5510.73
1121.65	5594.13
1125.35	5315.47
1129.06	5458.02
1132.75	5186
1136.45	5114.43
1140.15	4915.94
1143.84	5015.01
1147.53	4719.66
1151.22	4199.07
1154.91	4084.68
1158.6	3657.07
1162.28	3461.96
1165.97	2872.01
1169.65	2911.38
1173.33	2538.07
1177.01	2113.06
1180.69	1948.12
1184.36	1662.01
1188.04	1517.62
1191.71	1291.91
1195.38	959.674
1199.05	1497.49
1202.71	1205.19
1206.38	545.576
1210.04	402.209
1213.71	358.725
1217.37	225.34
1221.03	94.176
1224.68	237.48
1228.34	154.312
1231.99	126.172
1235.65	124.02
1239.3	128.691
1242.95	125.549
1246.59	125.668
1250.24	223.609
1253.88	21.172
1257.53	173.443
1261.17	108.93
1264.81	3.086
1268.45	112.336
1272.08	97.025
1275.72	49.988
1279.35	198.301
1282.98	49.014
1286.61	138.957
1290.24	103.416
1293.87	42.24
1297.49	27.381
1301.11	114.525
1304.73	44.096
1308.36	32.377
1311.97	74.211
1315.59	40.279
1319.2	86.172
1322.82	178.457
1326.43	94.25
1330.04	104.549
1333.65	87.385
1337.26	175.76
1340.86	138.693
1344.47	156.242
1348.07	214.412
1351.67	142.26
1355.27	112.842
1358.87	102.213
1362.46	98.971
1366.06	570.666
1369.65	115.309
1373.24	255.061
1376.83	302.256
1380.42	318.824
1384	369.99
1387.59	315.307
1391.17	213.445
1394.75	305.584
1398.33	382.912
1401.91	296.742
1405.49	305.9
1409.06	481.826
1412.64	173.84
1416.21	323.131
1419.78	346.092
1423.35	143.514
1426.91	209.051
1430.48	333.727
1434.05	290.742
1437.61	328.166
1441.17	497.68
1444.73	496.766
1448.29	556.412
1451.84	553.012
1455.4	604.9
1458.95	697.547
1462.5	671.098
1466.05	628.781
1469.6	519.664
1473.15	652.229
1476.69	596.793
1480.24	575.348
1483.78	280.254
1487.32	506.527
1490.86	221.355
1494.39	242.66
1497.93	674.566
1501.46	54.537
1505	78.389
1508.53	55.248
1512.06	255.209
