Measurement: Raman, 514 nm, ccw, Raman Data Processed
Mineral: Heulandite-Ca
Rruff sample: R050097
Ideal chemistry: NaCa_4_(Si_27_Al_9_)O_72_24H_2_O
Locality: Rat's Nest Claim, Custer County, Idaho, USA
Source: John Cornish
Description: Pale pink coffin-shaped tabular single crystals
Measured chemistry: (Ca_0.66_Na_0.30_K_0.04_)_5_(Si_0.77_Al_0.23_)_36_O_72_Â·24H_2_O
Pin_id: M00432
Orientation: Laser parallel to -c* (0 0 -1). Fiducial mark perpendicular to laser is parallel to a [1 0 0]
Raman shift (cm-1)	intensity
81.521	0
85.706	426.219
89.89	2090.01
94.071	4284.63
98.251	6522.08
102.428	8623.66
106.604	10653.3
110.777	11634.2
114.949	12489
119.119	12913
123.286	12302.3
127.452	11366.2
131.615	10651.4
135.777	11452.7
139.937	11941.6
144.094	12711.2
148.25	12842.3
152.403	12162.8
156.555	11436.7
160.705	10145.6
164.853	8051.34
168.998	5963.32
173.142	4231.76
177.284	3172.48
181.424	2608.31
185.562	2184.51
189.698	2192.8
193.831	2039.02
197.963	1700.78
202.093	1536.9
206.221	1186.81
210.347	653.119
214.472	512.129
218.594	708.875
222.714	796.076
226.832	886.621
230.948	937.1
235.063	526.268
239.175	315.322
243.286	34.01
247.394	603.131
251.501	1018.28
255.605	1091.53
259.708	1055.54
263.808	1248.63
267.907	1364.71
272.004	1402.69
276.099	1404.94
280.192	1686.58
284.283	1681.22
288.372	1400.88
292.459	1322.63
296.544	1616.33
300.627	1463.63
304.709	1414.98
308.788	1554.76
312.865	1679.05
316.941	2250.22
321.015	2740.9
325.086	3003.47
329.156	3468.49
333.224	4062.17
337.29	4698.41
341.354	5095.37
345.416	5498.84
349.476	5957.97
353.534	7168.34
357.591	7988.86
361.645	9330.52
365.698	10723.6
369.748	12228.1
373.797	13875.5
377.844	15926.1
381.889	18130.4
385.932	20563.2
389.973	24310.8
394.012	27008.7
398.049	30741.6
402.084	33075.7
406.118	32179.2
410.15	29263.8
414.179	25263.6
418.207	20315.8
422.233	16112.6
426.257	12644.1
430.279	9871.08
434.299	7188.75
438.318	5766
442.334	4572.97
446.349	4063.51
450.361	4066.12
454.372	4115.45
458.381	5316.98
462.388	6681.65
466.394	8707.53
470.397	10256.3
474.398	12286.8
478.398	15821.5
482.396	19432.1
486.391	20485.9
490.385	17917
494.377	12577.4
498.368	7949.15
502.356	4867.48
506.342	2899.21
510.327	1908.8
514.31	1345.17
518.291	764.504
522.27	439.441
526.247	552.229
530.222	452.982
534.196	155.889
538.167	168.766
542.137	78.035
546.105	142.727
550.071	216.158
554.035	43.754
557.998	148.6
561.958	35.66
565.917	80.119
569.874	13.195
573.829	243.07
577.782	318.988
581.733	433.986
585.683	876.035
589.63	1254.55
593.576	1439.67
597.52	1826.42
601.462	2562.41
605.402	3266.65
609.341	3787.5
613.277	3547.89
617.212	3401.91
621.145	2774.55
625.076	2359.89
629.006	1590.91
632.933	1194.62
636.859	1054.88
640.783	587.633
644.705	795.891
648.625	672.625
652.543	446.836
656.46	494.885
660.375	160.947
664.288	20.301
668.199	156.217
672.108	53.027
676.016	144.6
679.921	17.926
683.825	142.295
687.727	133.936
691.628	138.48
695.526	16.945
699.423	387.895
703.318	211.295
707.211	127.986
711.102	174.889
714.992	524.268
718.879	122.77
722.765	256.059
726.649	237.775
730.532	90.893
734.412	204.404
738.291	278.539
742.168	382.672
746.043	375.443
749.916	398.736
753.788	663.336
757.658	743.357
761.526	835.566
765.392	1156.44
769.257	1542.07
773.119	1449.54
776.98	1496.91
780.839	1853.79
784.697	1538.05
788.552	1473.3
792.406	1198.88
796.258	958.221
800.108	992.883
803.957	913.414
807.804	441.557
811.649	878.287
815.492	846.369
819.333	1016.41
823.173	830.707
827.011	571.023
830.847	329.164
834.681	209.334
838.514	169.346
842.345	211.232
846.174	75.65
850.001	90.84
853.827	189.861
857.651	304.969
861.473	308.453
865.293	70.416
869.112	130.352
872.928	45.67
876.744	75.723
880.557	186.492
884.369	96.918
888.178	30.537
891.987	138.271
895.793	41.033
899.598	41.645
903.401	14.191
907.202	2.531
911.001	34.672
914.799	18.057
918.595	132.805
922.389	25.613
926.182	44.65
929.972	188.438
933.761	174.859
937.549	181.396
941.334	2.818
945.118	43.414
948.9	81.977
952.681	196.371
956.459	96.156
960.236	334.154
964.012	507.375
967.785	515.932
971.557	574.502
975.327	749.91
979.095	921.242
982.862	1132.4
986.627	1281.58
990.39	1425.97
994.152	1625.02
997.912	1959.05
1001.67	2111.78
1005.43	2487.19
1009.18	2516.79
1012.93	2432.69
1016.68	2510.17
1020.43	2678.45
1024.18	2774.85
1027.93	2593.59
1031.67	2715.47
1035.42	2487.48
1039.16	2435.85
1042.9	2792.09
1046.63	2626.23
1050.37	2337.42
1054.11	2432.78
1057.84	2196.87
1061.57	2060.6
1065.3	2119.25
1069.03	1961.63
1072.75	2117.91
1076.47	2422.68
1080.2	2617.54
1083.92	3077.3
1087.64	3137.09
1091.36	3525.65
1095.07	3531.8
1098.79	3710.4
1102.5	4030.77
1106.21	4157.23
1109.92	4486.63
1113.62	4242.38
1117.33	4357.6
1121.04	4475.9
1124.74	4970.98
1128.44	4244.55
1132.14	4437.32
1135.83	4082.51
1139.53	3867.49
1143.22	3985.45
1146.92	3954.19
1150.61	3898.35
1154.3	3658.73
1157.98	3554.78
1161.67	3208.71
1165.35	3055.53
1169.04	2581.05
1172.72	3280.49
1176.4	2330
1180.07	1905.32
1183.75	1735.76
1187.42	1482.44
1191.1	1231.59
1194.77	1013.61
1198.44	823.539
1202.1	715.559
1205.77	366.041
1209.43	394.363
1213.1	372.988
1216.76	292.365
1220.42	257.676
1224.07	107.633
1227.73	200.928
1231.38	152.955
1235.04	0.893
1238.69	18.906
1242.34	96.467
1245.99	28.662
1249.63	200.35
1253.28	24.436
1256.92	34.631
1260.56	83.127
1264.2	96.051
1267.84	201.377
1271.48	197.967
1275.11	139.271
1278.74	155.598
1282.38	53.74
1286.01	141.512
1289.63	112.469
1293.26	159.254
1296.89	110.178
1300.51	98.488
1304.13	104.25
1307.75	146.434
1311.37	173.066
1314.99	256.125
1318.6	260.684
1322.22	393.715
1325.83	618.322
1329.44	178.801
1333.05	58.348
1336.66	45.682
1340.26	29.828
1343.87	97.297
1347.47	97.84
1351.07	208.859
1354.67	180.402
1358.27	165.676
1361.86	188.762
1365.46	247.604
1369.05	377.744
1372.64	293.74
1376.23	343.127
1379.82	440.713
1383.41	384.189
1386.99	374.727
1390.57	499.158
1394.16	236.389
1397.74	151.816
1401.32	412.312
1404.89	324.148
1408.47	356.354
1412.04	519.689
1415.61	284.15
1419.18	505.955
1422.75	365.793
1426.32	679.502
1429.89	518.182
1433.45	547.9
1437.01	628.209
1440.58	941.934
1444.13	1300.42
1447.69	1178.82
1451.25	1439.71
1454.81	1511.68
1458.36	1555.76
1461.91	1511.07
1465.46	1377.66
1469.01	1453.14
1472.56	1162.79
1476.1	911.484
1479.64	756.932
1483.19	881.18
1486.73	815.572
1490.27	514.305
1493.81	290.693
1497.34	435.633
1500.88	98.654
1504.41	82.727
1507.94	424.219
1511.47	459.756
1515	367.896
1518.53	362.887
1522.05	46.758
1525.57	0.664
