Measurement: Raman, 514 nm, ccw, Raman Data Processed
Mineral: Heulandite-Ca
Rruff sample: R050097
Ideal chemistry: NaCa_4_(Si_27_Al_9_)O_72_24H_2_O
Locality: Rat's Nest Claim, Custer County, Idaho, USA
Source: John Cornish
Description: Pale pink coffin-shaped tabular single crystals
Measured chemistry: (Ca_0.66_Na_0.30_K_0.04_)_5_(Si_0.77_Al_0.23_)_36_O_72_Â·24H_2_O
Pin_id: L00063
Orientation: Laser parallel to (-1 0 -1). Fiducial mark perpendicular to laser is parallel to -b [0 -1 0]
Raman shift (cm-1)	intensity
156.145	0
161.091	158.645
166.034	325.324
170.973	388.411
175.91	188.709
180.843	43.4053
185.774	76.0928
190.701	50.5605
195.625	107.366
200.546	196.57
205.463	223.398
210.378	104.625
215.29	237.393
220.198	606.388
225.104	1031.21
230.006	1875.59
234.905	2391.02
239.801	3194.14
244.694	3630.99
249.584	3822.77
254.471	3352.13
259.355	2934.41
264.236	2001.31
269.114	1472.03
273.988	947.732
278.86	414.527
283.729	180.677
288.594	21.6924
293.457	90.6504
298.316	194.673
303.173	49.8335
308.026	140.635
312.876	386.917
317.724	656.448
322.568	855.93
327.409	1168.5
332.248	1538.91
337.083	1870.24
341.915	2344.95
346.745	2810.27
351.571	3639.49
356.394	4538.21
361.215	5512.6
366.032	6955.24
370.846	8478.93
375.658	10109.6
380.466	12439.1
385.272	15405.5
390.074	18945.7
394.874	22542.9
399.67	25059.3
404.464	25117.8
409.255	21729.3
414.043	17529.1
418.827	13458.7
423.609	9891.06
428.388	7376.66
433.164	5490.79
437.937	4066.04
442.707	3506.82
447.475	2999.04
452.239	3020.24
457	4024.72
461.759	5274.46
466.514	6647.78
471.267	8233.65
476.017	10483.8
480.764	13265.1
485.508	14387.9
490.249	11790.1
494.987	7648.9
499.722	4390.32
504.455	2486.4
509.184	1552.41
513.911	1105.11
518.635	836.517
523.356	551.73
528.074	550.865
532.789	487.482
537.501	347.31
542.211	295.875
546.918	128.569
551.621	41.5684
556.323	89.8311
561.021	52.0278
565.716	71.9692
570.409	66.3364
575.098	76.2647
579.785	128.46
584.469	433.879
589.15	723.301
593.829	1226.62
598.504	1789.33
603.177	2514.29
607.847	2980.45
612.514	2940.89
617.179	2416.54
621.84	1875.2
626.499	1362.85
631.155	982.561
635.809	629.332
640.459	465.263
645.107	268.483
649.752	88.8994
654.394	147.375
659.033	6.14258
663.67	61.7871
668.304	15.6831
672.935	47.083
677.563	80.8296
682.189	4.0625
686.812	6.35352
691.432	179.051
696.049	211.107
700.664	157.604
705.276	131.864
709.885	162.89
714.492	242.118
719.096	363.051
723.697	332.478
728.295	295.63
732.891	334.766
737.484	289.231
742.074	386.325
746.661	418.03
751.246	597.252
755.828	742.033
760.408	980.365
764.984	1205.38
769.559	1447.31
774.13	1695.9
778.699	1815
783.265	1804.7
787.828	1602.04
792.389	1423.82
796.947	1205.55
801.502	1125.8
806.055	1287.84
810.605	1658.04
815.152	1924.67
819.697	1927.27
824.239	1483.72
828.779	971.277
833.315	591.042
837.85	480.927
842.381	214.781
846.91	117.547
851.436	152.137
855.96	118.443
860.481	127.394
865	128.964
869.515	142.094
874.029	19.2251
878.539	16.9407
883.047	34.4343
887.553	13.6323
892.055	6.45923
896.556	48.0674
901.053	23.1289
905.548	5.60278
910.041	40.7361
914.53	74.5933
919.018	27.6916
923.502	1.58691
927.985	15.8943
932.464	1.90234
936.941	12.5398
941.416	54.844
945.887	145.908
950.357	6.24463
954.824	79.1667
959.288	85.3144
963.749	265.414
968.208	219.792
972.665	403.131
977.119	331.199
981.571	501.857
986.02	619.397
990.466	676.278
994.91	810.276
999.351	965.912
1003.79	1011.26
1008.23	1143.43
1012.66	1240.93
1017.09	1245.97
1021.52	1381.22
1025.95	1388.5
1030.37	1465.44
1034.79	1544.5
1039.21	1553
1043.63	1546.17
1048.04	1406.16
1052.45	1490.28
1056.86	1389.17
1061.27	1382.35
1065.67	1354.64
1070.07	1474.05
1074.47	1553.51
1078.87	1744.22
1083.26	1881.52
1087.65	2106.76
1092.04	2260.91
1096.43	2367.58
1100.81	2423.84
1105.19	2491.43
1109.57	2503.24
1113.95	2545.68
1118.33	2502.74
1122.7	2468.63
1127.07	2392.62
1131.43	2323.97
1135.8	2285.22
1140.16	2358.5
1144.52	2053.88
1148.88	2154.62
1153.23	1975.17
1157.59	1873.42
1161.94	1827.1
1166.28	1572.68
1170.63	1489.37
1174.97	1298.25
1179.31	1127.53
1183.65	930.15
1187.99	787.019
1192.32	643.163
1196.65	451.332
1200.98	301.687
1205.3	211.45
1209.63	253.301
1213.95	65.6631
1218.27	169.414
1222.59	70.2837
1226.9	100.217
1231.21	82.2383
1235.52	9.9331
1239.83	92.6304
1244.13	3.55176
1248.43	55.0254
1252.73	32.6895
1257.03	37.6123
1261.33	23.6514
1265.62	9.09277
1269.91	35.4004
1274.2	37.1904
1278.49	10.6646
1282.77	8.81836
1287.05	86.9009
1291.33	66.8677
1295.61	57.668
1299.88	180.339
1304.15	50.9668
1308.42	180.539
1312.69	130.016
1316.96	60.5859
1321.22	129.649
1325.48	89.8086
1329.74	97.8599
1333.99	156.792
1338.25	16.5625
1342.5	122.025
1346.75	79.2764
1350.99	62.0596
1355.24	48.5796
1359.48	136.011
1363.72	131.471
1367.96	108.206
1372.19	70.9751
1376.43	33.0781
1380.66	34.6065
1384.88	140.778
1389.11	29.4976
1393.34	8.49414
1397.56	30.6294
1401.78	50.2388
1405.99	24.8794
1410.21	46.1387
1414.42	87.8491
1418.63	94.4009
1422.84	159.762
1427.05	181.927
1431.25	170.755
1435.45	113.884
1439.65	246.583
1443.85	223.153
1448.04	283.858
1452.23	221.207
1456.42	191.94
1460.61	155.542
1464.8	128.436
1468.98	146.343
1473.16	108.105
1477.34	16.8271
1481.52	2.52197
1485.69	20.812
1489.87	112.384
1494.04	129.31
1498.21	164.138
1502.37	100.11
1506.54	28.418
1510.7	78.3164
1514.86	63.6318
1519.02	62.5698
1523.17	36.8555
1527.32	142.475
1531.47	31.3643
1535.62	50.4731
