Measurement: Raman, 514 nm, ccw, Raman Data Processed
Mineral: Heulandite-Ca
Rruff sample: R040021
Ideal chemistry: NaCa_4_(Si_27_Al_9_)O_72_24H_2_O
Locality: Prospect Park, Patterson, Passaic County, New Jersey, USA
Source: University of Arizona Mineral Museum
Description: Group of colorless lamellar crystals
Measured chemistry: Na_0.25_(Na_0.55_K_0.45_)_Σ=1_(Ca_2.42_Na_0.85_Sr_0.73_)_Σ=4.00_(Si_27.60_Al_8.40_)_Σ=36_O_72_·24H_2_O ; H_2_O estimated by difference
Pin_id: m00223
Orientation: Laser parallel to -c [0 0 -1]. Fiducial mark perpendicular to laser is parallel to b* (0 1 0)
Raman shift (cm-1)	intensity
94.768	0
98.947	1767.59
103.124	4196.23
107.3	6737.28
111.473	7756.33
115.644	8739.19
119.813	7273.68
123.981	6063.49
128.146	5424.5
132.309	5447.17
136.47	6695.25
140.63	7295.15
144.787	7587.05
148.942	6933.93
153.096	5735.03
157.247	5264.46
161.396	4791.97
165.544	3940.26
169.689	2353.94
173.833	1530.54
177.974	681.852
182.114	687.137
186.251	955.252
190.387	1328.34
194.52	1717.89
198.652	1523.6
202.782	981.961
206.909	770.301
211.035	45.092
215.159	651.947
219.281	874.666
223.4	728.164
227.518	794.664
231.634	649.215
235.748	238.531
239.86	487.354
243.97	927.268
248.079	1336.63
252.185	1864.85
256.289	1899.48
260.391	1796.31
264.492	2081.03
268.59	2331.3
272.687	2546.51
276.781	3130.97
280.874	3040.02
284.964	3283.35
289.053	2974.15
293.14	2803
297.225	2973.53
301.308	2923.34
305.389	2627.4
309.468	2325.05
313.545	2195.93
317.62	2310.07
321.693	2701.17
325.765	2858.39
329.834	3369.56
333.902	3635.95
337.967	4078.61
342.031	4709.4
346.093	5114.97
350.153	5723.25
354.21	6734.81
358.267	7916.88
362.321	9274.54
366.373	10678.3
370.423	12063.7
374.471	13354
378.518	15467.7
382.563	16915.8
386.605	19007.4
390.646	22682.4
394.685	26346.7
398.722	29511.9
402.757	31157.4
406.79	29645.1
410.821	26735.6
414.851	22470.5
418.878	18126.7
422.904	14457.4
426.927	11097.1
430.949	8286.52
434.969	6558.76
438.987	5507.57
443.003	4453.78
447.018	4410.48
451.03	4573.75
455.041	5624.24
459.049	7522.35
463.056	10160.3
467.061	12083.1
471.064	13676.2
475.065	15359.9
479.064	18954.6
483.062	19399
487.057	16110
491.051	11506.5
495.043	7782.54
499.032	4728.81
503.02	3192.8
507.007	2068.22
510.991	1326.27
514.973	944.461
518.954	964.871
522.933	486.055
526.91	168.717
530.885	300.262
534.858	100.197
538.829	143.963
542.799	26.885
546.766	146.938
550.732	260.213
554.696	175.855
558.658	99.523
562.618	108.07
566.576	36.641
570.533	209.529
574.488	425.289
578.44	164.193
582.391	452.096
586.341	840.23
590.288	1529.59
594.233	1882.38
598.177	2754.06
602.119	3427.11
606.059	4423
609.997	4738.31
613.933	4146.03
617.868	3937.21
621.801	2781.8
625.731	2731.85
629.66	1686.43
633.588	1340.55
637.513	1351.23
641.437	1201.44
645.358	940.146
649.278	892.307
653.196	708.312
657.113	479.934
661.027	455.381
664.94	477.223
668.851	156.434
672.76	52.215
676.667	118
680.572	134.357
684.476	206.984
688.378	104.799
692.278	82.58
696.176	11.152
700.072	178.098
703.967	129.709
707.86	133.498
711.751	31.994
715.64	281.258
719.527	333.039
723.413	197.986
727.297	325.738
731.179	427.344
735.059	225.445
738.937	421.039
742.814	409.148
746.689	448.645
750.562	516.41
754.433	732.643
758.303	948.174
762.17	1021.86
766.036	1219.88
769.901	1549.8
773.763	1781.14
777.624	1499.99
781.482	1740.33
785.339	1362.6
789.195	1187.47
793.048	1146.59
796.9	981.172
800.75	1065.09
804.598	1093.34
808.445	1067.44
812.289	987.094
816.132	944.396
819.973	678.785
823.813	625.051
827.65	436.887
831.486	346.682
835.32	374.252
839.152	46.141
842.983	11.631
846.812	2.111
850.639	48.076
854.464	10.754
858.288	387.871
862.11	213.277
865.93	85.797
869.748	131.117
873.564	50.4
877.379	205.115
881.192	61.715
885.004	68.662
888.813	66.5
892.621	134.949
896.427	122.998
900.232	72.4
904.034	24.541
907.835	58.607
911.634	36.846
915.432	94.117
919.227	197.525
923.021	54.631
926.813	39.678
930.604	125.621
934.393	132.219
938.18	427.465
941.965	155.396
945.749	290.012
949.53	264.328
953.311	645.375
957.089	510.191
960.866	518.789
964.641	982.248
968.414	1154.6
972.185	655.795
975.955	1020.82
979.723	1120.43
983.49	1240.09
987.254	1534.31
991.017	1545.54
994.779	1964.76
998.538	2072.61
1002.3	2314.71
1006.05	2366.64
1009.81	2489.69
1013.56	2516.59
1017.31	2692.67
1021.06	2570.14
1024.81	2723.19
1028.55	2520.92
1032.3	2501.38
1036.04	2514.45
1039.78	2597.62
1043.52	2638.05
1047.26	2246.65
1050.99	2250.32
1054.73	2192.53
1058.46	2151.12
1062.19	2347.09
1065.92	2402.24
1069.65	2301.6
1073.37	2707.16
1077.1	2984.19
1080.82	3292.55
1084.54	3722.43
1088.26	3680.01
1091.97	3853.78
1095.69	4117.29
1099.4	4071.08
1103.12	4339.88
1106.83	4093.47
1110.54	4292.35
1114.24	4156.14
1117.95	4206.76
1121.65	4597.48
1125.35	4511.03
1129.06	3963.6
1132.75	4190.3
1136.45	4246.61
1140.15	4075.17
1143.84	3647.08
1147.53	3729.12
1151.22	3522.26
1154.91	3104.92
1158.6	2932.67
1162.28	2868.83
1165.97	2729.36
1169.65	2542.05
1173.33	1970.58
1177.01	2047.78
1180.69	1764.24
1184.36	1510.24
1188.04	1339.42
1191.71	1077.58
1195.38	827.537
1199.05	607.637
1202.71	837.004
1206.38	481.109
1210.04	463.533
1213.71	346.455
1217.37	185.492
1221.03	296.025
1224.68	276.992
1228.34	79.07
1231.99	48.945
1235.65	174.793
1239.3	245.635
1242.95	135.873
1246.59	197.582
1250.24	346.82
1253.88	137.109
1257.53	141.355
1261.17	116.871
1264.81	143.773
1268.45	130.355
1272.08	61.693
1275.72	101.107
1279.35	201.941
1282.98	85.303
1286.61	85.754
1290.24	120.93
1293.87	103.973
1297.49	10.006
1301.11	120.857
1304.73	89.334
1308.36	166.469
1311.97	42.207
1315.59	245.725
1319.2	51.934
1322.82	46.645
1326.43	189.234
1330.04	95.453
1333.65	102.305
1337.26	87.73
1340.86	153.049
1344.47	141.863
1348.07	238.135
1351.67	394.918
1355.27	349.633
1358.87	444.637
1362.46	250.762
1366.06	230.184
1369.65	349.041
1373.24	356.451
1376.83	420.279
1380.42	264.049
1384	354.107
1387.59	455.146
1391.17	467.158
1394.75	638.754
1398.33	486.277
1401.91	204.232
1405.49	133.768
1409.06	167.607
1412.64	472.018
1416.21	619.91
1419.78	443.174
1423.35	21.348
1426.91	299.328
1430.48	44.578
1434.05	531.941
1437.61	555.73
1441.17	401.887
1444.73	645.211
1448.29	658.082
1451.84	786.312
1455.4	838.48
1458.95	609.211
1462.5	310.754
1466.05	53.484
1469.6	62.582
