Measurement: Raman, 514 nm, ccw, Raman Data Processed
Mineral: Heulandite-Ca
Rruff sample: R050017
Ideal chemistry: NaCa_4_(Si_27_Al_9_)O_72_24H_2_O
Locality: Poona, Maharashtra State, India
Source: Eugene Schlepp
Description: Single crystals
Measured chemistry: (Ca_.70_Na_.22_K_.02_[box]_0.06_)_5_(Si_0.77_Al_0.23_)_36_O_72_Â·24H_2_O
Pin_id: L00175
Orientation: Laser parallel to -b* (0 -1 0). Fiducial mark perpendicular to laser is parallel to c [0 0 1]
Raman shift (cm-1)	intensity
92.926	0
97.121	207.848
101.314	712.008
105.505	1914.54
109.694	2992.74
113.881	4133.72
118.066	4992.16
122.249	5831.91
126.43	6191.18
130.608	6694.8
134.785	7012.84
138.959	6846.2
143.131	6892.47
147.301	6392.39
151.469	5856.31
155.635	4982.45
159.799	4278.51
163.961	3455.29
168.121	2588.47
172.278	1855.81
176.434	1293.64
180.587	709.334
184.739	385.554
188.888	171.297
193.035	132.287
197.18	266.48
201.324	127.228
205.465	132.704
209.603	24.423
213.74	43.965
217.875	27.3
222.008	11.922
226.139	71.693
230.267	73.479
234.394	253.05
238.518	309.739
242.641	573.631
246.761	885.281
250.879	1155.23
254.996	1033.89
259.11	1036.5
263.222	844.032
267.332	580.572
271.44	285.938
275.546	190.71
279.65	94.058
283.752	35.389
287.852	149.681
291.95	118.8
296.046	195.25
300.14	174.016
304.231	123.843
308.321	37.796
312.409	132.756
316.495	111.706
320.578	227.398
324.66	441.285
328.739	555.175
332.817	635.817
336.892	917.751
340.966	1214.24
345.037	1432.31
349.107	1718.74
353.174	2071.23
357.24	2677.06
361.303	3079.38
365.365	3533.94
369.424	4287.24
373.481	5075.88
377.537	5860.6
381.59	6573.01
385.642	7552.16
389.691	8714.78
393.738	10066.7
397.784	11843.3
401.827	14263.5
405.868	15916.7
409.908	16122
413.945	14587.2
417.98	12242.2
422.014	9705.07
426.045	7615.6
430.075	5859.47
434.102	4497.99
438.127	3542.52
442.151	2977.12
446.172	2643.37
450.192	2408.43
454.209	2508.07
458.225	2796.2
462.238	3633.87
466.25	4549.21
470.259	5319.42
474.267	5816.6
478.273	6617.32
482.276	8113.79
486.278	8842.17
490.278	7782.31
494.276	5793.94
498.271	3587.46
502.265	2465.4
506.257	1464.92
510.247	1082.66
514.235	718.897
518.221	414.109
522.205	417.095
526.187	363.944
530.167	268.064
534.145	277.33
538.122	175.296
542.096	144.964
546.068	147.602
550.039	143.631
554.007	69.523
557.973	71.665
561.938	141.365
565.901	120.683
569.861	103.473
573.82	6.6
577.777	223.426
581.732	312.932
585.685	364.289
589.636	394.1
593.585	397.587
597.532	660.554
601.477	967.376
605.42	1399.27
609.361	1788.29
613.301	2142.7
617.238	2145.62
621.174	1897.07
625.108	1498.97
629.039	1149.34
632.969	955.846
636.897	883.378
640.823	483.87
644.747	369.242
648.669	258.492
652.589	251.552
656.508	133.407
660.424	242.98
664.339	8.753
668.251	7.11
672.162	33.711
676.071	28.144
679.978	30.486
683.883	11.735
687.786	68.117
691.687	14.053
695.586	32.988
699.484	69.6
703.379	13.989
707.273	51.292
711.165	57.046
715.055	207.315
718.943	110.079
722.829	72.894
726.713	94.371
730.595	132.492
734.476	194.539
738.354	66.599
742.231	193.266
746.106	182.311
749.978	228.694
753.849	323.068
757.719	370.607
761.586	453.892
765.451	534.83
769.315	560.702
773.177	770.038
777.036	873.618
780.894	850.86
784.75	788.753
788.605	809.232
792.457	749.068
796.307	736.756
800.156	701.385
804.003	675.75
807.848	591.689
811.691	627.588
815.532	964.645
819.371	1283.88
823.209	1075.74
827.045	853.893
830.878	597.433
834.71	307.066
838.54	413.98
842.369	245.922
846.195	287.581
850.02	94.721
853.842	10.764
857.663	174.306
861.482	305.282
865.299	195.915
869.115	111.595
872.928	11.052
876.74	61.421
880.55	41.805
884.358	54.359
888.164	27.148
891.969	33.155
895.771	25.03
899.572	30.646
903.371	24.642
907.168	117.722
910.963	97.484
914.757	15.984
918.548	6.698
922.338	48.291
926.126	13.967
929.912	87.418
933.697	114.511
937.479	133.375
941.26	41.93
945.039	45.449
948.816	71.638
952.591	162.654
956.365	213.491
960.136	84.204
963.906	70.811
967.674	101.344
971.441	161.794
975.205	169.179
978.968	179.522
982.729	210.849
986.488	116.159
990.245	313.494
994	210.878
997.754	425.232
1001.51	473.351
1005.26	598.389
1009	455.544
1012.75	355.467
1016.5	473.006
1020.24	961.604
1023.98	748.757
1027.72	761.345
1031.46	749.956
1035.19	778.245
1038.93	723.098
1042.66	713.704
1046.39	948.742
1050.12	1021.91
1053.85	893.258
1057.57	807.176
1061.29	738.209
1065.02	734.314
1068.74	765.146
1072.45	835.526
1076.17	939.685
1079.88	922.073
1083.6	964.228
1087.31	1157.39
1091.02	1230.95
1094.72	1324.81
1098.43	1399.55
1102.13	1601.16
1105.84	1537.54
1109.54	1653.97
1113.24	1503.06
1116.93	1509.71
1120.63	1576.55
1124.32	1643.09
1128.01	1559.93
1131.7	1596.82
1135.39	1503.84
1139.08	1355.03
1142.76	1362.77
1146.45	1440.22
1150.13	1528.83
1153.81	1438.66
1157.48	1358.41
1161.16	1366.04
1164.84	1154.66
1168.51	1054.53
1172.18	985.488
1175.85	883.412
1179.52	821.303
1183.18	823.189
1186.85	732.901
1190.51	621.838
1194.17	384.902
1197.83	234.986
1201.48	212.954
1205.14	300.13
1208.79	187.452
1212.44	219.701
1216.09	247.998
1219.74	270.307
1223.39	156.009
1227.03	82.987
1230.68	43.28
1234.32	29.193
1237.96	20.449
1241.6	51.231
1245.23	169.188
1248.87	249.324
1252.5	118.532
1256.13	97.792
1259.76	104.116
1263.39	15.57
1267.02	119.194
1270.64	69.002
1274.26	165.026
1277.88	253.28
1281.5	10.781
1285.12	107.517
1288.74	8.615
1292.35	16.236
1295.96	31.621
1299.57	115.605
1303.18	60.758
1306.79	78.02
1310.4	143.235
1314	209.347
1317.6	215.163
1321.2	165.698
1324.8	65.14
1328.4	76.138
1331.99	116.915
1335.59	197.837
1339.18	219.866
1342.77	204.976
1346.36	296.371
1349.95	285.599
1353.53	159.476
1357.12	0
