Measurement: Raman, 514 nm, ccw, Raman Data Processed
Mineral: Heulandite-Ca
Rruff sample: R060465
Ideal chemistry: NaCa_4_(Si_27_Al_9_)O_72_24H_2_O
Locality: Garrawilla, near Gunnadah, New South Wales, Australia
Source: Michael Scott
Description: Orange fan of platy crystals
Measured chemistry: (Ca_0.66_Na_0.24_K_0.10_)_5_(Si_0.77_Al_0.23_)_36_O_72_Â·24H_2_O
Pin_id: M01887
Orientation: Laser parallel to b* (0 1 0). Fiducial mark perpendicular to laser is parallel to -c [0 0 -1]
Raman shift (cm-1)	intensity
78.283	0
83.243	65.3713
88.2	346.927
93.155	1943.16
98.106	4178.79
103.056	6336.22
108.002	8767.14
112.946	9339.58
117.888	10384.8
122.827	10821.3
127.763	11477.2
132.697	12799.4
137.628	14992.4
142.556	15497.8
147.482	12185.9
152.405	9770.92
157.326	8080.99
162.244	6844.17
167.159	6014.03
172.072	4989.73
176.982	4073.75
181.89	3483.24
186.795	2813.85
191.697	2585.5
196.597	2497.64
201.494	2355.7
206.389	1396.29
211.281	1272.29
216.17	1163.59
221.057	1067.95
225.941	1135.78
230.823	1154.95
235.702	1359.54
240.578	1659.3
245.452	1846.14
250.323	1843.39
255.192	1742.28
260.058	1417.26
264.921	1174.35
269.782	800.106
274.64	572.077
279.495	336.59
284.348	189.213
289.198	19.6045
294.046	140.299
298.891	167.209
303.733	141.535
308.573	143.255
313.41	254.472
318.245	155.345
323.077	64.3447
327.906	90.2598
332.733	208.605
337.557	288.557
342.379	248.926
347.198	406.688
352.014	503.497
356.828	931.325
361.639	1274.08
366.447	1820.67
371.253	2335.11
376.056	3121.49
380.857	4089.16
385.655	5352.33
390.451	7440.44
395.243	9641.62
400.034	11029.8
404.821	11035.7
409.606	9695.97
414.389	7427.87
419.168	5531.68
423.945	3843.38
428.72	2539.17
433.492	1688.25
438.261	1078.83
443.028	828.171
447.792	748.852
452.553	959.654
457.312	1670.32
462.068	2694.23
466.822	3895.3
471.573	4981.39
476.321	7279.96
481.067	8605.96
485.81	7861.35
490.551	5238.08
495.289	2904.12
500.024	1389.4
504.757	786.864
509.487	360.467
514.214	351.157
518.939	169.869
523.661	130.137
528.381	62.9438
533.098	108.776
537.812	54.9414
542.524	26.2109
547.233	144.875
551.94	59.1948
556.644	26.7183
561.345	42.1865
566.044	67.585
570.74	196.502
575.433	292.809
580.124	292.94
584.812	527.943
589.498	694.148
594.181	953.499
598.861	1414.16
603.539	1925.24
608.214	2378.35
612.887	2477.51
617.557	2127.5
622.224	1905.64
626.889	1628.51
631.551	1449.4
636.21	1254.85
640.867	1110.38
645.521	847.914
650.173	796.448
654.822	591.993
659.468	458.528
664.112	422.856
668.753	492.702
673.392	301.201
678.028	194.187
682.661	202.392
687.292	139.094
691.92	79.0283
696.545	154.412
701.168	199.175
705.788	111.814
710.406	170.394
715.021	245.366
719.633	282.316
724.243	237.647
728.85	293.207
733.455	167.781
738.056	218.279
742.656	298.821
747.252	293.283
751.846	392.138
756.438	439.686
761.027	585.128
765.613	657.501
770.196	936.593
774.777	1183.3
779.356	1293.28
783.932	1440.51
788.505	1396.01
793.075	1543.74
797.643	1355.19
802.208	1183.96
806.771	924.283
811.331	978.565
815.888	979.821
820.443	910.212
824.995	594.227
829.545	373.106
834.092	316.924
838.636	287.608
843.178	238.284
847.717	251.961
852.254	186.019
856.788	367.861
861.319	250.721
865.848	280.003
870.374	212.065
874.897	9.86963
879.418	20.2207
883.936	92.8315
888.452	58.6435
892.965	19.7891
897.475	35.6187
901.983	52.1338
906.488	100.574
910.99	62.833
915.49	29.8105
919.988	122.617
924.482	77.2519
928.974	25.6123
933.464	27.7622
937.951	20.8398
942.435	6.84033
946.917	110.618
951.396	44.4458
955.872	129.394
960.346	139.567
964.817	106.001
969.285	106.806
973.751	62.7036
978.215	54.5195
982.675	63.104
987.134	225.675
991.589	202.245
996.042	283.795
1000.49	472.309
1004.94	413.011
1009.38	328.112
1013.83	472.519
1018.27	510.459
1022.7	667.59
1027.14	654.392
1031.57	516.894
1036	640.587
1040.43	548.119
1044.85	566.749
1049.27	605.155
1053.69	561.754
1058.11	602.267
1062.52	526.84
1066.93	625.681
1071.34	731.554
1075.75	640.365
1080.15	999.889
1084.55	1270.39
1088.95	1225.95
1093.35	1197.38
1097.74	1376.07
1102.13	1295.06
1106.52	1320.37
1110.9	1459.18
1115.28	1367.83
1119.66	1342.03
1124.04	1410.77
1128.41	1481.31
1132.79	1340.81
1137.16	1387.43
1141.52	1347.2
1145.89	1268.25
1150.25	1286.53
1154.61	1249.01
1158.96	1101.67
1163.32	1090.57
1167.67	1127.72
1172.02	1041
1176.36	953.453
1180.71	752.08
1185.05	457.444
1189.38	509.766
1193.72	325.92
1198.05	79.2236
1202.38	165.671
1206.71	85.3047
1211.04	147.178
1215.36	41.1797
1219.68	70.8066
1224	22.9268
1228.31	100.308
1232.62	86.8144
1236.93	95.0527
1241.24	147.461
1245.54	88.125
1249.84	50.9463
1254.14	150.926
1258.44	169.059
1262.73	203.388
1267.03	329.867
1271.31	245.217
1275.6	390.044
1279.88	200.936
1284.16	158.954
1288.44	228.086
1292.72	407.411
1296.99	377.499
1301.26	281.457
1305.53	458.97
1309.79	345.555
1314.06	453.194
1318.32	453.9
1322.57	373.691
1326.83	335.565
1331.08	178.523
1335.33	149.565
1339.58	236.712
1343.82	117.728
1348.06	112.382
1352.3	171.473
1356.54	59.8174
1360.77	22.5234
1365.01	126.231
1369.23	115.064
1373.46	141.8
1377.68	49.8232
1381.9	193.947
1386.12	184.106
1390.34	123.043
1394.55	5.19141
1398.76	81.2363
1402.97	123.039
1407.18	107.212
1411.38	94.0283
1415.58	107.91
1419.78	9.62012
1423.97	116.485
1428.17	135.935
1432.36	320.047
1436.54	707.985
1440.73	1098.14
1444.91	1411.68
1449.09	1525.3
1453.27	1623.99
1457.44	1545.91
1461.61	1142.73
1465.78	867.448
1469.95	698.344
1474.11	506.265
1478.27	454.031
1482.43	379.057
1486.59	251.606
1490.74	61.2578
1494.89	17.4268
1499.04	4.45801
1503.19	33.9893
1507.33	105.922
1511.47	22.2334
1515.61	69.832
1519.75	27.5762
1523.88	140.744
1528.01	264.718
1532.14	210.207
1536.26	220.418
1540.38	136.894
1544.51	161.199
1548.62	302.283
1552.74	263.526
1556.85	5.34277
1560.96	93.7695
