Measurement: Raman, 514 nm, ccw, Raman Data Processed
Mineral: Heulandite-Ca
Rruff sample: R040021
Ideal chemistry: NaCa_4_(Si_27_Al_9_)O_72_24H_2_O
Locality: Prospect Park, Patterson, Passaic County, New Jersey, USA
Source: University of Arizona Mineral Museum
Description: Group of colorless lamellar crystals
Measured chemistry: Na_0.25_(Na_0.55_K_0.45_)_Σ=1_(Ca_2.42_Na_0.85_Sr_0.73_)_Σ=4.00_(Si_27.60_Al_8.40_)_Σ=36_O_72_·24H_2_O ; H_2_O estimated by difference
Pin_id: m00378
Orientation: Laser parallel to a [1 0 0]. Fiducial mark perpendicular to laser is parallel to b* (0 1 0)
Raman shift (cm-1)	intensity
100.34	0
104.516	470.266
108.691	1893.47
112.864	2856
117.034	5034.94
121.203	5698.22
125.369	5951.21
129.534	6227.41
133.696	7689.04
137.857	8703.05
142.016	10142.1
146.172	10791.6
150.327	10356.1
154.48	10318.4
158.63	9232.43
162.779	8386.55
166.926	7238.22
171.07	5399.66
175.213	4385.64
179.354	3242.95
183.493	2271.64
187.63	1935.29
191.765	1478.59
195.898	1018.99
200.029	1101.45
204.158	476.561
208.285	90.477
212.41	89.91
216.533	289.482
220.654	555.973
224.773	663.865
228.891	559.926
233.006	232.725
237.119	27.213
241.231	342.727
245.34	920.719
249.448	1375.44
253.553	1523.09
257.657	1370.97
261.758	1434.49
265.858	1280.66
269.956	937.232
274.052	1113.18
278.146	1233.87
282.237	1213.51
286.327	1140.43
290.416	1318.82
294.502	1812.32
298.586	1932.73
302.668	1937.34
306.749	2391.19
310.827	2508.44
314.903	3025.39
318.978	3698.91
323.051	4116.56
327.121	4831.98
331.19	5111.59
335.257	5702.23
339.322	5865.16
343.385	6261.86
347.446	6851.28
351.505	7632.97
355.563	8391.53
359.618	9636.08
363.672	10860.7
367.723	12516
371.773	13915
375.821	15675.7
379.866	16713.6
383.91	18753.6
387.952	21282.7
391.992	23944.2
396.031	28424.4
400.067	32420.8
404.101	33967
408.134	32759.7
412.165	28626.4
416.193	23133.7
420.22	18056.9
424.245	13799.7
428.268	10373.6
432.289	7719.85
436.309	6253.95
440.326	4881.58
444.342	5157.43
448.355	4512.62
452.367	4407.93
456.377	5554.23
460.385	7335.2
464.391	9680.65
468.395	11835.7
472.398	13819.3
476.398	17963.6
480.397	21124.7
484.394	20903.7
488.389	16899.6
492.382	11590.4
496.373	7582.74
500.362	4737.79
504.349	2695.14
508.335	1876.99
512.319	1472.11
516.3	947.215
520.28	555.82
524.259	551.797
528.235	422.131
532.209	129.316
536.182	58.041
540.152	105.428
544.121	245.916
548.088	101.314
552.053	174.715
556.017	94.98
559.978	146.273
563.938	11.719
567.895	37.217
571.851	276.715
575.805	418.633
579.758	498.715
583.708	915.932
587.657	1161.3
591.603	1564.9
595.548	2098.39
599.491	2656.73
603.432	3400.95
607.372	4128.01
611.309	4151.99
615.245	3990.91
619.179	3270.69
623.111	2716.3
627.041	1743.74
630.97	1296.99
634.896	912.041
638.821	461.824
642.744	811.348
646.665	562.602
650.584	459.574
654.502	279.236
658.418	144.553
662.331	137.582
666.244	206.527
670.154	19.4
674.062	136.709
677.969	92.615
681.874	77.645
685.777	9.924
689.678	153.541
693.577	395.836
697.475	269.082
701.371	180.73
705.265	300.537
709.157	40.512
713.047	442.295
716.936	181.189
720.823	436.154
724.708	411.473
728.591	138.473
732.472	384.492
736.352	515.402
740.23	574.535
744.106	621.654
747.98	533.473
751.853	869.379
755.723	812.498
759.592	905.25
763.459	1376.36
767.325	1711.8
771.188	1955.87
775.05	1715.73
778.91	2274.98
782.768	1778.04
786.625	2040.86
790.479	1615.8
794.332	1440.68
798.183	1238.28
802.033	1052.19
805.88	738.297
809.726	1020.25
813.57	1027.84
817.413	1097.44
821.253	878.496
825.092	690.854
828.929	543.578
832.764	232.094
836.598	221.695
840.429	224.029
844.259	126.709
848.088	49.377
851.914	65.754
855.739	73.639
859.562	199.998
863.383	31.625
867.203	220.775
871.02	239.869
874.836	40.604
878.65	123.035
882.463	86.178
886.274	2.467
890.083	36.256
893.89	27.393
897.695	103.387
901.499	78.615
905.301	5.787
909.102	210.422
912.9	332.297
916.697	14.85
920.492	57.91
924.285	171.561
928.077	223.984
931.867	289.221
935.655	364.184
939.442	48.797
943.226	175.107
947.009	318.148
950.791	305.986
954.57	26.66
958.348	300.145
962.124	297.848
965.899	451.969
969.671	503.717
973.442	800.586
977.211	947.607
980.979	1074.84
984.745	611.373
988.509	1176.83
992.271	1347.52
996.032	1769.55
999.791	1731.1
1003.55	2529.41
1007.3	2331.86
1011.06	2188.36
1014.81	2336.95
1018.56	2551.28
1022.31	2758.8
1026.06	2608.78
1029.8	2613.8
1033.55	2550.64
1037.29	2259.15
1041.03	2604.66
1044.77	2538.76
1048.5	2081.45
1052.24	2449.61
1055.97	2066.38
1059.7	2054.77
1063.43	2098.04
1067.16	1874.99
1070.89	2634.46
1074.61	2603.56
1078.34	2769.85
1082.06	3405.82
1085.78	3820.05
1089.5	4135.87
1093.21	4335.72
1096.93	4296.82
1100.64	4830.41
1104.35	4630.49
1108.06	5131.34
1111.77	5067.98
1115.48	5021.89
1119.18	4955.93
1122.89	5004.29
1126.59	4726.4
1130.29	4989.99
1133.99	4571.32
1137.68	4256.78
1141.38	4262.33
1145.07	4320.64
1148.76	4075.53
1152.45	3727.71
1156.14	3519.45
1159.83	3076.33
1163.51	2915.85
1167.19	2817.84
1170.88	2568.38
1174.56	2102.23
1178.23	1607.9
1181.91	1695.1
1185.59	1538.25
1189.26	1209.44
1192.93	1054.37
1196.6	748.973
1200.27	692.812
1203.94	659.461
1207.6	398.445
1211.27	361.594
1214.93	123.188
1218.59	397.875
1222.25	170.602
1225.9	171.301
1229.56	153.293
1233.21	8.887
1236.86	4.395
1240.51	101.734
1244.16	66.082
1247.81	194.289
1251.45	124.109
1255.1	98.023
1258.74	162.234
1262.38	120.605
1266.02	71.02
1269.66	396.551
1273.29	148.273
1276.93	137.348
1280.56	117.93
1284.19	72.352
1287.82	74.152
1291.45	7.266
1295.07	72.816
1298.7	237.504
1302.32	216.012
1305.94	250.363
1309.56	50.383
1313.18	280.781
1316.8	526.43
1320.41	657.816
1324.02	631.66
1327.63	263.215
1331.24	303.098
1334.85	128.195
1338.46	164.586
1342.06	111.227
1345.67	319.297
1349.27	237.531
1352.87	337.82
1356.47	73.484
1360.07	226.043
1363.66	102.363
1367.25	338.625
1370.85	114.625
1374.44	383.754
1378.03	320.5
1381.61	546.234
1385.2	430.086
1388.78	418.176
1392.37	265.449
1395.95	189.797
1399.53	343.875
1403.1	87.898
1406.68	189.516
1410.26	170.328
1413.83	300.336
1417.4	339.359
1420.97	184.758
1424.54	206.758
1428.1	0
