Measurement: Raman, 514 nm, ccw, Raman Data Processed
Mineral: Heulandite-Ca
Rruff sample: R060465
Ideal chemistry: NaCa_4_(Si_27_Al_9_)O_72_24H_2_O
Locality: Garrawilla, near Gunnadah, New South Wales, Australia
Source: Michael Scott
Description: Orange fan of platy crystals
Measured chemistry: (Ca_0.66_Na_0.24_K_0.10_)_5_(Si_0.77_Al_0.23_)_36_O_72_Â·24H_2_O
Pin_id: M01415
Orientation: Laser parallel to a* (1 0 0). Fiducial mark perpendicular to laser is parallel to b [0 1 0]
Raman shift (cm-1)	intensity
214.049	0
217.732	73.7793
221.413	41.0859
225.092	405.551
228.77	968.394
232.446	3113.15
236.121	2649.27
239.793	4132.07
243.464	5152.68
247.133	6169.43
250.8	6443.72
254.466	5991.99
258.13	5781.62
261.792	5075.53
265.453	4034.93
269.112	2874.05
272.769	2281.46
276.424	1493.74
280.078	1148.56
283.73	712.924
287.381	293.893
291.029	100.982
294.676	85.5215
298.321	175.088
301.965	251.394
305.607	46.25
309.247	104.758
312.885	393.688
316.522	812.062
320.157	1375.32
323.791	1804.71
327.422	2244.28
331.052	2259.06
334.681	2427.62
338.307	2549.56
341.932	2260.79
345.556	2415.33
349.177	2858.17
352.797	3434.28
356.416	4335.65
360.032	5268.22
363.647	6813.44
367.261	8529.35
370.872	10328
374.482	12471.5
378.091	15142.5
381.697	18295.4
385.302	21729
388.906	25914.7
392.507	30587.8
396.107	35315.3
399.706	38605.8
403.303	39584.2
406.898	37903.2
410.491	34216.1
414.083	29214.1
417.673	24743.6
421.262	20241.7
424.848	16205
428.434	12497.2
432.017	9322.25
435.599	7088.96
439.18	5566.72
442.758	4307.65
446.335	3748.89
449.911	3574.33
453.485	3983.76
457.057	5055.59
460.627	6513.11
464.196	8723.2
467.763	11026.2
471.329	14954.2
474.893	20293.2
478.456	26844.1
482.016	32098
485.576	32583
489.133	27698
492.689	19865
496.244	12769
499.796	8119.97
503.347	4932.9
506.897	3083.91
510.445	2119.86
513.991	1193.73
517.536	1118.68
521.079	539.486
524.621	302.838
528.161	113.127
531.699	21.3887
535.236	95.2227
538.771	167.217
542.304	55.8203
545.836	174.871
549.367	8.94531
552.896	24.1797
556.423	9.68164
559.948	210.209
563.472	90.5176
566.995	8.25195
570.516	238.76
574.035	171.246
577.553	386.34
581.069	822.492
584.583	1010.91
588.096	1730.88
591.608	2275.36
595.118	3251.3
598.626	4464.22
602.133	5856.17
605.638	7096.78
609.142	7725.65
612.644	7739.29
616.144	6874.78
619.643	5548.29
623.14	4489.83
626.636	3301.2
630.13	2552.31
633.623	2047.16
637.114	1524.76
640.604	1102.26
644.092	843.561
647.578	492.514
651.063	211.096
654.547	490.315
658.029	105.006
661.509	139.141
664.988	25.5703
668.465	101.424
671.941	36.8535
675.415	96.6191
678.887	234.158
682.359	111.066
685.828	298.725
689.296	170.525
692.763	210.691
696.228	380.367
699.691	426.621
703.153	460.191
706.613	733.328
710.072	463.547
713.53	554.723
716.985	713.396
720.44	511.277
723.893	645.061
727.344	617.811
730.794	560.348
734.242	436.656
737.689	655.627
741.134	672.508
744.578	765.725
748.02	961.17
751.461	1030.33
754.9	1050.43
758.338	1524.47
761.774	1915.4
765.208	2414.69
768.642	2716.72
772.073	3498.11
775.504	4742.89
778.932	4846.55
782.36	5356.22
785.785	5653.3
789.21	5695.79
792.632	5751.22
796.054	5452.33
799.473	5127.74
802.892	4718.94
806.309	4120.01
809.724	3968.96
813.138	3685.08
816.55	3830.72
819.961	3809
823.37	3219.69
826.778	2460.93
830.185	1697.8
833.59	1128.25
836.993	878.051
840.395	688.955
843.796	515.844
847.195	376.721
850.593	356.857
853.989	349.5
857.384	273.357
860.777	274.643
864.169	227.24
867.559	140.953
870.948	147.525
874.336	34.9668
877.722	2.96289
881.106	141.231
884.489	38.2109
887.871	57.7031
891.251	126.897
894.63	127.154
898.007	17.0938
901.383	86.4785
904.757	44.0312
908.13	55.207
911.502	13.4629
914.872	18.9355
918.24	60.7422
921.608	44.2422
924.973	39.0234
928.338	112.623
931.701	77.75
935.062	70.6562
938.422	173.315
941.781	43.8203
945.138	113.176
948.494	126.371
951.848	235.381
955.201	282.1
958.552	309.518
961.902	377.617
965.251	335.424
968.598	472.951
971.944	631.258
975.288	666.199
978.631	811.197
981.973	663.287
985.313	906.217
988.652	898.519
991.989	1084.11
995.325	1284.55
998.659	1511.87
1001.99	1494.06
1005.32	1613.8
1008.65	1652.24
1011.98	1626.48
1015.31	1655.14
1018.64	1850.97
1021.96	1835.75
1025.29	1962.7
1028.61	2016.28
1031.93	2070.01
1035.25	2234.15
1038.56	2249.94
1041.88	2146.41
1045.19	2385.1
1048.51	2137.46
1051.82	2394.25
1055.13	2398.75
1058.44	2482.44
1061.75	2532.88
1065.06	2498.2
1068.36	2666.5
1071.66	2788.3
1074.97	3003.54
1078.27	3093.97
1081.57	3345.56
1084.87	3494.28
1088.16	3667.27
1091.46	3919.53
1094.75	4023.24
1098.05	4161.36
1101.34	4156.79
1104.63	4515.09
1107.92	4752.39
1111.2	4917.55
1114.49	4667.34
1117.78	4646.47
1121.06	5145.46
1124.34	5008.44
1127.62	4605.72
1130.9	4540.51
1134.18	4541.01
1137.45	4332.66
1140.73	4077.03
1144	4090.73
1147.28	4048.61
1150.55	3881.61
1153.82	3457.36
1157.09	3743.24
1160.35	3577.73
1163.62	3402.19
1166.88	3190.47
1170.14	2941.31
1173.41	2839.23
1176.67	2535.44
1179.93	2427.83
1183.18	2256.32
1186.44	1963.82
1189.69	1662.63
1192.95	1430.97
1196.2	1175.51
1199.45	1021.02
1202.7	663.496
1205.95	684.93
1209.2	624.312
1212.44	464.641
1215.69	300.893
1218.93	229.09
1222.17	79.3184
1225.41	67.7793
1228.65	35.9043
1231.89	47.3359
1235.13	51
1238.36	16.1719
1241.6	31.6367
1244.83	69.3457
1248.06	98.7852
1251.29	130.717
1254.52	24.9961
1257.74	111.371
1260.97	20.0645
1264.19	31.6973
1267.42	130.465
1270.64	300.227
1273.86	94.7754
1277.08	227.131
1280.3	174.451
1283.52	98.2461
1286.73	226.115
1289.94	303.336
1293.16	246.916
1296.37	286.047
1299.58	379.801
1302.79	489.81
1306	434.211
1309.2	649.141
1312.41	477.629
1315.61	375.316
1318.82	546.201
1322.02	543.287
1325.22	546.254
1328.41	507.25
1331.61	502.338
1334.81	342.166
1338	436.328
1341.2	496.254
1344.39	405.953
1347.58	298.34
1350.77	403.66
1353.96	318.682
1357.15	598.707
1360.33	347.004
1363.52	351.344
1366.7	117.061
1369.88	329.731
1373.06	303.32
1376.24	323.861
1379.42	188.922
1382.6	115.623
1385.77	346.43
1388.95	212.621
1392.12	331.389
1395.29	332.172
1398.46	231.656
1401.63	72.1719
1404.8	50.3613
1407.97	106.582
1411.14	66.2305
1414.3	56.2324
1417.46	79.5176
1420.62	232.941
1423.79	134.815
1426.95	171.121
1430.1	480.394
1433.26	711.996
1436.42	562.104
1439.57	749.684
1442.72	603.15
1445.88	745.256
1449.03	455.986
1452.18	521.283
1455.33	546.322
1458.47	488.703
1461.62	415.065
1464.76	434.728
1467.91	728.639
1471.05	307.68
1474.19	436.758
1477.33	366.182
1480.47	355.551
1483.61	37.9922
1486.74	328.779
1489.88	64.541
1493.01	301.092
1496.14	303.438
1499.27	212.127
1502.4	235.037
1505.53	292.023
1508.66	57.8164
1511.79	317.488
1514.91	194.902
1518.03	50.7656
1521.16	476.981
1524.28	329.535
1527.4	351.096
1530.52	379.049
1533.63	333.481
1536.75	498.006
1539.87	263.131
1542.98	201.826
1546.09	355.971
1549.2	0.546875
1552.32	371.185
1555.42	712.16
1558.53	377.022
1561.64	106.16
