Measurement: Raman, 514 nm, ccw, Raman Data Processed
Mineral: Heulandite-Ca
Rruff sample: R060465
Ideal chemistry: NaCa_4_(Si_27_Al_9_)O_72_24H_2_O
Locality: Garrawilla, near Gunnadah, New South Wales, Australia
Source: Michael Scott
Description: Orange fan of platy crystals
Measured chemistry: (Ca_0.66_Na_0.24_K_0.10_)_5_(Si_0.77_Al_0.23_)_36_O_72_Â·24H_2_O
Pin_id: M01254
Orientation: Laser parallel to c* (0 0 1). Fiducial mark perpendicular to laser is parallel to a [1 0 0]
Raman shift (cm-1)	intensity
238.972	0
242.63	157.754
246.286	34.6055
249.941	610.299
253.594	421.289
257.245	336.654
260.895	788.324
264.544	81.0996
268.191	315.117
271.836	296.881
275.48	53.1855
279.122	146.977
282.763	303.525
286.402	225.783
290.04	352.435
293.676	343.932
297.31	524.793
300.943	401.656
304.575	496.221
308.205	807.248
311.833	1135.51
315.46	1448.07
319.085	1707.2
322.709	2273.89
326.331	2554.54
329.952	2623.76
333.571	2724.59
337.188	2985.03
340.804	3229.77
344.419	3330.62
348.032	3864.58
351.643	4123.65
355.253	4870.83
358.862	5434.11
362.468	6279.48
366.074	7354.91
369.677	7996.39
373.28	9509.9
376.88	10715.4
380.479	12458
384.077	14278.8
387.673	16845
391.268	19417.7
394.861	22665.9
398.452	25965
402.042	27556
405.631	27565.6
409.218	25725.6
412.803	22785.6
416.387	19360.3
419.969	15816.1
423.55	13155.1
427.129	9910.05
430.707	7695.67
434.283	6047.53
437.858	4789.47
441.431	3980.03
445.003	3868.76
448.573	3819.59
452.142	4663.5
455.709	5955.47
459.274	7534.48
462.838	8845.52
466.401	10492.6
469.962	11160.6
473.522	12818.5
477.08	14955.8
480.636	16923.1
484.191	17872.7
487.744	15849.2
491.296	11918.5
494.847	8228.75
498.396	5438.81
501.943	3414.81
505.489	2195.48
509.033	1427.07
512.576	1193.86
516.117	694.543
519.657	462.457
523.196	312.787
526.732	332.938
530.268	232.156
533.801	152.953
537.334	8.79492
540.865	31.4609
544.394	126.131
547.922	153.094
551.448	284.74
554.973	86.2871
558.496	3.85547
562.017	14.25
565.538	25.7812
569.056	71.4102
572.574	95.4512
576.089	3.15234
579.604	245.969
583.116	484.272
586.627	647.047
590.137	885.59
593.645	1099.8
597.152	1443.38
600.657	1969.59
604.161	2683.86
607.663	2975.97
611.164	3435.79
614.663	2886.16
618.161	2740.25
621.657	2234.26
625.152	1596.47
628.645	1195.57
632.137	1034.48
635.627	873.225
639.116	564.719
642.603	701.85
646.089	324.619
649.573	603.078
653.056	321.332
656.537	340.076
660.017	334.443
663.495	203.41
666.972	295.871
670.447	244.359
673.921	352.551
677.393	249.43
680.864	120.473
684.334	305.359
687.802	156.227
691.268	269.207
694.733	326.477
698.196	302.289
701.658	330.758
705.119	77.3945
708.578	150.578
712.035	153.777
715.491	310.207
718.946	116.129
722.399	49.0352
725.85	162.477
729.301	217.699
732.749	135.07
736.196	305.539
739.642	147.801
743.086	129.789
746.529	177.715
749.97	295.652
753.41	356.742
756.848	322.125
760.285	338.602
763.72	481.668
767.154	720.379
770.586	781.516
774.017	868.754
777.447	625.195
780.875	686.266
784.301	849.027
787.726	589.523
791.15	737.09
794.572	500.113
797.992	584.152
801.412	412.941
804.829	494.516
808.245	468.508
811.66	70.1367
815.073	378.891
818.485	267.844
821.896	305.481
825.304	349.035
828.712	97.8672
832.118	72.9922
835.522	309.344
838.925	65.0078
842.327	50.6914
845.727	74.7852
849.125	14.7539
852.523	190.117
855.918	291.695
859.313	66.5117
862.705	262.93
866.097	313.676
869.487	133.512
872.875	232.008
876.262	30.4883
879.647	38.5664
883.031	45.0469
886.414	27.8945
889.795	154.613
893.175	313.293
896.553	85.4805
899.93	83.7656
903.305	71.8125
906.679	113.508
910.051	123.18
913.422	126.449
916.792	136.422
920.16	278.09
923.526	32.3711
926.891	21.7969
930.255	265.867
933.617	306.262
936.978	374.375
940.337	162.676
943.695	221.609
947.052	167.035
950.407	115.723
953.76	391.586
957.112	368.59
960.463	244.676
963.812	150.949
967.16	436.879
970.506	632.852
973.851	618.637
977.195	449.106
980.537	421.879
983.877	641.856
987.216	702.578
990.554	624.75
993.89	694.359
997.225	809.129
1000.56	1022.84
1003.89	848.18
1007.22	751.184
1010.55	1027.09
1013.88	819.836
1017.2	1050.67
1020.53	1068.04
1023.85	906.977
1027.17	831.82
1030.49	1090.32
1033.81	957.707
1037.13	1271.72
1040.45	1170.19
1043.76	934.062
1047.07	1212.42
1050.39	1207.79
1053.7	1036.45
1057.01	871.996
1060.31	1121.85
1063.62	968.785
1066.92	1127.65
1070.23	1300.31
1073.53	1313.39
1076.83	1547.9
1080.13	1429.07
1083.43	2025.33
1086.72	2105.88
1090.02	1951.6
1093.31	2307.48
1096.6	2140.75
1099.89	2268.22
1103.18	2540.51
1106.47	2671.14
1109.76	2637.6
1113.04	2942.15
1116.32	2959.35
1119.61	3316.88
1122.88	3604.57
1126.16	3176.54
1129.44	3357.7
1132.72	3438.95
1135.99	3210.46
1139.27	3272.24
1142.54	3333.26
1145.81	3326.91
1149.08	3548.82
1152.35	2984.77
1155.61	3324.91
1158.88	2714.29
1162.14	2541.77
1165.4	2417.5
1168.66	2457.5
1171.92	2464.93
1175.18	2128.76
1178.44	1908.75
1181.69	1710.91
1184.94	1560.26
1188.2	1325.81
1191.45	1187.93
1194.7	768.441
1197.94	1018.51
1201.19	623.777
1204.44	598.234
1207.68	471.938
1210.92	618.773
1214.16	159.66
1217.4	627.773
1220.64	364.016
1223.88	65.6133
1227.11	37.7969
1230.35	214.344
1233.58	182.961
1236.81	98.3281
1240.04	59.8945
1243.27	58.4297
1246.49	172.789
1249.72	28.8867
1252.94	189.473
1256.17	149.875
1259.39	116.359
1262.61	40.8438
1265.83	44.2305
1269.04	164.074
1272.26	151.035
1275.47	2.33984
1278.69	9.97656
1281.9	173.066
1285.11	183.047
1288.32	157.852
1291.52	150.519
1294.73	15.7656
1297.93	269.918
1301.14	433.586
1304.34	317.32
1307.54	215.883
1310.74	545.848
1313.93	591.617
1317.13	677.164
1320.33	558.133
1323.52	317.894
1326.71	561.641
1329.9	310.332
1333.09	491.004
1336.28	244.652
1339.46	378.273
1342.65	702.445
1345.83	311.981
1349.02	450.496
1352.2	437.738
1355.38	218.094
1358.55	263.195
1361.73	500.555
1364.91	105.418
1368.08	311.777
1371.25	52.7773
1374.42	227.781
1377.59	551.445
1380.76	370.644
1383.93	315.519
1387.09	320.949
1390.26	41.9375
1393.42	15.7617
1396.58	7.95312
1399.74	219.586
1402.9	139.328
1406.06	55.7344
1409.21	453.352
1412.37	346.047
1415.52	177.769
1418.67	137.445
1421.83	289.184
1424.97	20.1133
1428.12	176.106
1431.27	163.828
1434.41	87.2109
1437.56	199.684
1440.7	569.531
1443.84	433.332
1446.98	171.172
1450.12	376.606
1453.25	492.773
1456.39	412.981
1459.52	916.086
1462.66	149.082
1465.79	7.79688
1468.92	483.758
1472.05	409.469
1475.17	163.18
1478.3	541.555
1481.42	420.984
1484.55	377.156
1487.67	379.461
1490.79	111.269
1493.91	210.172
1497.03	225.016
1500.14	163.242
1503.26	82.4961
1506.37	165.715
1509.48	166.016
1512.59	213.449
1515.7	27.4336
1518.81	209.84
1521.92	288.418
1525.02	650.391
1528.13	547.75
1531.23	12.6289
1534.33	208.543
1537.43	417.41
1540.53	382.426
1543.63	469.285
1546.72	66.9805
1549.82	9.5
1552.91	647.731
1556	33.9961
1559.09	3.63672
1562.18	0
