Measurement: Raman, 514 nm, ccw, Raman Data Processed
Mineral: Heulandite-Ca
Rruff sample: R050017
Ideal chemistry: NaCa_4_(Si_27_Al_9_)O_72_24H_2_O
Locality: Poona, Maharashtra State, India
Source: Eugene Schlepp
Description: Single crystals
Measured chemistry: (Ca_.70_Na_.22_K_.02_[box]_0.06_)_5_(Si_0.77_Al_0.23_)_36_O_72_Â·24H_2_O
Pin_id: L00164
Orientation: Laser parallel to (1 0 1). Fiducial mark perpendicular to laser is parallel to b [0 1 0]
Raman shift (cm-1)	intensity
77.004	0
81.195	537.207
85.384	1329.19
89.571	4170.26
93.755	6795.14
97.938	6647.77
102.119	6822.13
106.298	6627.12
110.474	5527.69
114.649	4739.53
118.822	5717.9
122.993	6504.41
127.161	6636.61
131.328	7655.04
135.493	8702.99
139.655	9061.64
143.816	9375.28
147.975	10471.1
152.131	10460.3
156.286	9416.63
160.439	8472.1
164.589	7401.7
168.738	5824.58
172.885	4376.52
177.029	3440.7
181.172	2575.9
185.313	1546.6
189.452	1042.98
193.588	859.12
197.723	458.906
201.856	44.503
205.987	140.579
210.116	251.836
214.243	537.623
218.367	620.551
222.49	499.696
226.611	361.308
230.73	335.771
234.847	23.707
238.962	458.315
243.075	983.387
247.186	1451.04
251.296	2120.08
255.403	2420.8
259.508	2100.23
263.611	1866.63
267.712	1738.74
271.812	1592.12
275.909	1423.37
280.005	1202.34
284.098	1394.13
288.19	1376.3
292.279	1147.73
296.367	1163.93
300.452	1500.52
304.536	1507.52
308.618	1459.55
312.698	1691.24
316.776	2077.09
320.851	2085.88
324.925	2090.73
328.998	2505.01
333.068	2961.23
337.136	3187.27
341.202	3220.8
345.266	3644.72
349.329	4262.11
353.389	4530.56
357.448	4978.23
361.504	5764.12
365.559	6908.57
369.612	7773.71
373.663	8131.14
377.712	9311.02
381.758	10709.1
385.804	11816.2
389.847	13642.6
393.888	16725.8
397.927	20632.4
401.965	22872.3
406	22902.9
410.034	21891.7
414.065	19771.4
418.095	16299.5
422.123	12374.2
426.149	9493.98
430.173	7249.1
434.195	5428.32
438.215	4145.7
442.234	3280.41
446.25	3067.39
450.265	3170.68
454.277	3216.97
458.288	4057.43
462.297	6192.71
466.304	7087.52
470.309	8073.13
474.312	9380.25
478.313	13329.5
482.313	18479.1
486.31	19450.2
490.306	15504.7
494.299	10438.9
498.291	6543.14
502.281	4929.94
506.269	2292.35
510.256	1242.89
514.24	926.07
518.222	740.081
522.203	440.098
526.182	256.812
530.159	144.754
534.134	195.695
538.107	207.667
542.078	25.542
546.047	93.448
550.015	30.072
553.98	38.158
557.944	44.54
561.906	143.453
565.866	124.949
569.824	31.734
573.781	130.541
577.735	141.281
581.688	336.528
585.639	664.877
589.588	1104.17
593.535	1538.91
597.48	1957.41
601.423	2699.18
605.365	3596.74
609.304	4067.95
613.242	3776.13
617.178	2953.56
621.112	2595.14
625.045	2059.84
628.975	1540.65
632.904	867.609
636.831	578.665
640.756	486.784
644.679	538.902
648.6	447.972
652.519	118.976
656.437	6.897
660.353	46.313
664.267	64.202
668.179	32.625
672.089	93.89
675.998	108.204
679.904	41.549
683.809	90.691
687.712	104.824
691.614	25.55
695.513	25.068
699.411	115.717
703.306	154.673
707.2	136.687
711.092	78.909
714.983	17.968
718.871	50.033
722.758	146.174
726.643	123.392
730.526	23.91
734.407	58.67
738.287	66.293
742.164	139.937
746.04	186.12
749.914	154.432
753.787	75.679
757.657	147.289
761.526	258.709
765.393	359.358
769.258	439.125
773.121	349.881
776.982	421.833
780.842	490.676
784.7	656.035
788.556	624.091
792.411	523.281
796.263	550.696
800.114	581.055
803.963	534.698
807.81	506.12
811.656	554.204
815.499	450.499
819.341	497.461
823.181	435.191
827.019	317.956
830.856	210.617
834.691	122.076
838.524	7.277
842.355	65.113
846.185	124.592
850.012	122.911
853.838	179.524
857.662	165.746
861.485	120.838
865.305	41.13
869.124	157.606
872.941	161.355
876.757	95.537
880.57	32.282
884.382	98.499
888.192	15.195
892	78.083
895.807	68.285
899.612	100.925
903.415	17.575
907.216	7.474
911.016	363.688
914.814	70.865
918.61	4.25
922.404	64.665
926.196	37.371
929.987	4.901
933.776	86.51
937.564	121.576
941.349	107.239
945.133	88.521
948.915	9.521
952.696	28.283
956.474	106.824
960.251	153.16
964.027	205.314
967.8	188.329
971.572	80.301
975.342	84.262
979.11	208.235
982.877	225.762
986.641	450.463
990.404	419.357
994.166	430.174
997.925	450.937
1001.68	745.5
1005.44	689.918
1009.19	772.534
1012.95	825.707
1016.7	859.822
1020.45	823.19
1024.19	850.896
1027.94	900.76
1031.68	959.89
1035.43	944.627
1039.17	982.211
1042.91	893.581
1046.64	860.879
1050.38	915.521
1054.11	878.02
1057.85	878.451
1061.58	1030.77
1065.31	1047.38
1069.03	1034.43
1072.76	1112.93
1076.48	1338.46
1080.2	1506.64
1083.92	1873.05
1087.64	2212.53
1091.36	2317.79
1095.08	2397.55
1098.79	2414.46
1102.5	2457.92
1106.21	3312.61
1109.92	2784.87
1113.63	2773.09
1117.33	2825.14
1121.04	2815.77
1124.74	2607.89
1128.44	2401.12
1132.14	2470.42
1135.83	2894.1
1139.53	2858.68
1143.22	2867.52
1146.91	2826.6
1150.6	2642.49
1154.29	2408.47
1157.98	2305.64
1161.66	2223.55
1165.35	2234.6
1169.03	2141.74
1172.71	2002.06
1176.39	1695.48
1180.06	1475.51
1183.74	1194.46
1187.41	1036.27
1191.08	837.945
1194.75	768.287
1198.42	685.618
1202.09	629.812
1205.75	522.386
1209.42	250.041
1213.08	195.612
1216.74	185.917
1220.4	188.119
1224.05	185.3
1227.71	231.012
1231.36	171.202
1235.01	169.23
1238.66	23.622
1242.31	4.563
1245.96	7.692
1249.6	77.005
1253.25	25.672
1256.89	144.525
1260.53	127.866
1264.17	164.413
1267.81	105.605
1271.44	124.027
1275.08	48.843
1278.71	9.826
1282.34	45.202
1285.97	95.288
1289.59	166.12
1293.22	209.981
1296.84	167.442
1300.46	72.716
1304.09	42.765
1307.7	45.648
1311.32	44.738
1314.94	9.991
1318.55	64.105
1322.16	198.991
1325.78	231.699
1329.38	425.203
1332.99	33.467
1336.6	39.537
1340.2	71.81
1343.81	11.65
1347.41	37.065
1351.01	48.993
1354.61	48.848
1358.2	54.546
1361.8	75.049
1365.39	121.414
1368.98	11.181
1372.57	47.112
1376.16	51.733
1379.75	4.765
1383.33	82.511
1386.91	68.074
1390.5	162.188
1394.08	224.834
1397.65	214.104
1401.23	229.974
1404.81	200.552
1408.38	112.044
1411.95	127.794
1415.53	54.684
1419.09	59.113
1422.66	159.598
1426.23	185.179
1429.79	245.992
1433.36	241.523
1436.92	444.305
1440.47	522.465
1444.03	418.571
1447.59	393.85
1451.14	361.418
1454.7	390.682
1458.25	366.808
1461.8	339.843
1465.35	428.334
1468.89	308.362
1472.44	415.372
1475.98	377.304
1479.53	404.13
1483.07	271.558
1486.61	188.958
1490.14	195.437
1493.68	84.315
1497.21	57.003
1500.75	14.007
1504.28	90.613
1507.81	61.15
1511.34	117.803
1514.86	149.959
1518.39	204.981
