Measurement: Raman, 514 nm, ccw, Raman Data Processed
Mineral: Heulandite-Ca
Rruff sample: R050017
Ideal chemistry: NaCa_4_(Si_27_Al_9_)O_72_24H_2_O
Locality: Poona, Maharashtra State, India
Source: Eugene Schlepp
Description: Single crystals
Measured chemistry: (Ca_.70_Na_.22_K_.02_[box]_0.06_)_5_(Si_0.77_Al_0.23_)_36_O_72_Â·24H_2_O
Pin_id: L00164
Orientation: Laser parallel to (1 0 1). Fiducial mark perpendicular to laser is parallel to b [0 1 0]
Raman shift (cm-1)	intensity
65.819	0
70.015	334.117
74.209	1586.52
78.401	2182.88
82.592	3342.07
86.78	4360.41
90.966	5036.94
95.15	5802.98
99.332	7164.2
103.512	7467.97
107.69	7392.63
111.866	8171.81
116.04	8826.99
120.212	8321.03
124.382	7786.98
128.55	7176.88
132.716	5798.84
136.88	4903.59
141.042	5147.69
145.202	5441.31
149.36	5292.87
153.516	5175.44
157.67	4840.5
161.822	4018.64
165.972	2799.7
170.121	2323.38
174.267	1729.27
178.411	1016.99
182.553	795.266
186.693	531.766
190.831	350.976
194.967	86.542
199.101	50.609
203.233	35.521
207.363	210.073
211.492	371.404
215.618	174.586
219.742	219.754
223.864	382.005
227.985	20.976
232.103	93.958
236.219	82.969
240.334	152.003
244.446	240.855
248.556	677.266
252.665	644.861
256.771	707.59
260.876	862.826
264.978	1001.26
269.079	770.55
273.178	577.086
277.275	862.628
281.369	1029.3
285.462	899.274
289.553	972.662
293.642	1423.55
297.729	1679.85
301.814	1459.22
305.897	1655.71
309.978	2184.78
314.057	2590.64
318.134	2755.27
322.21	3019.73
326.283	3884.43
330.354	4249.3
334.424	4184.32
338.491	4469.45
342.557	5214.67
346.621	5519.96
350.682	5725.31
354.742	6750.72
358.8	7965.79
362.856	8850.82
366.91	9675.4
370.962	11089.4
375.012	12743.3
379.061	14192.9
383.107	15234.8
387.151	17665.5
391.194	21504.7
395.235	25058.6
399.273	27627
403.31	30356
407.345	30746
411.378	27674.4
415.409	22538.3
419.438	18266.8
423.465	14572.1
427.49	10906.7
431.514	7631
435.535	5665.01
439.555	4708.75
443.573	4052.22
447.588	3665.44
451.602	3748.39
455.614	4691.1
459.624	6413.56
463.633	7885.79
467.639	9047.83
471.643	10469.7
475.646	13471.5
479.647	17513.1
483.645	20264.7
487.642	19506.2
491.637	15677.6
495.63	10448.9
499.622	5990.51
503.611	3532.61
507.598	2393.97
511.584	1638.87
515.568	1168.17
519.549	700.727
523.529	440.125
527.508	427.279
531.484	340.468
535.458	34.125
539.431	133.594
543.401	25.971
547.37	112.688
551.337	100.595
555.302	225.768
559.265	194.516
563.226	8.737
567.186	48.987
571.143	55.268
575.099	7.902
579.053	180.342
583.005	517.628
586.955	593.852
590.903	658.452
594.85	1239.21
598.794	1827.72
602.737	2516.87
606.678	2806.86
610.617	2737.66
614.554	2549.3
618.49	2484.78
622.423	1983.06
626.355	1406.13
630.285	920.986
634.213	768.677
638.139	676.164
642.063	642.511
645.986	385.147
649.907	302.229
653.825	397.329
657.743	366.645
661.658	266.817
665.571	80.616
669.483	2.927
673.392	219.978
677.3	317.712
681.206	293.135
685.111	251.241
689.013	302.51
692.914	408.091
696.812	568.208
700.709	525.907
704.604	282.333
708.498	283.981
712.389	376.807
716.279	423.533
720.167	449.179
724.053	245.293
727.937	234.729
731.82	223.79
735.701	333.826
739.579	401.04
743.456	252.264
747.332	169.061
751.205	379.508
755.077	495.808
758.947	498.561
762.815	486.959
766.681	384.892
770.546	533.896
774.408	659.088
778.269	717.632
782.128	623.511
785.986	445.9
789.841	335.256
793.695	350.231
797.547	357.66
801.397	339.238
805.246	222.454
809.092	29.226
812.937	189.23
816.78	269.276
820.621	209.341
824.461	126.097
828.299	18.572
832.134	39.871
835.969	71.937
839.801	183.629
843.632	171.639
847.461	37.499
851.288	6.105
855.113	37.425
858.937	209.95
862.758	218.434
866.578	80.079
870.397	11.672
874.213	95.761
878.028	45.958
881.841	101.997
885.652	151.529
889.462	77.562
893.269	68.983
897.075	56.052
900.88	87.659
904.682	210.278
908.483	133.331
912.282	179.18
916.079	36.286
919.875	43.096
923.668	19.25
927.46	168.266
931.251	206.519
935.039	87.547
938.826	60.703
942.611	42.276
946.394	36.9
950.176	144.83
953.955	303.075
957.734	248.316
961.51	175.18
965.285	67.479
969.057	151.813
972.829	353.677
976.598	508.306
980.366	518.512
984.132	550.109
987.896	299.818
991.658	333.016
995.419	466.159
999.178	746.57
1002.94	916.262
1006.69	742.674
1010.45	657.602
1014.2	644.608
1017.95	804.759
1021.7	1033.47
1025.44	1169.17
1029.19	1166
1032.93	1082.81
1036.67	981.908
1040.41	957.062
1044.15	1041.59
1047.89	1189.79
1051.62	1374.43
1055.36	1288.42
1059.09	1136.73
1062.82	1019.58
1066.55	1047.62
1070.28	1294.32
1074	1611.53
1077.72	1915.3
1081.44	2146.88
1085.16	2225.74
1088.88	2347.59
1092.6	2671.12
1096.31	2994.52
1100.03	3369.79
1103.74	3699.91
1107.45	3600.01
1111.16	3470.46
1114.86	3180.93
1118.57	3161.45
1122.27	3362.91
1125.97	3513.66
1129.67	3680.41
1133.37	3783.64
1137.06	3705.41
1140.76	3340.54
1144.45	3102.91
1148.14	2883.49
1151.83	3040.98
1155.52	3111.79
1159.21	3076.9
1162.89	2903.41
1166.57	2449.28
1170.25	2152.99
1173.93	1860.85
1177.61	1699.46
1181.29	1681.2
1184.96	1731.88
1188.63	1466.56
1192.31	1239.7
1195.98	862.558
1199.64	735.25
1203.31	404.765
1206.97	358.355
1210.64	312.423
1214.3	497.039
1217.96	432.187
1221.62	349.431
1225.27	168.832
1228.93	116.208
1232.58	126.638
1236.23	0.689
1239.88	32.58
1243.53	197.659
1247.17	297.198
1250.82	279.824
1254.46	156.434
1258.1	50.174
1261.74	23.928
1265.38	19.378
1269.02	56.905
1272.65	154.807
1276.29	379.131
1279.92	382.044
1283.55	189.869
1287.17	207.957
1290.8	138.152
1294.43	70.623
1298.05	109.101
1301.67	72.019
1305.29	178.885
1308.91	228.225
1312.53	193.343
1316.14	280.249
1319.76	202.938
1323.37	151.351
1326.98	23.5
1330.59	52.634
1334.19	8.907
1337.8	72.159
1341.4	161.238
1345.01	190.932
1348.61	257.351
1352.21	168.149
1355.8	59.167
1359.4	54.098
1362.99	28.108
1366.59	42.119
1370.18	52.828
1373.77	3.779
1377.36	353.476
1380.94	395.622
1384.53	410.473
1388.11	430.64
1391.69	377.852
1395.27	136.757
1398.85	101.781
1402.42	27.208
1406	143.378
1409.57	92.393
1413.14	226.241
1416.71	483.72
1420.28	516.598
1423.85	493.165
1427.42	356.047
1430.98	339.737
1434.54	165.616
1438.1	198.524
1441.66	253.446
1445.22	257.089
1448.78	351.299
1452.33	405.826
1455.88	633.476
1459.43	687.064
1462.98	670.817
1466.53	585.565
1470.08	479.453
1473.62	318.23
1477.16	166.718
1480.71	98.435
1484.25	104.47
1487.79	105.869
1491.32	161.904
1494.86	312.028
1498.39	335.007
1501.92	394.752
1505.45	450.724
1508.98	385.216
1512.51	309.135
1516.04	726.749
1519.56	124.853
