Measurement: Raman, 514 nm, ccw, Raman Data Processed
Mineral: Heulandite-Ca
Rruff sample: R050097
Ideal chemistry: NaCa_4_(Si_27_Al_9_)O_72_24H_2_O
Locality: Rat's Nest Claim, Custer County, Idaho, USA
Source: John Cornish
Description: Pale pink coffin-shaped tabular single crystals
Measured chemistry: (Ca_0.66_Na_0.30_K_0.04_)_5_(Si_0.77_Al_0.23_)_36_O_72_Â·24H_2_O
Pin_id: M00432
Orientation: Laser parallel to -c* (0 0 -1). Fiducial mark perpendicular to laser is parallel to a [1 0 0]
Raman shift (cm-1)	intensity
75.937	0
80.125	969.918
84.311	2426.89
88.496	3639.39
92.678	4795.34
96.858	5837.99
101.036	6476.22
105.212	7064.8
109.387	7784.35
113.559	8376.91
117.729	9270.23
121.897	9051.05
126.063	8863.65
130.228	8014.56
134.39	6936.49
138.55	6662.88
142.709	6278.17
146.865	6539.32
151.019	6441.03
155.171	6250.55
159.322	5616.95
163.47	4746.31
167.617	3706.34
171.761	2829.45
175.904	2166.52
180.044	1456.17
184.183	1006.82
188.319	658.951
192.454	457.15
196.586	388.914
200.717	191.404
204.846	241.154
208.972	1.477
213.097	287.771
217.22	501.521
221.341	447.189
225.46	491.881
229.577	488.354
233.692	335.064
237.805	234.084
241.916	75.43
246.025	341.643
250.132	399.789
254.237	786.08
258.34	1073.07
262.442	928.389
266.541	964.398
270.639	1080.13
274.734	974.07
278.828	975.559
282.919	893.564
287.009	1038
291.097	1018.47
295.183	1183.75
299.266	1530.75
303.348	1363.57
307.428	1938.15
311.507	2293.09
315.583	2567.99
319.657	3048.41
323.729	3682.13
327.8	4049.78
331.868	4794.15
335.935	4855.14
339.999	5367.7
344.062	6032.8
348.123	6666.36
352.182	7395.38
356.239	8378.81
360.294	9707.66
364.347	11174.9
368.398	12696.4
372.448	14109.6
376.495	15824.1
380.54	18404
384.584	20413.2
388.626	23458
392.666	27878.6
396.704	32064.4
400.74	35271.4
404.774	35980.6
408.806	33164.3
412.836	29149.9
416.865	24046.3
420.891	18666
424.916	13991.8
428.939	10685.3
432.959	7835.58
436.978	6036.66
440.996	5139.51
445.011	4210.12
449.024	4104.5
453.036	4433.64
457.045	5411.56
461.053	7292.23
465.059	10025.7
469.063	11981.9
473.065	13973.9
477.065	16829.7
481.063	21884.4
485.06	24219
489.054	21604.6
493.047	15876.1
497.038	10728.6
501.027	6449.11
505.014	4123.13
508.999	2568.76
512.982	1706.09
516.964	1315.92
520.944	1015.94
524.921	530.309
528.897	424.887
532.871	273.309
536.844	90.566
540.814	10.332
544.783	84.779
548.749	119.035
552.714	34.244
556.677	173.17
560.638	388.85
564.597	85.412
568.555	75.359
572.511	200.783
576.464	324.445
580.416	245.018
584.366	405.676
588.315	860.893
592.261	1468.91
596.206	1649.98
600.148	2451.25
604.089	3528.34
608.028	3882.75
611.965	3637.81
615.901	2908.62
619.834	2530.07
623.766	2092.14
627.696	1967.82
631.624	1138.11
635.551	824.004
639.475	961.572
643.398	700.705
647.318	476.75
651.237	539.309
655.155	644.412
659.07	146.957
662.984	143.172
666.895	317.018
670.805	99.896
674.713	118.98
678.62	112.197
682.524	202.045
686.427	529.078
690.328	161.938
694.227	399.824
698.124	410.334
702.02	686.959
705.913	139.367
709.805	396.609
713.695	177.182
717.584	527.518
721.47	665.059
725.355	366.754
729.238	482.713
733.119	514.654
736.998	295.045
740.876	319.287
744.752	283.715
748.626	369.508
752.498	270.441
756.368	418.516
760.237	494.029
764.104	530.641
767.969	350.785
771.832	686.24
775.693	934.197
779.553	763.402
783.411	788.387
787.267	587.779
791.122	701.383
794.974	479.635
798.825	224.279
802.674	308.098
806.522	303.793
810.367	439.771
814.211	181.705
818.053	191
821.893	194.623
825.732	313.406
829.568	153.736
833.403	122.256
837.236	46.766
841.068	142.729
844.898	126.068
848.726	46.301
852.552	186.809
856.376	52.639
860.199	182.98
864.02	311.523
867.839	124.094
871.656	80.684
875.472	6.771
879.286	54.662
883.098	60.277
886.909	40.955
890.717	14.354
894.524	87.752
898.33	123.143
902.133	67.9
905.935	26.225
909.735	179.006
913.533	38.43
917.33	241.818
921.124	96.717
924.918	83.068
928.709	93.027
932.499	173.609
936.286	153.844
940.073	380.715
943.857	133.24
947.64	89.324
951.421	101.559
955.2	93.006
958.978	209.836
962.753	200.605
966.527	128.326
970.3	328.479
974.071	47.299
977.84	167.906
981.607	357.309
985.372	675.629
989.136	754.164
992.898	885.766
996.659	707.936
1000.42	1018.2
1004.17	1087.33
1007.93	880.99
1011.68	1122.43
1015.43	1122.68
1019.18	1141.15
1022.93	1128.99
1026.68	1362.32
1030.42	1237.76
1034.17	1132.36
1037.91	1199.97
1041.65	1434.24
1045.39	1403.53
1049.12	1115.48
1052.86	1078.55
1056.59	1202.28
1060.33	1289.68
1064.06	1413.75
1067.78	1453.69
1071.51	1523.92
1075.23	1648.99
1078.96	1788.88
1082.68	1896.53
1086.4	2400.36
1090.12	2743.19
1093.83	3030.45
1097.55	3458.67
1101.26	3488.65
1104.97	3629.86
1108.68	3564.91
1112.39	3742.65
1116.1	3641.81
1119.8	3654.25
1123.5	4099.52
1127.2	4206.27
1130.9	3883.84
1134.6	3916.46
1138.3	4119.6
1141.99	3751.27
1145.69	3417.84
1149.38	3542.39
1153.07	3433.92
1156.76	3078.78
1160.44	3061.85
1164.13	2856.93
1167.81	2764.22
1171.49	2540.89
1175.17	2180.41
1178.85	2067.75
1182.52	1603.16
1186.2	1378.27
1189.87	1309.76
1193.54	873.314
1197.21	777.021
1200.88	625.781
1204.55	878.578
1208.21	449.801
1211.88	182.535
1215.54	210.117
1219.2	223.135
1222.86	319.822
1226.51	220.268
1230.17	27.805
1233.82	319.121
1237.47	216.469
1241.12	245.641
1244.77	153.379
1248.42	236.723
1252.06	516.912
1255.71	210.043
1259.35	12.326
1262.99	84.012
1266.63	132.846
1270.26	215.779
1273.9	279.275
1277.53	97.746
1281.16	466.32
1284.8	135.189
1288.42	172.184
1292.05	52.781
1295.68	57.713
1299.3	166.635
1302.92	14.477
1306.55	72.166
1310.16	143.322
1313.78	28.043
1317.4	402.766
1321.01	72.799
1324.62	226.09
1328.24	513.656
1331.85	76.539
1335.45	6.713
1339.06	44.807
1342.66	332.967
1346.27	345.139
1349.87	459.693
1353.47	541.318
1357.07	533.123
1360.66	604.219
1364.26	396.109
1367.85	569.234
1371.44	502.203
1375.04	521.32
1378.62	381.25
1382.21	534.812
1385.8	685.621
1389.38	573.098
1392.96	764.629
1396.54	884.66
1400.12	614.598
1403.7	501.867
1407.28	330.117
1410.85	488.867
1414.42	793.707
1417.99	673.227
1421.56	716.738
1425.13	425.785
1428.7	684.145
1432.26	820.277
1435.83	964.121
1439.39	1053.14
1442.95	1110.48
1446.51	1397.76
1450.06	1166.13
1453.62	1958.32
1457.17	1708.2
1460.73	1488.81
1464.28	1106.27
1467.83	947.066
1471.37	1058.26
1474.92	856.637
1478.46	799.086
1482.01	612.195
1485.55	825.594
1489.09	593.023
1492.63	474.059
1496.16	691.711
1499.7	109.762
1503.23	174.051
1506.76	459.848
1510.29	666.164
1513.82	437.977
1517.35	5.043
1520.88	385.148
1524.4	0
