Measurement: Raman, 514 nm, ccw, Raman Data Processed
Mineral: Heulandite-Ca
Rruff sample: R060465
Ideal chemistry: NaCa_4_(Si_27_Al_9_)O_72_24H_2_O
Locality: Garrawilla, near Gunnadah, New South Wales, Australia
Source: Michael Scott
Description: Orange fan of platy crystals
Measured chemistry: (Ca_0.66_Na_0.24_K_0.10_)_5_(Si_0.77_Al_0.23_)_36_O_72_Â·24H_2_O
Pin_id: M01887
Orientation: Laser parallel to b* (0 1 0). Fiducial mark perpendicular to laser is parallel to -c [0 0 -1]
Raman shift (cm-1)	intensity
83.243	0
88.2	1.53272
93.155	1674.55
98.106	4708.94
103.056	7600.32
108.002	10538.1
112.946	12535.7
117.888	14014.5
122.827	15220.7
127.763	16040.4
132.697	16551.7
137.628	17484.3
142.556	17523.8
147.482	16069.3
152.405	14345.9
157.326	12095.9
162.244	10573.7
167.159	8987.3
172.072	7528.67
176.982	6023.49
181.89	4596.28
186.795	3600.47
191.697	2772.2
196.597	2347.71
201.494	2306.23
206.389	1100.53
211.281	895.883
216.17	737.537
221.057	642.917
225.941	707.71
230.823	896.565
235.702	1282.68
240.578	1938.36
245.452	2647.63
250.323	3123.36
255.192	2939.62
260.058	2401.28
264.921	1802.26
269.782	1132.79
274.64	553.848
279.495	96.5938
284.348	108.664
289.198	222.224
294.046	295.063
298.891	376.597
303.733	332.132
308.573	290.737
313.41	254.169
318.245	37.3037
323.077	236.086
327.906	454.08
332.733	511.097
337.557	674.339
342.379	807.225
347.198	1243.57
352.014	1625.18
356.828	2262.97
361.639	2913.22
366.447	3935.35
371.253	5126.25
376.056	6374.45
380.857	8304.09
385.655	10683.8
390.451	14570.9
395.243	18637.8
400.034	22720.3
404.821	23895
409.606	21433.6
414.389	17532.5
419.168	13043.9
423.945	9392.63
428.72	6493.28
433.492	4521.22
438.261	3082.44
443.028	2533.4
447.792	2176.3
452.553	2801.7
457.312	4189.85
462.068	6207.61
466.822	8505.42
471.573	11071.7
476.321	14897.2
481.067	18954.9
485.81	18180.8
490.551	12615.8
495.289	6862.86
500.024	3389.98
504.757	1762.07
509.487	891.073
514.214	469.934
518.939	320.573
523.661	37.794
528.381	88.2217
533.098	86.6836
537.812	177.679
542.524	47.2236
547.233	9.79199
551.94	64.1504
556.644	6.27148
561.345	153.844
566.044	240.663
570.74	425.868
575.433	489.674
580.124	726.154
584.812	1019.38
589.498	1631.48
594.181	2110.95
598.861	3002.04
603.539	4237.81
608.214	4881.12
612.887	5364.79
617.557	5124.97
622.224	4613.75
626.889	4082.3
631.551	2664.6
636.21	2014.64
640.867	1923.41
645.521	1983.88
650.173	1819.1
654.822	1469.08
659.468	929.273
664.112	723.817
668.753	386.213
673.392	394.79
678.028	222.956
682.661	99.1475
687.292	16.8686
691.92	3.6792
696.545	29.9009
701.168	61.7549
705.788	51.0684
710.406	9.81885
715.021	110.422
719.633	162.96
724.243	106.22
728.85	244.264
733.455	315.237
738.056	193.143
742.656	195.911
747.252	262.579
751.846	331.251
756.438	409.962
761.027	371.736
765.613	612.595
770.196	769.558
774.777	923.643
779.356	1075.87
783.932	1313.78
788.505	1480.95
793.075	1526.56
797.643	1375.75
802.208	1233.31
806.771	1086.06
811.331	1081.81
815.888	1043.26
820.443	994.408
824.995	817.388
829.545	651.625
834.092	570.56
838.636	643.542
843.178	754.449
847.717	827.903
852.254	1016.26
856.788	1326.29
861.319	1503.69
865.848	1092
870.374	704.454
874.897	666.15
879.418	547.142
883.936	398.822
888.452	421.395
892.965	344.642
897.475	431.791
901.983	379.664
906.488	461.277
910.99	240.648
915.49	189.792
919.988	170.721
924.482	27.6792
928.974	115.606
933.464	27.7124
937.951	21.3623
942.435	59.7441
946.917	35.4707
951.396	83.6519
955.872	64.8062
960.346	102.447
964.817	120.897
969.285	33.9746
973.751	124.166
978.215	9.8208
982.675	15.5928
987.134	124.918
991.589	220.519
996.042	504.169
1000.49	1484.83
1004.94	1240.45
1009.38	559.059
1013.83	620.696
1018.27	784.34
1022.7	1039.96
1027.14	832.572
1031.57	725.171
1036	686.77
1040.43	737.378
1044.85	651.003
1049.27	784.892
1053.69	633.823
1058.11	554.142
1062.52	660.9
1066.93	714.163
1071.34	870.822
1075.75	1291.06
1080.15	1866.82
1084.55	2077.59
1088.95	2106.42
1093.35	2194.11
1097.74	2236.16
1102.13	2285.24
1106.52	2377.45
1110.9	2468.39
1115.28	2290.69
1119.66	2188.85
1124.04	2348.16
1128.41	2365.64
1132.79	2372.28
1137.16	2175.11
1141.52	2016.13
1145.89	1933.33
1150.25	1913.73
1154.61	1800.34
1158.96	1875.16
1163.32	1821.21
1167.67	1684.49
1172.02	1577.99
1176.36	1466.72
1180.71	1168.67
1185.05	1039.86
1189.38	720.378
1193.72	475.172
1198.05	235.21
1202.38	204.514
1206.71	159.404
1211.04	58.7412
1215.36	4.47852
1219.68	141.022
1224	17.7705
1228.31	39.2832
1232.62	35.5478
1236.93	191.159
1241.24	91.4775
1245.54	171.252
1249.84	321.357
1254.14	145.856
1258.44	280.819
1262.73	352.246
1267.03	580.98
1271.31	608.027
1275.6	617.356
1279.88	481.964
1284.16	363.852
1288.44	471.527
1292.72	657.916
1296.99	625.496
1301.26	488.315
1305.53	811.14
1309.79	821.523
1314.06	959.889
1318.32	859.462
1322.57	703.273
1326.83	482.317
1331.08	243.69
1335.33	197.129
1339.58	224.09
1343.82	222.857
1348.06	155.907
1352.3	63.7685
1356.54	86.0332
1360.77	91.459
1365.01	81.7451
1369.23	173.177
1373.46	110.355
1377.68	378.643
1381.9	302.422
1386.12	245.203
1390.34	228.749
1394.55	124.053
1398.76	23.7051
1402.97	119.292
1407.18	22.1621
1411.38	52.8232
1415.58	51.9883
1419.78	128.433
1423.97	100.366
1428.17	348.581
1432.36	579.227
1436.54	958.449
1440.73	1473.47
1444.91	1955.01
1449.09	2248.81
1453.27	2246.9
1457.44	2269.51
1461.61	1805.03
1465.78	1134.77
1469.95	846.854
1474.11	741.911
1478.27	745.289
1482.43	531.602
1486.59	336.054
1490.74	166.117
1494.89	82.3252
1499.04	59.8516
1503.19	156.293
1507.33	52.5801
1511.47	143.137
1515.61	97.4023
1519.75	192.062
1523.88	304.245
1528.01	285.321
1532.14	280.838
1536.26	224.564
1540.38	151.04
1544.51	147.898
1548.62	193.402
1552.74	158.019
1556.85	113.061
1560.96	132.002
