Measurement: Raman, 514 nm, ccw, Raman Data Processed
Mineral: Heulandite-Ca
Rruff sample: R050097
Ideal chemistry: NaCa_4_(Si_27_Al_9_)O_72_24H_2_O
Locality: Rat's Nest Claim, Custer County, Idaho, USA
Source: John Cornish
Description: Pale pink coffin-shaped tabular single crystals
Measured chemistry: (Ca_0.66_Na_0.30_K_0.04_)_5_(Si_0.77_Al_0.23_)_36_O_72_Â·24H_2_O
Pin_id: L00358
Orientation: Laser parallel to -b* (0 -1 0). Fiducial mark perpendicular to laser is parallel to c [0 0 1]
Raman shift (cm-1)	intensity
206.221	0
210.347	223.035
214.472	249.007
218.594	40.929
222.714	196.426
226.832	464.769
230.948	509.16
235.063	892.702
239.175	1368.47
243.286	1908.28
247.394	2261.42
251.501	2345.33
255.605	2555.95
259.708	2196.75
263.808	1726.66
267.907	1375.67
272.004	1164.91
276.099	712.306
280.192	409.696
284.283	348.054
288.372	215.532
292.459	53.207
296.544	167.156
300.627	49.324
304.709	46.273
308.788	61.691
312.865	51.209
316.941	224.595
321.015	409.489
325.086	475.835
329.156	465.562
333.224	778.27
337.29	973.278
341.354	843.915
345.416	1232
349.476	1602.8
353.534	1980.43
357.591	2449
361.645	2937.57
365.698	3856
369.748	4641.75
373.797	5527.33
377.844	6599.69
381.889	8171.94
385.932	9880.67
389.973	11573.5
394.012	13785.3
398.049	15982.8
402.084	17764.6
406.118	16704.7
410.15	14617.2
414.179	12240.9
418.207	9812.14
422.233	7405.2
426.257	5644.77
430.279	4255.56
434.299	3465.92
438.318	2755.09
442.334	2213.66
446.349	1959.84
450.361	2173.68
454.372	2345.39
458.381	2801.59
462.388	3767.91
466.394	5134.12
470.397	6058.06
474.398	7354.71
478.398	9582.8
482.396	12169.6
486.391	12086.4
490.385	9525.39
494.377	6210.74
498.368	3754.77
502.356	2356.18
506.342	1534.11
510.327	934.373
514.31	648.611
518.291	522.029
522.27	352.305
526.247	258.867
530.222	296.639
534.196	204.93
538.167	263.987
542.137	196.565
546.105	64.925
550.071	67.613
554.035	41.6
557.998	48.55
561.958	41.607
565.917	109.731
569.874	174.069
573.829	29.183
577.782	165.179
581.733	57.12
585.683	353.672
589.63	618.94
593.576	826.952
597.52	1201.65
601.462	1584.05
605.402	2154.16
609.341	2419.05
613.277	2396.68
617.212	1974.34
621.145	1537.89
625.076	1185.39
629.006	908.806
632.933	636.998
636.859	422.892
640.783	296.448
644.705	276.679
648.625	302.498
652.543	54.896
656.46	0.839
660.375	7.706
664.288	49.246
668.199	33.702
672.108	0.577
676.016	68.859
679.921	79.841
683.825	54.005
687.727	246.863
691.628	254.978
695.526	204.916
699.423	228.301
703.318	255.85
707.211	405.061
711.102	495.86
714.992	435.661
718.879	439.239
722.765	405.132
726.649	360.63
730.532	515.163
734.412	439.655
738.291	410.341
742.168	389.072
746.043	522.411
749.916	677.634
753.788	735.955
757.658	770.671
761.526	1003.29
765.392	1177.14
769.257	1489.34
773.119	1812.24
776.98	1987.78
780.839	2189.32
784.697	2365.13
788.552	2236.67
792.406	2025.25
796.258	1885.43
800.108	1899.7
803.957	1652.89
807.804	1703.05
811.649	1941.41
815.492	2123.8
819.333	1858.61
823.173	1572.42
827.011	1036.43
830.847	630.771
834.681	571.29
838.514	307.509
842.345	218.991
846.174	263.273
850.001	170.152
853.827	144.955
857.651	86.328
861.473	204.839
865.293	104.233
869.112	11.443
872.928	97.719
876.744	34.749
880.557	31.667
884.369	32.563
888.178	23.945
891.987	0.253
895.793	76.686
899.598	85.007
903.401	0.313
907.202	18.399
911.001	56.767
914.799	113.236
918.595	68.918
922.389	48.782
926.182	9.401
929.972	44.198
933.761	7.028
937.549	34.909
941.334	4.66
945.118	36.266
948.9	32.721
952.681	60.016
956.459	49.293
960.236	95.5
964.012	223.668
967.785	283.812
971.557	236.937
975.327	279.058
979.095	324.228
982.862	469.479
986.627	448.767
990.39	392.06
994.152	537.341
997.912	573.66
1001.67	734.218
1005.43	949.712
1009.18	919.292
1012.93	1084.87
1016.68	1083.62
1020.43	1159.84
1024.18	1156.22
1027.93	1297.98
1031.67	1423.76
1035.42	1621.29
1039.16	1504.52
1042.9	1435.6
1046.63	1497.02
1050.37	1357.14
1054.11	1508.77
1057.84	1361.15
1061.57	1467.88
1065.3	1442.58
1069.03	1488.65
1072.75	1602.37
1076.47	1661.69
1080.2	1756.45
1083.92	2004.61
1087.64	2214.71
1091.36	2339.18
1095.07	2377.66
1098.79	2277.84
1102.5	2414.36
1106.21	2469.34
1109.92	2497.69
1113.62	2495.96
1117.33	2568.43
1121.04	2539.02
1124.74	2412.75
1128.44	2329.62
1132.14	2430.75
1135.83	2343.07
1139.53	2373.39
1143.22	2588.5
1146.92	2245.94
1150.61	2231.68
1154.3	2078.54
1157.98	2063.6
1161.67	2040.9
1165.35	1883
1169.04	1720.13
1172.72	1539.14
1176.4	1367.29
1180.07	1180.44
1183.75	989.825
1187.42	774.167
1191.1	773.171
1194.77	820.909
1198.44	571.77
1202.1	455.996
1205.77	193.746
1209.43	350.981
1213.1	172.627
1216.76	151.697
1220.42	182.156
1224.07	147.748
1227.73	133.627
1231.38	101.787
1235.04	210.211
1238.69	118.719
1242.34	90.421
1245.99	17.229
1249.63	158.308
1253.28	117.627
1256.92	306.262
1260.56	88.25
1264.2	100.563
1267.84	113.331
1271.48	18.666
1275.11	68.43
1278.74	48.976
1282.38	113.021
1286.01	133.59
1289.63	235.775
1293.26	108.671
1296.89	183.403
1300.51	82.038
1304.13	12.799
1307.75	209.963
1311.37	66.737
1314.99	222.525
1318.6	300.336
1322.22	244.213
1325.83	314.44
1329.44	297.459
1333.05	113.783
1336.66	10.819
