Measurement: Raman, 514 nm, ccw, Raman Data Processed
Mineral: Heulandite-Ca
Rruff sample: R050097
Ideal chemistry: NaCa_4_(Si_27_Al_9_)O_72_24H_2_O
Locality: Rat's Nest Claim, Custer County, Idaho, USA
Source: John Cornish
Description: Pale pink coffin-shaped tabular single crystals
Measured chemistry: (Ca_0.66_Na_0.30_K_0.04_)_5_(Si_0.77_Al_0.23_)_36_O_72_Â·24H_2_O
Pin_id: L00358
Orientation: Laser parallel to -b* (0 -1 0). Fiducial mark perpendicular to laser is parallel to c [0 0 1]
Raman shift (cm-1)	intensity
219.967	0
224.087	59.465
228.204	56.165
232.32	197.392
236.434	412.357
240.545	683.974
244.655	952.18
248.763	1251.65
252.869	1431.1
256.973	1290.47
261.075	977.95
265.175	979.894
269.273	932.438
273.369	427.536
277.463	295.786
281.556	240.813
285.646	62.348
289.734	52.783
293.821	34.303
297.905	146.646
301.988	158.439
306.069	278.516
310.147	287.719
314.224	484.048
318.299	633.489
322.372	406.109
326.443	432.313
330.512	773.012
334.579	949.203
338.645	757.634
342.708	1084.55
346.769	1326.06
350.829	1656.17
354.887	1909.9
358.942	2504.32
362.996	3192.51
367.048	3938.47
371.098	4555.82
375.146	5403.65
379.192	6365.48
383.236	7653.72
387.279	8964.73
391.319	10980.3
395.358	13512.9
399.394	15266.6
403.429	15746.6
407.462	14838
411.493	12978.5
415.522	10677
419.549	8433.63
423.575	6782.08
427.598	5220.41
431.619	3998.08
435.639	3096.59
439.657	2625.91
443.673	2402.01
447.687	2226.72
451.699	2097.16
455.709	2475.45
459.717	3461.62
463.724	4729.54
467.728	5841.18
471.731	6482.52
475.732	7613.53
479.731	9778.19
483.728	11515
487.723	10618.7
491.716	7655.02
495.708	4995.8
499.697	2947.09
503.685	1654.5
507.671	997.896
511.655	676.35
515.637	565.881
519.617	250.521
523.596	202.078
527.572	208.631
531.547	55.658
535.52	40.255
539.491	107.568
543.46	160.952
547.427	22.222
551.393	32.815
555.356	26.779
559.318	107.325
563.278	116.062
567.236	87.025
571.192	39.769
575.147	189.859
579.099	144.798
583.05	388.421
586.999	479.895
590.946	709.678
594.891	813.856
598.834	1216.6
602.776	1893.9
606.715	2283.78
610.653	2447.44
614.589	2044.74
618.523	1707.68
622.456	1427.24
626.386	1102.34
630.315	671.995
634.242	522.204
638.167	308.974
642.09	320.271
646.012	311.105
649.931	158.42
653.849	75.2
657.765	65.444
661.679	146.161
665.592	117.317
669.502	21.903
673.411	98.898
677.318	65.778
681.223	197.173
685.126	266.167
689.028	280.474
692.927	131.99
696.825	210.95
700.721	199.839
704.616	225.359
708.508	296.538
712.399	243.331
716.288	229.079
720.175	361.3
724.06	281.355
727.944	286.825
731.825	125.957
735.705	252.225
739.584	214.547
743.46	358.458
747.334	328.596
751.207	340.469
755.078	328.123
758.947	448.577
762.815	503.82
766.68	707.844
770.544	959.018
774.406	872.997
778.267	1083.11
782.125	1303.46
785.982	1255.13
789.837	1264.93
793.69	1154.31
797.542	1195.09
801.391	1026.83
805.239	992.779
809.085	1045.47
812.93	974.914
816.772	902.232
820.613	1021.87
824.452	663.588
828.29	586.799
832.125	477.953
835.959	173.592
839.791	204.117
843.621	38.301
847.45	39.062
851.277	241.141
855.102	26.617
858.925	5.109
862.746	87.131
866.566	128.133
870.384	114.938
874.2	10.309
878.015	149.795
881.828	98.918
885.639	45.006
889.448	82.582
893.256	8.93
897.061	78.367
900.865	62.537
904.668	14.682
908.468	8.652
912.267	162.475
916.064	31.975
919.86	48.814
923.653	134.875
927.445	39.299
931.236	179.086
935.024	46.635
938.811	133.469
942.596	30.529
946.379	184.334
950.161	86.111
953.94	94.824
957.719	203.506
961.495	368.164
965.27	149.758
969.043	66.311
972.814	214.971
976.583	153.701
980.351	120.471
984.117	326.271
987.882	269.021
991.644	168.654
995.405	407.779
999.165	621.508
1002.92	930.012
1006.68	826.941
1010.43	648.037
1014.18	735.672
1017.93	795.516
1021.68	1095.95
1025.43	1207.3
1029.18	1188.03
1032.92	1133.3
1036.66	1307.75
1040.4	1137.84
1044.14	1231.52
1047.88	1387.37
1051.62	1165.03
1055.35	990.516
1059.08	1095.44
1062.81	1225.02
1066.54	1089.29
1070.27	1358.9
1073.99	1364.61
1077.72	1646.53
1081.44	1801.43
1085.16	1885.98
1088.88	1942.14
1092.59	1827.81
1096.31	2165.47
1100.02	2231.44
1103.73	2383.39
1107.44	2359.38
1111.15	2208.28
1114.86	2235.36
1118.57	2079.44
1122.27	2300.47
1125.97	2228.55
1129.67	2409.85
1133.37	2247.36
1137.07	2674.35
1140.76	2675.1
1144.45	2307.3
1148.15	2366.73
1151.84	2065.45
1155.53	2206.01
1159.21	2104.58
1162.9	2158.38
1166.58	1781.38
1170.26	1810.38
1173.94	1573.38
1177.62	1294.35
1181.3	1072.91
1184.97	1087.43
1188.65	1019.3
1192.32	781.543
1195.99	653.066
1199.66	595.057
1203.33	339.715
1206.99	225.953
1210.65	326.59
1214.32	440.627
1217.98	365.014
1221.64	479.752
1225.29	384.889
1228.95	345.053
1232.6	256.557
1236.26	42.615
1239.91	37.529
1243.56	185.953
1247.2	500.719
1250.85	370.863
1254.49	372.168
1258.13	391.031
1261.78	200.619
1265.41	183.049
1269.05	89.018
1272.69	186.818
1276.32	336.385
1279.95	362.773
1283.59	509.9
1287.21	341.99
1290.84	240.381
1294.47	355.91
1298.09	13.209
1301.72	153.365
1305.34	336.354
1308.96	219.289
1312.58	266.023
1316.19	796.391
1319.81	600.93
1323.42	404.279
1327.03	7.496
