Measurement: Raman, 514 nm, ccw, Raman Data Processed
Mineral: Heulandite-Ca
Rruff sample: R060465
Ideal chemistry: NaCa_4_(Si_27_Al_9_)O_72_24H_2_O
Locality: Garrawilla, near Gunnadah, New South Wales, Australia
Source: Michael Scott
Description: Orange fan of platy crystals
Measured chemistry: (Ca_0.66_Na_0.24_K_0.10_)_5_(Si_0.77_Al_0.23_)_36_O_72_Â·24H_2_O
Pin_id: M01120
Orientation: Laser parallel to (1 0 1). Fiducial mark perpendicular to laser is parallel to b [0 1 0]
Raman shift (cm-1)	intensity
212.101	0
216.993	71.1113
221.882	72.3184
226.768	192.495
231.652	10.1074
236.533	49.9141
241.411	298.523
246.286	540.019
251.159	758.812
256.028	730.732
260.895	747.827
265.76	564.031
270.621	437.548
275.48	562.755
280.336	671.508
285.189	665.89
290.04	988.276
294.887	983.443
299.732	1246.35
304.575	1326.14
309.414	1687.14
314.251	2207.22
319.085	3104.52
323.916	3826.83
328.745	4528.99
333.571	4888.84
338.394	5127.38
343.214	5447.56
348.032	6381.32
352.847	7470.62
357.659	9057.9
362.468	10756
367.275	12660.3
372.079	15066
376.88	18030.1
381.679	21854.6
386.475	26636.6
391.268	32839.8
396.058	39583.1
400.846	44096.1
405.631	44521.8
410.413	39711.3
415.192	33059.1
419.969	25494.3
424.743	19203.8
429.515	13753.9
434.283	9558.64
439.049	7203.48
443.813	6312.82
448.573	6601.63
453.331	8064.82
458.086	10964.2
462.838	14570.8
467.588	17154.4
472.335	19434.9
477.08	24068.4
481.821	27813.8
486.56	26674.2
491.296	19367.5
496.03	11446.6
500.761	6240.62
505.489	3445.79
510.214	2074.19
514.937	1342.82
519.657	827.597
524.375	464.327
529.089	204.892
533.801	25.2056
538.511	203.038
543.218	86.1968
547.922	260.576
552.623	273.386
557.321	118.103
562.017	122.79
566.711	76.0063
571.401	152.682
576.089	286.968
580.775	400.025
585.457	888.819
590.137	1286.3
594.814	2075.55
599.489	3223.81
604.161	4522.75
608.83	5500.07
613.497	5629.19
618.161	4656.18
622.822	3384.82
627.481	2357.2
632.137	1563.17
636.79	1154.65
641.441	860.643
646.089	821.129
650.734	596.989
655.377	427.168
660.017	375.643
664.654	386.367
669.289	346.303
673.921	335.142
678.551	406.391
683.177	379.691
687.802	255.174
692.423	355.241
697.042	299.036
701.658	255.067
706.272	367.285
710.883	246.259
715.491	293.57
720.097	325.155
724.7	284.397
729.301	212.918
733.898	273.574
738.494	156.042
743.086	292.353
747.676	329.623
752.263	574.316
756.848	534.074
761.43	753.801
766.01	859.117
770.586	1064.14
775.161	978.923
779.732	1158.65
784.301	1043.46
788.868	942.088
793.431	643.877
797.992	580.827
802.551	516.495
807.107	303.062
811.66	385.049
816.211	344.067
820.759	215.134
825.304	187.34
829.847	186.273
834.388	37.7041
838.925	97.9819
843.46	24.7549
847.993	5.62012
852.523	14.7808
857.05	50.6948
861.575	18.4678
866.097	14.7725
870.616	72.208
875.133	3.58838
879.647	51.4355
884.159	25.3428
888.668	18.3271
893.175	32.2803
897.679	100.872
902.18	33.6001
906.679	11.6465
911.175	75.0303
915.669	47.6597
920.16	105.793
924.648	40.581
929.134	88.7349
933.617	88.2866
938.098	159.278
942.576	220.704
947.052	283.518
951.525	276.089
955.995	366.534
960.463	384.312
964.928	531.131
969.391	624.188
973.851	761.888
978.309	785.814
982.764	819.469
987.216	971.935
991.666	1059.58
996.114	1131.85
1000.56	1103.84
1005	1267.05
1009.44	1325.57
1013.88	1427.05
1018.31	1455.77
1022.74	1508.26
1027.17	1576.93
1031.6	1540.4
1036.03	1591
1040.45	1368.11
1044.87	1601.62
1049.28	1522.98
1053.7	1454.81
1058.11	1536.85
1062.52	1639.02
1066.92	1749.56
1071.33	1825.75
1075.73	2052.39
1080.13	2425.27
1084.53	2742.37
1088.92	3082.69
1093.31	3354.25
1097.7	3589.85
1102.09	3913.37
1106.47	4117.39
1110.85	4372.99
1115.23	4777.05
1119.61	5207.35
1123.98	5499.15
1128.35	5225.99
1132.72	5171.89
1137.08	5089.98
1141.45	5160.69
1145.81	5054.77
1150.17	5047.91
1154.52	4764.42
1158.88	4546.71
1163.23	4166.53
1167.58	3984.98
1171.92	3627.88
1176.27	3120.25
1180.61	2998.74
1184.94	2427.1
1189.28	2084.45
1193.61	1642.06
1197.94	1232.89
1202.27	984.93
1206.6	706.166
1210.92	432.585
1215.24	305.182
1219.56	241.857
1223.88	52.8701
1228.19	42.9321
1232.5	50.9067
1236.81	8.30371
1241.12	19.4795
1245.42	110.508
1249.72	54.6123
1254.02	55.4536
1258.31	43.9761
1262.61	54.4805
1266.9	14.9771
1271.19	86.0391
1275.47	13.6699
1279.76	59.0523
1284.04	203.703
1288.32	227.289
1292.59	307.993
1296.87	357.076
1301.14	308.854
1305.4	483.792
1309.67	538.053
1313.93	580.865
1318.2	571.407
1322.45	722.488
1326.71	609.568
1330.96	608.702
1335.22	586.816
1339.46	464.071
1343.71	462.945
1347.95	424.594
1352.2	467.877
1356.44	308.181
1360.67	275.628
1364.91	196.897
1369.14	187.004
1373.37	140.377
1377.59	185.71
1381.82	77.7485
1386.04	127.025
1390.26	123.655
1394.48	0.104004
1398.69	25.9165
1402.9	44.397
1407.11	28.2075
1411.32	64.7812
1415.52	47.9165
1419.72	18.6943
1423.92	32.2617
1428.12	41.273
1432.32	83.3921
1436.51	130.75
1440.7	133.152
1444.89	178.36
1449.07	151.084
1453.25	225.279
1457.43	77.9121
1461.61	109.988
1465.79	109.617
1469.96	182.919
1474.13	163.934
1478.3	104.854
1482.46	181.656
1486.63	13.1665
1490.79	3.13769
1494.95	70.3403
1499.1	18.2993
1503.26	31.7534
1507.41	139.852
1511.56	145.418
1515.7	90.1875
1519.85	88.4346
1523.99	193.764
1528.13	156.504
1532.26	70.0811
1536.4	50.5747
1540.53	122.865
1544.66	167.588
1548.79	104.501
1552.91	347.981
1557.03	173.233
1561.15	205.241
