Measurement: Raman, 514 nm, ccw, Raman Data Processed
Mineral: Heulandite-Ca
Rruff sample: R040021
Ideal chemistry: NaCa_4_(Si_27_Al_9_)O_72_24H_2_O
Locality: Prospect Park, Patterson, Passaic County, New Jersey, USA
Source: University of Arizona Mineral Museum
Description: Group of colorless lamellar crystals
Measured chemistry: Na_0.25_(Na_0.55_K_0.45_)_Σ=1_(Ca_2.42_Na_0.85_Sr_0.73_)_Σ=4.00_(Si_27.60_Al_8.40_)_Σ=36_O_72_·24H_2_O ; H_2_O estimated by difference
Pin_id: m00146
Orientation: Laser parallel to [-1 0 -1]. Fiducial mark perpendicular to laser is parallel to b* (0 1 0)
Raman shift (cm-1)	intensity
94.768	0
98.947	266.812
103.124	1339.86
107.3	2593.02
111.473	4240.15
115.644	7124.55
119.813	9120.68
123.981	10802.6
128.146	13692
132.309	18497.4
136.47	22018.5
140.63	24471.9
144.787	23624.1
148.942	21284.7
153.096	19305
157.247	16924.3
161.396	14737.6
165.544	12253.1
169.689	9759.16
173.833	7471.2
177.974	5282.68
182.114	3264.24
186.251	2286.42
190.387	1359.8
194.52	783.316
198.652	563.48
202.782	22.275
206.909	246.705
211.035	583.639
215.159	882.121
219.281	792.463
223.4	573.967
227.518	138.578
231.634	868.822
235.748	2094.23
239.86	3354.46
243.97	4762.25
248.079	5537.89
252.185	5310.47
256.289	4840.54
260.391	4238.95
264.492	3858.64
268.59	2772.96
272.687	2220.84
276.781	1589.25
280.874	1037.56
284.964	572.785
289.053	406.098
293.14	478.237
297.225	463.234
301.308	441.486
305.389	569.643
309.468	909.493
313.545	1108.27
317.62	1506.4
321.693	1942.6
325.765	2785.85
329.834	3309.64
333.902	3946.31
337.967	3985.5
342.031	4404.34
346.093	4532.97
350.153	5070.44
354.21	5791.2
358.267	6861.14
362.321	8050.38
366.373	9788.3
370.423	11530.1
374.471	13337.8
378.518	14917.2
382.563	17170.7
386.605	20561.3
390.646	24551.9
394.685	30689.7
398.722	37258
402.757	40474.5
406.79	39712.8
410.821	34656.9
414.851	27907.4
418.878	21974
422.904	16586.7
426.927	12634.2
430.949	9064.3
434.969	6930.36
438.987	5386.85
443.003	4541.64
447.018	4154.8
451.03	3885.72
455.041	4828.77
459.049	6382.8
463.056	8973.9
467.061	12504.1
471.064	17460.2
475.065	25370.8
479.064	32484.6
483.062	32666.8
487.057	26009.5
491.051	17242
495.043	10582.8
499.032	6632.45
503.02	3906.54
507.007	2543.32
510.991	1660.7
514.973	1023.88
518.954	670.685
522.933	503.828
526.91	309.659
530.885	0.162
534.858	27.874
538.829	53.831
542.799	68.457
546.766	123.866
550.732	137.98
554.696	17.592
558.658	87.784
562.618	18.933
566.576	18.561
570.533	331.435
574.488	464.084
578.44	718.447
582.391	1284.52
586.341	1684.34
590.288	2391.94
594.233	3341.38
598.177	4641.74
602.119	6128.09
606.059	7512.62
609.997	7876.5
613.933	7266.84
617.868	5936.66
621.801	4692.01
625.731	3149.86
629.66	2202.13
633.588	1455.72
637.513	1031.52
641.437	856.404
645.358	619.288
649.278	430.052
653.196	151.641
657.113	66.982
661.027	180.04
664.94	215.849
668.851	241.649
672.76	221.085
676.667	76.839
680.572	100.519
684.476	51.064
688.378	17.539
692.278	113.414
696.176	128.156
700.072	76.528
703.967	122.097
707.86	190.652
711.751	366.15
715.64	229.577
719.527	471.684
723.413	534.98
727.297	458.092
731.179	485.389
735.059	618.938
738.937	733.709
742.814	802.002
746.689	1114.81
750.562	1325.84
754.433	1513.14
758.303	1761.83
762.17	2456.39
766.036	3229.67
769.901	3940.84
773.763	4452.06
777.624	5314.98
781.482	5494.45
785.339	5588.02
789.195	5257.7
793.048	4622.76
796.9	4118.19
800.75	3590.04
804.598	3069.05
808.445	3033.14
812.289	3154.37
816.132	3137.5
819.973	2627.33
823.813	1810.7
827.65	1191.78
831.486	766.691
835.32	555.248
839.152	410.459
842.983	337.949
846.812	236.545
850.639	233.449
854.464	318.231
858.288	309.416
862.11	189.129
865.93	122.081
869.748	1.971
873.564	66.43
877.379	22.624
881.192	35.867
885.004	16.231
888.813	28.462
892.621	52.544
896.427	2.454
900.232	42.403
904.034	19.106
907.835	97.483
911.634	128.457
915.432	23.235
919.227	8.674
923.021	99.214
926.813	22.513
930.604	109.084
934.393	125.071
938.18	12.488
941.965	52.383
945.749	141.818
949.53	196.83
953.311	238.452
957.089	262.709
960.866	274.624
964.641	416.322
968.414	372.878
972.185	472.468
975.955	589.176
979.723	657.078
983.49	680.127
987.254	922.189
991.017	1141.26
994.779	1316.98
998.538	1410.98
1002.3	2021.75
1006.05	1831.9
1009.81	1893.76
1013.56	2000.99
1017.31	2173.52
1021.06	2350.58
1024.81	2381.75
1028.55	2691.74
1032.3	2519.18
1036.04	2653.1
1039.78	2770.25
1043.52	2706.05
1047.26	2690.5
1050.99	2830.6
1054.73	2858.97
1058.46	2858.72
1062.19	2855.49
1065.92	3052.42
1069.65	3415.51
1073.37	3729.95
1077.1	4162.12
1080.82	4799.68
1084.54	5358.17
1088.26	5647.58
1091.97	5894.21
1095.69	6026.78
1099.4	6364.23
1103.12	6248.19
1106.83	6367.32
1110.54	6229.79
1114.24	6192.33
1117.95	6249.92
1121.65	6461.84
1125.35	6086.72
1129.06	5917.06
1132.75	5570.74
1136.45	5362.94
1140.15	5145.81
1143.84	4881.62
1147.53	4653.77
1151.22	4279.91
1154.91	4038.48
1158.6	3814.5
1162.28	3480.02
1165.97	3283.24
1169.65	3001.8
1173.33	2756.68
1177.01	2559.91
1180.69	2274.07
1184.36	1898.72
1188.04	1577.73
1191.71	1451.74
1195.38	1129.25
1199.05	927.366
1202.71	663.924
1206.38	625.113
1210.04	425.846
1213.71	331.01
1217.37	313.192
1221.03	252.099
1224.68	185.589
1228.34	150.352
1231.99	1.689
1235.65	73.84
1239.3	213.422
1242.95	74.84
1246.59	57.65
1250.24	107.648
1253.88	5.893
1257.53	82.969
1261.17	32.242
1264.81	79.006
1268.45	106.739
1272.08	30.787
1275.72	109.625
1279.35	148.462
1282.98	22.214
1286.61	52.528
1290.24	20.384
1293.87	31.528
1297.49	40.449
1301.11	58.084
1304.73	46.694
1308.36	71.08
1311.97	86.529
1315.59	90.608
1319.2	71.307
1322.82	171.624
1326.43	24.588
1330.04	28.831
1333.65	93.657
1337.26	29.955
1340.86	6.716
1344.47	9.894
1348.07	34.549
1351.67	1.647
1355.27	207.433
1358.87	82.009
1362.46	25.427
1366.06	59.639
1369.65	86.757
1373.24	90.781
1376.83	15.423
1380.42	137.935
1384	157.377
1387.59	203.361
1391.17	128.214
1394.75	147.856
1398.33	200.403
1401.91	210.864
1405.49	207.229
1409.06	330.57
1412.64	229.534
1416.21	237.458
1419.78	195.879
1423.35	299
1426.91	316.98
1430.48	241.648
1434.05	230.271
1437.61	486.108
1441.17	563.683
1444.73	537.56
1448.29	664.757
1451.84	723.176
1455.4	744.443
1458.95	681.427
1462.5	660.146
1466.05	679.644
1469.6	405.819
1473.15	408.101
1476.69	445.396
1480.24	444.56
1483.78	370.168
1487.32	389.822
1490.86	160.516
1494.39	116.701
1497.93	147.765
1501.46	24.079
1505	135.403
1508.53	110.831
1512.06	98.702
