Measurement: Raman, 514 nm, ccw, Raman Data Processed
Mineral: Heulandite-Ca
Rruff sample: R060465
Ideal chemistry: NaCa_4_(Si_27_Al_9_)O_72_24H_2_O
Locality: Garrawilla, near Gunnadah, New South Wales, Australia
Source: Michael Scott
Description: Orange fan of platy crystals
Measured chemistry: (Ca_0.66_Na_0.24_K_0.10_)_5_(Si_0.77_Al_0.23_)_36_O_72_Â·24H_2_O
Pin_id: M01254
Orientation: Laser parallel to c* (0 0 1). Fiducial mark perpendicular to laser is parallel to a [1 0 0]
Raman shift (cm-1)	intensity
238.972	0
242.63	82.6797
246.286	195.584
249.941	26.1836
253.594	181.002
257.245	238.494
260.895	375.635
264.544	633.604
268.191	359.828
271.836	917.174
275.48	1085.62
279.122	1237.55
282.763	1324.2
286.402	1128.3
290.04	1057.24
293.676	804.152
297.31	813.252
300.943	708.922
304.575	529.688
308.205	114.147
311.833	201.967
315.46	459.406
319.085	525.525
322.709	1045.44
326.331	1258.54
329.952	1467.44
333.571	1751.7
337.188	1875.78
340.804	1800.08
344.419	2305.1
348.032	3004.81
351.643	3454.22
355.253	4320.75
358.862	4902.08
362.468	6124.5
366.074	7124.54
369.677	8497.18
373.28	9877.38
376.88	11651.1
380.479	13490.5
384.077	16113.2
387.673	19071.5
391.268	22394.9
394.861	26080.1
398.452	29828.1
402.042	31718.1
405.631	31281.7
409.218	28423.8
412.803	25355.4
416.387	21444.1
419.969	17479.2
423.55	14359.2
427.129	11207.2
430.707	8750.39
434.283	6454.33
437.858	4996.52
441.431	4227.57
445.003	3888.94
448.573	4155.13
452.142	4823.14
455.709	6248.91
459.274	8263.44
462.838	10570.7
466.401	11820.6
469.962	12866.1
473.522	14144.2
477.08	16569.8
480.636	18873.8
484.191	19952.3
487.744	17662.3
491.296	13452.8
494.847	8608.62
498.396	5577.94
501.943	3559.68
505.489	2232.85
509.033	1317.44
512.576	951.693
516.117	534.615
519.657	412.41
523.196	350.383
526.732	6.29883
530.268	256.922
533.801	163.41
537.334	234.514
540.865	59.9297
544.394	57.1934
547.922	74.2305
551.448	186.184
554.973	149.35
558.496	89.7402
562.017	83.6992
565.538	70.1719
569.056	249.834
572.574	9.84375
576.089	318.988
579.604	547.623
583.116	635.123
586.627	946.938
590.137	1199.5
593.645	1919.39
597.152	2330.58
600.657	3026.66
604.161	3947.09
607.663	4569.52
611.164	4851.48
614.663	4456.37
618.161	3837.58
621.657	2904.18
625.152	2511.07
628.645	1967.16
632.137	1628.88
635.627	1258.87
639.116	1075.93
642.603	794.135
646.089	903.662
649.573	742.615
653.056	542.957
656.537	692.102
660.017	597.514
663.495	632.002
666.972	465.106
670.447	556.324
673.921	267.598
677.393	375.574
680.864	184.93
684.334	257.475
687.802	197.356
691.268	382.1
694.733	101.492
698.196	168.807
701.658	485.277
705.119	166.191
708.578	493.953
712.035	467.709
715.491	376.203
718.946	126.227
722.399	150.498
725.85	244.426
729.301	362.877
732.749	352.631
736.196	238.83
739.642	442.938
743.086	425.113
746.529	465.434
749.97	465.898
753.41	504.514
756.848	511.014
760.285	957.047
763.72	910.356
767.154	1185.67
770.586	1181.19
774.017	1178.42
777.447	1325.66
780.875	1312.43
784.301	1315.53
787.726	1080.3
791.15	1052.04
794.572	817.254
797.992	977.018
801.412	600.424
804.829	680
808.245	666.732
811.66	576.553
815.073	715.096
818.485	607.133
821.896	569.041
825.304	455.881
828.712	435.182
832.118	228.289
835.522	291.594
838.925	231.856
842.327	121.721
845.727	155.477
849.125	176.121
852.523	131.586
855.918	66.8223
859.313	48.5273
862.705	107.516
866.097	26.5664
869.487	48.0332
872.875	199.518
876.262	184.924
879.647	91.2832
883.031	13.0977
886.414	43.248
889.795	160.508
893.175	98.2539
896.553	16.4492
899.93	57.2734
903.305	55.748
906.679	43.9805
910.051	44.416
913.422	57.5039
916.792	17.4043
920.16	108.856
923.526	198.281
926.891	56.2129
930.255	354.713
933.617	12.1543
936.978	0.416016
940.337	103.949
943.695	160.986
947.052	55.6992
950.407	187.09
953.76	167.277
957.112	594.504
960.463	257.508
963.812	692.699
967.16	369.09
970.506	607.531
973.851	702.75
977.195	826.285
980.537	884.793
983.877	615.156
987.216	1014.34
990.554	954.742
993.89	1196.48
997.225	1024.67
1000.56	1411.81
1003.89	1585.26
1007.22	1703.11
1010.55	1623.11
1013.88	1540.6
1017.2	1836.79
1020.53	1677.94
1023.85	1829.01
1027.17	1611.31
1030.49	1535.06
1033.81	1672.16
1037.13	1588.31
1040.45	1673.46
1043.76	1582.32
1047.07	1408.3
1050.39	1471.03
1053.7	1354.07
1057.01	1719.84
1060.31	1665.96
1063.62	1718.48
1066.92	1472.44
1070.23	1627.93
1073.53	1735.39
1076.83	1806.41
1080.13	1971.64
1083.43	2184.39
1086.72	2537.02
1090.02	2697.26
1093.31	2747.79
1096.6	2922.04
1099.89	3211.61
1103.18	3154.34
1106.47	3497.23
1109.76	3493.01
1113.04	3648.84
1116.32	3888.09
1119.61	4012.65
1122.88	4524.4
1126.16	4051.95
1129.44	3959.25
1132.72	3854.68
1135.99	3956.45
1139.27	3939.59
1142.54	3965.91
1145.81	4060.99
1149.08	3865.62
1152.35	4030.09
1155.61	3566.36
1158.88	3662
1162.14	3580.09
1165.4	3458
1168.66	3155.02
1171.92	3007.32
1175.18	2827.98
1178.44	2494.66
1181.69	2370.57
1184.94	2038.82
1188.2	1874.29
1191.45	1764.86
1194.7	1543.52
1197.94	1143.24
1201.19	912.039
1204.44	853.918
1207.68	816.856
1210.92	541.871
1214.16	446.938
1217.4	262.051
1220.64	212.199
1223.88	129.418
1227.11	190.637
1230.35	164.996
1233.58	152.047
1236.81	27.3242
1240.04	185.32
1243.27	43.457
1246.49	9.07031
1249.72	146.582
1252.94	200.668
1256.17	269.836
1259.39	195.043
1262.61	61.2695
1265.83	87.1797
1269.04	198.188
1272.26	125.457
1275.47	177.875
1278.69	163.18
1281.9	201.254
1285.11	315.559
1288.32	374.867
1291.52	166.523
1294.73	280.723
1297.93	434.871
1301.14	84.8477
1304.34	541.246
1307.54	425.16
1310.74	377.625
1313.93	305.098
1317.13	578.469
1320.33	516.75
1323.52	409.926
1326.71	438
1329.9	547.965
1333.09	385.812
1336.28	542.539
1339.46	497.125
1342.65	344.07
1345.83	382.379
1349.02	196.531
1352.2	440.535
1355.38	447.465
1358.55	272.231
1361.73	420.164
1364.91	438.523
1368.08	399.082
1371.25	292.785
1374.42	292.051
1377.59	289.894
1380.76	181.188
1383.93	118.144
1387.09	180.816
1390.26	321.203
1393.42	232.922
1396.58	108.227
1399.74	100.434
1402.9	227.719
1406.06	176.203
1409.21	129.551
1412.37	258.816
1415.52	213.715
1418.67	368.492
1421.83	3.70703
1424.97	598.547
1428.12	267.519
1431.27	584.711
1434.41	367.418
1437.56	482.027
1440.7	500.203
1443.84	707.016
1446.98	568.586
1450.12	702.894
1453.25	583.93
1456.39	393.684
1459.52	424.113
1462.66	477.117
1465.79	48.7891
1468.92	241.426
1472.05	430.394
1475.17	372.727
1478.3	166.559
1481.42	232.043
1484.55	0.648438
1487.67	343.922
1490.79	177.617
1493.91	240.887
1497.03	421.41
1500.14	299.644
1503.26	274.18
1506.37	128.699
1509.48	194.223
1512.59	363.859
1515.7	343.477
1518.81	103.75
1521.92	475.379
1525.02	474.148
1528.13	241.996
1531.23	167.793
1534.33	451.211
1537.43	229.277
1540.53	10.8906
1543.63	165.281
1546.72	357.656
1549.82	258.5
1552.91	365.035
1556	221.031
1559.09	2.84766
1562.18	0
