Measurement: Raman, 514 nm, ccw, Raman Data Processed
Mineral: Heulandite-Ca
Rruff sample: R040021
Ideal chemistry: NaCa_4_(Si_27_Al_9_)O_72_24H_2_O
Locality: Prospect Park, Patterson, Passaic County, New Jersey, USA
Source: University of Arizona Mineral Museum
Description: Group of colorless lamellar crystals
Measured chemistry: Na_0.25_(Na_0.55_K_0.45_)_Σ=1_(Ca_2.42_Na_0.85_Sr_0.73_)_Σ=4.00_(Si_27.60_Al_8.40_)_Σ=36_O_72_·24H_2_O ; H_2_O estimated by difference
Pin_id: m00223
Orientation: Laser parallel to -c [0 0 -1]. Fiducial mark perpendicular to laser is parallel to b* (0 1 0)
Raman shift (cm-1)	intensity
100.34	0
103.124	193.65
105.908	1038.7
108.691	1460.77
111.473	2419.66
114.254	3239.35
117.034	4242.96
119.813	4024.19
122.592	4631.98
125.369	5465.9
128.146	6170.27
130.922	7213.57
133.696	8196.5
136.47	9364.19
139.243	10016.2
142.016	10567.9
144.787	10747.1
147.557	10400.1
150.327	9636.29
153.096	8824.12
155.863	7967.27
158.63	7156.05
161.396	6120.31
164.161	5160.72
166.926	3958.39
169.689	3126.03
172.452	2465.45
175.213	1645.31
177.974	994.85
180.734	657.355
183.493	322.281
186.251	122.145
189.008	195.461
191.765	239.01
194.52	264.104
197.275	276.736
200.029	100.709
202.782	231.109
205.534	199.326
208.285	375.826
211.035	26.338
213.784	161.23
216.533	46.16
219.281	134.924
222.027	186.773
224.773	446.881
227.518	890.344
230.263	1145.77
233.006	1734.88
235.748	2182.13
238.49	2672.02
241.231	3339.19
243.97	4206.86
246.709	4705.27
249.448	5170.28
252.185	4957.2
254.921	4442.06
257.657	4019.68
260.391	3569.55
263.125	3020.33
265.858	2663.13
268.59	2190.49
271.321	1901.23
274.052	1667.35
276.781	1352.47
279.51	1089.79
282.237	1026.68
284.964	1054.95
287.69	1021.47
290.416	846.717
293.14	942.293
295.863	832.227
298.586	993.93
301.308	1180.88
304.029	1081.04
306.749	1227.97
309.468	1469.58
312.186	1574.4
314.903	1722.7
317.62	1659.21
320.336	1799.81
323.051	2007.46
325.765	1981.71
328.478	2385.52
331.19	2806.44
333.902	3100.86
336.612	3479.32
339.322	3970.12
342.031	4544.61
344.739	5026
347.446	5537.47
350.153	6279.47
352.858	7164.99
355.563	7876.8
358.267	8809.09
360.969	9888.82
363.672	11123.2
366.373	12544.5
369.073	13850.3
371.773	15117.3
374.471	16236.6
377.169	17724.5
379.866	19141.8
382.563	21296.9
385.258	23443.8
387.952	26752.9
390.646	29910.3
393.339	33856.3
396.031	37447.6
398.722	40413.7
401.412	42598.1
404.101	42775.3
406.79	41118.5
409.478	38287.5
412.165	34789.5
414.851	30702.1
417.536	26086.8
420.22	22595.3
422.904	18574.1
425.586	16303.1
428.268	13938.1
430.949	11072.9
433.629	10001.7
436.309	8501.21
438.987	7454.38
441.665	6526.27
444.342	6411.55
447.018	6211.38
449.693	6291.06
452.367	7151.83
455.041	7633.25
457.713	9382.59
460.385	11879.3
463.056	13719.5
465.726	15440
468.395	16702.2
471.064	17858.9
473.731	19515.2
476.398	21447.5
479.064	24500
481.729	25887.5
484.394	24826.5
487.057	21768.4
489.72	17861.8
492.382	13737.9
495.043	10502.7
497.703	7718.15
500.362	5961.35
503.02	4351.32
505.678	3382.46
508.335	2520.92
510.991	2164.66
513.646	1722.46
516.3	1358.23
518.954	1325.16
521.607	1088.81
524.259	718.959
526.91	449.232
529.56	519.174
532.209	333.045
534.858	282.951
537.506	50.539
540.152	127.494
542.799	68.848
545.444	21.936
548.088	237.09
550.732	268.029
553.375	212.219
556.017	225.088
558.658	74.072
561.298	289.105
563.938	326.355
566.576	136.447
569.214	23.965
571.851	33.822
574.488	280.553
577.123	223.186
579.758	390.734
582.391	617.572
585.024	861.736
587.657	1359.58
590.288	1836.18
592.918	2246.52
595.548	2805.73
598.177	3583.73
600.805	4330.42
603.432	5116.3
606.059	6051.91
608.685	6302.42
611.309	6472.83
613.933	6168.15
616.557	5773.38
619.179	5133.55
621.801	4335.64
624.421	3879.66
627.041	2929.61
629.66	2625.48
632.279	2449.26
634.896	1952.95
637.513	1644.53
640.129	1358
642.744	1345.32
645.358	1232.45
647.972	1055.41
650.584	821.18
653.196	999.787
655.807	865.143
658.418	742.316
661.027	580.305
663.636	383.131
666.244	213.816
668.851	159.357
671.457	223.76
674.062	501.025
676.667	318.16
679.271	439.168
681.874	76.855
684.476	385.74
687.077	463.953
689.678	381.238
692.278	367.795
694.877	493.857
697.475	410.572
700.072	430.791
702.669	271.359
705.265	464.605
707.86	382.049
710.454	443.822
713.047	363.215
715.64	361.045
718.232	161.074
720.823	227.352
723.413	271.482
726.002	198.971
728.591	54.162
731.179	247.289
733.766	71.488
736.352	116.729
738.937	188.711
741.522	244.182
744.106	229.273
746.689	270.312
749.271	404.551
751.853	597.592
754.433	464.508
757.013	375.27
759.592	593.994
762.17	800.422
764.748	964.09
767.325	1106.97
769.901	1318.62
772.476	1625.87
775.05	1880.37
777.624	1984.53
780.196	1860.94
782.768	1622.57
785.339	1336.86
787.91	1188.36
790.479	994.557
793.048	1072.07
795.616	1120.35
798.183	966.209
800.75	1088.61
803.316	941.135
805.88	907.215
808.445	1375.14
811.008	1362.95
813.57	1525.75
816.132	1654.01
818.693	1385.37
821.253	1172.48
823.813	1146.53
826.371	654.08
828.929	517.344
831.486	466.164
834.042	321.816
836.598	274.404
839.152	207.965
841.706	304.5
844.259	70.018
846.812	142.574
849.363	61.107
851.914	136.645
854.464	46.23
857.013	1.662
859.562	105.896
862.11	244.518
864.656	188.85
867.203	277.367
869.748	117.908
872.292	5.818
874.836	99.055
877.379	73.518
879.922	112.611
882.463	281.744
885.004	113.07
887.544	86.955
890.083	66.547
892.621	344.322
895.159	134.594
897.695	56.014
900.232	218.18
902.767	122.672
905.301	139.873
907.835	351.354
910.368	185.762
912.9	229.855
915.432	394.475
917.962	135.863
920.492	0
