Measurement: Raman, 514 nm, ccw, Raman Data Processed
Mineral: Heulandite-Ca
Rruff sample: R040021
Ideal chemistry: NaCa_4_(Si_27_Al_9_)O_72_24H_2_O
Locality: Prospect Park, Patterson, Passaic County, New Jersey, USA
Source: University of Arizona Mineral Museum
Description: Group of colorless lamellar crystals
Measured chemistry: Na_0.25_(Na_0.55_K_0.45_)_Σ=1_(Ca_2.42_Na_0.85_Sr_0.73_)_Σ=4.00_(Si_27.60_Al_8.40_)_Σ=36_O_72_·24H_2_O ; H_2_O estimated by difference
Pin_id: l00406
Orientation: Laser parallel to -b* (0 -1 0). Fiducial mark perpendicular to laser is parallel to c [0 0 1]
Raman shift (cm-1)	intensity
93.375	0
97.554	549.584
101.732	1327.4
105.908	1724.48
110.082	2047.39
114.254	3880.23
118.424	4522.61
122.592	5828.73
126.758	7347.56
130.922	9082.24
135.083	11764.8
139.243	13731
143.401	15227.6
147.557	14594.4
151.711	12818.2
155.863	10714.6
160.013	8341.9
164.161	6059.99
168.308	4293.56
172.452	2827.01
176.594	1676.74
180.734	621.121
184.872	66.506
189.008	365.953
193.143	207.744
197.275	39.514
201.405	13.383
205.534	93.289
209.66	74.799
213.784	73.566
217.907	247.645
222.027	792.012
226.146	1301.68
230.263	1785.26
234.377	2638.24
238.49	3640.44
242.601	4354.81
246.709	4635.5
250.816	4855.66
254.921	4568.31
259.024	4113.8
263.125	3199.91
267.224	2631.64
271.321	1760.24
275.416	1283.5
279.51	559.143
283.601	626.635
287.69	138.242
291.778	236.441
295.863	153.623
299.947	75.229
304.029	129.104
308.108	248.668
312.186	332.119
316.262	631.316
320.336	1028.18
324.408	1240.95
328.478	1576.71
332.546	1841.81
336.612	2227.39
340.677	2825.53
344.739	3160.03
348.799	3970.29
352.858	4707.37
356.915	5868.22
360.969	7204.66
365.022	8667.4
369.073	10262.8
373.122	11915.5
377.169	14579.1
381.215	16926.1
385.258	19898.8
389.299	24116.1
393.339	27337.7
397.376	30614.5
401.412	32280.7
405.446	30635.1
409.478	27291.7
413.508	23219.5
417.536	18445.8
421.562	14088.1
425.586	10917
429.609	8073.03
433.629	6152.07
437.648	5077.37
441.665	3904.22
445.68	3593.18
449.693	3498.27
453.704	3994.89
457.713	5049.83
461.721	6729.73
465.726	8163.22
469.73	9498.5
473.731	11444.4
477.731	16358.5
481.729	20573.5
485.725	20550.8
489.72	16714.2
493.712	11354
497.703	6949.82
501.691	4424.9
505.678	2633.55
509.663	1771.79
513.646	1432.76
517.627	1165.9
521.607	902.289
525.584	650.09
529.56	841.049
533.534	685.721
537.506	445.002
541.476	494.176
545.444	155.117
549.41	47.885
553.375	151.934
557.337	88.234
561.298	19.791
565.257	8.006
569.214	1.914
573.17	35.766
577.123	113.801
581.075	296.168
585.024	931.945
588.972	1601.54
592.918	1967.37
596.863	2950.28
600.805	3802
604.746	4425.06
608.685	4684.89
612.621	4190.18
616.557	3915.17
620.49	3445.92
624.421	3479.11
628.351	2405.4
632.279	1452.64
636.205	1270.78
640.129	1035.67
644.051	1044.15
647.972	988.191
651.89	994.736
655.807	247.74
659.722	220.107
663.636	169.754
667.547	134.447
671.457	36.678
675.365	105.891
679.271	132.596
683.175	16.367
687.077	26.816
690.978	220.523
694.877	175.865
698.774	323.156
702.669	165.959
706.562	530.404
710.454	379.354
714.344	520.057
718.232	678.77
722.118	598.855
726.002	794.811
729.885	733.107
733.766	460.465
737.645	607.439
741.522	560.559
745.397	651.371
749.271	804.584
753.143	1130.28
757.013	1349.15
760.881	1518.95
764.748	1896.46
768.613	2730.59
772.476	3463.96
776.337	3786.01
780.196	4003.71
784.054	3756.76
787.91	3458.49
791.764	3075.1
795.616	2751.05
799.467	2324.06
803.316	2332.48
807.163	2359.79
811.008	2562.59
814.851	2877.66
818.693	2691.64
822.533	2233.77
826.371	1445.02
830.208	981.492
834.042	822.488
837.875	663.908
841.706	1029.33
845.536	554.316
849.363	336.674
853.189	477.764
857.013	841.404
860.836	1002.23
864.656	781.316
868.475	533.668
872.292	269.156
876.108	87.605
879.922	213.281
883.733	83.869
887.544	123.291
891.352	142.5
895.159	197.145
898.964	100.861
902.767	158.338
906.568	73.461
910.368	72.52
914.166	110.24
917.962	75.596
921.757	109.719
925.55	83.771
929.341	80.012
933.13	15.543
936.918	95.828
940.703	80.59
944.488	111.174
948.27	41.572
952.051	32.111
955.83	173.438
959.607	173.588
963.383	305.666
967.156	257.758
970.928	227.875
974.699	574.061
978.468	631.355
982.234	1022.78
986	1109.44
989.763	1249.32
993.525	1017.05
997.285	2045.07
1001.04	1763.55
1004.8	1717.43
1008.55	2418.51
1012.31	2495.24
1016.06	2835.97
1019.81	3001.61
1023.56	3504
1027.31	3205.45
1031.05	3272.56
1034.79	3136.63
1038.53	3308.52
1042.27	3308.54
1046.01	3213.57
1049.75	2967.44
1053.48	3077.2
1057.22	2917.48
1060.95	2815.73
1064.68	2818.27
1068.4	2709.59
1072.13	2965.57
1075.86	3389.16
1079.58	3628.5
1083.3	4279.07
1087.02	4415.53
1090.74	4408.23
1094.45	4710.69
1098.17	4807.32
1101.88	5017.06
1105.59	4786.67
1109.3	4906.48
1113.01	4754.66
1116.71	4585.32
1120.42	4734.05
1124.12	4484.41
1127.82	4426.42
1131.52	4446.56
1135.22	4505.14
1138.91	4111.92
1142.61	3955.64
1146.3	3992.58
1149.99	3673.18
1153.68	3350.48
1157.37	3750.73
1161.06	3060.21
1164.74	2938.38
1168.42	2582.67
1172.1	2359.89
1175.78	2138.14
1179.46	1800.4
1183.14	1433.61
1186.81	1028.16
1190.48	924.721
1194.15	610.629
1197.83	405.719
1201.49	619.191
1205.16	328.766
1208.82	134.666
1212.49	332.131
1216.15	107.803
1219.81	65.893
1223.46	36.289
1227.12	133.371
1230.78	3.734
1234.43	126.857
1238.08	211.662
1241.73	140.342
1245.38	381.859
1249.03	274.855
1252.67	239.242
1256.31	115.336
1259.95	89.355
1263.6	244.273
1267.23	286.094
1270.87	332.166
1274.51	379.254
1278.14	447.631
1281.77	295.725
1285.4	163.814
1289.03	127.031
1292.66	196.949
1296.28	316.16
1299.91	255.307
1303.53	88.922
1307.15	304.621
1310.77	371.4
1314.38	596.059
1318	571.854
1321.61	408.352
1325.23	630.615
1328.84	261.307
1332.45	20.916
1336.06	72.059
1339.66	20.869
1343.27	48.611
1346.87	121.469
1350.47	171.16
1354.07	182.771
1357.67	338.486
1361.26	81.871
1364.86	107.137
1368.45	320.926
1372.04	348.727
1375.63	364.785
1379.22	582.029
1382.81	679.865
1386.39	388.162
1389.98	451.107
1393.56	268.604
1397.14	280.902
1400.72	235.197
1404.3	31.744
1407.87	295.203
1411.45	261.141
1415.02	279.688
1418.59	261.666
1422.16	22.277
1425.73	141.846
1429.29	65.418
1432.86	0.486
