Measurement: Raman, 514 nm, ccw, Raman Data Processed
Mineral: Heulandite-Ca
Rruff sample: R060465
Ideal chemistry: NaCa_4_(Si_27_Al_9_)O_72_24H_2_O
Locality: Garrawilla, near Gunnadah, New South Wales, Australia
Source: Michael Scott
Description: Orange fan of platy crystals
Measured chemistry: (Ca_0.66_Na_0.24_K_0.10_)_5_(Si_0.77_Al_0.23_)_36_O_72_Â·24H_2_O
Pin_id: M01120
Orientation: Laser parallel to (1 0 1). Fiducial mark perpendicular to laser is parallel to b [0 1 0]
Raman shift (cm-1)	intensity
214.547	0
218.215	18.25
221.882	156.963
225.547	87.2803
229.211	54.8603
232.872	96.2539
236.533	279.95
240.192	892.211
243.849	1636.31
247.504	2339.17
251.159	3138.82
254.811	2974.2
258.462	2991.24
262.112	2481.38
265.76	1556.53
269.406	882.996
273.051	544.651
276.694	350.972
280.336	167.519
283.976	120.943
287.615	24.9297
291.252	185.32
294.887	200.645
298.521	289.294
302.154	363.509
305.785	377.702
309.414	461.558
313.042	282.641
316.668	552.448
320.293	459.603
323.916	730.797
327.538	922.28
331.158	1057.69
334.777	1493.03
338.394	1622.29
342.009	1720.47
345.623	2210.57
349.236	2980.56
352.847	3620.42
356.456	4596.15
360.064	5658.97
363.67	6816.61
367.275	8255.16
370.878	9874.92
374.48	11521.5
378.08	13593.1
381.679	16038
385.276	19727.1
388.872	22882
392.466	27344.6
396.058	32257.5
399.649	36375.9
403.239	38981.6
406.827	39745.2
410.413	37001.2
413.998	33085.8
417.581	28084.9
421.163	22986.5
424.743	18428
428.322	14451.5
431.899	10876.2
435.475	8484.06
439.049	6598.34
442.622	5596.94
446.193	5164.55
449.763	5281.15
453.331	6150.68
456.898	7647.13
460.463	9643.44
464.026	12283.6
467.588	14437.5
471.149	16617.2
474.708	19259.7
478.265	22923.9
481.821	26745.8
485.376	28699.4
488.929	25931.7
492.48	19751.7
496.03	13253.4
499.578	8328.79
503.125	5186.87
506.671	3247.77
510.214	2057.7
513.757	1414.15
517.298	1073.56
520.837	677.738
524.375	439.66
527.911	359.297
531.446	62.6045
534.979	257.462
538.511	18.8086
542.041	16.582
545.57	3.30664
549.097	135.554
552.623	167.341
556.147	65.6523
559.67	186.616
563.191	208.352
566.711	48.8691
570.229	37.4795
573.746	240.526
577.261	427.803
580.775	617.546
584.287	1168.92
587.798	1384.39
591.307	2129.07
594.814	2817.74
598.321	4079.11
601.825	5429.28
605.329	6711.99
608.83	8040.28
612.33	8504.83
615.829	7856.07
619.326	6748.51
622.822	5398.02
626.316	4042.27
629.809	3274.34
633.3	2376.95
636.79	1938.15
640.278	1497.81
643.765	1344.92
647.25	1156.47
650.734	956.441
654.216	938.07
657.697	770.151
661.176	858.942
664.654	781.548
668.131	739.167
671.605	772.792
675.079	688.165
678.551	658.888
682.021	589.446
685.49	532.49
688.957	591.381
692.423	490.44
695.888	346.501
699.351	497.419
702.812	240.441
706.272	260.453
709.73	67.1338
713.187	130.477
716.643	389.337
720.097	175.662
723.55	114.803
727.001	130.218
730.45	217.929
733.898	145.53
737.345	72.9912
740.79	128.209
744.234	16.2617
747.676	268.845
751.117	203.664
754.556	272.024
757.994	395.812
761.43	364.391
764.865	390.081
768.298	540.422
771.73	561.098
775.161	574.602
778.59	674.583
782.017	830.994
785.443	837.323
788.868	738.812
792.291	842.148
795.712	744.43
799.132	782.02
802.551	855.494
805.968	599.876
809.384	580.15
812.798	525.602
816.211	544.551
819.622	643.17
823.032	686.791
826.44	556.114
829.847	266.306
833.253	255.086
836.657	143.998
840.059	123.985
843.46	263.532
846.86	43
850.258	3.63965
853.655	378.138
857.05	119.528
860.444	15.8193
863.836	42.7529
867.227	34.6768
870.616	11.6113
874.004	59.1338
877.391	70.5088
880.776	20.7148
884.159	93.7402
887.541	101.847
890.922	35.3613
894.301	86.0127
897.679	42.8135
901.055	9.89355
904.43	35.7559
907.803	33.6172
911.175	123.844
914.545	66.5664
917.914	1.17773
921.282	8.37109
924.648	24.9648
928.013	5.82227
931.376	95.2656
934.738	152.34
938.098	177.067
941.457	151.455
944.814	230.511
948.17	231.257
951.525	218.703
954.878	369.856
958.229	302.726
961.58	401.323
964.928	379.956
968.276	461.505
971.621	510.644
974.966	703.311
978.309	671.553
981.65	636.905
984.99	758.116
988.329	710.784
991.666	730.406
995.002	864.029
998.336	1004.95
1001.67	899.312
1005	1069.21
1008.33	1047.46
1011.66	1012.19
1014.99	1118.33
1018.31	1134.62
1021.64	1187.47
1024.96	1230.65
1028.28	1203.98
1031.6	1222.72
1034.92	1269.23
1038.24	1343.34
1041.55	1368.42
1044.87	1454.39
1048.18	1287.67
1051.49	1477.77
1054.8	1408.54
1058.11	1467.21
1061.41	1249.96
1064.72	1372.66
1068.03	1512.36
1071.33	1656.51
1074.63	1860
1077.93	2152.4
1081.23	2264.97
1084.53	2445.61
1087.82	2655.34
1091.12	2809.16
1094.41	2818.07
1097.7	2918.08
1100.99	3039.4
1104.28	3090.7
1107.56	3256.92
1110.85	3002.87
1114.13	3253.11
1117.42	3511.89
1120.7	3527.52
1123.98	3420.27
1127.26	3166.22
1130.53	3062.39
1133.81	3014.08
1137.08	2991.92
1140.36	3119.32
1143.63	3018.68
1146.9	2915.21
1150.17	2845.25
1153.43	2915.63
1156.7	2949.35
1159.96	2922.38
1163.23	2741.8
1166.49	2634.55
1169.75	2677.53
1173.01	2602.9
1176.27	2197.49
1179.52	2227.32
1182.78	1936.37
1186.03	1757.57
1189.28	1791.92
1192.53	1387.39
1195.78	1247.98
1199.03	1072.65
1202.27	787.394
1205.52	398.222
1208.76	554.124
1212	380.019
1215.24	239.122
1218.48	156.116
1221.72	94.375
1224.96	28.5986
1228.19	83.0977
1231.42	142.857
1234.66	79.8486
1237.89	103.181
1241.12	26.1436
1244.34	142.581
1247.57	31.3115
1250.8	107.972
1254.02	57.4453
1257.24	25.0479
1260.46	45.2578
1263.68	138.583
1266.9	9.72559
1270.12	161.098
1273.33	249.775
1276.54	519.041
1279.76	383.717
1282.97	439.529
1286.18	587.666
1289.38	645.412
1292.59	782.43
1295.8	647.462
1299	756.186
1302.2	1111.64
1305.4	1190.07
1308.61	1263.01
1311.8	1422.07
1315	1348.01
1318.2	1504.06
1321.39	1754.52
1324.58	1531.59
1327.78	1455.68
1330.96	1659.91
1334.15	1555.92
1337.34	1543.33
1340.53	1228.66
1343.71	1232.52
1346.89	1141.94
1350.08	860.004
1353.26	799.436
1356.44	823.281
1359.61	732.707
1362.79	564.775
1365.96	460.943
1369.14	532.689
1372.31	461.85
1375.48	297.685
1378.65	367.389
1381.82	362.014
1384.98	245.834
1388.15	261.312
1391.31	147.916
1394.48	201.522
1397.64	130.34
1400.8	134.859
1403.95	42.8496
1407.11	47.5371
1410.27	85.2871
1413.42	124.76
1416.57	76.4902
1419.72	1.04688
1422.88	105.893
1426.02	101.34
1429.17	147.982
1432.32	10.4707
1435.46	58.2656
1438.61	145.875
1441.75	184.262
1444.89	74.4551
1448.03	208.498
1451.16	270.273
1454.3	351.769
1457.43	229.959
1460.57	254.787
1463.7	187.647
1466.83	70.1641
1469.96	236.94
1473.09	90.0762
1476.21	107.385
1479.34	33.3086
1482.46	175.375
1485.59	281.266
1488.71	227.453
1491.83	272.289
1494.95	22.002
1498.06	48.7949
1501.18	37.5605
1504.29	198.824
1507.41	211.449
1510.52	213.254
1513.63	138.088
1516.74	41.6172
1519.85	318.629
1522.95	320.676
1526.06	179.713
1529.16	312.299
1532.26	177.094
1535.36	283.225
1538.46	85.4609
1541.56	193.387
1544.66	204.322
1547.75	265.279
1550.85	111.512
1553.94	92.5879
1557.03	136.096
1560.12	44.7832
