Measurement: Raman, 514 nm, ccw, Raman Data Processed
Mineral: Heulandite-Ca
Rruff sample: R040021
Ideal chemistry: NaCa_4_(Si_27_Al_9_)O_72_24H_2_O
Locality: Prospect Park, Patterson, Passaic County, New Jersey, USA
Source: University of Arizona Mineral Museum
Description: Group of colorless lamellar crystals
Measured chemistry: Na_0.25_(Na_0.55_K_0.45_)_Σ=1_(Ca_2.42_Na_0.85_Sr_0.73_)_Σ=4.00_(Si_27.60_Al_8.40_)_Σ=36_O_72_·24H_2_O ; H_2_O estimated by difference
Pin_id: l00406
Orientation: Laser parallel to -b* (0 -1 0). Fiducial mark perpendicular to laser is parallel to c [0 0 1]
Raman shift (cm-1)	intensity
105.908	0
110.082	487.902
114.254	2723.99
118.424	3304.82
122.592	4833.04
126.758	6821.52
130.922	9387.99
135.083	12695.2
139.243	14937.9
143.401	16338.7
147.557	16232.2
151.711	14687.3
155.863	12995.4
160.013	12054.3
164.161	10866.1
168.308	9307.78
172.452	7365.04
176.594	5401.37
180.734	3641.6
184.872	2552.7
189.008	1539.96
193.143	1077.24
197.275	413.754
201.405	167.025
205.534	151.279
209.66	81.016
213.784	468.561
217.907	512.281
222.027	246.277
226.146	20.443
230.263	424.156
234.377	931.76
238.49	1930.51
242.601	2757.61
246.709	3436.79
250.816	3990.72
254.921	4219.64
259.024	3735.85
263.125	3622.97
267.224	3202.8
271.321	2356.9
275.416	2132.08
279.51	1706.32
283.601	1109.92
287.69	1034.32
291.778	1196.64
295.863	1193.58
299.947	1408.91
304.029	1343.94
308.108	1972.9
312.186	1931.56
316.262	2359.64
320.336	2840.54
324.408	3246.14
328.478	3588.4
332.546	3813.44
336.612	4467.38
340.677	4524.9
344.739	4897.82
348.799	5342.07
352.858	5974.14
356.915	6829.69
360.969	7837.3
365.022	9137.42
369.073	10631.5
373.122	12185.9
377.169	14229.3
381.215	15990.7
385.258	18496.7
389.299	22296.4
393.339	26312.1
397.376	30138.2
401.412	32825.1
405.446	31989
409.478	29718.9
413.508	25568.2
417.536	20361
421.562	15840.6
425.586	12286.5
429.609	8941.54
433.629	6701.15
437.648	5117.53
441.665	4268.89
445.68	3883.47
449.693	3603.25
453.704	3991.37
457.713	5488.02
461.721	7447.28
465.726	9337.62
469.73	11393.1
473.731	14358.2
477.731	21311.4
481.729	27102.1
485.725	26861.8
489.72	20969.5
493.712	14012.8
497.703	8234.44
501.691	4834.98
505.678	2605.89
509.663	1715.26
513.646	1007.71
517.627	805.145
521.607	550.652
525.584	106.119
529.56	226.844
533.534	178.617
537.506	64.135
541.476	200.338
545.444	1.266
549.41	35.389
553.375	206.676
557.337	28.639
561.298	4.498
565.257	9.438
569.214	135.701
573.17	342.32
577.123	241.754
581.075	610.023
585.024	1161.83
588.972	2096.89
592.918	2472.97
596.863	3629.58
600.805	4941.88
604.746	5767.13
608.685	6017.35
612.621	5297.79
616.557	4715.26
620.49	3630.82
624.421	3292.51
628.351	2189.21
632.279	1437.98
636.205	1219.64
640.129	1139.16
644.051	679.41
647.972	447.354
651.89	662.965
655.807	90.221
659.722	27.967
663.636	36.949
667.547	425.133
671.457	246.783
675.365	284.801
679.271	161.217
683.175	993.998
687.077	45.066
690.978	154.367
694.877	1.801
698.774	308.977
702.669	60.039
706.562	336.273
710.454	163.557
714.344	455.572
718.232	444.92
722.118	699.58
726.002	481.451
729.885	476.174
733.766	350.463
737.645	473.992
741.522	556.84
745.397	572.326
749.271	505.656
753.143	687.746
757.013	854.982
760.881	1150.93
764.748	1334.05
768.613	1843.17
772.476	2546.55
776.337	2706
780.196	3004.55
784.054	3301.7
787.91	3212.5
791.764	2897.67
795.616	2801.68
799.467	2319.99
803.316	2375.08
807.163	1814.31
811.008	2170.51
814.851	2081.72
818.693	1813.41
822.533	1318.76
826.371	767.023
830.208	653.201
834.042	482.047
837.875	254.932
841.706	192.381
845.536	258.516
849.363	277.465
853.189	211.871
857.013	269.326
860.836	606.953
864.656	374.701
868.475	320.824
872.292	95.82
876.108	189.764
879.922	82.57
883.733	67.422
887.544	181.992
891.352	275.549
895.159	35.766
898.964	4.629
902.767	223.463
906.568	153.545
910.368	34.121
914.166	235.146
917.962	172.539
921.757	1.145
925.55	39.775
929.341	37.348
933.13	54.449
936.918	161.713
940.703	167.404
944.488	52.711
948.27	239.645
952.051	78.271
955.83	200.648
959.607	278.775
963.383	367.709
967.156	428.51
970.928	390.387
974.699	777.564
978.468	814.031
982.234	1163.76
986	1199.68
989.763	1169.19
993.525	1590.83
997.285	1894
1001.04	2510.09
1004.8	2418.94
1008.55	2242.81
1012.31	2316.06
1016.06	2494.27
1019.81	2756.18
1023.56	3046.31
1027.31	2818.35
1031.05	2802.65
1034.79	2693.47
1038.53	2796.01
1042.27	2856.09
1046.01	2707.76
1049.75	2833.09
1053.48	2878.13
1057.22	2753.53
1060.95	2769.46
1064.68	2873.26
1068.4	2794.68
1072.13	3392.87
1075.86	3511.79
1079.58	3967.33
1083.3	4361.9
1087.02	4816.43
1090.74	5147.94
1094.45	5396.76
1098.17	5594.79
1101.88	5880.45
1105.59	5505.69
1109.3	5794.93
1113.01	5727.59
1116.71	5574.02
1120.42	4980.4
1124.12	6118.98
1127.82	5491.55
1131.52	5349.17
1135.22	5719.49
1138.91	5395.35
1142.61	5163.74
1146.3	5281.06
1149.99	4904.9
1153.68	4668.02
1157.37	4243.91
1161.06	4051.93
1164.74	3758.91
1168.42	3320.78
1172.1	3071.04
1175.78	2714.57
1179.46	2114.31
1183.14	2143.08
1186.81	1776.46
1190.48	1489.55
1194.15	1074.13
1197.83	940.043
1201.49	1061.84
1205.16	407.861
1208.82	424.018
1212.49	240.105
1216.15	182.516
1219.81	183.518
1223.46	152.793
1227.12	7.141
1230.78	48.35
1234.43	216.531
1238.08	91.877
1241.73	138.363
1245.38	294.924
1249.03	142.795
1252.67	30.014
1256.31	35.037
1259.95	5.951
1263.6	71.789
1267.23	86.379
1270.87	2.842
1274.51	37.643
1278.14	288.377
1281.77	103.076
1285.4	72.426
1289.03	71.168
1292.66	123.562
1296.28	137.705
1299.91	50.855
1303.53	84.844
1307.15	92.746
1310.77	137.379
1314.38	501.5
1318	329.154
1321.61	195.58
1325.23	444.662
1328.84	111.715
1332.45	58.213
1336.06	24.676
1339.66	18.705
1343.27	43.76
1346.87	337.174
1350.47	406.285
1354.07	314.5
1357.67	444.643
1361.26	156.838
1364.86	137.906
1368.45	399.557
1372.04	189.732
1375.63	154.182
1379.22	388.768
1382.81	336.99
1386.39	231.908
1389.98	335.369
1393.56	378.771
1397.14	148.27
1400.72	279.961
1404.3	51.117
1407.87	133.773
1411.45	255.219
1415.02	149.34
1418.59	227.391
1422.16	5.859
1425.73	61.148
