Measurement: Raman, 514 nm, ccw, Raman Data Processed
Mineral: Heulandite-Ca
Rruff sample: R050097
Ideal chemistry: NaCa_4_(Si_27_Al_9_)O_72_24H_2_O
Locality: Rat's Nest Claim, Custer County, Idaho, USA
Source: John Cornish
Description: Pale pink coffin-shaped tabular single crystals
Measured chemistry: (Ca_0.66_Na_0.30_K_0.04_)_5_(Si_0.77_Al_0.23_)_36_O_72_Â·24H_2_O
Pin_id: L00358
Orientation: Laser parallel to -b* (0 -1 0). Fiducial mark perpendicular to laser is parallel to c [0 0 1]
Raman shift (cm-1)	intensity
217.22	0
221.341	7.964
225.46	45.286
229.577	131.926
233.692	264.848
237.805	526.163
241.916	1074.67
246.025	1573.96
250.132	1900.61
254.237	1887.58
258.34	1630.53
262.442	1517.04
266.541	1122.65
270.639	781.301
274.734	382.524
278.828	451.939
282.919	442.246
287.009	124.746
291.097	34.179
295.183	8.141
299.266	140.21
303.348	144.267
307.428	323.095
311.507	567.268
315.583	518.118
319.657	597.145
323.729	641.867
327.8	818.311
331.868	939.508
335.935	1013.31
339.999	1308.66
344.062	1633.83
348.123	1875.81
352.182	2215.6
356.239	2757.19
360.294	3501.63
364.347	4274
368.398	5058.35
372.448	6215.7
376.495	7288.79
380.54	8434.18
384.584	10020.6
388.626	12008
392.666	15099.6
396.704	17887
400.74	20522.8
404.774	21025
408.806	19440.3
412.836	16706.3
416.865	13283.8
420.891	10765.1
424.916	8164.47
428.939	6238.64
432.959	4906.82
436.978	3867.99
440.996	3139.09
445.011	2803.13
449.024	2587.43
453.036	2597.25
457.045	3678.24
461.053	5205.83
465.059	6548.28
469.063	7899.56
473.065	9143.64
477.065	11849.5
481.063	15002.1
485.06	16621.5
489.054	14295.6
493.047	10006
497.038	6008.55
501.027	3406.39
505.014	1976.63
508.999	1116.67
512.982	698.563
516.964	519.747
520.944	310.866
524.921	202.13
528.897	173.115
532.871	119.536
536.844	43.545
540.814	88.584
544.783	159.505
548.749	88.643
552.714	22.361
556.677	231.311
560.638	135.336
564.597	87.463
568.555	15.773
572.511	268.638
576.464	430.782
580.416	286.569
584.366	469.649
588.315	740.902
592.261	1140.81
596.206	1587.36
600.148	2258.04
604.089	3113.39
608.028	3436.85
611.965	3352.59
615.901	3098.01
619.834	2393.1
623.766	1788.8
627.696	1429.11
631.624	935.098
635.551	701.72
639.475	606.983
643.398	568.868
647.318	358.353
651.237	282.426
655.155	267.062
659.07	205.249
662.984	153.942
666.895	63.135
670.805	71.808
674.713	111.936
678.62	97.868
682.524	111.02
686.427	225.971
690.328	142.058
694.227	218.026
698.124	123.762
702.02	275.005
705.913	174.203
709.805	58.766
713.695	115.367
717.584	212.778
721.47	191.885
725.355	213.659
729.238	122.312
733.119	83.125
736.998	89.826
740.876	278.236
744.752	113.674
748.626	191.838
752.498	277.87
756.368	295.622
760.237	249.536
764.104	296.305
767.969	321.809
771.832	507.358
775.693	631.72
779.553	635.623
783.411	699.024
787.267	760.623
791.122	754.054
794.974	663.119
798.825	641.856
802.674	653.634
806.522	688.082
810.367	699.812
814.211	734.473
818.053	638.184
821.893	579.037
825.732	460.582
829.568	275.855
833.403	186.469
837.236	79.574
841.068	149.775
844.898	57.978
848.726	15.593
852.552	48.654
856.376	140.341
860.199	121.406
864.02	93.18
867.839	6.704
871.656	148.575
875.472	1.028
879.286	77.457
883.098	3.985
886.909	46.282
890.717	88.351
894.524	88.855
898.33	7.175
902.133	52.766
905.935	6.978
909.735	10.282
913.533	45.142
917.33	13.982
921.124	74.997
924.918	9.757
928.709	217.282
932.499	7.648
936.286	78.797
940.073	25.312
943.857	58.334
947.64	25.213
951.421	45.084
955.2	95.362
958.978	152.574
962.753	80.695
966.527	123.741
970.3	170.732
974.071	130.686
977.84	86.605
981.607	229.527
985.372	243.955
989.136	403.416
992.898	297.298
996.659	346.137
1000.42	478.787
1004.17	672.039
1007.93	621.675
1011.68	870.001
1015.43	888.427
1019.18	759.974
1022.93	873.015
1026.68	858.83
1030.42	932.851
1034.17	910.515
1037.91	1133.24
1041.65	1042.21
1045.39	1085.28
1049.12	867.595
1052.86	960.01
1056.59	1089.4
1060.33	1144.13
1064.06	1165.54
1067.78	1303.95
1071.51	1395.59
1075.23	1533.52
1078.96	1701.95
1082.68	1978.69
1086.4	2069.09
1090.12	2463.97
1093.83	2572.99
1097.55	2654
1101.26	2710.2
1104.97	2632.62
1108.68	2642.63
1112.39	2592.84
1116.1	2817.19
1119.8	2886.96
1123.5	2733.55
1127.2	2746.35
1130.9	2679.37
1134.6	2785.2
1138.3	2573.45
1141.99	2541.25
1145.69	2812.83
1149.38	2898.68
1153.07	2736
1156.76	2561.37
1160.44	2359.3
1164.13	2230.36
1167.81	2047.62
1171.49	2134.99
1175.17	1723.17
1178.85	1614.89
1182.52	1430.38
1186.2	1136.19
1189.87	882.846
1193.54	712.245
1197.21	648.484
1200.88	562.305
1204.55	641.431
1208.21	543.425
1211.88	267.771
1215.54	303.49
1219.2	225.554
1222.86	151.095
1226.51	68.904
1230.17	327.708
1233.82	240.775
1237.47	330.114
1241.12	284.736
1244.77	71.492
1248.42	149.764
1252.06	25.775
1255.71	95.355
1259.35	104.658
1262.99	240.24
1266.63	347.121
1270.26	645.385
1273.9	284.125
1277.53	121.406
1281.16	61.781
1284.8	77.475
1288.42	143.309
1292.05	243.598
1295.68	228.09
1299.3	568.525
1302.92	244.191
1306.55	168.17
1310.16	282.908
1313.78	154.85
1317.4	106.855
1321.01	28.65
1324.62	215.828
1328.24	347.381
1331.85	258.459
1335.45	251.836
1339.06	228.268
1342.66	293.746
1346.27	1.768
