Measurement: Raman, 514 nm, ccw, Raman Data Processed
Mineral: Heulandite-Ca
Rruff sample: R060465
Ideal chemistry: NaCa_4_(Si_27_Al_9_)O_72_24H_2_O
Locality: Garrawilla, near Gunnadah, New South Wales, Australia
Source: Michael Scott
Description: Orange fan of platy crystals
Measured chemistry: (Ca_0.66_Na_0.24_K_0.10_)_5_(Si_0.77_Al_0.23_)_36_O_72_Â·24H_2_O
Pin_id: M01120
Orientation: Laser parallel to (1 0 1). Fiducial mark perpendicular to laser is parallel to b [0 1 0]
Raman shift (cm-1)	intensity
236.533	0
240.192	58.7969
243.849	89.4414
247.504	173.018
251.159	323.309
254.811	334.174
258.462	531.113
262.112	643.566
265.76	795.465
269.406	1057.13
273.051	1401.16
276.694	1921.04
280.336	1892.59
283.976	1947.92
287.615	2122.42
291.252	2055.95
294.887	1987.53
298.521	1679.38
302.154	1289.89
305.785	979.568
309.414	374.926
313.042	295.297
316.668	287.732
320.293	480.492
323.916	838.807
327.538	971.387
331.158	1097.73
334.777	1333.9
338.394	1794.1
342.009	1992.04
345.623	2408.56
349.236	3051.69
352.847	3863.43
356.456	4845.77
360.064	6112.68
363.67	7398.12
367.275	9215.06
370.878	10855.5
374.48	12868.3
378.08	15185.6
381.679	17850.7
385.276	21035.3
388.872	25091.2
392.466	29114.9
396.058	33254.5
399.649	36464.4
403.239	38185.8
406.827	37714.7
410.413	34088.2
413.998	30465.5
417.581	25477.4
421.163	20976.6
424.743	16899
428.322	13060.6
431.899	10089.9
435.475	7907.11
439.049	6203.86
442.622	5304.35
446.193	5038.83
449.763	5507
453.331	6664.94
456.898	8441.64
460.463	10439.1
464.026	12632.2
467.588	14534.8
471.149	16296
474.708	18407.5
478.265	21473.4
481.821	23584.6
485.376	23510.2
488.929	20224
492.48	15308.3
496.03	10295.8
499.578	6389.6
503.125	4250.72
506.671	2849.13
510.214	2131.82
513.757	1601.78
517.298	1294.02
520.837	801.508
524.375	385.288
527.911	71.54
531.446	42.167
534.979	131.027
538.511	263.642
542.041	215.823
545.57	164.647
549.097	341.229
552.623	284.459
556.147	65.1553
559.67	66.3213
563.191	7.05273
566.711	83.167
570.229	215.264
573.746	369.243
577.261	266.608
580.775	742.893
584.287	815.132
587.798	1426.88
591.307	1939.52
594.814	2470.18
598.321	3634.14
601.825	4715.4
605.329	5817.6
608.83	6437.25
612.33	6648.4
615.829	6298.14
619.326	5630.12
622.822	4560.25
626.316	3872.69
629.809	3450.27
633.3	3070.05
636.79	2835.72
640.278	2465.66
643.765	2202.7
647.25	1748.84
650.734	1583.99
654.216	1374.16
657.697	1320.41
661.176	1131.63
664.654	1193.76
668.131	1136.53
671.605	1182.25
675.079	1009.46
678.551	802.074
682.021	855.807
685.49	765.419
688.957	467.559
692.423	421.476
695.888	375.392
699.351	304.603
702.812	272.518
706.272	303.628
709.73	199.091
713.187	56.6797
716.643	229.753
720.097	297.344
723.55	31.7969
727.001	124.157
730.45	96.8506
733.898	58.79
737.345	160.994
740.79	326.211
744.234	375.257
747.676	438.985
751.117	607.31
754.556	792.912
757.994	843.704
761.43	1118.12
764.865	1293.09
768.298	1454.96
771.73	1669.5
775.161	1887.38
778.59	1912.03
782.017	1724.58
785.443	1576.32
788.868	1471.73
792.291	1484.71
795.712	1227.76
799.132	1023.32
802.551	981.857
805.968	821.963
809.384	683.059
812.798	613.787
816.211	740.415
819.622	594.241
823.032	587.062
826.44	348.553
829.847	101.224
833.253	97.7022
836.657	206.293
840.059	128.741
843.46	61.5654
846.86	129.749
850.258	140.326
853.655	72.6748
857.05	120.122
860.444	77.7969
863.836	93.3721
867.227	63.752
870.616	85.3818
874.004	139.605
877.391	41.0127
880.776	67.957
884.159	117.079
887.541	95.3467
890.922	72.4766
894.301	45.3184
897.679	145.792
901.055	22.7109
904.43	24.1465
907.803	41.9639
911.175	97.5859
914.545	163.864
917.914	14.5957
921.282	60.6592
924.648	56.1445
928.013	48.0273
931.376	245.277
934.738	146.078
938.098	147.457
941.457	332.426
944.814	224.014
948.17	396.223
951.525	205.068
954.878	308.56
958.229	549.128
961.58	581.79
964.928	390.935
968.276	518.2
971.621	597.134
974.966	757.261
978.309	911.419
981.65	1035.98
984.99	960.519
988.329	1340.05
991.666	1273.04
995.002	1328.94
998.336	1575.75
1001.67	1685.91
1005	1817.93
1008.33	1906.27
1011.66	1866.98
1014.99	2065.94
1018.31	1935.81
1021.64	2006.26
1024.96	1987.12
1028.28	1942.53
1031.6	1800.01
1034.92	1876.76
1038.24	1756.9
1041.55	1753.47
1044.87	1852.38
1048.18	1704.02
1051.49	1690.39
1054.8	1731.56
1058.11	1808.04
1061.41	1641.15
1064.72	1805.27
1068.03	1932.88
1071.33	2047.2
1074.63	2168.63
1077.93	2506
1081.23	2730.68
1084.53	3020.09
1087.82	3223.02
1091.12	3265.06
1094.41	3373.41
1097.7	3682.63
1100.99	3750.9
1104.28	3993.66
1107.56	3950.76
1110.85	4042.31
1114.13	4306.62
1117.42	4374.03
1120.7	4714.59
1123.98	4852.69
1127.26	4817.5
1130.53	4839.67
1133.81	4851.01
1137.08	4892.49
1140.36	4703.25
1143.63	4694.33
1146.9	4690.82
1150.17	4657.6
1153.43	4552.78
1156.7	4442.32
1159.96	4252.24
1163.23	4217.54
1166.49	3917.22
1169.75	3675.16
1173.01	3483.35
1176.27	3093.07
1179.52	3056.16
1182.78	2533.5
1186.03	2259.01
1189.28	2129.11
1192.53	1642.65
1195.78	1459.76
1199.03	1391.98
1202.27	960.317
1205.52	772.759
1208.76	547.378
1212	461.435
1215.24	327.897
1218.48	123.585
1221.72	56.5449
1224.96	52.2256
1228.19	8.77734
1231.42	87.9394
1234.66	98.7022
1237.89	100.624
1241.12	245.742
1244.34	258.351
1247.57	307.508
1250.8	25.5625
1254.02	29.8682
1257.24	111.945
1260.46	80.6728
1263.68	255.442
1266.9	362.25
1270.12	514.449
1273.33	581.667
1276.54	402.524
1279.76	465.377
1282.97	499.307
1286.18	600.615
1289.38	879.773
1292.59	889.102
1295.8	1055.8
1299	1003.69
1302.2	1245.52
1305.4	1552.05
1308.61	1697.49
1311.8	1650.12
1315	1628.46
1318.2	1865.19
1321.39	1969.15
1324.58	1928.04
1327.78	1719.23
1330.96	1735.64
1334.15	1771.55
1337.34	1709.85
1340.53	1617.16
1343.71	1451.55
1346.89	1406.08
1350.08	968.245
1353.26	1135.6
1356.44	1075.06
1359.61	1016.51
1362.79	792.731
1365.96	509.989
1369.14	490.188
1372.31	575.355
1375.48	402.618
1378.65	499.892
1381.82	63.1055
1384.98	359.633
1388.15	240.512
1391.31	118.081
1394.48	33.0049
1397.64	217.682
1400.8	149.864
1403.95	182.446
1407.11	143.693
1410.27	49.4473
1413.42	85.4824
1416.57	51.2402
1419.72	27.7793
1422.88	171.639
1426.02	107.006
1429.17	64.9922
1432.32	138.799
1435.46	186.844
1438.61	126.338
1441.75	363.996
1444.89	188.443
1448.03	373.682
1451.16	227.693
1454.3	212.435
1457.43	196.879
1460.57	112.352
1463.7	106.688
1466.83	75.6426
1469.96	164.662
1473.09	73.918
1476.21	237.332
1479.34	131.154
1482.46	96.7481
1485.59	82.9512
1488.71	9.94727
1491.83	18.416
1494.95	91.0527
1498.06	159.185
1501.18	44.123
1504.29	44.5371
1507.41	77.6621
1510.52	74.6758
1513.63	193.709
1516.74	182.326
1519.85	339.795
1522.95	388.865
1526.06	493.129
1529.16	432.637
1532.26	181.023
1535.36	217.467
1538.46	89.8633
1541.56	32.9453
1544.66	263.894
1547.75	109.004
1550.85	22.6855
1553.94	207.969
1557.03	202.023
1560.12	1.4082
