Measurement: Raman, 514 nm, ccw, Raman Data Processed
Mineral: Heulandite-Ca
Rruff sample: R050017
Ideal chemistry: NaCa_4_(Si_27_Al_9_)O_72_24H_2_O
Locality: Poona, Maharashtra State, India
Source: Eugene Schlepp
Description: Single crystals
Measured chemistry: (Ca_.70_Na_.22_K_.02_[box]_0.06_)_5_(Si_0.77_Al_0.23_)_36_O_72_Â·24H_2_O
Pin_id: L00080
Orientation: Laser parallel to -a* (-1 0 0). Fiducial mark perpendicular to laser is parallel to b [0 1 0]
Raman shift (cm-1)	intensity
228.891	0
233.006	393.359
237.119	289.496
241.231	679.898
245.34	1349.37
249.448	1891.29
253.553	1920.92
257.657	1831.88
261.758	1603.27
265.858	1402.46
269.956	731.213
274.052	691.555
278.146	578.906
282.237	194.271
286.327	29.193
290.416	305.65
294.502	651.875
298.586	692.285
302.668	460.475
306.749	547.236
310.827	430.457
314.903	693.568
318.978	1330.54
323.051	1725.33
327.121	2534.26
331.19	2833.31
335.257	3554.62
339.322	3742.29
343.385	4212.39
347.446	4676.93
351.505	5912.94
355.563	6889.4
359.618	8491.28
363.672	10185.6
367.723	12061.7
371.773	14319.5
375.821	16881.6
379.866	18538
383.91	21570.3
387.952	25695.8
391.992	29568.9
396.031	35482.2
400.067	41559.6
404.101	44963.3
408.134	43281.7
412.165	38863.1
416.193	32355.8
420.22	25427.6
424.245	19038.4
428.268	14963.7
432.289	10170.2
436.309	7667.96
440.326	6081.72
444.342	5388.4
448.355	5242.92
452.367	5709.2
456.377	7436.19
460.385	9983.84
464.391	13488.1
468.395	16706
472.398	20384.3
476.398	26485.9
480.397	31799.8
484.394	32327.9
488.389	25794.5
492.382	17408.1
496.373	10702.9
500.362	7227
504.349	3670.02
508.335	2335.25
512.319	1674.94
516.3	911.619
520.28	498.127
524.259	306.861
528.235	153.908
532.209	18.586
536.182	72.244
540.152	135.621
544.121	441.666
548.088	276.51
552.053	133.039
556.017	225.729
559.978	140.814
563.938	41.924
567.895	57.868
571.851	303.786
575.805	588.008
579.758	870.355
583.708	1372.92
587.657	1680.64
591.603	2108.59
595.548	2777.68
599.491	3791.84
603.432	4890.12
607.372	6064.36
611.309	6598.57
615.245	6412.74
619.179	5486.82
623.111	4288.81
627.041	2980.68
630.97	2284.43
634.896	1679.05
638.821	1166.51
642.744	1108.81
646.665	856.928
650.584	778.325
654.502	543.465
658.418	392.791
662.331	389.744
666.244	207.316
670.154	425.438
674.062	361.149
677.969	480.516
681.874	289.313
685.777	483.273
689.678	650.531
693.577	484.188
697.475	630.888
701.371	713.5
705.265	631.158
709.157	644.511
713.047	834.996
716.936	622.84
720.823	846.991
724.708	730.027
728.591	696.836
732.472	807.541
736.352	876.778
740.23	1145.34
744.106	1035.87
747.98	1021.31
751.853	1423.13
755.723	1738.63
759.592	1770.31
763.459	2191.08
767.325	2518.86
771.188	2991.61
775.05	3172.82
778.91	3707.31
782.768	3745
786.625	3818.31
790.479	3490.85
794.332	3193.41
798.183	2818.45
802.033	2431.72
805.88	1798.51
809.726	1812.74
813.57	1676.1
817.413	1706.58
821.253	1330.94
825.092	980.841
828.929	543.012
832.764	235.931
836.598	166.671
840.429	86.258
844.259	77.999
848.088	121.681
851.914	76.738
855.739	102.252
859.562	65.502
863.383	20.134
867.203	49.198
871.02	86.349
874.836	92.021
878.65	17.4
882.463	131.176
886.274	139.83
890.083	141.728
893.89	6.288
897.695	110.641
901.499	31.707
905.301	51.661
909.102	3.578
912.9	253.654
916.697	76.228
920.492	106.094
924.285	151.317
928.077	154.938
931.867	293.984
935.655	348.475
939.442	232.438
943.226	319.188
947.009	456.893
950.791	441.449
954.57	463.6
958.348	649.375
962.124	860.08
965.899	927.471
969.671	1006.98
973.442	1376.76
977.211	1569.74
980.979	1688.39
984.745	1796.96
988.509	2076.87
992.271	2406.22
996.032	2583.1
999.791	2424.92
1003.55	2732.58
1007.3	3008.72
1011.06	3135.85
1014.81	3321.88
1018.56	3293.6
1022.31	3523.43
1026.06	3409.41
1029.8	3788.22
1033.55	3811.28
1037.29	3792.64
1041.03	4001.46
1044.77	3890.36
1048.5	3796.57
1052.24	3773.62
1055.97	3714.01
1059.7	3611.16
1063.43	3626.8
1067.16	3474.27
1070.89	3768.5
1074.61	3933.76
1078.34	4107.32
1082.06	4505.13
1085.78	4927.33
1089.5	5407.18
1093.21	5628.95
1096.93	6095.27
1100.64	6722.01
1104.35	6723.18
1108.06	7096.9
1111.77	7344.11
1115.48	7307.73
1119.18	7516.6
1122.89	7656.31
1126.59	7418.96
1130.29	7364.1
1133.99	7168.16
1137.68	7133.41
1141.38	6894.09
1145.07	6883.57
1148.76	6604.24
1152.45	6394.81
1156.14	6028.86
1159.83	5659.79
1163.51	5374.44
1167.19	4709.66
1170.88	4533.04
1174.56	4010.44
1178.23	3526.8
1181.91	3156.45
1185.59	2884.94
1189.26	2506.25
1192.93	2287.03
1196.6	1805.1
1200.27	1512.05
1203.94	1102.67
1207.6	1231.39
1211.27	702.479
1214.93	634.419
1218.59	590.522
1222.25	479.644
1225.9	501.768
1229.56	294.743
1233.21	215.899
1236.86	131.727
1240.51	133.489
1244.16	103.572
1247.81	238.856
1251.45	16.232
1255.1	62.666
1258.74	8.521
1262.38	17.698
1266.02	12.244
1269.66	148.566
1273.29	10.593
1276.93	193.972
1280.56	20.671
1284.19	112.105
1287.82	33.314
1291.45	69.783
1295.07	10.936
1298.7	45.061
1302.32	118.277
1305.94	57.182
1309.56	84.377
1313.18	41.494
1316.8	60.266
1320.41	38.656
1324.02	79.371
1327.63	121.791
1331.24	82.734
1334.85	3.777
1338.46	93.176
1342.06	98.547
1345.67	29.451
1349.27	70.789
1352.87	20.832
1356.47	50.467
1360.07	110.732
1363.66	136.66
1367.25	281.145
1370.85	54.18
1374.44	193.352
1378.03	104.195
1381.61	262.943
1385.2	233.551
1388.78	311.369
1392.37	145.393
1395.95	122.096
1399.53	258.191
1403.1	266.781
1406.68	202.746
1410.26	375.164
1413.83	128.998
1417.4	296.498
1420.97	221.137
1424.54	253.338
1428.1	184.996
1431.67	262.547
1435.23	52.211
1438.8	118.994
1442.36	316.061
1445.91	156.93
1449.47	415.797
1453.03	278.33
1456.58	227.59
1460.13	340.623
1463.68	176.922
1467.23	419.809
1470.78	328.613
1474.33	369.697
1477.87	131.66
1481.42	130.188
1484.96	269.324
1488.5	361.498
1492.04	71.986
1495.57	119.061
1499.11	263.592
1502.64	21.275
1506.17	188.652
1509.71	6.314
1513.23	175.779
