Measurement: Raman, 514 nm, ccw, Raman Data Processed
Mineral: Heulandite-Ca
Rruff sample: R060465
Ideal chemistry: NaCa_4_(Si_27_Al_9_)O_72_24H_2_O
Locality: Garrawilla, near Gunnadah, New South Wales, Australia
Source: Michael Scott
Description: Orange fan of platy crystals
Measured chemistry: (Ca_0.66_Na_0.24_K_0.10_)_5_(Si_0.77_Al_0.23_)_36_O_72_Â·24H_2_O
Pin_id: M01254
Orientation: Laser parallel to c* (0 0 1). Fiducial mark perpendicular to laser is parallel to a [1 0 0]
Raman shift (cm-1)	intensity
216.993	0
220.66	145.66
224.326	109.902
227.99	127.537
231.652	53.0859
235.313	111.816
238.972	632.521
242.63	1108.49
246.286	1743.94
249.941	1964.54
253.594	1811.68
257.245	1627.05
260.895	1466.78
264.544	814.604
268.191	507.639
271.836	472.273
275.48	344.369
279.122	354.482
282.763	82.25
286.402	18.375
290.04	63.3848
293.676	27.8262
297.31	4.1875
300.943	90.5684
304.575	89.709
308.205	389.41
311.833	357.182
315.46	514.896
319.085	595.816
322.709	753.512
326.331	997.531
329.952	1090.67
333.571	1691.56
337.188	2221.24
340.804	2525.71
344.419	3283.97
348.032	3707.04
351.643	4712.89
355.253	5574.51
358.862	6760.91
362.468	7685.99
366.074	9295.78
369.677	10704.3
373.28	12671.3
376.88	14392.4
380.479	16880.2
384.077	19608.1
387.673	23170.8
391.268	27407.1
394.861	32245.8
398.452	36713.8
402.042	39167.2
405.631	39257.9
409.218	36312.3
412.803	31766.2
416.387	27094.8
419.969	22094.9
423.55	17722.7
427.129	14077.6
430.707	10777.4
434.283	8533.34
437.858	6980.33
441.431	5759.7
445.003	5312.05
448.573	5428.08
452.142	6118.68
455.709	7505.19
459.274	9989.57
462.838	12623.8
466.401	14195.8
469.962	14984.5
473.522	16284
477.08	18238.2
480.636	21636.2
484.191	23384.9
487.744	21550.4
491.296	16952.6
494.847	11759.5
498.396	7415.18
501.943	4827.59
505.489	3370.73
509.033	2044.72
512.576	1460.54
516.117	1364.2
519.657	591.281
523.196	712.211
526.732	425.268
530.268	403.525
533.801	445.047
537.334	144.008
540.865	4.91602
544.394	62.877
547.922	153.482
551.448	311.785
554.973	47.543
558.496	278.56
562.017	56.8105
565.538	66.9102
569.056	6
572.574	138.779
576.089	314.402
579.604	408.031
583.116	691.416
586.627	1120.89
590.137	1695.04
593.645	2223.18
597.152	3228.06
600.657	4250.5
604.161	5443.62
607.663	6306.85
611.164	6530.38
614.663	6381.44
618.161	5492.51
621.657	4607.53
625.152	3686.46
628.645	2861.1
632.137	2157.52
635.627	1658.72
639.116	1222.64
642.603	1035.21
646.089	964.391
649.573	756.244
653.056	486.736
656.537	543.832
660.017	359.518
663.495	316.856
666.972	374.76
670.447	281.205
673.921	461.486
677.393	526.346
680.864	333.285
684.334	375.965
687.802	656.051
691.268	405.641
694.733	443.133
698.196	70.668
701.658	515.139
705.119	165.512
708.578	233.184
712.035	214.191
715.491	133.82
718.946	240.865
722.399	218.147
725.85	131.268
729.301	49.7422
732.749	227.318
736.196	245.369
739.642	234.961
743.086	172.066
746.529	195.453
749.97	278.928
753.41	301.225
756.848	514.992
760.285	743.717
763.72	657.531
767.154	803.734
770.586	847.432
774.017	899.564
777.447	1002.25
780.875	916.062
784.301	888.498
787.726	814.84
791.15	830.248
794.572	908.875
797.992	789.373
801.412	770.811
804.829	838.463
808.245	983.894
811.66	1100.58
815.073	1182.51
818.485	1386.02
821.896	1475.51
825.304	1192.25
828.712	836.053
832.118	614.941
835.522	518.924
838.925	244.227
842.327	308.324
845.727	197.963
849.125	245.025
852.523	278.685
855.918	24.8711
859.313	195.057
862.705	90.1074
866.097	209.711
869.487	64.6445
872.875	75.2773
876.262	62.5586
879.647	216.809
883.031	113.426
886.414	95.7559
889.795	78.5644
893.175	39.043
896.553	130.451
899.93	247.268
903.305	117.478
906.679	9.99219
910.051	23.1367
913.422	56.2227
916.792	105.223
920.16	95.1094
923.526	38.0547
926.891	164.885
930.255	193.414
933.617	82.3945
936.978	186.342
940.337	106.834
943.695	70.0742
947.052	106.027
950.407	179.816
953.76	198.344
957.112	132.652
960.463	356.676
963.812	247.451
967.16	237.01
970.506	61.3535
973.851	373.836
977.195	458.4
980.537	418.621
983.877	466.828
987.216	517.223
990.554	703.553
993.89	867.979
997.225	904.154
1000.56	1012.46
1003.89	1047.06
1007.22	860.371
1010.55	1113.16
1013.88	950.787
1017.2	1240.64
1020.53	1239.6
1023.85	1253.01
1027.17	1359.61
1030.49	1356.69
1033.81	1162.42
1037.13	1079.12
1040.45	1557.92
1043.76	1325.31
1047.07	1232.42
1050.39	1213.23
1053.7	1163.1
1057.01	1157.85
1060.31	1459.27
1063.62	1288.69
1066.92	1207.87
1070.23	1313.67
1073.53	1630.86
1076.83	1595.04
1080.13	1868.83
1083.43	2142.26
1086.72	2224.72
1090.02	2603.38
1093.31	2654.79
1096.6	2576.54
1099.89	2855.37
1103.18	2949.43
1106.47	2828.48
1109.76	3076.07
1113.04	3053.1
1116.32	3265.91
1119.61	3254.41
1122.88	3107.21
1126.16	3270.04
1129.44	2926.03
1132.72	2792.31
1135.99	3180.78
1139.27	3047.45
1142.54	3087.36
1145.81	3229.99
1149.08	2722.03
1152.35	3039.7
1155.61	2883.12
1158.88	3030.25
1162.14	2758.36
1165.4	2680.82
1168.66	2719.68
1171.92	2509.85
1175.18	2411.41
1178.44	2140.05
1181.69	2034.81
1184.94	1654.69
1188.2	1615.75
1191.45	1380.91
1194.7	1342.16
1197.94	872.574
1201.19	647.234
1204.44	606.758
1207.68	683.168
1210.92	556.281
1214.16	213.164
1217.4	352.109
1220.64	189.133
1223.88	108.324
1227.11	136.508
1230.35	450.738
1233.58	239.027
1236.81	97.6445
1240.04	98.3984
1243.27	58.7617
1246.49	81.0391
1249.72	11.3086
1252.94	217.594
1256.17	83.168
1259.39	54.7461
1262.61	62.3398
1265.83	205.719
1269.04	114.91
1272.26	44.3398
1275.47	88.0586
1278.69	302.188
1281.9	182.039
1285.11	33.6328
1288.32	153.477
1291.52	31.1719
1294.73	109.711
1297.93	226.477
1301.14	246.586
1304.34	220.016
1307.54	549.625
1310.74	201.152
1313.93	379.602
1317.13	559.984
1320.33	480.309
1323.52	373.566
1326.71	501.758
1329.9	379.875
1333.09	374.918
1336.28	351.875
1339.46	406.742
1342.65	318.531
1345.83	288.223
1349.02	123.762
1352.2	150.031
1355.38	431.137
1358.55	211.059
1361.73	357.535
1364.91	413.781
1368.08	261.977
1371.25	132.441
1374.42	117.394
1377.59	84.2266
1380.76	351.609
1383.93	40.1094
1387.09	22.6875
1390.26	251.875
1393.42	184.32
1396.58	253.691
1399.74	64.0742
1402.9	397.324
1406.06	114.312
1409.21	52.0547
1412.37	44.2148
1415.52	223.027
1418.67	368.773
1421.83	5.97656
1424.97	28.5039
1428.12	889.422
1431.27	202.934
1434.41	181.644
1437.56	392.441
1440.7	524.301
1443.84	350.965
1446.98	434.109
1450.12	365.199
1453.25	367.066
1456.39	367.703
1459.52	501.047
1462.66	372.227
1465.79	453.246
1468.92	244.148
1472.05	265.223
1475.17	235.238
1478.3	240.539
1481.42	355.148
1484.55	5.21484
1487.67	182.262
1490.79	148.324
1493.91	235.242
1497.03	85.2617
1500.14	366.211
1503.26	71.0938
1506.37	390.715
1509.48	334.082
1512.59	328.199
1515.7	464.078
1518.81	273.856
1521.92	270.727
1525.02	79.7422
1528.13	377.496
1531.23	36.6758
1534.33	303.285
1537.43	263.617
1540.53	198.617
1543.63	420.852
1546.72	329.148
1549.82	325.484
1552.91	158.391
1556	6.55078
1559.09	1.75781
1562.18	0
