Measurement: Raman, 514 nm, ccw, Raman Data Processed
Mineral: Heulandite-Ca
Rruff sample: R050017
Ideal chemistry: NaCa_4_(Si_27_Al_9_)O_72_24H_2_O
Locality: Poona, Maharashtra State, India
Source: Eugene Schlepp
Description: Single crystals
Measured chemistry: (Ca_.70_Na_.22_K_.02_[box]_0.06_)_5_(Si_0.77_Al_0.23_)_36_O_72_Â·24H_2_O
Pin_id: L00517
Orientation: Laser parallel to c* (0 0 1). Fiducial mark perpendicular to laser is parallel to -a [-1 0 0]
Raman shift (cm-1)	intensity
200.029	0
204.158	207.303
208.285	297.855
212.41	200.213
216.533	205.566
220.654	17.711
224.773	39.6
228.891	35.537
233.006	90.992
237.119	30.039
241.231	357.635
245.34	784.9
249.448	653.109
253.553	985.203
257.657	1230.84
261.758	1113.51
265.858	1040.78
269.956	1184.33
274.052	900.91
278.146	929.285
282.237	1208.29
286.327	1264.25
290.416	1620.68
294.502	1278.74
298.586	1534.7
302.668	1559.37
306.749	2048.61
310.827	2392.38
314.903	2946.59
318.978	3614.23
323.051	4130.3
327.121	4205.81
331.19	4827.73
335.257	4877.06
339.322	5194.75
343.385	5495.8
347.446	6052.46
351.505	6772.83
355.563	7544.81
359.618	8528.37
363.672	10017.7
367.723	11319.9
371.773	12627.3
375.821	14716.9
379.866	16993.6
383.91	19775.7
387.952	23236
391.992	27829.3
396.031	33265.5
400.067	37290.6
404.101	38784.5
408.134	37148.8
412.165	31922.1
416.193	26735.8
420.22	22070
424.245	17449.8
428.268	12695.9
432.289	9877.39
436.309	6988.1
440.326	5770.03
444.342	5201.17
448.355	4944.48
452.367	5972.95
456.377	7213.56
460.385	9695.25
464.391	12039
468.395	13750.7
472.398	15802.5
476.398	18680.2
480.397	23163.9
484.394	25483.6
488.389	22304.2
492.382	16069.8
496.373	9979.27
500.362	5996.72
504.349	3869.35
508.335	2473.82
512.319	1618.85
516.3	1273.23
520.28	928.207
524.259	549.453
528.235	406.234
532.209	171.004
536.182	491.207
540.152	133.533
544.121	138.945
548.088	197.438
552.053	242.131
556.017	108.23
559.978	110.152
563.938	79.434
567.895	101.523
571.851	89.248
575.805	285.936
579.758	559.561
583.708	778.635
587.657	1205.95
591.603	1161.52
595.548	2048.3
599.491	2733.4
603.432	3573.21
607.372	3965.56
611.309	4084.33
615.245	4023.77
619.179	3758.88
623.111	3627.61
627.041	3278.01
630.97	2285.07
634.896	1242.88
638.821	1327.34
642.744	1627.32
646.665	1669.94
650.584	1252.16
654.502	1080.63
658.418	623.174
662.331	155.988
666.244	251.656
670.154	126.486
674.062	2.086
677.969	14.229
681.874	140.762
685.777	53.803
689.678	132.648
693.577	287.906
697.475	499.027
701.371	154.35
705.265	407.875
709.157	177.543
713.047	25.379
716.936	8.359
720.823	202.582
724.708	117.803
728.591	217.24
732.472	132.043
736.352	200.154
740.23	56.123
744.106	290.713
747.98	185.09
751.853	73.119
755.723	63.77
759.592	323.719
763.459	413.465
767.325	438.926
771.188	369.051
775.05	635.729
778.91	575.658
782.768	460.248
786.625	376.129
790.479	456.646
794.332	586.34
798.183	246.812
802.033	169.578
805.88	345.727
809.726	17.357
813.57	271.41
817.413	32.744
821.253	132.238
825.092	199.57
828.929	293.082
832.764	201.291
836.598	293.162
840.429	372.051
844.259	265.363
848.088	293.521
851.914	244.828
855.739	219.186
859.562	259.164
863.383	172.576
867.203	272.326
871.02	245.742
874.836	258.688
878.65	145.377
882.463	175.826
886.274	20.299
890.083	138.256
893.89	173.523
897.695	28.613
901.499	10.857
905.301	141.74
909.102	51.754
912.9	85.039
916.697	16.945
920.492	42.137
924.285	72.994
928.077	53.592
931.867	82.449
935.655	60.104
939.442	130.359
943.226	29.473
947.009	11.578
950.791	54.668
954.57	86.67
958.348	66.178
962.124	38.041
965.899	91.193
969.671	115.863
973.442	17.65
977.211	16.98
980.979	189.076
984.745	382.682
988.509	551.777
992.271	400.064
996.032	729.668
999.791	1035.33
1003.55	852.32
1007.3	1054.4
1011.06	958.992
1014.81	792.242
1018.56	998.736
1022.31	1393.08
1026.06	1615.6
1029.8	1484.1
1033.55	1196.79
1037.29	1262.19
1041.03	1499.98
1044.77	1258.93
1048.5	1559.59
1052.24	1861.45
1055.97	1459.79
1059.7	1369.48
1063.43	1422.87
1067.16	1608.82
1070.89	1518.9
1074.61	1810.19
1078.34	2124.54
1082.06	2571.77
1085.78	2814.62
1089.5	2857.39
1093.21	3051.08
1096.93	3321.36
1100.64	3357.97
1104.35	3740.34
1108.06	3609.18
1111.77	3896.59
1115.48	3920.66
1119.18	4048.14
1122.89	4285.14
1126.59	4260.26
1130.29	4335.5
1133.99	4155.68
1137.68	4440.32
1141.38	4258.02
1145.07	4302.91
1148.76	4057.1
1152.45	3968.37
1156.14	3763
1159.83	3592.9
1163.51	3530.57
1167.19	3366.15
1170.88	3012.8
1174.56	3035.51
1178.23	2777.29
1181.91	2436.12
1185.59	1951.16
1189.26	1806.25
1192.93	1487.8
1196.6	1359.12
1200.27	1013.48
1203.94	954.135
1207.6	713.236
1211.27	428.326
1214.93	462.193
1218.59	174.709
1222.25	158.242
1225.9	5.318
1229.56	97.203
1233.21	102.217
1236.86	243.725
1240.51	298.807
1244.16	183.041
1247.81	34.564
1251.45	75.35
1255.1	89.703
1258.74	260.164
1262.38	258.375
1266.02	163.418
1269.66	356.025
1273.29	457.242
1276.93	455.023
1280.56	352.74
1284.19	322.758
1287.82	236.305
1291.45	311.02
1295.07	444.783
1298.7	490.633
1302.32	272.574
1305.94	218.615
1309.56	622.746
1313.18	432.75
1316.8	671.281
1320.41	678.262
1324.02	690.693
1327.63	308.283
1331.24	317.543
1334.85	92.262
1338.46	28.316
1342.06	83.857
1345.67	178.256
1349.27	55.832
1352.87	272.594
1356.47	263.723
1360.07	395.453
1363.66	528
1367.25	437.035
1370.85	424.434
1374.44	462.498
1378.03	323.666
1381.61	416.893
1385.2	445.436
1388.78	352.281
1392.37	456.729
1395.95	323.6
1399.53	140.943
1403.1	235.24
1406.68	122.133
1410.26	189.502
1413.83	197.184
1417.4	88.383
1420.97	108.178
1424.54	117.811
1428.1	73.586
