Measurement: Raman, 514 nm, ccw, Raman Data Processed
Mineral: Heulandite-Ca
Rruff sample: R050097
Ideal chemistry: NaCa_4_(Si_27_Al_9_)O_72_24H_2_O
Locality: Rat's Nest Claim, Custer County, Idaho, USA
Source: John Cornish
Description: Pale pink coffin-shaped tabular single crystals
Measured chemistry: (Ca_0.66_Na_0.30_K_0.04_)_5_(Si_0.77_Al_0.23_)_36_O_72_Â·24H_2_O
Pin_id: M00432
Orientation: Laser parallel to -c* (0 0 -1). Fiducial mark perpendicular to laser is parallel to a [1 0 0]
Raman shift (cm-1)	intensity
82.916	0
87.101	297.834
91.284	1496.13
95.465	2451.32
99.644	3356.41
103.82	3830.25
107.995	4687.72
112.168	5952.51
116.339	6957.59
120.508	7390.67
124.675	8061.36
128.84	10135.5
133.003	11318.4
137.164	12476.2
141.323	14471.4
145.48	14432.6
149.635	13381.3
153.788	11498.9
157.939	9398.02
162.088	7080.27
166.235	5153.17
170.38	3580.24
174.523	2313.57
178.664	1185.06
182.803	522.412
186.94	381.701
191.076	505.625
195.209	892.91
199.34	1159.41
203.47	1133.19
207.597	1105.2
211.722	1039.81
215.846	884.629
219.967	1051.04
224.087	1261.15
228.204	1546.46
232.32	1965.94
236.434	2666.72
240.545	3549.1
244.655	4388.7
248.763	4794.06
252.869	4504.2
256.973	3780.51
261.075	3042.32
265.175	2148.94
269.273	1381
273.369	881.791
277.463	283.619
281.556	320.666
285.646	338.59
289.734	354.203
293.821	593.145
297.905	743.848
301.988	590.793
306.069	365.801
310.147	133.744
314.224	311.188
318.299	476.715
322.372	730.369
326.443	1429.48
330.512	1758.27
334.579	2490.87
338.645	3179.36
342.708	3909.75
346.769	4894.53
350.829	5698.12
354.887	7354.06
358.942	8585.78
362.996	10151.9
367.048	12240.3
371.098	14379.2
375.146	16339
379.192	19261
383.236	22979
387.279	26728.7
391.319	31325.4
395.358	36712.7
399.394	41852.7
403.429	42336.7
407.462	39800.3
411.493	34497
415.522	28178
419.549	22764.9
423.575	18490.8
427.598	14362
431.619	11370.4
435.639	8927.18
439.657	7272.94
443.673	6350.62
447.687	5858.22
451.699	5574.73
455.709	6467.44
459.717	7406.82
463.724	9320.11
467.728	10950.7
471.731	12345
475.732	15475.4
479.731	19503.8
483.728	23478.7
487.723	23586.6
491.716	19120.6
495.708	13168.1
499.697	8148.17
503.685	5212.23
507.671	3535.3
511.655	2550.91
515.637	1812.74
519.617	1760.4
523.596	1395.77
527.572	1109.69
531.547	1012.6
535.52	713.754
539.491	761.328
543.46	486.198
547.427	302.348
551.393	213.612
555.356	39.2
559.318	41.532
563.278	137.311
567.236	25.319
571.192	59.146
575.147	40.487
579.099	326.779
583.05	706.326
586.999	1086.85
590.946	1493.59
594.891	2031.3
598.834	3100.48
602.776	4283.61
606.715	5025.46
610.653	5153.73
614.589	5037.97
618.523	4367.25
622.456	3799.55
626.386	3106.81
630.315	2556.43
634.242	1673.85
638.167	907.627
642.09	931.414
646.012	1061.32
649.931	723.213
653.849	501.119
657.765	425.688
661.679	76.279
665.592	6.309
669.502	19.014
673.411	90.4
677.318	19.541
681.223	49.027
685.126	208.119
689.028	234.873
692.927	229.342
696.825	333.217
700.721	74.148
704.616	356.508
708.508	479.137
712.399	565.893
716.288	307.99
720.175	294.623
724.06	436.139
727.944	321.678
731.825	411.979
735.705	403.801
739.584	478.859
743.46	457.055
747.334	752.908
751.207	719.945
755.078	806.816
758.947	1141.83
762.815	1459.68
766.68	1794.37
770.544	2148.24
774.406	2451.14
778.267	2694.77
782.125	2556.2
785.982	2434.9
789.837	2030.91
793.69	1827.16
797.542	1699.86
801.391	1264.04
805.239	1412.89
809.085	1862.61
812.93	2089.06
816.772	2741.51
820.613	2787.34
824.452	2284.38
828.29	1409.82
832.125	1080.88
835.959	692.557
839.791	523.053
843.621	673.852
847.45	627.15
851.277	355.344
855.102	129.607
858.925	660.414
862.746	583.242
866.566	502.352
870.384	300.457
874.2	59.348
878.015	162.865
881.828	52.398
885.639	66.783
889.448	29.016
893.256	1.719
897.061	178.029
900.865	174.99
904.668	19.645
908.468	32.889
912.267	34.717
916.064	44.752
919.86	183.67
923.653	119.322
927.445	39.561
931.236	75.32
935.024	122.688
938.811	222.58
942.596	190.125
946.379	155.256
950.161	47.096
953.94	267.264
957.719	223.217
961.495	212.939
965.27	234.574
969.043	353.176
972.814	473.703
976.583	630.689
980.351	692.693
984.117	645.189
987.882	1083.63
991.644	1209.98
995.405	1312.21
999.165	1611.36
1002.92	2564.35
1006.68	1962.96
1010.43	1931.93
1014.18	2080.75
1017.93	2082.86
1021.68	2285.81
1025.43	2527.17
1029.18	2610.3
1032.92	2738.56
1036.66	2832.47
1040.4	2991.44
1044.14	2850.18
1047.88	2846.39
1051.62	3069.89
1055.35	2802.45
1059.08	2794.76
1062.81	2541.69
1066.54	2453.43
1070.27	2663.85
1073.99	2630.08
1077.72	3020.45
1081.44	3309.29
1085.16	3327.61
1088.88	3741.19
1092.59	3817.47
1096.31	3928.17
1100.02	4034.63
1103.73	3856.02
1107.44	4245.35
1111.15	4279.08
1114.86	4114.67
1118.57	4062.08
1122.27	3970.66
1125.97	4022.03
1129.67	3886.25
1133.37	3768.87
1137.07	3549.11
1140.76	3801.88
1144.45	3461.52
1148.15	3570.91
1151.84	3400.75
1155.53	3379.27
1159.21	2969.92
1162.9	3122.72
1166.58	2780.26
1170.26	2724.21
1173.94	2249.01
1177.62	1925.54
1181.3	1768.83
1184.97	1638.6
1188.65	1284.11
1192.32	1182.11
1195.99	844.611
1199.66	812.023
1203.33	510.99
1206.99	429.941
1210.65	129.818
1214.32	350.639
1217.98	307.609
1221.64	115.084
1225.29	3.98
1228.95	160.578
1232.6	81.523
1236.26	206.32
1239.91	222.729
1243.56	50.078
1247.2	89.666
1250.85	11.135
1254.49	25.947
1258.13	24.463
1261.78	131.768
1265.41	51.891
1269.05	110.377
1272.69	32.424
1276.32	175.252
1279.95	90.092
1283.59	62.283
1287.21	116.389
1290.84	6.484
1294.47	180.117
1298.09	152.361
1301.72	197.131
1305.34	67.463
1308.96	116.463
1312.58	344.186
1316.19	308.633
1319.81	331.807
1323.42	307.682
1327.03	275.164
1330.64	22.689
1334.25	155.006
1337.86	121.299
1341.46	44.209
1345.07	86.244
1348.67	35.088
1352.27	17.748
1355.87	84.188
1359.46	166.574
1363.06	161.525
1366.65	270.908
1370.25	181.77
1373.84	319.283
1377.43	151.252
1381.02	232.473
1384.6	312.076
1388.18	359.061
1391.77	344.652
1395.35	204.441
1398.93	276.221
1402.51	147.572
1406.08	285.488
1409.66	33.648
1413.23	3.574
1416.8	389.801
1420.37	270.805
1423.94	434.113
1427.51	591.273
1431.08	565.686
1434.64	537.799
1438.2	873.326
1441.76	938.754
1445.32	1079.53
1448.88	1187.86
1452.43	1234.5
1455.99	1364.28
1459.54	1439.7
1463.09	1496.1
1466.64	1306.84
1470.19	855.494
1473.74	874.611
1477.28	728.863
1480.83	709.771
1484.37	604.275
1487.91	542.711
1491.45	460.219
1494.98	387.533
1498.52	448.223
1502.05	72.514
1505.59	151.414
1509.12	178.348
1512.65	18.318
1516.17	349.705
1519.7	111.881
