Measurement: Raman, 514 nm, ccw, Raman Data Processed
Mineral: Heulandite-Ca
Rruff sample: R060465
Ideal chemistry: NaCa_4_(Si_27_Al_9_)O_72_24H_2_O
Locality: Garrawilla, near Gunnadah, New South Wales, Australia
Source: Michael Scott
Description: Orange fan of platy crystals
Measured chemistry: (Ca_0.66_Na_0.24_K_0.10_)_5_(Si_0.77_Al_0.23_)_36_O_72_Â·24H_2_O
Pin_id: M01415
Orientation: Laser parallel to a* (1 0 0). Fiducial mark perpendicular to laser is parallel to b [0 1 0]
Raman shift (cm-1)	intensity
223.866	0
227.545	113.629
231.221	72.1113
234.896	95.9004
238.569	38.3164
242.241	90.0098
245.91	115.225
249.578	506.012
253.244	364.315
256.909	409.893
260.572	921.891
264.233	486.467
267.892	246.139
271.55	103.232
275.206	256.891
278.86	453.685
282.513	614.869
286.164	591.785
289.813	586.916
293.461	624.836
297.106	594.137
300.751	651.938
304.393	802.717
308.034	1146.11
311.673	1466.83
315.31	1982.73
318.946	2536.75
322.58	3129.81
326.212	3519.92
329.843	3814.33
333.472	4062.2
337.099	4236.38
340.724	4333.89
344.348	4687.72
347.97	5248.86
351.591	5909.28
355.21	6874.95
358.827	7609.84
362.443	8964.93
366.056	10246.2
369.669	11665
373.279	13370.1
376.888	15320.9
380.495	17475.3
384.101	20199.2
387.705	23826.4
391.307	27501.5
394.908	32040
398.507	35560.7
402.104	37576.3
405.7	36812.6
409.294	33519
412.886	29584.2
416.477	25657.9
420.066	21197
423.653	17340.6
427.239	13259.9
430.823	10109.7
434.405	7747.56
437.986	6210.9
441.566	5133.43
445.143	5270.15
448.719	5526.08
452.293	6338.21
455.866	7807.5
459.437	10376.9
463.007	12415.4
466.575	14331.8
470.141	15637.2
473.705	17550.5
477.268	20595.7
480.83	23602.8
484.389	24492.7
487.948	21794.5
491.504	16326.2
495.059	11025.7
498.612	7031.05
502.164	4555.21
505.714	3132.19
509.262	2408.98
512.809	1630.59
516.355	1338.66
519.898	1119.52
523.44	656.219
526.981	589.166
530.52	173.176
534.057	61.8496
537.593	190.945
541.127	177.836
544.659	139.135
548.19	198.062
551.719	189.682
555.247	144.389
558.773	133
562.298	60.3477
565.821	104.529
569.342	45.2656
572.862	49.0625
576.38	276.434
579.897	387.492
583.412	650.244
586.926	767.555
590.438	1279.43
593.948	1676.9
597.457	2206.15
600.964	3208.14
604.47	4117.19
607.974	4629.08
611.476	4798.96
614.977	4290.94
618.477	3757.15
621.975	3084.84
625.471	2580.22
628.966	2279.31
632.459	2103.07
635.951	1695.41
639.441	1580.39
642.929	1237.06
646.416	1101.47
649.902	854.488
653.386	560.184
656.868	415.465
660.349	308.281
663.828	393.123
667.306	422.414
670.782	272.93
674.257	363.482
677.73	364.471
681.202	224.525
684.672	286.481
688.14	275.059
691.607	355.084
695.073	310.014
698.537	206.754
701.999	352.676
705.46	140.029
708.919	259.893
712.377	368.588
715.834	281.172
719.288	287.203
722.742	341.135
726.194	107.103
729.644	243.67
733.093	90.2031
736.54	109.328
739.986	309.602
743.43	269.565
746.873	245.111
750.314	126.934
753.754	432.641
757.192	351.625
760.628	342.613
764.064	571.742
767.497	668.689
770.93	594.488
774.36	793.307
777.79	792.035
781.217	825.238
784.644	739.981
788.068	660.674
791.492	468.17
794.913	690.617
798.334	535.75
801.752	341.633
805.17	330.478
808.586	450.578
812	208.592
815.413	249.984
818.824	288.025
822.234	240.926
825.643	196.326
829.05	188.344
832.455	89.6094
835.859	206.342
839.262	98.4277
842.663	150.344
846.062	108.447
849.46	175.82
852.857	139.545
856.252	220.68
859.646	48.2305
863.038	36.1836
866.429	2.86914
869.819	124.703
873.207	66.4004
876.593	28.4473
879.978	169.193
883.362	61.8691
886.744	305.738
890.124	50.2891
893.504	123.754
896.881	91.3106
900.258	65.8144
903.633	4.27734
907.006	19.2578
910.378	2.74023
913.749	69.9512
917.118	98.4199
920.485	69.3301
923.852	118.469
927.216	193.951
930.58	93.9297
933.942	31.4668
937.302	95.0488
940.661	60.7832
944.019	80.8418
947.375	23.2461
950.73	126.748
954.083	172.414
957.435	199.891
960.786	351.553
964.135	198.301
967.483	168.717
970.829	621.826
974.174	521.332
977.517	570.551
980.859	468.547
984.2	619.303
987.539	777.9
990.877	634.887
994.213	594.481
997.548	819.07
1000.88	983.893
1004.21	920.695
1007.54	1008.6
1010.87	1126.07
1014.2	935.84
1017.53	1002.26
1020.85	1123.56
1024.18	1001.4
1027.5	953.203
1030.82	1045.04
1034.14	1265.36
1037.46	1257.49
1040.78	1170.48
1044.09	1415.4
1047.4	1371.63
1050.72	1383.61
1054.03	1336.84
1057.34	1483.01
1060.65	1544.89
1063.95	1519.01
1067.26	1571.94
1070.56	1383.08
1073.87	1714.36
1077.17	1907.19
1080.47	2371.5
1083.77	2449.3
1087.07	2594.82
1090.36	3017.05
1093.65	3196.16
1096.95	3169.1
1100.24	3359.6
1103.53	3477.8
1106.82	3296.08
1110.11	3541.9
1113.39	3601.03
1116.68	3919.97
1119.96	4159.74
1123.25	4496.89
1126.53	4509.42
1129.81	4432.23
1133.09	4410.01
1136.36	4687.74
1139.64	4702.72
1142.91	4631.43
1146.18	4617.82
1149.46	4347.86
1152.73	4052.32
1155.99	4198.33
1159.26	3795.61
1162.53	3906.02
1165.79	3790.13
1169.06	3329.64
1172.32	3007.9
1175.58	2833.73
1178.84	2763.13
1182.1	2289.95
1185.36	2090.58
1188.61	2053.32
1191.86	1718.18
1195.12	1214.97
1198.37	1012.73
1201.62	994.445
1204.87	726.637
1208.12	655.406
1211.36	555.144
1214.61	697.863
1217.85	467.562
1221.09	343.391
1224.33	302.988
1227.57	9.49219
1230.81	185.144
1234.05	52.5117
1237.28	46.2266
1240.52	4.93359
1243.75	76.9766
1246.98	66.3086
1250.21	352.758
1253.44	51.7578
1256.67	127.285
1259.89	225.129
1263.12	154.125
1266.34	107.844
1269.57	50.3789
1272.79	87.7305
1276.01	170.832
1279.23	275.859
1282.44	66.4102
1285.66	98.9688
1288.87	137.699
1292.09	408.402
1295.3	282.457
1298.51	315.035
1301.72	315.199
1304.93	494.168
1308.13	36.082
1311.34	430.332
1314.55	522.535
1317.75	507.566
1320.95	465.43
1324.15	434.102
1327.35	152.602
1330.55	158.914
1333.74	418.027
1336.94	517.953
1340.13	424.422
1343.33	585.66
1346.52	583.992
1349.71	301.453
1352.9	617.301
1356.08	416.262
1359.27	434.289
1362.45	362.519
1365.64	557.523
1368.82	637.281
1372	524.023
1375.18	345.625
1378.36	469.836
1381.54	274.266
1384.72	116.492
1387.89	2.59375
1391.07	188.152
1394.24	153.293
1397.41	318.176
1400.58	287.883
1403.75	395.648
1406.91	312.219
1410.08	470.461
1413.24	144.469
1416.41	272.203
1419.57	185.156
1422.73	160.332
1425.89	475.953
1429.05	372.734
1432.21	546.195
1435.37	451.637
1438.52	450.758
1441.67	401.203
1444.83	384.731
1447.98	543.969
1451.13	547.398
1454.28	497.977
1457.42	540.008
1460.57	582.856
1463.71	485.043
1466.86	236.066
1470	378.719
1473.14	229.356
1476.28	163.762
1479.42	51.1992
1482.56	40.1094
1485.7	311.969
1488.83	288.57
1491.96	91.5117
1495.1	189.445
1498.23	92.7031
1501.36	114.227
1504.49	205
1507.62	372.68
1510.74	226.289
1513.87	283.875
1516.99	196.344
1520.12	362.125
1523.24	149.703
1526.36	201.844
1529.48	307.125
1532.6	241.894
1535.71	286.359
1538.83	452.863
1541.94	23.6914
1545.06	223.66
1548.17	281.231
1551.28	114.469
1554.39	554.102
1557.5	307.117
1560.61	294.137
1563.71	0
