Measurement: Raman, 514 nm, ccw, Raman Data Processed
Mineral: Heulandite-Ca
Rruff sample: R040021
Ideal chemistry: NaCa_4_(Si_27_Al_9_)O_72_24H_2_O
Locality: Prospect Park, Patterson, Passaic County, New Jersey, USA
Source: University of Arizona Mineral Museum
Description: Group of colorless lamellar crystals
Measured chemistry: Na_0.25_(Na_0.55_K_0.45_)_Σ=1_(Ca_2.42_Na_0.85_Sr_0.73_)_Σ=4.00_(Si_27.60_Al_8.40_)_Σ=36_O_72_·24H_2_O ; H_2_O estimated by difference
Pin_id: m00378
Orientation: Laser parallel to a [1 0 0]. Fiducial mark perpendicular to laser is parallel to b* (0 1 0)
Raman shift (cm-1)	intensity
93.375	0
97.554	441.838
101.732	1360.93
105.908	2469.47
110.082	3682.97
114.254	4910.4
118.424	6235.78
122.592	6205
126.758	5937.62
130.922	5558.57
135.083	4530.85
139.243	4985.64
143.401	4815.93
147.557	5302.45
151.711	5317.23
155.863	5329.42
160.013	4998.91
164.161	4420.67
168.308	3239.31
172.452	2453.9
176.594	1669.47
180.734	1135.2
184.872	760.066
189.008	384.195
193.143	265.459
197.275	262.689
201.405	98.885
205.534	9.23
209.66	229.287
213.784	327.723
217.907	370.324
222.027	495.068
226.146	314.355
230.263	166.68
234.377	90.158
238.49	137.572
242.601	563.615
246.709	867.719
250.816	1499.35
254.921	1810.09
259.024	1669.41
263.125	1414
267.224	1552.79
271.321	1602.01
275.416	1354.29
279.51	1494.21
283.601	1949.13
287.69	1865.7
291.778	2203.12
295.863	2090.64
299.947	2325.82
304.029	2484.3
308.108	2609.98
312.186	2964.57
316.262	3510.96
320.336	4010.03
324.408	4605.53
328.478	5093.82
332.546	5550.03
336.612	5909.83
340.677	6237.56
344.739	6834.31
348.799	7253.46
352.858	8105.46
356.915	9238.8
360.969	10221.4
365.022	11708.8
369.073	13403
373.122	14474.4
377.169	15948.1
381.215	17456.3
385.258	19647.1
389.299	22506.3
393.339	26811.1
397.376	32506.7
401.412	36134.1
405.446	37641.3
409.478	35180.3
413.508	29164.7
417.536	23498.9
421.562	18695.7
425.586	14342
429.609	10240.4
433.629	7881.86
437.648	5988.37
441.665	5075.94
445.68	4756.61
449.693	4711.41
453.704	5736.39
457.713	7080.61
461.721	9302.12
465.726	11747
469.73	13960.2
473.731	16876.9
477.731	20430.1
481.729	23287.8
485.725	21943.3
489.72	17125.6
493.712	11676.7
497.703	7316.64
501.691	4561.25
505.678	2944.5
509.663	2018.51
513.646	1598.88
517.627	1145.39
521.607	912.076
525.584	462.213
529.56	359.703
533.534	175.48
537.506	23.664
541.476	175.881
545.444	117.748
549.41	42.582
553.375	300.252
557.337	185.547
561.298	224.436
565.257	131.516
569.214	120.979
573.17	55.957
577.123	265.199
581.075	432.998
585.024	658.412
588.972	822.055
592.918	1217.31
596.863	2090.42
600.805	2757.43
604.746	3475.2
608.685	3802.81
612.621	3763.31
616.557	3470.69
620.49	2892.92
624.421	2254.02
628.351	2004.99
632.279	1371.83
636.205	888.535
640.129	782.109
644.051	759.627
647.972	609.535
651.89	319.713
655.807	448.537
659.722	376.568
663.636	164.297
667.547	296.684
671.457	162.824
675.365	85.73
679.271	144.514
683.175	187.436
687.077	200.615
690.978	175.322
694.877	551.594
698.774	3.383
702.669	215.879
706.562	299.053
710.454	368.025
714.344	202.062
718.232	160.346
722.118	246.121
726.002	229.773
729.885	223.354
733.766	51.379
737.645	280.289
741.522	219.061
745.397	322.436
749.271	387.307
753.143	216.631
757.013	288.188
760.881	477.762
764.748	625.314
768.613	590.568
772.476	711.137
776.337	878.553
780.196	729.314
784.054	678.664
787.91	460.826
791.764	400.691
795.616	356.256
799.467	57.523
803.316	215.477
807.163	202.133
811.008	60.48
814.851	30.697
818.693	157.75
822.533	16.586
826.371	47.219
830.208	27.797
834.042	57.152
837.875	130.027
841.706	104.775
845.536	277.826
849.363	48.107
853.189	56.859
857.013	407.574
860.836	68.146
864.656	209.299
868.475	71.99
872.292	56.557
876.108	70.111
879.922	11.967
883.733	69.594
887.544	82.752
891.352	26.637
895.159	99.027
898.964	52.234
902.767	114.094
906.568	138.781
910.368	52.371
914.166	1.797
917.962	91.945
921.757	212.016
925.55	183.822
929.341	183.553
933.13	41.795
936.918	148.729
940.703	133.146
944.488	302.949
948.27	159.674
952.051	245.123
955.83	406.141
959.607	378.043
963.383	327.629
967.156	518.273
970.928	634.191
974.699	445.074
978.468	420.41
982.234	609.584
986	779.199
989.763	895.896
993.525	840.891
997.285	1079.97
1001.04	1273.4
1004.8	1083.44
1008.55	1115.67
1012.31	1145.33
1016.06	1136.54
1019.81	1133.35
1023.56	1464.54
1027.31	1560.1
1031.05	1572.96
1034.79	1410.65
1038.53	1584.82
1042.27	1439.31
1046.01	1435.85
1049.75	1854.55
1053.48	1652.88
1057.22	1483.77
1060.95	1595.95
1064.68	1693.54
1068.4	1919.33
1072.13	2061.95
1075.86	2217.13
1079.58	2691.38
1083.3	2701.69
1087.02	2969.31
1090.74	3257.66
1094.45	3601.21
1098.17	3794.48
1101.88	3917.44
1105.59	4100.07
1109.3	3855.08
1113.01	3985.41
1116.71	3984.86
1120.42	3900.03
1124.12	4239.09
1127.82	4227.37
1131.52	4121.36
1135.22	3919.39
1138.91	4028.55
1142.61	3638.43
1146.3	3655.72
1149.99	3473.88
1153.68	3469.78
1157.37	3026.11
1161.06	2951.17
1164.74	2741.3
1168.42	2553.96
1172.1	2254.62
1175.78	2065.27
1179.46	1805.22
1183.14	1400.19
1186.81	1602.57
1190.48	1222.3
1194.15	816.234
1197.83	865.939
1201.49	497.508
1205.16	779.367
1208.82	150.188
1212.49	545.705
1216.15	389.377
1219.81	215.242
1223.46	123.732
1227.12	179.035
1230.78	325.326
1234.43	284.248
1238.08	315.953
1241.73	246.521
1245.38	173.201
1249.03	217.104
1252.67	34.668
1256.31	7.043
1259.95	123.578
1263.6	73.906
1267.23	258.793
1270.87	156.012
1274.51	51.566
1278.14	6.479
1281.77	202.15
1285.4	7.562
1289.03	31.961
1292.66	54.256
1296.28	135.541
1299.91	218.289
1303.53	24.305
1307.15	65.074
1310.77	240.166
1314.38	7.207
1318	273.795
1321.61	184.41
1325.23	76.426
1328.84	61.762
1332.45	462.125
1336.06	221.348
1339.66	211.295
1343.27	227.281
1346.87	155.785
1350.47	97.777
1354.07	352.07
1357.67	370.602
1361.26	560.531
1364.86	550.273
1368.45	457.719
1372.04	637.832
1375.63	486.316
1379.22	176.574
1382.81	446.043
1386.39	515.832
1389.98	155.637
1393.56	177
1397.14	285.055
1400.72	173.203
1404.3	288.176
1407.87	22.555
1411.45	212.992
1415.02	97.984
1418.59	27.211
1422.16	187.672
1425.73	94.098
1429.29	92.844
1432.86	1.309
1436.42	0
