Measurement: Raman, 514 nm, ccw, Raman Data Processed
Mineral: Heulandite-Ca
Rruff sample: R060465
Ideal chemistry: NaCa_4_(Si_27_Al_9_)O_72_24H_2_O
Locality: Garrawilla, near Gunnadah, New South Wales, Australia
Source: Michael Scott
Description: Orange fan of platy crystals
Measured chemistry: (Ca_0.66_Na_0.24_K_0.10_)_5_(Si_0.77_Al_0.23_)_36_O_72_Â·24H_2_O
Pin_id: M01415
Orientation: Laser parallel to a* (1 0 0). Fiducial mark perpendicular to laser is parallel to b [0 1 0]
Raman shift (cm-1)	intensity
223.866	0
227.545	95.0781
231.221	10.2578
234.896	270.643
238.569	878.852
242.241	1242
245.91	1643.76
249.578	1934.69
253.244	1956.36
256.909	1987.05
260.572	1764.12
264.233	1010.09
267.892	902.127
271.55	264.971
275.206	472.293
278.86	350.852
282.513	323.078
286.164	150.543
289.813	35.9531
293.461	35.918
297.106	73.2734
300.751	120.502
304.393	71.4648
308.034	39.0918
311.673	276.555
315.31	801.783
318.946	1471.3
322.58	1912.23
326.212	2383.11
329.843	2759.79
333.472	2873.9
337.099	3128.86
340.724	3329.22
344.348	3238.14
347.97	4077.6
351.591	4757.6
355.21	5763.84
358.827	6925.19
362.443	8468.77
366.056	10197.8
369.669	12078.1
373.279	14409
376.888	16884.5
380.495	20024.6
384.101	23039.7
387.705	26998.2
391.307	31396.8
394.908	35957.8
398.507	39816.8
402.104	41800.5
405.7	40923.4
409.294	37237.7
412.886	32642.2
416.477	28086.9
420.066	23438.8
423.653	19049.6
427.239	15067.7
430.823	11365.6
434.405	8864.87
437.986	7054.25
441.566	6056.51
445.143	5497.95
448.719	5478.99
452.293	6107.51
455.866	7391.73
459.437	9238.02
463.007	11422.7
466.575	13620
470.141	15983.7
473.705	18961
477.268	23968.8
480.83	28319.2
484.389	30036
487.948	26874.4
491.504	20175.3
495.059	13366.8
498.612	8236.77
502.164	5223.25
505.714	3269.26
509.262	2222.78
512.809	1541.82
516.355	1275.89
519.898	879.481
523.44	440.24
526.981	275.055
530.52	106.783
534.057	92.0723
537.593	26.4512
541.127	33.5586
544.659	218.709
548.19	223.734
551.719	91.4297
555.247	186.08
558.773	43.498
562.298	90.6231
565.821	88.8848
569.342	292.607
572.862	500.84
576.38	537.088
579.897	822.9
583.412	1339.61
586.926	1604.31
590.438	2307.97
593.948	2952.67
597.457	3899.51
600.964	5021.31
604.47	6318.98
607.974	7090.28
611.476	7469.72
614.977	6808.68
618.477	5713.63
621.975	4519.06
625.471	3625.99
628.966	2882.4
632.459	2356.22
635.951	2144.43
639.441	1657.98
642.929	1355.1
646.416	1113.64
649.902	666.629
653.386	548.035
656.868	562.743
660.349	169.634
663.828	38.542
667.306	117.6
670.782	82.54
674.257	127.181
677.73	63.9463
681.202	103.982
684.672	133.889
688.14	125.534
691.607	204.615
695.073	157.296
698.537	125.613
701.999	366.892
705.46	381.94
708.919	456.643
712.377	589.328
715.834	465.15
719.288	353.171
722.742	597.04
726.194	395.363
729.644	382.609
733.093	554.153
736.54	480.096
739.986	399.011
743.43	512.05
746.873	561.364
750.314	674.208
753.754	777.03
757.192	1072.97
760.628	1358.44
764.064	1639.41
767.497	1782.09
770.93	2267.33
774.36	2709.12
777.79	3096.11
781.217	3282.91
784.644	3395.56
788.068	3427.2
791.492	3261.21
794.913	3256.59
798.334	3010.21
801.752	2664.55
805.17	2391.28
808.586	2030.42
812	1964.85
815.413	1934.88
818.824	2056.68
822.234	1795.08
825.643	1316.91
829.05	907.433
832.455	463.64
835.859	332.644
839.262	388.768
842.663	78.417
846.062	209.45
849.46	260.21
852.857	131.242
856.252	310.801
859.646	310.062
863.038	112.117
866.429	113.012
869.819	2.8584
873.207	91.4062
876.593	21.8936
879.978	32.3193
883.362	73.29
886.744	23.6592
890.124	110.37
893.504	32.9111
896.881	80.3623
900.258	43.1416
903.633	1.32129
907.006	47.6494
910.378	138.122
913.749	131.403
917.118	12.167
920.485	95.9316
923.852	2.18555
927.216	86.5732
930.58	77.8115
933.942	61.3242
937.302	34.7969
940.661	92.4824
944.019	53.6152
947.375	221.235
950.73	336.38
954.083	500.074
957.435	498.322
960.786	583.117
964.135	414.478
967.483	501.055
970.829	730.26
974.174	890.377
977.517	1170.72
980.859	1174.85
984.2	1317.44
987.539	1553.02
990.877	1498.59
994.213	1912.04
997.548	1944.22
1000.88	1983.28
1004.21	2104.72
1007.54	2171.24
1010.87	2359.04
1014.2	2443.71
1017.53	2404.96
1020.85	2324.83
1024.18	2496.57
1027.5	2436.4
1030.82	2729.05
1034.14	2525.49
1037.46	2702.66
1040.78	2651.43
1044.09	2729.55
1047.4	2613.44
1050.72	2646.18
1054.03	2674.39
1057.34	2662.67
1060.65	2609.13
1063.95	2684.9
1067.26	2705.73
1070.56	2817.55
1073.87	3007.19
1077.17	3448.53
1080.47	3505.01
1083.77	3632.03
1087.07	4032.95
1090.36	4259.85
1093.65	4493.44
1096.95	4686.43
1100.24	4798.45
1103.53	5140.62
1106.82	5312.72
1110.11	5485.16
1113.39	5497.23
1116.68	5545.69
1119.96	5890.98
1123.25	6040.91
1126.53	5801.59
1129.81	5866.12
1133.09	6058.07
1136.36	6093.25
1139.64	5705.65
1142.91	5659.48
1146.18	5857.5
1149.46	5412.27
1152.73	5212.73
1155.99	5334.25
1159.26	4943.81
1162.53	4794.61
1165.79	4807.62
1169.06	4040.73
1172.32	4156.97
1175.58	3908.24
1178.84	3394.74
1182.1	3228.42
1185.36	2780.27
1188.61	2375.31
1191.86	2141.41
1195.12	1813.56
1198.37	1467.72
1201.62	1037.87
1204.87	829.008
1208.12	657.123
1211.36	457.201
1214.61	449.822
1217.85	219.18
1221.09	193.06
1224.33	49.8574
1227.57	98.5488
1230.81	180.957
1234.05	51.9141
1237.28	8.99219
1240.52	70.8223
1243.75	135.533
1246.98	106.588
1250.21	134.279
1253.44	238.35
1256.67	215.193
1259.89	6.54883
1263.12	9.30859
1266.34	72.8652
1269.57	110.779
1272.79	111.5
1276.01	117.305
1279.23	115.482
1282.44	246.957
1285.66	399.301
1288.87	334
1292.09	487.732
1295.3	691.047
1298.51	796.678
1301.72	751.303
1304.93	647.678
1308.13	614.805
1311.34	612.68
1314.55	580.266
1317.75	538.658
1320.95	517.865
1324.15	520.072
1327.35	656.705
1330.55	566.326
1333.74	634.74
1336.94	527.945
1340.13	506.941
1343.33	686.725
1346.52	624.305
1349.71	571.752
1352.9	609.121
1356.08	658.303
1359.27	670.027
1362.45	600.281
1365.64	467.416
1368.82	595.852
1372	381.537
1375.18	444.748
1378.36	317.312
1381.54	371.805
1384.72	316.926
1387.89	212.086
1391.07	73.2324
1394.24	269.193
1397.41	69.7109
1400.58	208.174
1403.75	143.078
1406.91	243.807
1410.08	324.475
1413.24	315.273
1416.41	593.357
1419.57	321.576
1422.73	390.772
1425.89	365.156
1429.05	681.158
1432.21	752.938
1435.37	929.912
1438.52	1152.61
1441.67	1266.69
1444.83	933.32
1447.98	1178.6
1451.13	862.525
1454.28	1118.09
1457.42	959.271
1460.57	620.732
1463.71	753.006
1466.86	498.9
1470	314.236
1473.14	403.779
1476.28	320.016
1479.42	241.471
1482.56	84.7344
1485.7	280.59
1488.83	75.3144
1491.96	211.051
1495.1	4.01172
1498.23	194.32
1501.36	243.102
1504.49	320.426
1507.62	276.762
1510.74	80.1523
1513.87	70.7129
1516.99	357.525
1520.12	242.4
1523.24	285.344
1526.36	495.828
1529.48	543.164
1532.6	317.357
1535.71	160.008
1538.83	96.0918
1541.94	119.826
1545.06	168.787
1548.17	330.639
1551.28	323.965
1554.39	167.826
1557.5	180.238
1560.61	86.2344
1563.71	0
