Measurement: Raman, 514 nm, ccw, Raman Data Processed
Mineral: Heulandite-Ca
Rruff sample: R050017
Ideal chemistry: NaCa_4_(Si_27_Al_9_)O_72_24H_2_O
Locality: Poona, Maharashtra State, India
Source: Eugene Schlepp
Description: Single crystals
Measured chemistry: (Ca_.70_Na_.22_K_.02_[box]_0.06_)_5_(Si_0.77_Al_0.23_)_36_O_72_Â·24H_2_O
Pin_id: L00175
Orientation: Laser parallel to -b* (0 -1 0). Fiducial mark perpendicular to laser is parallel to c [0 0 1]
Raman shift (cm-1)	intensity
91.527	0
95.723	17.17
99.917	458.635
104.109	1599.5
108.298	2690.49
112.486	3883.9
116.672	5298.25
120.855	6501.32
125.036	7315.49
129.216	8115.11
133.393	8974.49
137.568	9591.72
141.741	10197.4
145.911	10397.2
150.08	9799.45
154.247	9154.34
158.411	8036.26
162.574	7118.78
166.734	6150.77
170.893	5149.08
175.049	4126.18
179.203	3114.01
183.355	2237.7
187.505	1763.67
191.653	1285.2
195.799	871.669
199.943	639.01
204.084	419.311
208.224	371.562
212.362	59.681
216.497	153.603
220.631	156.74
224.762	89.789
228.891	92.805
233.018	35.908
237.144	201.108
241.267	607.716
245.388	983.122
249.507	1278.11
253.624	1553.17
257.739	1516.54
261.852	1349.32
265.962	1160.03
270.071	894.377
274.178	610.868
278.283	508.609
282.385	337.028
286.486	225.794
290.584	7.616
294.681	35.043
298.775	15.146
302.868	4.902
306.958	131.805
311.047	141.493
315.133	69.326
319.217	3.424
323.299	111.468
327.38	234.294
331.458	464.294
335.534	571.927
339.608	699.209
343.681	786.159
347.751	812.79
351.819	929.095
355.885	1077.18
359.949	1310.37
364.011	1725.49
368.071	2028.34
372.129	2462.51
376.185	2954.86
380.239	3628.55
384.291	4353.98
388.341	5071.98
392.389	6149.74
396.435	7719.94
400.479	9662
404.521	11081.9
408.561	12313.6
412.599	11684.2
416.636	10003
420.67	7981.22
424.702	6159.07
428.732	4615.98
432.76	3352.49
436.786	2458.53
440.81	1814.09
444.832	1549.13
448.852	1343.66
452.87	1384.54
456.887	1364.33
460.901	1874.39
464.913	2644.15
468.923	3399.6
472.931	4526.56
476.938	6131.37
480.942	8852.88
484.944	10653.7
488.945	9932.21
492.943	7481.48
496.94	4751.01
500.934	2880.49
504.927	1752.69
508.917	982.468
512.906	701.92
516.892	420.691
520.877	208.574
524.86	273.675
528.841	127.894
532.82	46.067
536.796	67.401
540.771	47.465
544.744	32.471
548.715	50.61
552.684	123.002
556.652	36.281
560.617	43.855
564.58	58.976
568.541	62.876
572.501	263.455
576.458	222.599
580.414	191.431
584.367	335.808
588.319	441.272
592.268	546.071
596.216	681.813
600.162	1009.09
604.106	1499.08
608.048	1947.77
611.988	2316.17
615.926	2304.32
619.862	1942.4
623.797	1530.51
627.729	1258.73
631.659	962.215
635.588	640.957
639.515	412.883
643.439	376.729
647.362	299.329
651.283	191.645
655.202	150.65
659.119	76.343
663.034	213.719
666.947	15.775
670.859	5.466
674.768	68.238
678.676	9.896
682.581	109.638
686.485	58.587
690.387	39.943
694.287	6.59
698.185	83.893
702.081	77.141
705.975	60.274
709.868	49.747
713.758	130.414
717.647	120.707
721.533	164.291
725.418	66.396
729.301	60.303
733.182	52.477
737.061	180.995
740.939	165.561
744.814	74.899
748.688	205.409
752.559	239.896
756.429	213.531
760.297	297.917
764.163	431.767
768.027	476.278
771.89	546.038
775.75	706.668
779.609	953.272
783.465	1201.77
787.32	1372.78
791.173	1554.27
795.024	1381.73
798.873	1289.16
802.721	1207.74
806.566	1243.57
810.41	1079.12
814.252	904.377
818.092	625.631
821.93	903.025
825.766	650.627
829.601	491.236
833.433	231.887
837.264	140.191
841.093	64.418
844.92	170.234
848.745	152.167
852.568	61.212
856.39	40.368
860.209	120.973
864.027	174.935
867.843	176.104
871.657	196.781
875.47	19.943
879.28	31.97
883.089	91.012
886.896	32.09
890.701	80.997
894.504	92.29
898.305	106.515
902.105	6.85
905.902	47.828
909.698	51.605
913.492	136.355
917.285	51.13
921.075	3.271
924.864	72.146
928.65	34.584
932.435	82.471
936.218	124.364
940	108.087
943.779	113.556
947.557	42.869
951.333	31.954
955.107	145.048
958.879	182.952
962.65	190.759
966.418	128.457
970.185	156.031
973.95	103.519
977.714	140.965
981.475	308.414
985.235	195.883
988.993	213.137
992.749	210.039
996.503	217.221
1000.26	294.492
1004.01	407.642
1007.75	422.462
1011.5	559.539
1015.25	476.812
1018.99	513.284
1022.73	610.076
1026.47	654.979
1030.21	641.435
1033.95	807.945
1037.68	670.37
1041.41	720.963
1045.15	687.229
1048.88	675.679
1052.6	672.145
1056.33	705.662
1060.05	858.783
1063.78	866.087
1067.5	701.436
1071.21	677.539
1074.93	794.736
1078.65	969.395
1082.36	975.892
1086.07	1202.82
1089.78	1346.92
1093.49	1291.31
1097.2	1358.29
1100.9	1513.4
1104.6	1631.6
1108.3	1669.56
1112	1827.06
1115.7	1674.15
1119.4	1609.52
1123.09	1667.76
1126.78	1626.07
1130.47	1664.38
1134.16	1612.85
1137.85	1652.03
1141.54	1490.68
1145.22	1372.31
1148.9	1565.7
1152.58	1354.83
1156.26	1205.22
1159.94	1115.83
1163.61	1315.32
1167.28	1014.93
1170.95	935.166
1174.62	855.293
1178.29	805.225
1181.96	705.156
1185.62	757.408
1189.29	657.203
1192.95	657.226
1196.61	607.517
1200.26	487.854
1203.92	287.615
1207.57	218.446
1211.23	267.99
1214.88	107.15
1218.53	165.97
1222.17	126.09
1225.82	166.438
1229.46	227.11
1233.11	138.02
1236.74	9.14
1240.38	10.483
1244.02	32.101
1247.66	43.912
1251.29	125.908
1254.92	38.052
1258.55	210.185
1262.18	122.42
1265.81	34.818
1269.43	57.369
1273.06	120.082
1276.68	52.89
1280.3	14.11
1283.91	89.102
1287.53	242.551
1291.15	76.362
1294.76	50.05
1298.37	44.54
1301.98	12.992
1305.59	81.982
1309.19	186.229
1312.8	171.812
1316.4	247.771
1320	354.146
1323.6	348.639
1327.2	264.559
1330.8	101.901
1334.39	187.4
1337.98	46.071
1341.58	35.762
1345.16	258.772
1348.75	209.489
1352.34	318.667
1355.92	284.134
1359.51	268.22
