Measurement: Raman, 514 nm, ccw, Raman Data Processed
Mineral: Heulandite-Ca
Rruff sample: R050097
Ideal chemistry: NaCa_4_(Si_27_Al_9_)O_72_24H_2_O
Locality: Rat's Nest Claim, Custer County, Idaho, USA
Source: John Cornish
Description: Pale pink coffin-shaped tabular single crystals
Measured chemistry: (Ca_0.66_Na_0.30_K_0.04_)_5_(Si_0.77_Al_0.23_)_36_O_72_Â·24H_2_O
Pin_id: L00063
Orientation: Laser parallel to (-1 0 -1). Fiducial mark perpendicular to laser is parallel to -b [0 -1 0]
Raman shift (cm-1)	intensity
123.92	0
128.886	612.49
133.85	1592.96
138.81	3047.28
143.767	3241.77
148.72	3565.81
153.671	3123.51
158.619	2137.35
163.563	1466.84
168.504	1024.41
173.442	992.818
178.377	1239.08
183.309	1000.1
188.238	978.468
193.163	848.668
198.086	741.089
203.005	523.597
207.921	43.4238
212.834	48.4512
217.744	121.879
222.651	190.387
227.555	199.859
232.456	17.873
237.354	248.792
242.248	506.307
247.14	777.894
252.028	902.858
256.914	865.866
261.796	810.661
266.675	739.878
271.551	615.87
276.425	628.988
281.295	702.218
286.162	699.099
291.026	755.919
295.887	713.336
300.745	728.273
305.6	686.781
310.451	961.016
315.3	1032.4
320.146	1489.3
324.989	1651.44
329.829	1871.64
334.666	2071.32
339.5	2346.68
344.33	2562.54
349.158	3028.79
353.983	3535.14
358.805	4188.48
363.624	4778.11
368.44	5694.52
373.253	6674.99
378.062	7912.62
382.869	9502.68
387.673	11184.1
392.474	13722.1
397.273	15722.9
402.068	16586.4
406.86	15169.6
411.649	12689.8
416.435	9839.43
421.219	7377.96
425.999	5336.29
430.776	3883.81
435.551	2883.09
440.323	2266.47
445.091	1821.98
449.857	1906.81
454.62	2211.77
459.38	3007.95
464.137	4055.2
468.891	5039.46
473.642	6332.48
478.39	8292.37
483.136	9739.12
487.878	8824.82
492.618	6113.51
497.355	3478.44
502.089	1820.76
506.82	974.964
511.548	640.876
516.273	367.26
520.996	123.17
525.715	26.2505
530.432	156.438
535.146	52.2832
539.857	56.8091
544.565	78.4263
549.27	9.33545
553.972	77.6162
558.672	71.6846
563.369	97.978
568.063	25.0869
572.754	3.4331
577.442	94.9604
582.127	271.571
586.81	381.991
591.49	651.471
596.167	975.001
600.841	1382.55
605.513	1732.2
610.181	1750.87
614.847	1654.56
619.51	1292.22
624.17	901.851
628.828	600.55
633.482	390.957
638.134	226.381
642.783	201.71
647.43	80.8936
652.073	156.812
656.714	122.327
661.352	61.9863
665.987	10.957
670.62	29.1352
675.25	8.46973
679.877	51.5117
684.501	40.6362
689.122	62.3164
693.741	174.521
698.357	182.651
702.97	88.9575
707.581	196.994
712.189	234.13
716.794	269.95
721.396	224.904
725.996	234.134
730.593	225.781
735.187	225.541
739.779	209.453
744.368	387.775
748.954	413.899
753.538	418.867
758.118	540.621
762.696	688.802
767.272	900.487
771.845	1025.51
776.415	1023.4
780.982	1043.96
785.547	1009.14
790.109	867.222
794.668	646.433
799.225	621.94
803.779	670.179
808.33	600.43
812.879	718.501
817.425	646.113
821.968	617.682
826.509	342.894
831.047	239.935
835.583	255.281
840.116	93.4883
844.646	4.09497
849.174	51.1919
853.699	51.7097
858.221	23.615
862.741	14.6526
867.258	10.3374
871.772	55.4255
876.284	6.92261
880.793	71.4285
885.3	6.60913
889.804	0.513428
894.306	39.8601
898.805	55.3757
903.301	12.6621
907.795	12.9194
912.286	23.8926
916.774	63.8821
921.26	23.709
925.744	0.122314
930.225	10.7144
934.703	47.2124
939.179	55.4172
943.652	68.4407
948.122	73.3496
952.59	117.228
957.056	164.107
961.519	144.888
965.979	270.448
970.437	381.107
974.892	429.369
979.345	542.679
983.795	712.078
988.243	752.566
992.688	884.072
997.131	1069.44
1001.57	1139.52
1006.01	1171.63
1010.44	1173.78
1014.88	1262.9
1019.31	1288.63
1023.73	1317.3
1028.16	1276.96
1032.58	1237.73
1037	1171.39
1041.42	1179.24
1045.83	1161.73
1050.25	1048.9
1054.66	1040.06
1059.06	984.466
1063.47	1055.31
1067.87	1030.14
1072.27	1132.43
1076.67	1187.12
1081.07	1440.52
1085.46	1544.75
1089.85	1690.97
1094.24	1795.6
1098.62	1909.78
1103.01	1997.17
1107.38	2136.36
1111.76	2060.24
1116.14	2242.24
1120.51	2075.14
1124.88	2158.69
1129.25	2185.54
1133.62	2205.04
1137.98	2106.4
1142.34	2106.58
1146.7	1919.44
1151.06	1891.52
1155.41	1757.01
1159.76	1619.84
1164.11	1493.78
1168.46	1312.92
1172.8	1171.22
1177.14	987.714
1181.48	819.393
1185.82	742.277
1190.15	532.264
1194.48	359.85
1198.81	326.118
1203.14	311.648
1207.47	193.401
1211.79	213.792
1216.11	145.284
1220.43	13.4033
1224.74	13.1763
1229.06	37.5645
1233.37	25.9839
1237.67	54.5151
1241.98	2.00684
1246.28	38.2471
1250.59	31.7607
1254.88	30.3164
1259.18	38.6401
1263.47	34.7007
1267.77	64.1001
1272.06	34.6333
1276.34	35.1499
1280.63	54.1987
1284.91	18.9302
1289.19	66.4053
1293.47	111.876
1297.74	99.4995
1302.02	120.029
1306.29	170.436
1310.56	107.7
1314.82	180.826
1319.09	44.8623
1323.35	94.7954
1327.61	120.619
1331.87	53.2671
1336.12	111.913
1340.37	142.752
1344.62	73.689
1348.87	37.9873
1353.12	103.918
1357.36	159.623
1361.6	71.1982
1365.84	37.6143
1370.08	74.2026
1374.31	52.2344
1378.54	195.448
1382.77	4.9292
1387	28.0391
1391.22	163.724
1395.45	114.451
1399.67	63.6025
1403.88	40.5435
1408.1	3.1919
1412.32	92.7388
1416.53	111.267
1420.74	91.6958
1424.94	165.473
1429.15	140.741
1433.35	197.385
1437.55	153.265
1441.75	207.438
1445.94	203.911
1450.14	211.958
1454.33	235.469
1458.52	205.622
1462.71	138.739
1466.89	164.121
1471.07	74.4858
1475.25	154.656
1479.43	55.9551
1483.61	180.477
1487.78	86.4141
1491.95	12.2036
1496.12	83.4922
1500.29	71.7124
1504.45	124.843
1508.62	115.547
1512.78	73.8174
1516.94	111.662
1521.09	0.29248
1525.25	139.705
1529.4	90.9951
1533.55	74.7915
1537.69	112.811
1541.84	12.0195
1545.98	62.2534
1550.12	123.802
1554.26	204.402
1558.4	31.9678
1562.54	0
