Measurement: Raman, 514 nm, ccw, Raman Data Processed
Mineral: Heulandite-Ca
Rruff sample: R040021
Ideal chemistry: NaCa_4_(Si_27_Al_9_)O_72_24H_2_O
Locality: Prospect Park, Patterson, Passaic County, New Jersey, USA
Source: University of Arizona Mineral Museum
Description: Group of colorless lamellar crystals
Measured chemistry: Na_0.25_(Na_0.55_K_0.45_)_Σ=1_(Ca_2.42_Na_0.85_Sr_0.73_)_Σ=4.00_(Si_27.60_Al_8.40_)_Σ=36_O_72_·24H_2_O ; H_2_O estimated by difference
Pin_id: m00146
Orientation: Laser parallel to [-1 0 -1]. Fiducial mark perpendicular to laser is parallel to b* (0 1 0)
Raman shift (cm-1)	intensity
103.124	0
107.3	319.312
111.473	1921.28
115.644	2633.88
119.813	4472.84
123.981	6081.48
128.146	7298.51
132.309	10384.9
136.47	13120
140.63	15797.4
144.787	17068.4
148.942	17563.8
153.096	18100.8
157.247	17558.7
161.396	15878.9
165.544	13983.7
169.689	11311.6
173.833	8944.29
177.974	6907.28
182.114	5370.79
186.251	5236.28
190.387	5084.9
194.52	4811.24
198.652	4490.28
202.782	3079.06
206.909	1883.75
211.035	843.785
215.159	142.531
219.281	586.08
223.4	938.9
227.518	841.611
231.634	460.832
235.748	223.473
239.86	1062.03
243.97	1848.47
248.079	2465.8
252.185	2576.58
256.289	2297.52
260.391	2246.35
264.492	1831.89
268.59	1443.81
272.687	1634.7
276.781	1650.43
280.874	1644.04
284.964	1653.73
289.053	2018.39
293.14	2474.42
297.225	2725.72
301.308	2832.51
305.389	2932.01
309.468	3070.08
313.545	3402.46
317.62	4126.64
321.693	4846.51
325.765	5718.31
329.834	6879.22
333.902	6928.08
337.967	7189.28
342.031	7551.96
346.093	8146.81
350.153	9138.19
354.21	10230.7
358.267	11594.3
362.321	13590
366.373	15759.1
370.423	18068.4
374.471	20350.8
378.518	22033.8
382.563	24589.5
386.605	28138.8
390.646	31612.4
394.685	37193.4
398.722	42908.7
402.757	45436.4
406.79	43729.4
410.821	38008.5
414.851	30695.7
418.878	24112.5
422.904	18614.1
426.927	14137.3
430.949	10515.1
434.969	8288.57
438.987	6699.88
443.003	5957.59
447.018	5700.19
451.03	5833.33
455.041	7145.04
459.049	9257.15
463.056	12458
467.061	15562.3
471.064	19154.5
475.065	25685.6
479.064	31396.4
483.062	31400.5
487.057	24850.5
491.051	16768.7
495.043	10558.4
499.032	6811.83
503.02	3931.2
507.007	2746.71
510.991	1872.36
514.973	1296.03
518.954	794.924
522.933	689.863
526.91	450.134
530.885	181.253
534.858	198.911
538.829	49.528
542.799	91.249
546.766	47.171
550.732	64.019
554.696	26.733
558.658	231.475
562.618	129.054
566.576	289.034
570.533	455.057
574.488	660.358
578.44	758.264
582.391	1290.35
586.341	1721.58
590.288	2263.95
594.233	3173.44
598.177	3965.16
602.119	5318.07
606.059	6601.18
609.997	6732.49
613.933	6376.94
617.868	5084.45
621.801	4006
625.731	2735.62
629.66	1818.28
633.588	1246.96
637.513	650.602
641.437	610.089
645.358	352.298
649.278	225.205
653.196	100.552
657.113	65.839
661.027	324.149
664.94	250.072
668.851	168.271
672.76	95.77
676.667	91.888
680.572	175.283
684.476	55.087
688.378	26.604
692.278	203.119
696.176	190.746
700.072	173.608
703.967	218.338
707.86	149.801
711.751	407.085
715.64	426.478
719.527	561.672
723.413	626.003
727.297	503.167
731.179	692.642
735.059	752.993
738.937	761.412
742.814	924.288
746.689	1016.49
750.562	1446.18
754.433	1592.61
758.303	1744.42
762.17	2249.28
766.036	2915.99
769.901	3329.12
773.763	3811.19
777.624	4296.88
781.482	4391.21
785.339	4207.51
789.195	3756.99
793.048	3196.5
796.9	2911.07
800.75	2460.05
804.598	1935.55
808.445	2123.38
812.289	2012.03
816.132	1952.9
819.973	1667.91
823.813	1209.09
827.65	704.225
831.486	409.587
835.32	311.385
839.152	156.659
842.983	172.687
846.812	87.982
850.639	84.314
854.464	140.035
858.288	101.046
862.11	28.542
865.93	112.657
869.748	47.576
873.564	3.243
877.379	0.521
881.192	76.021
885.004	82.115
888.813	15.741
892.621	146.691
896.427	42.943
900.232	33.776
904.034	18.449
907.835	90.359
911.634	83.377
915.432	89.553
919.227	9.877
923.021	152.39
926.813	165.201
930.604	160.337
934.393	242.82
938.18	192.698
941.965	334.988
945.749	332.723
949.53	377.935
953.311	492.682
957.089	648.001
960.866	701.933
964.641	745.507
968.414	995.044
972.185	1146.68
975.955	1353.43
979.723	1382.25
983.49	1368.48
987.254	1619.66
991.017	1943.73
994.779	2125.96
998.538	2285.64
1002.3	2867.31
1006.05	2843.29
1009.81	2906.73
1013.56	3114.53
1017.31	3302.32
1021.06	3538.19
1024.81	3317.83
1028.55	3472.17
1032.3	3269.58
1036.04	3378.63
1039.78	3569.99
1043.52	3531.61
1047.26	3360.03
1050.99	3484.74
1054.73	3437.68
1058.46	3354.08
1062.19	3359.45
1065.92	3467.58
1069.65	3626.23
1073.37	3914.5
1077.1	4389.1
1080.82	5232.19
1084.54	5755.4
1088.26	6227.81
1091.97	6574.98
1095.69	6810.88
1099.4	7262.33
1103.12	7204.03
1106.83	7434.03
1110.54	7394.93
1114.24	7352.79
1117.95	7380.22
1121.65	7421.37
1125.35	7313.64
1129.06	7381.49
1132.75	7087.31
1136.45	6763.02
1140.15	6578.89
1143.84	6397.7
1147.53	6094.07
1151.22	5569.15
1154.91	5275.87
1158.6	5001.41
1162.28	4495.74
1165.97	4117.37
1169.65	3798.08
1173.33	3245.57
1177.01	2961.99
1180.69	2593.59
1184.36	2342.41
1188.04	1938.14
1191.71	1846.25
1195.38	1290.22
1199.05	1222.86
1202.71	848.112
1206.38	784.23
1210.04	556.978
1213.71	436.925
1217.37	248.433
1221.03	277.279
1224.68	218.977
1228.34	163.857
1231.99	24.122
1235.65	180.373
1239.3	66.93
1242.95	168.341
1246.59	87.177
1250.24	16.158
1253.88	26.335
1257.53	100.604
1261.17	165.9
1264.81	23.964
1268.45	0.489
1272.08	9.776
1275.72	88.333
1279.35	1.387
1282.98	5.999
1286.61	161.174
1290.24	13.483
1293.87	38.539
1297.49	85.152
1301.11	12.688
1304.73	101.105
1308.36	8.163
1311.97	71.271
1315.59	86.212
1319.2	17.67
1322.82	18.408
1326.43	25.889
1330.04	8.351
1333.65	84.176
1337.26	95.282
1340.86	88.871
1344.47	40.274
1348.07	158.564
1351.67	102.069
1355.27	16.819
1358.87	102.144
1362.46	96.919
1366.06	133.027
1369.65	36.124
1373.24	281.979
1376.83	41.235
1380.42	163.214
1384	279.421
1387.59	259.399
1391.17	205.292
1394.75	250.62
1398.33	285.394
1401.91	397.516
1405.49	277.486
1409.06	314.318
1412.64	171.302
1416.21	408.588
1419.78	311.111
1423.35	349.65
1426.91	358.352
1430.48	282.094
1434.05	296.68
1437.61	451.975
1441.17	728.715
1444.73	865.248
1448.29	910.871
1451.84	1018.74
1455.4	826.742
1458.95	841.041
1462.5	843.016
1466.05	867.896
1469.6	652.211
1473.15	660.393
1476.69	394.973
1480.24	526.072
1483.78	413.896
1487.32	557.504
1490.86	171.322
1494.39	347.471
1497.93	335.689
1501.46	37.391
1505	68.443
1508.53	258.199
1512.06	245.156
1515.59	242.605
1519.11	0
