Measurement: Raman, 514 nm, ccw, Raman Data Processed
Mineral: Heulandite-Ca
Rruff sample: R040021
Ideal chemistry: NaCa_4_(Si_27_Al_9_)O_72_24H_2_O
Locality: Prospect Park, Patterson, Passaic County, New Jersey, USA
Source: University of Arizona Mineral Museum
Description: Group of colorless lamellar crystals
Measured chemistry: Na_0.25_(Na_0.55_K_0.45_)_Σ=1_(Ca_2.42_Na_0.85_Sr_0.73_)_Σ=4.00_(Si_27.60_Al_8.40_)_Σ=36_O_72_·24H_2_O ; H_2_O estimated by difference
Pin_id: m00378
Orientation: Laser parallel to a [1 0 0]. Fiducial mark perpendicular to laser is parallel to b* (0 1 0)
Raman shift (cm-1)	intensity
93.375	0
97.554	578.25
101.732	1473.63
105.908	3162.86
110.082	4706.31
114.254	6125.89
118.424	7938.21
122.592	9163.71
126.758	11340.4
130.922	14925.4
135.083	17569
139.243	21043.4
143.401	21246.1
147.557	20448.2
151.711	17386.6
155.863	14433.3
160.013	11359.7
164.161	8833.14
168.308	6559.25
172.452	4659.41
176.594	3136.95
180.734	1771.06
184.872	816.449
189.008	58.531
193.143	265.939
197.275	160.996
201.405	125.896
205.534	108.941
209.66	173.469
213.784	127.93
217.907	119.639
222.027	40.398
226.146	430.543
230.263	869.406
234.377	1734.16
238.49	2814.02
242.601	4226.66
246.709	5103.47
250.816	5211.85
254.921	5265.85
259.024	4678.97
263.125	4048.35
267.224	3319.79
271.321	2675.64
275.416	1519.31
279.51	914.814
283.601	669.969
287.69	52.707
291.778	49.385
295.863	471.186
299.947	486.125
304.029	508.234
308.108	468.949
312.186	31.199
316.262	97.709
320.336	419.223
324.408	905.789
328.478	1079.42
332.546	1835.68
336.612	2143.78
340.677	2419.9
344.739	2819.15
348.799	3276.58
352.858	3997.74
356.915	4841.35
360.969	6127.4
365.022	7602.47
369.073	9270.54
373.122	10917.3
377.169	12759
381.215	14867.8
385.258	17380.9
389.299	20370.2
393.339	24593.6
397.376	30272.5
401.412	34044.2
405.446	35653.8
409.478	33102.4
413.508	27545.9
417.536	22145.7
421.562	17465.8
425.586	13315.9
429.609	9704.37
433.629	7484.11
437.648	5514.03
441.665	4529
445.68	4039.15
449.693	3810.13
453.704	4085.98
457.713	4723.66
461.721	5866.88
465.726	7904.07
469.73	10566
473.731	15404.2
477.731	20870.6
481.729	24738.7
485.725	23421.4
489.72	17802.6
493.712	12185.7
497.703	7607.17
501.691	4822.77
505.678	3043.07
509.663	2129.38
513.646	1701.43
517.627	1219.36
521.607	1082.18
525.584	628.039
529.56	658.068
533.534	495.322
537.506	340.986
541.476	337.777
545.444	413.131
549.41	337.588
553.375	337.084
557.337	341.896
561.298	37.994
565.257	42.98
569.214	187.1
573.17	318.609
577.123	507.574
581.075	1134.95
585.024	1447.78
588.972	1734.07
592.918	2374.81
596.863	3288.1
600.805	4219.81
604.746	5345.06
608.685	5791.26
612.621	5824.1
616.557	5188.08
620.49	4275.4
624.421	3095.27
628.351	2703.66
632.279	2059.26
636.205	964.631
640.129	880.211
644.051	451.713
647.972	490.029
651.89	154.129
655.807	119.799
659.722	40.678
663.636	71.355
667.547	5.633
671.457	158.236
675.365	166.154
679.271	89.383
683.175	21.279
687.077	27.357
690.978	163.686
694.877	285.717
698.774	126.416
702.669	59.797
706.562	671.629
710.454	676.027
714.344	437.879
718.232	527.613
722.118	592.385
726.002	631.602
729.885	747.6
733.766	523.682
737.645	761.064
741.522	820.248
745.397	1161
749.271	1259.3
753.143	1153.19
757.013	1449.1
760.881	2136.88
764.748	2769.18
768.613	3090.18
772.476	3948.64
776.337	4941.35
780.196	4949.45
784.054	4838.54
787.91	4477.05
791.764	4143.87
795.616	3636.25
799.467	3064.65
803.316	2725.04
807.163	3192.17
811.008	3267.5
814.851	3799.83
818.693	3729.26
822.533	3197.52
826.371	2181.79
830.208	1643.69
834.042	993.002
837.875	878.74
841.706	823.795
845.536	680.012
849.363	264.971
853.189	195.467
857.013	649.205
860.836	211.645
864.656	480.727
868.475	222.514
872.292	285.037
876.108	13.672
879.922	102.729
883.733	73.193
887.544	11.955
891.352	39.055
895.159	14.531
898.964	19.559
902.767	43.477
906.568	13.912
910.368	185.484
914.166	38.689
917.962	177.303
921.757	273.189
925.55	64.449
929.341	24.504
933.13	44.273
936.918	62.088
940.703	75.326
944.488	262.492
948.27	80.807
952.051	155.902
955.83	124.787
959.607	243.525
963.383	154.322
967.156	437.475
970.928	598.754
974.699	583.234
978.468	519.947
982.234	680.977
986	813.283
989.763	988.736
993.525	1075.3
997.285	1269.05
1001.04	1799.03
1004.8	1724.99
1008.55	1747.06
1012.31	1950.06
1016.06	1936.8
1019.81	2076.22
1023.56	2380.59
1027.31	2535.83
1031.05	2723.8
1034.79	2747.43
1038.53	2607.27
1042.27	2509.39
1046.01	2703.14
1049.75	2928.17
1053.48	2762.1
1057.22	2906.69
1060.95	2658.44
1064.68	2765.69
1068.4	2892.13
1072.13	3096.54
1075.86	3306.53
1079.58	3912.9
1083.3	4011.05
1087.02	4186.32
1090.74	4640.67
1094.45	4646.93
1098.17	5114.51
1101.88	5042.35
1105.59	5226.37
1109.3	4819.47
1113.01	4991.99
1116.71	5067.18
1120.42	4730.08
1124.12	5099.15
1127.82	4908.52
1131.52	4747.72
1135.22	4400.86
1138.91	4437.5
1142.61	3993.4
1146.3	3831.29
1149.99	3462.41
1153.68	3605.83
1157.37	2854.92
1161.06	3033.89
1164.74	2615.28
1168.42	2610.8
1172.1	1948.3
1175.78	2034.47
1179.46	1851.11
1183.14	1737.2
1186.81	1411.34
1190.48	1146.62
1194.15	1256.48
1197.83	895.16
1201.49	545.123
1205.16	560.434
1208.82	193.09
1212.49	328.174
1216.15	265.646
1219.81	54.377
1223.46	34.318
1227.12	156.285
1230.78	152.078
1234.43	290.93
1238.08	197.139
1241.73	45.662
1245.38	48.629
1249.03	2.482
1252.67	2.076
1256.31	7.945
1259.95	32.018
1263.6	18.057
1267.23	79.662
1270.87	222.436
1274.51	38.51
1278.14	138.123
1281.77	184.869
1285.4	3.316
1289.03	184.48
1292.66	57.439
1296.28	107.219
1299.91	166.732
1303.53	633.865
1307.15	287.613
1310.77	331.111
1314.38	69.219
1318	362.789
1321.61	251.809
1325.23	265.156
1328.84	3.66
1332.45	570.832
1336.06	123.004
1339.66	283.25
1343.27	153.316
1346.87	185.254
1350.47	260.68
1354.07	391.41
1357.67	387.168
1361.26	285.719
1364.86	385.633
1368.45	490.781
1372.04	369.855
1375.63	306.316
1379.22	198.426
1382.81	329.828
1386.39	306.977
1389.98	210.961
1393.56	150.211
1397.14	237.27
1400.72	195.191
1404.3	279.406
1407.87	5.145
1411.45	91.426
1415.02	134.824
