Measurement: Raman, 514 nm, ccw, Raman Data Processed
Mineral: Heulandite-Ca
Rruff sample: R050097
Ideal chemistry: NaCa_4_(Si_27_Al_9_)O_72_24H_2_O
Locality: Rat's Nest Claim, Custer County, Idaho, USA
Source: John Cornish
Description: Pale pink coffin-shaped tabular single crystals
Measured chemistry: (Ca_0.66_Na_0.30_K_0.04_)_5_(Si_0.77_Al_0.23_)_36_O_72_Â·24H_2_O
Pin_id: L00100
Orientation: Laser parallel to a* (1 0 0). Fiducial mark perpendicular to laser is parallel to b [0 1 0]
Raman shift (cm-1)	intensity
120.596	0
125.519	80.4883
130.439	702.432
135.356	805.894
140.271	1460
145.184	1722.74
150.094	1963.5
155.002	2011.79
159.908	1663.22
164.811	1476.15
169.711	1166.14
174.61	1079.21
179.505	863.938
184.399	782.58
189.29	628.664
194.178	673.346
199.064	628.639
203.948	479.033
208.829	112.322
213.708	97.9609
218.585	211.801
223.459	116.322
228.33	82
233.199	19.3828
238.066	28.6328
242.93	341.504
247.792	517.34
252.651	216.098
257.508	505.107
262.363	284.185
267.215	174.562
272.064	391.334
276.912	302.387
281.756	189.736
286.598	304.445
291.438	499.342
296.276	303.783
301.111	455.619
305.943	298.506
310.773	519.949
315.601	675.691
320.426	682.939
325.248	577.254
330.068	846.356
334.886	801.527
339.701	1078.14
344.514	1216.85
349.324	1197.62
354.132	1619.2
358.938	1559.32
363.741	1938.34
368.541	2298.72
373.339	2567.45
378.135	3077.43
382.928	3536.04
387.718	4319.07
392.506	5330.39
397.292	6359.24
402.075	6470.14
406.856	6121.57
411.634	5347.77
416.41	4083.8
421.183	2914.35
425.954	1969.78
430.722	1911.91
435.488	1091.94
440.251	1180.09
445.012	785.795
449.77	1003.52
454.526	1114.69
459.28	1660.81
464.03	2316.81
468.779	3004.84
473.525	3801.15
478.268	4639.14
483.009	4472.82
487.747	3151.2
492.483	2000.3
497.217	1179.65
501.948	432.562
506.676	484.615
511.402	311.699
516.125	246.383
520.846	170.809
525.565	64.4336
530.281	131.41
534.994	99.7891
539.705	69.1426
544.413	135.565
549.119	80.6836
553.822	64.6309
558.523	39.4941
563.222	81.1152
567.917	140.906
572.611	40.5664
577.302	131.824
581.99	302.344
586.676	142.981
591.359	535.232
596.04	596.654
600.718	801.518
605.394	1137.6
610.067	1192.35
614.737	1008.45
619.406	865.045
624.071	612.975
628.734	362.635
633.395	218.934
638.053	303.885
642.708	506.43
647.361	62.6191
652.012	77.4062
656.66	271.565
661.305	414.328
665.948	137.361
670.588	60.2168
675.226	261.258
679.861	55.3027
684.494	192.639
689.124	134.023
693.752	4.98047
698.377	212.885
702.999	323.342
707.619	173.869
712.237	56.7637
716.852	118.955
721.464	406.91
726.074	223.779
730.681	244.924
735.286	210.375
739.888	485.291
744.488	281.312
749.085	271.394
753.68	174.065
758.272	399.369
762.861	411.037
767.448	502.766
772.033	506.805
776.614	656.703
781.194	807.684
785.77	771.148
790.345	476.66
794.916	373.316
799.485	396.273
804.052	603.094
808.616	184.875
813.177	187.191
817.736	238.504
822.292	452.191
826.846	222.441
831.397	68.582
835.945	129.41
840.491	7.94531
845.035	14.1523
849.576	176.609
854.114	292.359
858.65	260.348
863.183	259.719
867.713	114.941
872.241	61.0156
876.767	389.004
881.29	165.848
885.81	112.227
890.328	54.1172
894.843	260.41
899.356	57.1367
903.866	180.336
908.373	289.098
912.878	427.449
917.38	175.438
921.88	82.9219
926.377	190.973
930.872	244.43
935.364	284.5
939.853	73.6953
944.34	6.92188
948.824	161.359
953.306	84.2852
957.785	334.477
962.261	416.961
966.735	319.769
971.207	157.109
975.675	460.934
980.141	141.074
984.605	493.094
989.066	397.203
993.524	443.098
997.98	766.836
1002.43	623.691
1006.88	369.223
1011.33	642.465
1015.78	320.016
1020.22	455.934
1024.66	589.801
1029.1	565.918
1033.53	573.055
1037.97	622.242
1042.4	563.148
1046.82	562.625
1051.25	439.832
1055.67	297.371
1060.09	496.43
1064.51	247.582
1068.92	716.867
1073.33	525.938
1077.74	648.152
1082.15	856.894
1086.55	907.82
1090.95	848.164
1095.35	978.348
1099.75	772.91
1104.14	1154.42
1108.53	1011.33
1112.92	1112.9
1117.31	1046.84
1121.69	950.375
1126.07	954.809
1130.45	931.356
1134.82	986.859
1139.19	919.231
1143.57	890.125
1147.93	983.894
1152.3	1184.34
1156.66	699.047
1161.02	812.894
1165.38	712.621
1169.73	735.379
1174.08	794.117
1178.43	696.106
1182.78	381.371
1187.12	440.234
1191.46	112.164
1195.8	398.34
1200.14	151.863
1204.47	315.539
1208.8	233.566
1213.13	16.9883
1217.46	286.281
1221.78	398.277
1226.1	278.066
1230.42	406.047
1234.73	142.242
1239.04	331.637
1243.35	83.1016
1247.66	156.856
1251.97	270.781
1256.27	302.863
1260.57	158.062
1264.86	5.72266
1269.16	24.5312
1273.45	133.769
1277.74	122.324
1282.03	12.1523
1286.31	34.8672
1290.59	143.535
1294.87	170.613
1299.14	196.703
1303.42	335.844
1307.69	240.078
1311.95	280.391
1316.22	328.586
1320.48	535.805
1324.74	95.082
1329	187.426
1333.26	327.836
1337.51	202.32
1341.76	548.922
1346	535.508
1350.25	249.176
1354.49	200.91
1358.73	247.012
1362.96	214.981
1367.2	1.34766
1371.43	142.625
1375.66	326.316
1379.88	150.074
1384.11	352.906
1388.33	58.4023
1392.54	96.1523
1396.76	176.551
1400.97	234.254
1405.18	228.414
1409.39	431.047
1413.59	340.098
1417.8	294.695
1421.99	157.688
1426.19	36.9297
1430.38	302.676
1434.58	94.2031
1438.77	447.461
1442.95	377.293
1447.13	702.891
1451.32	553.195
1455.49	549.688
1459.67	228.191
1463.84	532.285
1468.01	382.41
1472.18	622.406
1476.35	191.473
1480.51	302.57
1484.67	33.1094
1488.83	606.203
1492.98	32.8828
1497.13	388.637
1501.28	171.742
1505.43	171.066
1509.57	257.094
1513.71	103.523
1517.85	206.277
1521.99	134.324
1526.12	364.832
1530.25	76.4453
1534.38	279.863
1538.5	225.062
1542.62	290.664
1546.74	30.6914
1550.86	325.004
1554.98	570.926
1559.09	242.34
1563.2	232.047
1567.31	429.957
1571.41	0
