Measurement: Raman, 514 nm, ccw, Raman Data Processed
Mineral: Heulandite-Ca
Rruff sample: R050017
Ideal chemistry: NaCa_4_(Si_27_Al_9_)O_72_24H_2_O
Locality: Poona, Maharashtra State, India
Source: Eugene Schlepp
Description: Single crystals
Measured chemistry: (Ca_.70_Na_.22_K_.02_[box]_0.06_)_5_(Si_0.77_Al_0.23_)_36_O_72_Â·24H_2_O
Pin_id: L00080
Orientation: Laser parallel to -a* (-1 0 0). Fiducial mark perpendicular to laser is parallel to b [0 1 0]
Raman shift (cm-1)	intensity
219.281	0
223.4	182.821
227.518	485.795
231.634	294.376
235.748	75.197
239.86	296.437
243.97	490.245
248.079	956.25
252.185	1668.2
256.289	1909.16
260.391	1850.45
264.492	1801.57
268.59	1714.27
272.687	1440.64
276.781	1294.02
280.874	1145.43
284.964	1243.9
289.053	1307.96
293.14	1434.73
297.225	1680.69
301.308	1802.06
305.389	2083.42
309.468	2430.13
313.545	2832.86
317.62	3410.45
321.693	4315.75
325.765	4676.02
329.834	5372.8
333.902	5836.1
337.967	6544.86
342.031	7116
346.093	7832.44
350.153	9084.1
354.21	10263.9
358.267	11780
362.321	13761
366.373	15832.8
370.423	17696.4
374.471	19545
378.518	21968.1
382.563	24178.8
386.605	27530.3
390.646	32303.3
394.685	38243.1
398.722	44574.1
402.757	49310.2
406.79	50374.7
410.821	47102.4
414.851	40589.9
418.878	32558.4
422.904	24366.4
426.927	18509.3
430.949	13496.9
434.969	10145
438.987	8106.66
443.003	6766.68
447.018	6625.05
451.03	7103.71
455.041	8884.81
459.049	11727.8
463.056	16165.1
467.061	19992.5
471.064	22799.9
475.065	26783.5
479.064	32640.3
483.062	34670.3
487.057	29328.4
491.051	20936.7
495.043	13694.1
499.032	8239.55
503.02	5182.1
507.007	3165.68
510.991	2025.52
514.973	1351.75
518.954	899.9
522.933	374.994
526.91	88.557
530.885	127.298
534.858	276.145
538.829	179.818
542.799	126.533
546.766	31.517
550.732	3.66
554.696	57.448
558.658	98.172
562.618	187.235
566.576	166.63
570.533	58.954
574.488	92.607
578.44	143.657
582.391	378.596
586.341	725.371
590.288	1347.98
594.233	1747.28
598.177	2525.3
602.119	3550.05
606.059	4856.52
609.997	5618.59
613.933	5487.27
617.868	5042.48
621.801	3847.22
625.731	3073.47
629.66	2151.22
633.588	1703.43
637.513	1442.1
641.437	1222.21
645.358	949.745
649.278	837.754
653.196	905.255
657.113	605.986
661.027	518.949
664.94	517.557
668.851	396.139
672.76	468.61
676.667	543.809
680.572	719.225
684.476	712.973
688.378	536.537
692.278	594.384
696.176	523.24
700.072	745.017
703.967	500.45
707.86	498.466
711.751	370.788
715.64	537.033
719.527	526.66
723.413	423.398
727.297	404.467
731.179	383.392
735.059	339.325
738.937	376.794
742.814	359.726
746.689	501.748
750.562	438.81
754.433	676.568
758.303	855.032
762.17	800.447
766.036	868.967
769.901	1148.69
773.763	1252.67
777.624	1290.55
781.482	1256.96
785.339	1075.34
789.195	991.89
793.048	696.585
796.9	456.557
800.75	443.812
804.598	413.35
808.445	270.157
812.289	265.237
816.132	194.593
819.973	147.22
823.813	37.495
827.65	26.781
831.486	11.284
835.32	46.479
839.152	0.689
842.983	5.223
846.812	34.679
850.639	31.202
854.464	31.113
858.288	9.781
862.11	1.876
865.93	45.023
869.748	24.266
873.564	17.56
877.379	25.27
881.192	39.544
885.004	29.333
888.813	26.43
892.621	33.967
896.427	10.12
900.232	22.949
904.034	59.283
907.835	4.357
911.634	40.707
915.432	130.414
919.227	159.449
923.021	17.003
926.813	57.108
930.604	162.818
934.393	119.158
938.18	260.156
941.965	242.817
945.749	111.16
949.53	178.2
953.311	263.962
957.089	334.462
960.866	312.389
964.641	475.589
968.414	542.503
972.185	515.055
975.955	748.163
979.723	912.647
983.49	987.831
987.254	1061.05
991.017	1151.79
994.779	1141.92
998.538	1175.3
1002.3	1124
1006.05	1263.81
1009.81	1354.76
1013.56	1560.19
1017.31	1440.04
1021.06	1554.9
1024.81	1813.9
1028.55	1705.99
1032.3	1747.97
1036.04	1751.59
1039.78	1994.83
1043.52	2031.81
1047.26	2104
1050.99	2089.03
1054.73	2141.99
1058.46	2306.98
1062.19	2347.35
1065.92	2206.96
1069.65	2302.59
1073.37	3307.72
1077.1	2684.64
1080.82	3177.23
1084.54	3552.47
1088.26	3913
1091.97	4303.72
1095.69	4618.19
1099.4	4960.28
1103.12	5286.24
1106.83	5354.01
1110.54	5642.77
1114.24	5794.26
1117.95	5779.96
1121.65	5755.81
1125.35	6030.06
1129.06	5976.73
1132.75	6195.28
1136.45	6092.22
1140.15	6045.18
1143.84	5896.17
1147.53	6047.9
1151.22	5557.65
1154.91	5317.12
1158.6	5090.89
1162.28	4599.25
1165.97	4333.26
1169.65	3909.03
1173.33	3426.9
1177.01	3303.79
1180.69	2877.89
1184.36	2595.02
1188.04	2002.07
1191.71	1858.89
1195.38	1392.03
1199.05	1241.08
1202.71	1073.56
1206.38	691.68
1210.04	500.381
1213.71	480.426
1217.37	247.421
1221.03	170.556
1224.68	233.429
1228.34	67.176
1231.99	129.261
1235.65	59.94
1239.3	9.106
1242.95	45.857
1246.59	32.501
1250.24	122.717
1253.88	111.549
1257.53	31.236
1261.17	10.656
1264.81	40.497
1268.45	50.68
1272.08	42.759
1275.72	35.754
1279.35	94.191
1282.98	48.929
1286.61	41.902
1290.24	54.084
1293.87	30.295
1297.49	24.093
1301.11	39.426
1304.73	5.982
1308.36	6.188
1311.97	19.557
1315.59	115.254
1319.2	150.168
1322.82	10.192
1326.43	14.403
1330.04	44.672
1333.65	82.154
1337.26	56.329
1340.86	75.583
1344.47	42.831
1348.07	245.141
1351.67	99.183
1355.27	116.82
1358.87	212.096
1362.46	180.393
1366.06	91.847
1369.65	165.929
1373.24	91.163
1376.83	175.63
1380.42	255.425
1384	203.268
1387.59	298.197
1391.17	405.944
1394.75	250.712
1398.33	272.808
1401.91	186.919
1405.49	271.015
1409.06	223.455
1412.64	276.666
1416.21	282.28
1419.78	240.987
1423.35	115.527
1426.91	127.195
1430.48	97.584
1434.05	353.395
1437.61	265.249
1441.17	209.03
1444.73	324.006
1448.29	177.532
1451.84	126.551
1455.4	410.598
1458.95	192.523
1462.5	63.326
1466.05	285.489
1469.6	286.12
1473.15	295.136
1476.69	251.817
1480.24	255.092
1483.78	218.779
1487.32	31.966
1490.86	185.401
1494.39	192.693
1497.93	117.06
1501.46	5.258
1505	156.274
1508.53	75.291
1512.06	201.345
1515.59	119.275
1519.11	54.645
1522.64	0.778
