Measurement: Raman, 514 nm, ccw, Raman Data Processed
Mineral: Heulandite-Ca
Rruff sample: R050017
Ideal chemistry: NaCa_4_(Si_27_Al_9_)O_72_24H_2_O
Locality: Poona, Maharashtra State, India
Source: Eugene Schlepp
Description: Single crystals
Measured chemistry: (Ca_.70_Na_.22_K_.02_[box]_0.06_)_5_(Si_0.77_Al_0.23_)_36_O_72_Â·24H_2_O
Pin_id: L00080
Orientation: Laser parallel to -a* (-1 0 0). Fiducial mark perpendicular to laser is parallel to b [0 1 0]
Raman shift (cm-1)	intensity
219.281	0
223.4	165.998
227.518	329.195
231.634	1211.43
235.748	2315.33
239.86	4216.88
243.97	5927.87
248.079	7010.09
252.185	7792.4
256.289	7711.83
260.391	6812.88
264.492	6271.74
268.59	5238.91
272.687	3926.62
276.781	3146.44
280.874	2035.11
284.964	1107.39
289.053	764.627
293.14	432.635
297.225	175.35
301.308	28.604
305.389	163.164
309.468	149.535
313.545	56.549
317.62	342.258
321.693	841.41
325.765	1253.64
329.834	1966.31
333.902	2343.46
337.967	2818.15
342.031	3135.27
346.093	3434.84
350.153	3806.06
354.21	4493.99
358.267	5478.79
362.321	6899.46
366.373	8720.16
370.423	10487.3
374.471	12555.3
378.518	15545.7
382.563	18321
386.605	22133.7
390.646	27305.8
394.685	33526.6
398.722	40397.1
402.757	45344.1
406.79	46387.8
410.821	43442.2
414.851	37027.3
418.878	29589.3
422.904	21802.4
426.927	16377.6
430.949	11789.1
434.969	8715.52
438.987	6951.94
443.003	5376.33
447.018	4933.67
451.03	4669.92
455.041	5560.31
459.049	7269.69
463.056	10267.2
467.061	14397.8
471.064	19696.5
475.065	27523.4
479.064	37383
483.062	41825.5
487.057	36232.6
491.051	25783.4
495.043	16773.9
499.032	10181.9
503.02	6214.24
507.007	3700.68
510.991	2291.01
514.973	1635.91
518.954	1041.05
522.933	571.473
526.91	290.699
530.885	221.659
534.858	52.182
538.829	112.876
542.799	89.784
546.766	80.259
550.732	36.725
554.696	6.415
558.658	13.143
562.618	39.459
566.576	57.262
570.533	196.333
574.488	569.98
578.44	574.437
582.391	1111.58
586.341	1593.5
590.288	2523.34
594.233	3423.03
598.177	4899.93
602.119	6485.36
606.059	8485.93
609.997	9534.64
613.933	9427.85
617.868	8486.12
621.801	6482.04
625.731	5014.95
629.66	3349.97
633.588	2481.99
637.513	1652.42
641.437	1314.72
645.358	966.293
649.278	757.312
653.196	528.768
657.113	410.438
661.027	237.886
664.94	206.45
668.851	117.703
672.76	13.123
676.667	142.103
680.572	24.332
684.476	250.09
688.378	198.738
692.278	311.96
696.176	250.982
700.072	369.915
703.967	257.716
707.86	469.249
711.751	334.282
715.64	616.166
719.527	776.725
723.413	636.662
727.297	807.451
731.179	818.145
735.059	743.517
738.937	977.362
742.814	1022.08
746.689	1021.62
750.562	1393.42
754.433	1676.88
758.303	1982.82
762.17	2460.25
766.036	2810.43
769.901	3799.9
773.763	4652.02
777.624	5589.16
781.482	6478.99
785.339	7020.73
789.195	7211.98
793.048	6701.8
796.9	6029.02
800.75	5488.82
804.598	4872.95
808.445	4229.25
812.289	4078.57
816.132	4107.42
819.973	3733.74
823.813	2775.16
827.65	1802.17
831.486	1106.11
835.32	730.945
839.152	804.233
842.983	333.305
846.812	347.591
850.639	198.689
854.464	115.845
858.288	107.078
862.11	154.074
865.93	61.033
869.748	32.147
873.564	61.934
877.379	75.459
881.192	77.827
885.004	97.314
888.813	52.008
892.621	119.629
896.427	65.467
900.232	71.565
904.034	43.26
907.835	9.371
911.634	5.177
915.432	112.559
919.227	18.625
923.021	80.599
926.813	97.988
930.604	122.334
934.393	55.138
938.18	203.397
941.965	195.146
945.749	156.403
949.53	210.18
953.311	324.514
957.089	354.476
960.866	464.063
964.641	508.318
968.414	687.282
972.185	749.995
975.955	916.515
979.723	1042.97
983.49	1310.22
987.254	1424.31
991.017	1426.22
994.779	1691.27
998.538	1943.8
1002.3	2071.45
1006.05	2204.53
1009.81	2374.28
1013.56	2636.96
1017.31	2835.14
1021.06	2915.01
1024.81	3207.64
1028.55	3227.8
1032.3	3393.33
1036.04	3519.03
1039.78	3622.73
1043.52	3615.51
1047.26	3488.67
1050.99	3297.53
1054.73	3445.02
1058.46	3393.31
1062.19	3369.64
1065.92	3403.13
1069.65	3451.66
1073.37	3651.87
1077.1	4049.51
1080.82	4466.43
1084.54	5007.58
1088.26	5392.99
1091.97	5775.61
1095.69	6094.61
1099.4	6456.41
1103.12	6752.64
1106.83	6920.12
1110.54	7023
1114.24	7091.1
1117.95	7059.06
1121.65	7093.42
1125.35	6976.52
1129.06	6978.1
1132.75	6691.65
1136.45	6519.25
1140.15	6156.58
1143.84	6040.71
1147.53	5833.89
1151.22	5429.32
1154.91	5186.35
1158.6	4796.17
1162.28	4515.09
1165.97	4182.13
1169.65	3860.98
1173.33	3632.7
1177.01	3398.09
1180.69	3007.98
1184.36	2739.47
1188.04	2393
1191.71	2044.95
1195.38	1638.55
1199.05	1415.02
1202.71	1296.23
1206.38	962.442
1210.04	741.785
1213.71	580.106
1217.37	504.957
1221.03	426.144
1224.68	326.55
1228.34	159.501
1231.99	163.396
1235.65	71.214
1239.3	85.982
1242.95	72.083
1246.59	33.822
1250.24	60.252
1253.88	28.302
1257.53	53.965
1261.17	61.815
1264.81	27.271
1268.45	11.227
1272.08	29.87
1275.72	94.404
1279.35	98.281
1282.98	5.582
1286.61	4.359
1290.24	32.886
1293.87	29.763
1297.49	42.169
1301.11	8.062
1304.73	61.116
1308.36	64.284
1311.97	18.287
1315.59	70.922
1319.2	9.227
1322.82	54.528
1326.43	37.794
1330.04	65.076
1333.65	27.21
1337.26	47.168
1340.86	89.051
1344.47	5.937
1348.07	24.1
1351.67	54.704
1355.27	78.602
1358.87	36.942
1362.46	83.613
1366.06	154.957
1369.65	106.263
1373.24	52.826
1376.83	101.231
1380.42	70.735
1384	112.249
1387.59	176.915
1391.17	130.957
1394.75	206.669
1398.33	131.56
1401.91	118.017
1405.49	156.788
1409.06	182.135
1412.64	209.478
1416.21	182.67
1419.78	136.4
1423.35	117.859
1426.91	128.988
1430.48	85.562
1434.05	156.647
1437.61	217.032
1441.17	185.096
1444.73	178.779
1448.29	241.749
1451.84	251.552
1455.4	377.817
1458.95	271.097
1462.5	192.494
1466.05	302.246
1469.6	238.989
1473.15	84.223
1476.69	203.783
1480.24	235.277
1483.78	258.005
1487.32	145.387
1490.86	192.992
1494.39	273.866
1497.93	75.491
1501.46	129.17
1505	208.075
1508.53	84.491
1512.06	177.344
1515.59	46.367
1519.11	155.86
1522.64	124.092
1526.16	1.058
