Measurement: Raman, 514 nm, ccw, Raman Data Processed
Mineral: Heulandite-Ca
Rruff sample: R060465
Ideal chemistry: NaCa_4_(Si_27_Al_9_)O_72_24H_2_O
Locality: Garrawilla, near Gunnadah, New South Wales, Australia
Source: Michael Scott
Description: Orange fan of platy crystals
Measured chemistry: (Ca_0.66_Na_0.24_K_0.10_)_5_(Si_0.77_Al_0.23_)_36_O_72_Â·24H_2_O
Pin_id: M01887
Orientation: Laser parallel to b* (0 1 0). Fiducial mark perpendicular to laser is parallel to -c [0 0 -1]
Raman shift (cm-1)	intensity
82.003	0
86.961	32.7422
91.916	765.222
96.869	2346.82
101.819	4144.34
106.766	6085.36
111.711	6862.61
116.653	7769.02
121.592	8141.26
126.529	8604.42
131.464	9238.03
136.395	10050.2
141.324	10177.8
146.251	9662.5
151.175	8015.07
156.096	6850.07
161.015	5599.23
165.931	4987.76
170.844	4225.32
175.755	3802.03
180.663	3261.38
185.569	2723.75
190.472	2662.49
195.373	2558.15
200.27	2488.59
205.166	2036.97
210.058	1880.12
214.948	1649.74
219.836	1562.59
224.721	1547.42
229.603	1709.51
234.482	1597.06
239.359	1943.35
244.234	1896.07
249.106	1984.51
253.975	1686.52
258.841	1568.94
263.705	1155.96
268.567	839.659
273.425	540.082
278.281	395.647
283.135	223.8
287.986	70.2373
292.834	130.599
297.68	233.246
302.523	107.728
307.363	171.177
312.201	171.64
317.037	203.557
321.869	20.9658
326.699	54.793
331.527	0.169922
336.351	36.6445
341.174	369.171
345.993	569.102
350.81	900.695
355.625	1187.21
360.436	1531.73
365.245	2145.17
370.052	2838.19
374.856	3445.78
379.657	4324.82
384.456	5463.11
389.252	7120.21
394.045	8853.11
398.836	10602.3
403.625	11418.6
408.41	10255.2
413.193	8175.28
417.974	6104.2
422.751	4390.9
427.527	3092.63
432.299	2060.66
437.069	1191.67
441.836	932.235
446.601	926.987
451.363	1095.76
456.123	1570.73
460.88	2452.54
465.634	3355.57
470.386	3929.83
475.135	4964.14
479.881	6228.33
484.625	6124.89
489.366	4679.77
494.105	2726.91
498.84	1444.28
503.574	711.814
508.305	484.463
513.033	162.155
517.758	193.992
522.481	219.048
527.201	64.3965
531.919	42.4277
536.634	45.9355
541.346	26.2227
546.056	184.85
550.763	191.118
555.468	16.5557
560.17	33.1875
564.869	26.7109
569.566	77.3711
574.26	179.761
578.952	264.924
583.641	520.91
588.327	516.343
593.011	795.361
597.692	1054.05
602.37	1500.2
607.046	1942.65
611.719	2043.43
616.39	2129.44
621.058	1807.61
625.723	1243.76
630.386	1053.93
635.046	879.261
639.703	858.099
644.358	700.572
649.01	586.105
653.66	507.885
658.307	477.925
662.951	386.456
667.593	345.128
672.232	216.516
676.869	238.172
681.503	139.936
686.134	257.981
690.763	90.7061
695.389	213.029
700.013	154.477
704.633	167.779
709.252	243.166
713.867	149.454
718.48	307.694
723.091	286.892
727.698	310.141
732.304	225.734
736.906	236.67
741.506	343.005
746.103	382.606
750.698	418.938
755.29	551.218
759.88	546.824
764.467	816.445
769.051	882.849
773.632	1068.28
778.211	1198.74
782.788	1304.17
787.362	1241.02
791.933	1076.52
796.501	1107.71
801.067	909.419
805.631	941.828
810.191	881.437
814.749	1096.13
819.305	1160.34
823.858	911.309
828.408	674.762
832.956	405.252
837.501	348.004
842.043	203.912
846.583	393.723
851.12	313.554
855.654	406.206
860.186	467.565
864.716	391.606
869.242	290.114
873.766	133.481
878.288	102.733
882.807	61.749
887.323	60.3682
891.837	120.749
896.348	69.8574
900.856	149.747
905.362	53.4609
909.865	129.983
914.366	181.356
918.864	47.5615
923.359	36.5615
927.852	104.424
932.342	105.154
936.829	177.833
941.314	6.43652
945.796	3.94922
950.276	22.7793
954.753	75.3975
959.228	97.1904
963.699	228.93
968.169	74.0107
972.635	50.25
977.099	52.3066
981.56	21.7002
986.019	129.961
990.475	205.113
994.929	32.1533
999.38	501.078
1003.83	474.893
1008.27	189.605
1012.72	406.107
1017.16	530.356
1021.6	612.484
1026.03	410.315
1030.46	333.533
1034.89	415.535
1039.32	648.929
1043.74	623.557
1048.17	637.607
1052.59	502.805
1057	520.246
1061.42	477.807
1065.83	554.65
1070.24	651.441
1074.65	757.073
1079.05	840.483
1083.45	955.938
1087.85	1023.07
1092.25	1101.44
1096.64	1134.9
1101.03	1234.33
1105.42	1205.65
1109.8	1222.2
1114.19	1283.76
1118.57	1235.22
1122.95	1260.87
1127.32	1168.64
1131.69	1222.51
1136.06	1029.42
1140.43	1198.37
1144.8	1097.38
1149.16	1102.45
1153.52	1064.67
1157.87	1067.03
1162.23	1059.49
1166.58	1006.04
1170.93	828.678
1175.28	754.401
1179.62	737.208
1183.96	542.129
1188.3	426.164
1192.64	188.817
1196.97	174.547
1201.3	92.8945
1205.63	38.6152
1209.95	51.1074
1214.28	66.2695
1218.6	91.8301
1222.92	41.498
1227.23	35.1367
1231.55	79.1103
1235.86	31.71
1240.16	80.71
1244.47	184.802
1248.77	135.099
1253.07	151.56
1257.37	40.4111
1261.66	158.436
1265.95	396.604
1270.24	515.939
1274.53	264.433
1278.81	303.08
1283.09	252.953
1287.37	312.904
1291.65	595.985
1295.92	472.187
1300.19	353.504
1304.46	503.932
1308.73	610.461
1312.99	692.096
1317.25	701.838
1321.51	684.709
1325.77	611.709
1330.02	547.845
1334.27	410.141
1338.52	422.993
1342.76	453.093
1347	382.124
1351.24	358.115
1355.48	142.954
1359.72	244.725
1363.95	347.739
1368.18	133.644
1372.4	358.504
1376.63	237.048
1380.85	453.248
1385.07	292.736
1389.29	224.307
1393.5	160.395
1397.71	151.401
1401.92	118.832
1406.13	259.274
1410.33	167.096
1414.53	197.244
1418.73	117.277
1422.92	197.049
1427.12	174.397
1431.31	165.476
1435.5	495.377
1439.68	952.382
1443.87	1100.26
1448.05	1364.32
1452.22	1425.67
1456.4	1282.59
1460.57	1082.27
1464.74	841.644
1468.91	577.567
1473.07	392.562
1477.23	550.116
1481.39	347.833
1485.55	69.6865
1489.7	24.2705
1493.86	38.4531
1498.01	29.8643
1502.15	15.5625
1506.3	51.7461
1510.44	77.9033
1514.58	154.069
1518.71	21.4639
1522.85	59.4824
1526.98	277.187
1531.11	265.243
1535.23	118.542
1539.35	154.128
1543.47	307.412
1547.59	137.334
1551.71	392.606
1555.82	78.2148
1559.93	152.474
