Measurement: Raman, 514 nm, ccw, Raman Data Processed
Mineral: Heulandite-Ca
Rruff sample: R050017
Ideal chemistry: NaCa_4_(Si_27_Al_9_)O_72_24H_2_O
Locality: Poona, Maharashtra State, India
Source: Eugene Schlepp
Description: Single crystals
Measured chemistry: (Ca_.70_Na_.22_K_.02_[box]_0.06_)_5_(Si_0.77_Al_0.23_)_36_O_72_Â·24H_2_O
Pin_id: L00164
Orientation: Laser parallel to (1 0 1). Fiducial mark perpendicular to laser is parallel to b [0 1 0]
Raman shift (cm-1)	intensity
82.592	0
86.78	959.338
90.966	2377.94
95.15	3447.23
99.332	4977.28
103.512	5214.5
107.69	4598.28
111.866	4342.27
116.04	4254.99
120.212	3153.89
124.382	2592.57
128.55	2304.68
132.716	2083.81
136.88	1830.64
141.042	2397.53
145.202	3100.72
149.36	3561.79
153.516	4261.36
157.67	5345.23
161.822	5181.61
165.972	3801.16
170.121	3024.26
174.267	2460.95
178.411	1804.56
182.553	1791.06
186.693	2519.36
190.831	2998.12
194.967	3596.21
199.101	3587.47
203.233	3304.92
207.363	2345.85
211.492	1219.88
215.618	860.946
219.742	229.908
223.864	254.065
227.985	511.793
232.103	378.325
236.219	440.505
240.334	388.014
244.446	161.59
248.556	196.678
252.665	407.141
256.771	518.297
260.876	793.435
264.978	1248.17
269.079	1334.24
273.178	1517.11
277.275	1828.78
281.369	1998.67
285.462	1811.97
289.553	1748.46
293.642	1990.86
297.729	2022.66
301.814	1662.38
305.897	1512.41
309.978	1753.05
314.057	1700.33
318.134	1656.04
322.21	1685.45
326.283	2200.01
330.354	2414.22
334.424	2422.94
338.491	2490.84
342.557	2939.05
346.621	3097.72
350.682	3108.89
354.742	3627.4
358.8	4361.7
362.856	4915.89
366.91	5340.21
370.962	6034.38
375.012	7095.04
379.061	7854.36
383.107	8390.47
387.151	9451.23
391.194	11171.3
395.235	12958.5
399.273	14000.6
403.31	15255.2
407.345	15417.9
411.378	14186.1
415.409	11699.7
419.438	9446.22
423.465	7637
427.49	5928.36
431.514	4289.56
435.535	3122.01
439.555	2622.26
443.573	2311.12
447.588	2044.79
451.602	1910.38
455.614	2308.9
459.624	3318.5
463.633	4023.54
467.639	4515.38
471.643	5165.63
475.646	6803.66
479.647	9061.11
483.645	10599.6
487.642	10380.8
491.637	8373.09
495.63	5636.31
499.622	3277.07
503.611	1828.75
507.598	1263.38
511.584	840.252
515.568	618.553
519.549	358.097
523.529	190.659
527.508	230.361
531.484	141.722
535.458	56.777
539.431	15.499
543.401	24.068
547.37	46.518
551.337	35.531
555.302	183.815
559.265	175.696
563.226	24.42
567.186	32.464
571.143	34.571
575.099	22.133
579.053	68.366
583.005	244.572
586.955	430.883
590.903	456.426
594.85	751.723
598.794	1037.3
602.737	1532.62
606.678	1708.73
610.617	1735.59
614.554	1622.24
618.49	1464.66
622.423	1305.87
626.355	922.913
630.285	453.788
634.213	376.519
638.139	339.116
642.063	338.55
645.986	252.774
649.907	125.759
653.825	163.477
657.743	115.99
661.658	102.118
665.571	53.094
669.483	35.81
673.392	21.017
677.3	52.396
681.206	21.791
685.111	41.344
689.013	35.115
692.914	61.657
696.812	80.973
700.709	125.222
704.604	65.253
708.498	43.915
712.389	101.554
716.279	55.737
720.167	156.055
724.053	47.631
727.937	50.43
731.82	7.984
735.701	128.62
739.579	138.001
743.456	101.385
747.332	104.671
751.205	258.497
755.077	329.02
758.947	484.448
762.815	484.781
766.681	493.453
770.546	521.075
774.408	610.151
778.269	648.675
782.128	668.271
785.986	575.082
789.841	838.384
793.695	426.2
797.547	451.123
801.397	398.292
805.246	340.65
809.092	197.29
812.937	231.809
816.78	304.439
820.621	194.58
824.461	189.726
828.299	55.368
832.134	60.306
835.969	20.049
839.801	46.901
843.632	32.899
847.461	71.428
851.288	9.403
855.113	23.967
858.937	127.45
862.758	110.451
866.578	121.092
870.397	57.95
874.213	69.882
878.028	41.709
881.841	55.873
885.652	15.805
889.462	4.617
893.269	46.359
897.075	33.26
900.88	45.126
904.682	63.593
908.483	5.686
912.282	88.342
916.079	6.597
919.875	36.527
923.668	30.025
927.46	68.135
931.251	99.014
935.039	67.584
938.826	19.875
942.611	39.084
946.394	62.658
950.176	92.19
953.955	156.532
957.734	90.687
961.51	169.599
965.285	71.459
969.057	104.191
972.829	223.763
976.598	259.404
980.366	383.642
984.132	472.774
987.896	441.325
991.658	480.065
995.419	550.872
999.178	700.906
1002.94	863.402
1006.69	771.482
1010.45	772.237
1014.2	785.2
1017.95	893.491
1021.7	892.801
1025.44	909.37
1029.19	925.143
1032.93	842.185
1036.67	810.616
1040.41	805.36
1044.15	793.939
1047.89	872.611
1051.62	925.01
1055.36	845.039
1059.09	809.266
1062.82	789.799
1066.55	823.505
1070.28	920.896
1074	1005.8
1077.72	1161.13
1081.44	1424.21
1085.16	1434.7
1088.88	1482.56
1092.6	1678.1
1096.31	1770.41
1100.03	1944.27
1103.74	2247.09
1107.45	2173.92
1111.16	2046.02
1114.86	1997.38
1118.57	1982.46
1122.27	2221.64
1125.97	2031.77
1129.67	2223.15
1133.37	2240.14
1137.06	2350.59
1140.76	2148.7
1144.45	1880.68
1148.14	1941.17
1151.83	1944.07
1155.52	1935.49
1159.21	1883.37
1162.89	1884.33
1166.57	1603.38
1170.25	1459.39
1173.93	1292.59
1177.61	1107.16
1181.29	1104.82
1184.96	1075.81
1188.63	869.718
1192.31	789.355
1195.98	532.772
1199.64	489.969
1203.31	349.677
1206.97	265.353
1210.64	166.546
1214.3	240.516
1217.96	261.926
1221.62	104.063
1225.27	45.868
1228.93	32.848
1232.58	106.322
1236.23	89.377
1239.88	93.433
1243.53	147.78
1247.17	207.024
1250.82	146.09
1254.46	106.496
1258.1	38.113
1261.74	117.491
1265.38	31.689
1269.02	88.891
1272.65	115.935
1276.29	174.938
1279.92	133.828
1283.55	60.409
1287.17	13.068
1290.8	90.406
1294.43	0.3
1298.05	53.981
1301.67	40.52
1305.29	14.17
1308.91	60.688
1312.53	70.419
1316.14	52.032
1319.76	109.499
1323.37	25.343
1326.98	3.881
1330.59	38.209
1334.19	60.533
1337.8	51.864
1341.4	64.011
1345.01	117.936
1348.61	61.657
1352.21	90.169
1355.8	32.475
1359.4	56.03
1362.99	18.919
1366.59	32.024
1370.18	81.079
1373.77	91.344
1377.36	84.484
1380.94	137.246
1384.53	195.377
1388.11	204.188
1391.69	83.788
1395.27	73.537
1398.85	3.08
1402.42	45.192
1406	50.817
1409.57	49.059
1413.14	149.827
1416.71	178.934
1420.28	213.55
1423.85	174.537
1427.42	172.92
1430.98	145.451
1434.54	215.025
1438.1	205.749
1441.66	315.625
1445.22	342.341
1448.78	405.177
1452.33	390.583
1455.88	489.566
1459.43	476.52
1462.98	527.403
1466.53	378.374
1470.08	298.734
1473.62	217.121
1477.16	122.488
1480.71	143.734
1484.25	68.875
1487.79	85.602
1491.32	72.726
1494.86	109.185
1498.39	142.372
1501.92	185.036
1505.45	215.465
1508.98	212.939
1512.51	165.969
1516.04	121.359
1519.56	185.052
