Measurement: Raman, 514 nm, ccw, Raman Data Processed
Mineral: Heulandite-Ca
Rruff sample: R050017
Ideal chemistry: NaCa_4_(Si_27_Al_9_)O_72_24H_2_O
Locality: Poona, Maharashtra State, India
Source: Eugene Schlepp
Description: Single crystals
Measured chemistry: (Ca_.70_Na_.22_K_.02_[box]_0.06_)_5_(Si_0.77_Al_0.23_)_36_O_72_Â·24H_2_O
Pin_id: L00517
Orientation: Laser parallel to c* (0 0 1). Fiducial mark perpendicular to laser is parallel to -a [-1 0 0]
Raman shift (cm-1)	intensity
194.52	0
198.652	574.168
202.782	26.207
206.909	22.381
211.035	204.676
215.159	485.75
219.281	841.969
223.4	1079.23
227.518	1317.27
231.634	1923.99
235.748	2390.71
239.86	3211.73
243.97	4379
248.079	5203.73
252.185	4924.96
256.289	4500.16
260.391	3982.57
264.492	3137.57
268.59	2184.24
272.687	1965.55
276.781	1344.64
280.874	798.035
284.964	98.012
289.053	93.279
293.14	102.42
297.225	105.963
301.308	239.652
305.389	14.643
309.468	133.141
313.545	247.062
317.62	363.566
321.693	765.035
325.765	1193.02
329.834	1323.3
333.902	1847.68
337.967	2303.43
342.031	2955.45
346.093	3437.16
350.153	4694.64
354.21	5570.21
358.267	6747.69
362.321	7991.98
366.373	9695.53
370.423	11406
374.471	13838.8
378.518	15734.7
382.563	19092.7
386.605	23266.8
390.646	27074.3
394.685	32373.8
398.722	37244.2
402.757	39039.8
406.79	37775.7
410.821	33134.9
414.851	26960
418.878	21733.2
422.904	17159.1
426.927	13493.7
430.949	9856.16
434.969	7824.34
438.987	6218.28
443.003	5334.62
447.018	4761.75
451.03	4711.41
455.041	5375.3
459.049	6707.28
463.056	8596.52
467.061	10110.7
471.064	10875.1
475.065	13471
479.064	17693.3
483.062	21609.8
487.057	21714
491.051	16834.8
495.043	11105.8
499.032	7054.51
503.02	4047.96
507.007	2922.11
510.991	2373.37
514.973	1398
518.954	995.078
522.933	1059.59
526.91	905.195
530.885	690.828
534.858	338.5
538.829	416.312
542.799	276.025
546.766	257.982
550.732	226.92
554.696	19.254
558.658	12.912
562.618	267.764
566.576	214.283
570.533	112.373
574.488	13.051
578.44	507.695
582.391	890.74
586.341	935.848
590.288	1297.59
594.233	1980.91
598.177	2941.8
602.119	3653.27
606.059	4768.53
609.997	4933.84
613.933	5147.29
617.868	4735.03
621.801	4742.06
625.731	3664.58
629.66	2557.41
633.588	2072.12
637.513	1367.66
641.437	1425.69
645.358	1540.86
649.278	1216.31
653.196	1172.33
657.113	819.939
661.027	269.098
664.94	211.16
668.851	56.221
672.76	124.928
676.667	251.207
680.572	5.34
684.476	145.766
688.378	50.461
692.278	124.77
696.176	445.752
700.072	345.861
703.967	467.305
707.86	93.947
711.751	499.846
715.64	109.207
719.527	410.215
723.413	225.766
727.297	41.912
731.179	392.213
735.059	447.924
738.937	393.28
742.814	139.492
746.689	195.191
750.562	394.033
754.433	423.114
758.303	689.404
762.17	252.839
766.036	488.948
769.901	186.224
773.763	277.699
777.624	295.844
781.482	611.996
785.339	494.937
789.195	401.639
793.048	448.93
796.9	266.023
800.75	206.065
804.598	531.032
808.445	450.383
812.289	812.545
816.132	633.919
819.973	245.598
823.813	487.815
827.65	513.057
831.486	283.211
835.32	481.252
839.152	853.154
842.983	805.908
846.812	650.987
850.639	430.677
854.464	849.077
858.288	458.248
862.11	708.11
865.93	399.841
869.748	196
873.564	180.605
877.379	376.527
881.192	191.846
885.004	328.771
888.813	252.391
892.621	172.59
896.427	79.033
900.232	136.91
904.034	22.588
907.835	475.988
911.634	289.102
915.432	18.113
919.227	79.879
923.021	57.414
926.813	60.77
930.604	293.885
934.393	436.561
938.18	32.738
941.965	20.629
945.749	220.088
949.53	345.24
953.311	262.377
957.089	43.986
960.866	11.477
964.641	57.312
968.414	63.748
972.185	65.199
975.955	180.123
979.723	201.412
983.49	70.713
987.254	487.926
991.017	819.264
994.779	1213.68
998.538	1337.76
1002.3	1101.93
1006.05	1224.82
1009.81	1359.06
1013.56	1413.15
1017.31	1430.18
1021.06	1738.24
1024.81	1593.22
1028.55	2342.12
1032.3	2132.94
1036.04	2115.58
1039.78	2268.39
1043.52	2042.22
1047.26	1944.83
1050.99	2365.65
1054.73	2099.45
1058.46	2089.44
1062.19	2139.66
1065.92	1844.6
1069.65	1626.81
1073.37	1951.9
1077.1	2190.91
1080.82	2852.83
1084.54	2733.53
1088.26	2696.16
1091.97	2484.09
1095.69	2632.79
1099.4	3331.38
1103.12	2914.51
1106.83	3502.56
1110.54	3103.28
1114.24	3254.35
1117.95	3209.06
1121.65	3369.04
1125.35	3107.74
1129.06	3187.61
1132.75	3046.55
1136.45	2958.93
1140.15	3029.72
1143.84	2811.76
1147.53	2716.66
1151.22	2577.36
1154.91	2415.16
1158.6	2388.22
1162.28	2474.4
1165.97	2006.18
1169.65	2446.23
1173.33	1681.98
1177.01	1660.05
1180.69	1558.94
1184.36	1361.96
1188.04	1164.36
1191.71	848.242
1195.38	651.492
1199.05	1018.97
1202.71	541.062
1206.38	336.551
1210.04	106.965
1213.71	18.664
1217.37	602.059
1221.03	78.922
1224.68	232.242
1228.34	427.992
1231.99	25
1235.65	104.207
1239.3	196.086
1242.95	48.688
1246.59	399.973
1250.24	321.211
1253.88	379.566
1257.53	315.262
1261.17	209.852
1264.81	274.676
1268.45	258.098
1272.08	181.465
1275.72	657.406
1279.35	590.457
1282.98	489.547
1286.61	557.641
1290.24	200.582
1293.87	366.031
1297.49	497.789
1301.11	356.289
1304.73	391.523
1308.36	340.48
1311.97	558.148
1315.59	530.309
1319.2	889.375
1322.82	1184.62
1326.43	1153
1330.04	822.766
1333.65	470.367
1337.26	288.664
1340.86	70.969
1344.47	348.164
1348.07	68.73
1351.67	547.859
1355.27	11.996
1358.87	531.727
1362.46	1035.84
1366.06	406.418
1369.65	411.352
1373.24	243.281
1376.83	528.855
1380.42	438.434
1384	466.422
1387.59	798.57
1391.17	582.859
1394.75	169.461
1398.33	642.043
1401.91	588.082
1405.49	848.562
1409.06	732.184
1412.64	495.383
1416.21	348.191
1419.78	157.527
1423.35	412.715
1426.91	0
