Measurement: Raman, 514 nm, ccw, Raman Data Processed
Mineral: Heulandite-Ca
Rruff sample: R050017
Ideal chemistry: NaCa_4_(Si_27_Al_9_)O_72_24H_2_O
Locality: Poona, Maharashtra State, India
Source: Eugene Schlepp
Description: Single crystals
Measured chemistry: (Ca_.70_Na_.22_K_.02_[box]_0.06_)_5_(Si_0.77_Al_0.23_)_36_O_72_Â·24H_2_O
Pin_id: L00175
Orientation: Laser parallel to -b* (0 -1 0). Fiducial mark perpendicular to laser is parallel to c [0 0 1]
Raman shift (cm-1)	intensity
92.926	0
97.121	39.551
101.314	689.945
105.505	1706.11
109.694	2112.19
113.881	3522.96
118.066	4449.5
122.249	4758.02
126.43	5807.11
130.608	6662.24
134.785	6898.41
138.959	6641.95
143.131	6620.65
147.301	5796.22
151.469	4929.55
155.635	4359.33
159.799	3977.96
163.961	3414.92
168.121	2400
172.278	2219.78
176.434	1853.41
180.587	1143.23
184.739	946.229
188.888	820.842
193.035	766.979
197.18	767.645
201.324	384.281
205.465	226.457
209.603	70.289
213.74	278.088
217.875	125.996
222.008	146.162
226.139	112.785
230.267	78.602
234.394	37.139
238.518	47.08
242.641	54.811
246.761	243.83
250.879	469.621
254.996	212.883
259.11	154.557
263.222	180.744
267.332	90.346
271.44	70.591
275.546	36.854
279.65	122.112
283.752	104.846
287.852	85.296
291.95	38.8
296.046	125.912
300.14	136.838
304.231	81.299
308.321	139.058
312.409	149.524
316.495	34.169
320.578	379.497
324.66	241.029
328.739	222.849
332.817	311.26
336.892	416.843
340.966	610.041
345.037	630.882
349.107	919.242
353.174	915.21
357.24	1179.97
361.303	1409.36
365.365	1562.36
369.424	1900.42
373.481	2362.39
377.537	2612.72
381.59	2839.06
385.642	3143.01
389.691	3740.38
393.738	4362.9
397.784	5106.71
401.827	6080.41
405.868	6791.92
409.908	6802.67
413.945	6043.55
417.98	5044.02
422.014	3958.85
426.045	3253.37
430.075	2566.99
434.102	1861.19
438.127	1625.61
442.151	1500.21
446.172	1249.51
450.192	1121.98
454.209	1348.63
458.225	1304.42
462.238	1528.78
466.25	1807.47
470.259	2192.9
474.267	2460.69
478.273	2841.6
482.276	3619.11
486.278	3890
490.278	3538.88
494.276	2760.67
498.271	1753.17
502.265	1207.35
506.257	941.231
510.247	749.968
514.235	547.623
518.221	482.518
522.205	465.314
526.187	327.055
530.167	511.793
534.145	464.866
538.122	262.437
542.096	469.164
546.068	537.89
550.039	233.555
554.007	199.448
557.973	347.628
561.938	606.219
565.901	523.026
569.861	362.246
573.82	244.43
577.777	515.371
581.732	435.937
585.685	348.945
589.636	279.128
593.585	177.634
597.532	346.122
601.477	463.902
605.42	561.407
609.361	728.881
613.301	876.435
617.238	974.109
621.174	662.12
625.108	650.189
629.039	388.248
632.969	266.527
636.897	184.742
640.823	222.695
644.747	29.604
648.669	107.854
652.589	505.064
656.508	152.037
660.424	68.791
664.339	84.67
668.251	28.406
672.162	6.875
676.071	0.215
679.978	22.785
683.883	25.066
687.786	74.061
691.687	26.623
695.586	136.404
699.484	117.535
703.379	160.268
707.273	60.396
711.165	60.861
715.055	308.297
718.943	317.869
722.829	92.863
726.713	174.725
730.595	244.076
734.476	327.041
738.354	209.547
742.231	145.541
746.106	341.924
749.978	347.693
753.849	339.559
757.719	398.859
761.586	346.504
765.451	294.057
769.315	593.703
773.177	751.203
777.036	752.418
780.894	628.184
784.75	585.438
788.605	609.906
792.457	572.891
796.307	645.738
800.156	736.002
804.003	456.666
807.848	418.877
811.691	359.473
815.532	528.451
819.371	928.092
823.209	666.781
827.045	595.783
830.878	448.541
834.71	264.537
838.54	371.137
842.369	311.02
846.195	267.076
850.02	94.82
853.842	157.861
857.663	236.775
861.482	453.6
865.299	147.107
869.115	134.953
872.928	47.439
876.74	294.889
880.55	121.121
884.358	118.305
888.164	205.883
891.969	82.502
895.771	176.027
899.572	62.699
903.371	179.809
907.168	416.494
910.963	163.361
914.757	60.025
918.548	56.504
922.338	82.77
926.126	51.152
929.912	174.705
933.697	190.391
937.479	285.906
941.26	241.24
945.039	246.441
948.816	321.535
952.591	416.529
956.365	161.445
960.136	256.262
963.906	139.025
967.674	54.637
971.441	139.467
975.205	293.389
978.968	147.248
982.729	41.098
986.488	15.086
990.245	218.67
994	122.434
997.754	456.213
1001.51	389.387
1005.26	400.953
1009	124.143
1012.75	56.695
1016.5	330.137
1020.24	283.48
1023.98	436.555
1027.72	740.141
1031.46	533.801
1035.19	386.266
1038.93	425.521
1042.66	364.012
1046.39	540.086
1050.12	842.801
1053.85	876.664
1057.57	464.311
1061.29	465.109
1065.02	387.914
1068.74	511.08
1072.45	582.201
1076.17	628.314
1079.88	691.107
1083.6	484.99
1087.31	746.406
1091.02	709.164
1094.72	493.424
1098.43	716.922
1102.13	790.785
1105.84	564.434
1109.54	837.955
1113.24	771.527
1116.93	580.873
1120.63	674.863
1124.32	878.002
1128.01	790.789
1131.7	623.178
1135.39	364.986
1139.08	348.209
1142.76	401.412
1146.45	594.768
1150.13	776.801
1153.81	725.166
1157.48	619.756
1161.16	712.896
1164.84	366.365
1168.51	380.332
1172.18	244.881
1175.85	247.477
1179.52	309.748
1183.18	322.336
1186.85	414.732
1190.51	325.797
1194.17	12.455
1197.83	17.477
1201.48	178.205
1205.14	356.211
1208.79	310.723
1212.44	135.227
1216.09	249.834
1219.74	414.535
1223.39	279.264
1227.03	124.043
1230.68	289.227
1234.32	144.984
1237.96	50.922
1241.6	37.086
1245.23	443.404
1248.87	629.484
1252.5	425.633
1256.13	371.953
1259.76	467.947
1263.39	424.367
1267.02	370.6
1270.64	405.629
1274.26	528.816
1277.88	273.293
1281.5	288.512
1285.12	361.865
1288.74	267.189
1292.35	92.059
1295.96	49.098
1299.57	125.025
1303.18	298.596
1306.79	281.873
1310.4	436.74
1314	610.217
1317.6	233.176
1321.2	182.217
1324.8	52.535
1328.4	10.6
1331.99	362.627
1335.59	305.967
1339.18	482.523
