Measurement: Raman, 514 nm, ccw, Raman Data Processed
Mineral: Heulandite-Ca
Rruff sample: R050097
Ideal chemistry: NaCa_4_(Si_27_Al_9_)O_72_24H_2_O
Locality: Rat's Nest Claim, Custer County, Idaho, USA
Source: John Cornish
Description: Pale pink coffin-shaped tabular single crystals
Measured chemistry: (Ca_0.66_Na_0.30_K_0.04_)_5_(Si_0.77_Al_0.23_)_36_O_72_Â·24H_2_O
Pin_id: L00100
Orientation: Laser parallel to a* (1 0 0). Fiducial mark perpendicular to laser is parallel to b [0 1 0]
Raman shift (cm-1)	intensity
120.596	0
125.519	165.812
130.439	870.254
135.356	1843.96
140.271	2746.15
145.184	2765.07
150.094	2610.2
155.002	2322.06
159.908	1483.63
164.811	1381.2
169.711	1446.2
174.61	1022.01
179.505	750.164
184.399	563.518
189.29	192.779
194.178	124.168
199.064	80.0078
203.948	92.1699
208.829	172.644
213.708	151.699
218.585	28.1094
223.459	100.449
228.33	81.2754
233.199	68.4688
238.066	546.59
242.93	648.816
247.792	936.359
252.651	1002.46
257.508	1026.41
262.363	690.992
267.215	368.111
272.064	240.691
276.912	382.17
281.756	25.2012
286.598	30.5566
291.438	47.6602
296.276	22.4727
301.111	192.478
305.943	214.764
310.773	251.119
315.601	78.459
320.426	461.588
325.248	533.711
330.068	636.08
334.886	485.75
339.701	555.01
344.514	660.924
349.324	677.791
354.132	886.756
358.938	885.885
363.741	1411.34
368.541	1493.45
373.339	1811.59
378.135	2102.19
382.928	2758.92
387.718	3639.9
392.506	4481.02
397.292	5487
402.075	6303.86
406.856	6088.51
411.634	4861.31
416.41	3884.9
421.183	3071.45
425.954	1934.89
430.722	1756.73
435.488	1122.24
440.251	873.949
445.012	690.691
449.77	795.756
454.526	921.328
459.28	1201.08
464.03	1969.58
468.779	2513.73
473.525	3669.11
478.268	4786.69
483.009	5087.94
487.747	3887.01
492.483	2515.02
497.217	1166.08
501.948	773.613
506.676	348.688
511.402	413.799
516.125	198.648
520.846	120.381
525.565	140.535
530.281	72.7539
534.994	154.072
539.705	139.947
544.413	59.4082
549.119	145.916
553.822	102.742
558.523	113.598
563.222	182.223
567.917	117.811
572.611	283.744
577.302	256.172
581.99	399.004
586.676	308.697
591.359	250.123
596.04	844.984
600.718	968.742
605.394	1212.82
610.067	1517.64
614.737	1504.85
619.406	968.721
624.071	720.711
628.734	734.438
633.395	377.068
638.053	307.555
642.708	331.957
647.361	386.162
652.012	255.654
656.66	41.1152
661.305	150.816
665.948	83.3027
670.588	34.1328
675.226	137.988
679.861	135.961
684.494	23.2344
689.124	51.0625
693.752	79.3398
698.377	109.473
702.999	204.418
707.619	135.734
712.237	215.137
716.852	51.207
721.464	31.4727
726.074	158.137
730.681	259.648
735.286	312.516
739.888	348.938
744.488	390.469
749.085	433.578
753.68	521.746
758.272	153.719
762.861	418.938
767.448	859.18
772.033	942.801
776.614	775.055
781.194	919.324
785.77	836.699
790.345	890.246
794.916	813.562
799.485	414.469
804.052	722.836
808.616	592.406
813.177	517.906
817.736	683.394
822.292	605.691
826.846	329.035
831.397	197.691
835.945	230.258
840.491	181.34
845.035	118.949
849.576	168.68
854.114	291.422
858.65	108.844
863.183	113.266
867.713	235.273
872.241	65.4492
876.767	168.594
881.29	48.4219
885.81	165.965
890.328	355.527
894.843	162.734
899.356	184.613
903.866	90.0625
908.373	196.148
912.878	129.875
917.38	8.78906
921.88	48.2578
926.377	223.043
930.872	22.6953
935.364	260.641
939.853	55.9766
944.34	92.4492
948.824	227.746
953.306	168.797
957.785	292.773
962.261	87.6836
966.735	201.258
971.207	60.6211
975.675	533.402
980.141	403.113
984.605	115.625
989.066	519.152
993.524	396.863
997.98	444.566
1002.43	680.859
1006.88	318.277
1011.33	539.594
1015.78	532.777
1020.22	499.984
1024.66	553.242
1029.1	418.609
1033.53	536.477
1037.97	549.914
1042.4	501.141
1046.82	714.371
1051.25	602.934
1055.67	639.621
1060.09	318.777
1064.51	438.852
1068.92	801.75
1073.33	781.836
1077.74	792.988
1082.15	846.09
1086.55	1104.43
1090.95	841.207
1095.35	1007.09
1099.75	1014.53
1104.14	903.027
1108.53	1002.39
1112.92	896.684
1117.31	881.143
1121.69	662.545
1126.07	999.508
1130.45	1116.04
1134.82	932.023
1139.19	716.277
1143.57	784.918
1147.93	709.973
1152.3	477.992
1156.66	616.258
1161.02	396.727
1165.38	534.316
1169.73	549.379
1174.08	682.731
1178.43	302.035
1182.78	276.606
1187.12	265.137
1191.46	320.769
1195.8	162.527
1200.14	119.219
1204.47	286.894
1208.8	166.684
1213.13	319.883
1217.46	193.828
1221.78	446.922
1226.1	304.043
1230.42	99.9414
1234.73	294.898
1239.04	197.746
1243.35	25.1445
1247.66	291.141
1251.97	294.922
1256.27	77.1406
1260.57	167.359
1264.86	81.125
1269.16	202.16
1273.45	21.0859
1277.74	140.703
1282.03	109.981
1286.31	92.8008
1290.59	223.293
1294.87	449.488
1299.14	57.2461
1303.42	152.035
1307.69	213.234
1311.95	267.926
1316.22	200.418
1320.48	304.594
1324.74	306.801
1329	201.047
1333.26	462.914
1337.51	167.793
1341.76	198.578
1346	43.2578
1350.25	465.852
1354.49	222.598
1358.73	483.543
1362.96	44.7773
1367.2	384.914
1371.43	14.7656
1375.66	459.387
1379.88	299.477
1384.11	41.832
1388.33	40.2656
1392.54	183.363
1396.76	122.383
1400.97	178.133
1405.18	101.695
1409.39	382.019
1413.59	335.676
1417.8	121.363
1421.99	382.223
1426.19	325.383
1430.38	76.0195
1434.58	302.289
1438.77	534.339
1442.95	107.798
1447.13	294.674
1451.32	466.63
1455.49	115.26
1459.67	472.872
1463.84	471.721
1468.01	311.238
1472.18	214.637
1476.35	451.312
1480.51	247.238
1484.67	76.2383
1488.83	312.445
1492.98	260.719
1497.13	153.086
1501.28	365.32
1505.43	500.293
1509.57	190.719
1513.71	501.363
1517.85	193.098
1521.99	197.492
1526.12	278.109
1530.25	292.387
1534.38	123.312
1538.5	150.422
1542.62	80.2227
1546.74	133.016
1550.86	217.227
1554.98	409.445
1559.09	24.9883
1563.2	113.68
1567.31	397.481
1571.41	0
