Measurement: Raman, 514 nm, ccw, Raman Data Processed
Mineral: Heulandite-Ca
Rruff sample: R050097
Ideal chemistry: NaCa_4_(Si_27_Al_9_)O_72_24H_2_O
Locality: Rat's Nest Claim, Custer County, Idaho, USA
Source: John Cornish
Description: Pale pink coffin-shaped tabular single crystals
Measured chemistry: (Ca_0.66_Na_0.30_K_0.04_)_5_(Si_0.77_Al_0.23_)_36_O_72_Â·24H_2_O
Pin_id: L00100
Orientation: Laser parallel to a* (1 0 0). Fiducial mark perpendicular to laser is parallel to b [0 1 0]
Raman shift (cm-1)	intensity
120.596	0
125.519	77.416
130.439	114.709
135.356	373.84
140.271	1015.93
145.184	1005.7
150.094	875.734
155.002	1067.41
159.908	757.361
164.811	727.07
169.711	637.42
174.61	669.496
179.505	503.906
184.399	514.533
189.29	554.037
194.178	366.574
199.064	326.383
203.948	344.027
208.829	60.4746
213.708	55.4883
218.585	29.8555
223.459	168.83
228.33	181.141
233.199	140.223
238.066	123.123
242.93	412.871
247.792	600.65
252.651	434.143
257.508	744.394
262.363	760.781
267.215	643.223
272.064	538.822
276.912	782.701
281.756	596.811
286.598	647.641
291.438	787.545
296.276	940.859
301.111	764.703
305.943	1168.94
310.773	891.959
315.601	1302.12
320.426	1346.76
325.248	1579.5
330.068	1910.88
334.886	1931.16
339.701	2204.43
344.514	2405.51
349.324	2907.05
354.132	3267.16
358.938	3696.17
363.741	4180.51
368.541	4580.22
373.339	5286.65
378.135	5964.24
382.928	7257.91
387.718	8706.84
392.506	10442.5
397.292	12301.9
402.075	13282.9
406.856	12572.4
411.634	10621.7
416.41	8525.64
421.183	6010.93
425.954	4483.65
430.722	2941.23
435.488	2312.6
440.251	2033.73
445.012	1941.81
449.77	2054.61
454.526	2666.19
459.28	3751.61
464.03	4930.99
468.779	6162.45
473.525	7326.02
478.268	8445.7
483.009	7804.5
487.747	6095.45
492.483	3963.56
497.217	2174.23
501.948	1202.38
506.676	825.564
511.402	390.529
516.125	425.043
520.846	220.453
525.565	226.537
530.281	77.7383
534.994	32.5078
539.705	133.279
544.413	9.95312
549.119	186.09
553.822	73.3535
558.523	221.465
563.222	101.295
567.917	204.947
572.611	230.918
577.302	123.91
581.99	211.281
586.676	313.213
591.359	550.693
596.04	803.74
600.718	999.068
605.394	1487.19
610.067	1361.87
614.737	1131.45
619.406	993.99
624.071	689.699
628.734	468.397
633.395	409.137
638.053	309.027
642.708	649.791
647.361	183.324
652.012	126.606
656.66	286.592
661.305	256.109
665.948	172.307
670.588	206.871
675.226	271.986
679.861	137.494
684.494	159.748
689.124	237.381
693.752	60.8418
698.377	153.875
702.999	242.238
707.619	158.316
712.237	268.594
716.852	315.762
721.464	254.41
726.074	10.7969
730.681	58.75
735.286	50.6543
739.888	258.35
744.488	170.418
749.085	160.356
753.68	471.473
758.272	324.797
762.861	233.68
767.448	674.973
772.033	303.481
776.614	403.578
781.194	599.883
785.77	303.383
790.345	323.457
794.916	306.816
799.485	90.2227
804.052	351.117
808.616	370.898
813.177	73.5977
817.736	224.512
822.292	359.789
826.846	400.519
831.397	5.66797
835.945	217.746
840.491	62.1875
845.035	111.152
849.576	177.879
854.114	218.055
858.65	321.367
863.183	316.852
867.713	423.668
872.241	319.867
876.767	46.2188
881.29	111.172
885.81	49.6094
890.328	10.2812
894.843	149.586
899.356	77.2422
903.866	33.3906
908.373	25.7773
912.878	138.113
917.38	148.781
921.88	173.301
926.377	151.703
930.872	238.008
935.364	49.1641
939.853	275.465
944.34	364.426
948.824	238.18
953.306	385.602
957.785	48.2578
962.261	410.102
966.735	165.672
971.207	214.246
975.675	355.398
980.141	348.422
984.605	435.102
989.066	575.441
993.524	332.199
997.98	674.394
1002.43	855.719
1006.88	379.465
1011.33	384.031
1015.78	705.539
1020.22	608.707
1024.66	690.93
1029.1	822.91
1033.53	677.387
1037.97	538.926
1042.4	774.684
1046.82	742.004
1051.25	394.016
1055.67	571.344
1060.09	848.984
1064.51	702.953
1068.92	875.133
1073.33	908.793
1077.74	757.797
1082.15	975.176
1086.55	1255.46
1090.95	1194.75
1095.35	1525.4
1099.75	1110.82
1104.14	1413.91
1108.53	1569.2
1112.92	1693.42
1117.31	1492.54
1121.69	2570.23
1126.07	1980.56
1130.45	2020.05
1134.82	1728.82
1139.19	1584.23
1143.57	1434.49
1147.93	1578.64
1152.3	1542.32
1156.66	1163.43
1161.02	1278.62
1165.38	1186.79
1169.73	917.59
1174.08	801.113
1178.43	905.219
1182.78	760.676
1187.12	410.438
1191.46	241.523
1195.8	19.0586
1200.14	320.641
1204.47	265.672
1208.8	453.984
1213.13	214.586
1217.46	85.3906
1221.78	216.43
1226.1	31.2695
1230.42	341.297
1234.73	442.047
1239.04	365
1243.35	439.055
1247.66	398.07
1251.97	94.3984
1256.27	79.5547
1260.57	321.75
1264.86	155.336
1269.16	95.2773
1273.45	138.75
1277.74	36.1172
1282.03	80.0078
1286.31	58.9883
1290.59	47
1294.87	219.602
1299.14	138.562
1303.42	313.941
1307.69	38.6055
1311.95	396.422
1316.22	317.203
1320.48	224.301
1324.74	304.254
1329	98.5195
1333.26	495.82
1337.51	425.574
1341.76	263.246
1346	483.883
1350.25	380.289
1354.49	172.863
1358.73	340.223
1362.96	513.137
1367.2	252.227
1371.43	477.949
1375.66	535.543
1379.88	385.441
1384.11	219.152
1388.33	141.703
1392.54	67.8125
1396.76	74.8008
1400.97	223.488
1405.18	356.027
1409.39	233.293
1413.59	235.519
1417.8	131.531
1421.99	109.023
1426.19	77.0117
1430.38	4.27734
1434.58	329.191
1438.77	458.699
1442.95	229.602
1447.13	334.453
1451.32	147.871
1455.49	425.816
1459.67	435.66
1463.84	274.426
1468.01	361.133
1472.18	501.828
1476.35	563.527
1480.51	378.586
1484.67	175.707
1488.83	310.594
1492.98	345.391
1497.13	284.367
1501.28	135.418
1505.43	127.625
1509.57	384.363
1513.71	469.793
1517.85	358.051
1521.99	188.859
1526.12	175.281
1530.25	533.031
1534.38	486.539
1538.5	281.746
1542.62	51.5703
1546.74	434.641
1550.86	328.363
1554.98	616.887
1559.09	367.926
1563.2	296.738
1567.31	348.519
1571.41	0
