Measurement: Raman, 514 nm, ccw, Raman Data Processed
Mineral: Hubnerite
Rruff sample: R050069
Ideal chemistry: Mn^2+^WO_4_
Locality: Yaogangxian, Yizhang County, Hunan Province, China
Source: Rock Currier
Description: Black colored prismatic single crystal
Measured chemistry: (Mn_0.68_Fe_0.32_)W_1.00_O_4_
Pin_id: L00498
Orientation: Laser parallel to c* (0 0 1). Fiducial mark perpendicular to laser is parallel to a [1 0 0]
Raman shift (cm-1)	intensity
151.324	0
155.481	17.103
159.636	32.793
163.789	50.308
167.939	165.704
172.088	43.053
176.234	4.255
180.379	2.938
184.521	36.169
188.662	51.682
192.8	36.892
196.937	96.297
201.071	183.506
205.203	305.37
209.333	267.531
213.462	124.107
217.588	67.359
221.712	18.351
225.834	19.393
229.954	46.55
234.072	29.572
238.188	31.745
242.302	19.936
246.414	17.429
250.523	54.125
254.631	119.95
258.737	328.631
262.841	210.017
266.943	79.64
271.042	41.933
275.14	29.872
279.236	1.523
283.33	38.845
287.421	1.061
291.511	7.9
295.599	1.11
299.684	20.952
303.768	32.773
307.85	6.258
311.929	0.058
316.007	10.75
320.083	39.581
324.156	41.254
328.228	54.652
332.298	76.919
336.365	68.524
340.431	54.282
344.495	66.227
348.556	81.51
352.616	118.982
356.674	137.148
360.729	96.323
364.783	161.189
368.835	145.537
372.884	119.278
376.932	154.005
380.978	189.391
385.022	253.517
389.064	399.102
393.104	919.202
397.141	2752.92
401.177	2552.39
405.211	998.892
409.243	505.023
413.273	328.907
417.301	258.737
421.327	182.557
425.351	152.772
429.374	129.089
433.394	147.975
437.412	105.226
441.428	107.177
445.443	78.151
449.455	97.863
453.465	95.777
457.474	105.54
461.48	90.536
465.485	77.681
469.487	55.877
473.488	57.401
477.487	34.734
481.483	39.251
485.478	66.275
489.471	54.616
493.462	25.627
497.451	46.867
501.438	73.301
505.423	48.682
509.406	12.076
513.388	37.591
517.367	15.125
521.344	19.602
525.32	25.798
529.293	35.542
533.265	16.533
537.234	19.699
541.202	21.752
545.168	37.688
549.132	17.526
553.094	6.271
557.054	1.098
561.012	0.411
564.968	3.818
568.923	9.863
572.875	18.344
576.825	17.447
580.774	5.606
584.721	7.795
588.665	18.106
592.608	16.643
596.549	28.483
600.488	14.671
604.425	26.33
608.361	22.584
612.294	11.592
616.225	21.807
620.155	13.18
624.083	2.814
628.008	47.398
631.932	44.653
635.854	9.076
639.774	6.171
643.693	48.472
647.609	40.84
651.523	43.145
655.436	55.385
659.346	73.544
663.255	139.796
667.162	209.649
671.067	299.743
674.97	357.502
678.871	462.427
682.771	653.453
686.668	967.616
690.564	1473.91
694.458	2347.2
698.35	3239.53
702.24	2916.03
706.128	1919.58
710.014	1050.87
713.898	683.306
717.781	414.018
721.662	331.512
725.541	239.745
729.418	193.426
733.293	91.631
737.166	81.538
741.037	98.395
744.907	90.088
748.775	89.014
752.64	63.158
756.504	23.583
760.367	95.115
764.227	190.294
768.085	279.499
771.942	403.645
775.797	400.692
779.65	288.351
783.501	266.168
787.35	184.848
791.197	148.27
795.043	132.592
798.887	114.086
802.728	72.93
806.568	94.218
810.407	128.589
814.243	85.045
818.078	76.585
821.91	93.215
825.741	178.936
829.57	192.75
833.398	268.662
837.223	302.691
841.047	375.84
844.868	502.601
848.688	747.733
852.507	1079.28
856.323	1405.17
860.137	1950.46
863.95	2731.74
867.761	3995.57
871.57	6119.64
875.377	10061.1
879.183	19011.4
882.987	37802.7
886.788	43623.1
890.588	23633.6
894.387	11444.2
898.183	5842.32
901.978	3373.14
905.771	2035.08
909.562	1496.14
913.351	1190.31
917.138	888.571
920.924	710.917
924.708	575.35
928.49	452.872
932.27	365.473
936.048	368.147
939.825	284.895
943.6	227.713
947.373	185.601
951.144	194.555
954.914	123.572
958.682	102.653
962.448	129.795
966.212	122.763
969.974	94.321
973.735	62.912
977.494	29.284
981.251	45.944
985.006	31.667
988.76	59.641
992.512	15.722
996.262	8.863
1000.01	29.028
1003.76	12.907
1007.5	18.509
1011.24	2.423
1014.99	7.247
1018.72	16.348
1022.46	0.406
1026.2	3.21
1029.93	7.908
1033.66	35.897
1037.39	27.957
1041.12	36.748
1044.85	51.671
1048.58	26.223
1052.3	35.39
1056.02	38.345
1059.74	49.481
1063.46	80.554
1067.18	76.784
1070.89	23.026
1074.6	70.074
1078.32	61.019
1082.03	78.023
1085.73	53.955
1089.44	65.794
1093.14	64.7
1096.85	41.547
1100.55	47.636
1104.25	32.15
1107.94	59.931
1111.64	37.717
1115.33	43.449
1119.03	52.163
1122.72	22.854
1126.4	7.508
1130.09	4.128
1133.78	10.301
1137.46	7.821
1141.14	39.131
1144.82	11.431
1148.5	2.908
1152.18	17.153
1155.85	18.683
1159.53	5.162
1163.2	11.707
1166.87	9.782
1170.54	16.43
1174.2	18.881
1177.87	27.144
1181.53	5.277
1185.19	55.174
1188.85	27.164
1192.51	1.826
1196.16	33.042
1199.82	15.805
1203.47	51.598
1207.12	27.3
1210.77	15.543
1214.42	17.01
1218.07	47.259
1221.71	59.74
1225.35	56.987
1228.99	57.088
1232.63	48.211
1236.27	36.306
1239.91	29.225
1243.54	36.093
1247.17	38.916
1250.8	35.943
1254.43	54.674
1258.06	45.967
1261.69	51.607
1265.31	41.218
1268.93	93.657
1272.55	59.002
1276.17	55.003
1279.79	82.231
1283.4	52.275
1287.02	67.386
1290.63	52.722
1294.24	56.535
1297.85	40.569
1301.46	3.331
1305.06	6.055
1308.67	35.878
1312.27	3.209
1315.87	29.452
1319.47	2.972
1323.07	9.303
1326.66	15.008
1330.26	7.598
1333.85	21.158
1337.44	28.039
1341.03	18.2
1344.61	12.135
1348.2	10.431
1351.78	2.353
1355.37	14.186
1358.95	27.964
1362.53	24.791
1366.1	16.646
1369.68	44.565
1373.25	14.496
1376.82	8.36
1380.39	27.419
1383.96	30.029
1387.53	45.576
1391.1	52.029
1394.66	51.426
1398.22	35.769
1401.79	35.086
1405.34	50.445
1408.9	3.748
1412.46	25.428
1416.01	24.485
1419.56	10.451
1423.12	2.046
1426.66	21.283
1430.21	0.125
1433.76	26.222
1437.3	20.064
1440.85	21.482
1444.39	10.472
1447.93	2.919
1451.46	4.697
1455	1.863
1458.54	54.746
1462.07	41.568
1465.6	38.982
1469.13	45.991
1472.66	34.67
1476.18	20.33
1479.71	56.948
1483.23	5.872
1486.76	3.118
1490.28	17.446
1493.79	45.151
1497.31	32.563
1500.83	18.318
1504.34	20.099
1507.85	9.368
1511.36	28.065
1514.87	25.618
1518.38	30.725
