Measurement: Raman, 514 nm, ccw, Raman Data Processed
Mineral: Hubnerite
Rruff sample: R050139
Ideal chemistry: Mn^2+^WO_4_
Locality: Pasto Bueno District, Pallasca Province, Ancash Department, Peru
Source: Dave Bunk Minerals
Description: Black tabular crystals associated with quartz
Measured chemistry: (Mn^2+^_0.79_Fe^2+^_0.20_)W_1.00_O4
Pin_id: L00188
Orientation: Laser parallel to -c* (0 0 -1). Fiducial mark perpendicular to laser is parallel to -a [-1 0 0]
Raman shift (cm-1)	intensity
77.525	0
81.728	199.218
85.929	123.678
90.128	250.334
94.324	633.435
98.519	564.221
102.712	417.936
106.902	479.925
111.09	632.657
115.277	1081.85
119.461	1334.7
123.643	3960.92
127.823	9793.29
132.001	7474.57
136.176	2156.4
140.35	914.341
144.521	318.76
148.691	71.163
152.858	3.821
157.024	25.746
161.187	119.357
165.348	102.495
169.507	96.545
173.664	100.104
177.819	141.392
181.971	125.14
186.122	252.885
190.271	347.408
194.417	455.907
198.562	945.901
202.704	1871.95
206.844	2399.41
210.983	1574.29
215.119	661.928
219.253	304.998
223.385	59.294
227.515	62.798
231.643	65.24
235.769	59.894
239.893	81.766
244.014	125.577
248.134	28.544
252.252	104.384
256.367	266.159
260.481	405.16
264.592	448.603
268.702	483.063
272.809	519.355
276.915	603.458
281.018	565.167
285.119	631.696
289.218	688.893
293.316	740.883
297.411	900.805
301.504	993.144
305.595	1055.73
309.684	1225.54
313.771	1552.96
317.856	2097.71
321.939	3047.31
326.02	3595.21
330.099	3044.68
334.176	2249.05
338.251	1692.78
342.323	1363.85
346.394	1153.48
350.463	1010.78
354.53	980.775
358.594	1002.63
362.657	969.154
366.718	957.02
370.777	1009.48
374.833	999.172
378.888	968.841
382.941	1082.1
386.992	1301.72
391.04	1959.07
395.087	3733.73
399.132	4333.14
403.174	2488.31
407.215	1355.08
411.254	976.474
415.29	815.649
419.325	683.372
423.358	592.132
427.389	542.621
431.417	431.54
435.444	440.248
439.469	421.739
443.492	413.836
447.512	426.039
451.531	359.312
455.548	432.115
459.563	402.479
463.576	308.564
467.587	342.044
471.596	241.153
475.603	355.57
479.608	292.395
483.611	316.232
487.612	291.735
491.611	351.594
495.608	382.792
499.603	333.18
503.596	408.188
507.587	452.019
511.577	510.003
515.564	540.251
519.549	644.567
523.533	846.852
527.514	1094.88
531.493	1505.28
535.471	2113.73
539.447	2793.82
543.42	3006.41
547.392	2663.1
551.362	2051.57
555.329	1434.05
559.295	1003.56
563.259	721.469
567.221	441.832
571.181	324.584
575.139	273.278
579.095	266.673
583.049	160.495
587.002	29.661
590.952	95.344
594.9	87.112
598.847	34.188
602.792	19.211
606.734	57.771
610.675	2.627
614.614	53.432
618.55	22.422
622.485	31.318
626.418	32.69
630.349	11.815
634.279	12.14
638.206	45.425
642.131	23.446
646.055	44.943
649.976	53.537
653.896	11.842
657.814	2.846
661.729	44.421
665.643	72.914
669.555	141.5
673.465	265.195
677.373	352.002
681.28	413.92
685.184	538.98
689.087	684.156
692.987	937.447
696.886	1157.87
700.783	1091.42
704.677	846.112
708.57	519.938
712.462	327.877
716.351	165.924
720.238	119.107
724.124	49.417
728.007	8.836
731.889	9.34
735.769	62.071
739.647	36.48
743.523	41.258
747.397	7.535
751.269	38.562
755.139	43.268
759.008	78.964
762.875	94.253
766.739	220.101
770.602	348.746
774.463	419.503
778.323	366.929
782.18	380.498
786.035	294.469
789.889	337.2
793.741	310.833
797.591	229.068
801.439	330.158
805.285	302.527
809.129	279.241
812.971	334.332
816.812	399.658
820.651	449.13
824.488	495.688
828.323	659.343
832.156	717.1
835.987	814.005
839.817	1051.01
843.644	1220.07
847.47	1523.05
851.294	2077.09
855.116	2619.11
858.936	3408.96
862.755	4697.52
866.571	6600.29
870.386	9523.7
874.199	15078
878.01	25821.4
881.82	42163.6
885.627	48075.8
889.433	32804.7
893.236	17524.8
897.038	9714.59
900.838	5701.82
904.637	3699.27
908.433	2468.09
912.228	1745.98
916.021	1291.78
919.812	969.659
923.601	746.622
927.388	623.666
931.174	499.799
934.958	429.24
938.739	340.561
942.52	289.943
946.298	256.425
950.074	281.033
953.849	231.967
957.622	204.942
961.393	169.957
965.162	195.089
968.93	159.375
972.696	82.967
976.459	113.734
980.222	16.981
983.982	40.172
987.74	53.024
991.497	50.103
995.252	65.966
999.005	26.42
1002.76	26.07
1006.51	23.592
1010.25	27.909
1014	13.179
1017.74	36.541
1021.49	35.912
1025.23	28.696
1028.96	2.69
1032.7	10.769
1036.44	16.542
1040.17	8.557
1043.9	55.416
1047.63	71.572
1051.36	50.156
1055.09	39.383
1058.81	111.015
1062.54	61.514
1066.26	64.371
1069.97	115.054
1073.69	69.704
1077.41	51.459
1081.12	124.956
1084.84	92.751
1088.55	94.295
1092.25	62.63
1095.96	109.938
1099.67	48.396
1103.37	21.625
1107.07	17.813
1110.77	19.082
1114.47	28.322
1118.16	90.081
1121.86	0.171
1125.55	78.31
1129.24	2.758
1132.93	20.22
1136.62	11.611
1140.31	16.119
1143.99	24.022
1147.67	13.11
1151.35	18.853
1155.03	43.522
1158.71	56.091
1162.39	40.41
1166.06	25.831
1169.73	4.276
1173.4	18.893
1177.07	56.854
1180.74	74.649
1184.4	75.409
1188.07	14.901
1191.73	0.31
1195.39	21.457
1199.05	3.746
1202.7	51.927
1206.36	77.346
1210.01	39.935
1213.66	87.395
1217.31	45.378
1220.96	41.429
1224.6	55.355
1228.25	14.923
1231.89	46.104
1235.53	64.626
1239.17	86.929
1242.81	99.041
1246.44	115.08
1250.08	109.864
1253.71	55.005
1257.34	85.709
1260.97	1.751
1264.6	72.403
1268.22	89.744
1271.85	84.36
1275.47	87.834
1279.09	57.297
1282.71	71.625
1286.33	86.842
1289.94	30.329
1293.56	98.267
1297.17	15.383
1300.78	52.072
1304.39	77.498
1307.99	18.076
1311.6	30.306
1315.2	54.912
1318.8	41.461
1322.4	36.088
1326	40.879
1329.6	92.995
1333.19	34.833
1336.79	63.731
1340.38	60.295
1343.97	91.396
1347.56	50.729
1351.14	4.936
1354.73	1.402
1358.31	15.543
1361.89	34.528
1365.47	78.64
1369.05	53.49
1372.63	66.065
1376.2	36.344
1379.78	52.98
1383.35	73.856
1386.92	66.793
1390.49	33.68
1394.05	35.656
1397.62	87.087
1401.18	37.623
1404.74	58.162
1408.3	63.276
1411.86	60.847
1415.42	88.691
1418.97	76.577
1422.53	47.345
1426.08	74.807
1429.63	36.7
1433.18	33.444
1436.72	32.419
1440.27	43.913
1443.81	28.846
1447.36	28.103
1450.89	83.827
1454.43	4.906
1457.97	54.939
1461.51	47.734
1465.04	54.566
1468.57	9.458
1472.1	76.862
1475.63	97.561
1479.16	68.59
1482.68	76.495
1486.21	60.318
1489.73	74.92
1493.25	56.649
1496.77	2.17
1500.29	46.792
1503.8	20.081
1507.32	33.843
1510.83	91.82
1514.34	36.614
1517.85	56.466
1521.36	1.077
