Measurement: Raman, 514 nm, ccw, Raman Data Processed
Mineral: Hubnerite
Rruff sample: R050069
Ideal chemistry: Mn^2+^WO_4_
Locality: Yaogangxian, Yizhang County, Hunan Province, China
Source: Rock Currier
Description: Black colored prismatic single crystal
Measured chemistry: (Mn_0.68_Fe_0.32_)W_1.00_O_4_
Pin_id: L00322
Orientation: Laser parallel to (-1 0 -1). Fiducial mark perpendicular to laser is parallel to -b [0 -1 0]
Raman shift (cm-1)	intensity
149.938	0
154.096	22.552
158.251	123.976
162.405	83.964
166.556	12.018
170.705	70.573
174.853	28.321
178.998	100.458
183.141	202.306
187.282	243.8
191.421	251.671
195.558	356.905
199.693	435.542
203.826	410.399
207.957	361.269
212.086	270.777
216.213	215.411
220.337	197.826
224.46	226.129
228.581	216.534
232.699	143.5
236.816	150.812
240.931	107.722
245.043	133.896
249.154	91.93
253.262	140.134
257.369	103.659
261.473	170.865
265.576	168.202
269.676	99.625
273.775	12.786
277.871	0.094
281.965	72.018
286.058	10.699
290.148	32.46
294.236	37.888
298.323	40.498
302.407	30.248
306.489	92.549
310.57	77.199
314.648	189.873
318.724	532.486
322.799	827.395
326.871	1130.29
330.941	1145.85
335.01	846.721
339.076	692.562
343.14	608.213
347.203	465.163
351.263	412.071
355.321	464.452
359.378	419.974
363.432	446.952
367.484	455.039
371.535	480.665
375.583	467.535
379.63	504.411
383.674	567.223
387.717	601.781
391.757	733.993
395.796	1217.8
399.832	1691.88
403.867	1428.08
407.899	985.094
411.93	729.249
415.959	533.008
419.986	489.905
424.01	524.065
428.033	367.149
432.054	291.677
436.073	388.541
440.09	362.834
444.105	305.092
448.118	298.894
452.129	266.447
456.138	264.896
460.145	284.276
464.15	239.972
468.153	200.415
472.155	196.332
476.154	221.093
480.151	169.169
484.147	203.158
488.14	189.368
492.132	222.865
496.122	204.26
500.109	201.936
504.095	214.805
508.079	205.271
512.061	239.5
516.041	117.024
520.019	176.81
523.995	204.105
527.969	377.468
531.941	173.505
535.911	233.092
539.88	245.447
543.846	205.354
547.811	229.308
551.773	217.894
555.734	109.4
559.693	164.684
563.65	131.023
567.605	125.366
571.558	189.478
575.509	158.274
579.458	53.005
583.405	83.315
587.351	71.483
591.294	47.504
595.236	27.855
599.175	43.219
603.113	11.505
607.049	31.569
610.983	46.532
614.915	65.908
618.845	76.925
622.774	59.498
626.7	3.12
630.625	63.747
634.547	31.464
638.468	68.4
642.387	59.219
646.304	41.306
650.219	50.531
654.132	85.405
658.043	133.03
661.952	130.724
665.86	80.972
669.766	98.708
673.669	234.567
677.571	209.969
681.471	261.328
685.369	326.944
689.266	312.22
693.16	366.338
697.053	291.044
700.943	297.925
704.832	203.916
708.719	124.929
712.604	134.917
716.487	14.193
720.368	10.124
724.248	7.083
728.125	12.831
732.001	5.002
735.875	33.588
739.747	65.73
743.617	49.088
747.486	25.033
751.352	25.604
755.217	43.625
759.079	18.991
762.94	40.598
766.799	121.605
770.657	188.176
774.512	190.755
778.365	175.374
782.217	182.687
786.067	199.18
789.915	205.815
793.761	197.084
797.606	162.755
801.448	192.448
805.289	145.146
809.128	246.301
812.965	270.418
816.8	274.912
820.633	310.615
824.465	282.385
828.294	352.203
832.122	423.042
835.948	455.906
839.772	587.779
843.595	617.694
847.415	834.639
851.234	957.457
855.051	1345.44
858.866	1847.44
862.679	2552.81
866.491	3638.85
870.301	5289.76
874.109	7850.59
877.915	11547.2
881.719	15522.5
885.521	16051.9
889.322	12446.5
893.121	8211.14
896.918	5297.43
900.713	3416.33
904.506	2274.39
908.298	1623.9
912.088	1176.29
915.876	942.988
919.662	719.77
923.447	588.616
927.229	542.519
931.01	445.476
934.789	335.488
938.566	263.559
942.342	271.685
946.116	196.873
949.888	282.12
953.658	177.419
957.426	200.771
961.193	110.2
964.957	125.023
968.72	118.719
972.482	76.25
976.241	96.819
979.999	56.43
983.755	41.45
987.509	90.168
991.261	12.968
995.012	2.766
998.761	26.458
1002.51	59.269
1006.25	51.104
1010	53.708
1013.74	11.513
1017.48	46.608
1021.22	34.581
1024.95	129.584
1028.69	27.924
1032.42	6.707
1036.15	26.049
1039.88	0.383
1043.61	24.629
1047.34	45.635
1051.06	103.361
1054.78	46.35
1058.5	35.15
1062.22	12.665
1065.94	85.268
1069.65	103.025
1073.37	48.737
1077.08	147.562
1080.79	59.28
1084.5	101.998
1088.2	22.896
1091.91	45.632
1095.61	114.832
1099.31	47.213
1103.01	16.214
1106.71	2.894
1110.41	93.615
1114.1	46.359
1117.8	13.959
1121.49	31.539
1125.18	88.498
1128.86	64.277
1132.55	46.839
1136.23	55.464
1139.92	52.988
1143.6	48.586
1147.28	28.283
1150.95	49.945
1154.63	3.401
1158.3	47.209
1161.97	30.462
1165.64	24.751
1169.31	28.705
1172.98	38.184
1176.65	4.323
1180.31	1.095
1183.97	43.144
1187.63	22.806
1191.29	29.313
1194.95	31.773
1198.6	63.303
1202.26	71.96
1205.91	51.025
1209.56	6.526
1213.2	57.357
1216.85	80.701
1220.5	27.924
1224.14	112.143
1227.78	57.196
1231.42	98.129
1235.06	82.057
1238.69	100.73
1242.33	94.055
1245.96	122.949
1249.59	83.571
1253.22	101.66
1256.85	38.034
1260.48	80.107
1264.1	70.149
1267.72	50.327
1271.35	126.422
1274.97	112.358
1278.58	69.755
1282.2	46.43
1285.81	36.968
1289.43	30.035
1293.04	46.294
1296.65	70.788
1300.26	46.681
1303.86	31.571
1307.47	40.132
1311.07	37.729
1314.67	68.417
1318.27	15.03
1321.87	21.672
1325.46	55.822
1329.06	9.011
1332.65	2.02
1336.24	34.361
1339.83	13.428
1343.42	32.884
1347	12.271
1350.59	50.02
1354.17	74.494
1357.75	39.048
1361.33	42.239
1364.91	38.271
1368.49	36.311
1372.06	53.237
1375.63	71.097
1379.2	99.725
1382.78	85.326
1386.34	70.538
1389.91	48.483
1393.47	33.82
1397.04	59.727
1400.6	29.628
1404.16	120.699
1407.72	152.394
1411.27	113.252
1414.83	116.796
1418.38	77.808
1421.93	31.4
1425.48	103.486
1429.03	29.197
1432.58	38.972
1436.12	7.761
1439.66	51.694
1443.21	80.265
1446.75	75.487
1450.29	103.841
1453.82	77.578
1457.36	43.599
1460.89	70.093
1464.42	76.373
1467.95	64.61
1471.48	127.759
1475.01	60.657
1478.54	31.483
1482.06	125.971
1485.58	135.893
1489.1	51.207
1492.62	115.57
1496.14	4.07
1499.65	6.603
1503.17	29.962
1506.68	81.899
1510.19	13.11
1513.7	0.769
1517.21	41.018
1520.72	0
