Measurement: Raman, 514 nm, ccw, Raman Data Processed
Mineral: Hubnerite
Rruff sample: R050069
Ideal chemistry: Mn^2+^WO_4_
Locality: Yaogangxian, Yizhang County, Hunan Province, China
Source: Rock Currier
Description: Black colored prismatic single crystal
Measured chemistry: (Mn_0.68_Fe_0.32_)W_1.00_O_4_
Pin_id: L00498
Orientation: Laser parallel to c* (0 0 1). Fiducial mark perpendicular to laser is parallel to a [1 0 0]
Raman shift (cm-1)	intensity
149.938	0
154.096	43.425
158.251	216.774
162.405	732.196
166.556	2231.64
170.705	756.329
174.853	129.147
178.998	47.58
183.141	5.555
187.282	55.835
191.421	97.375
195.558	174.255
199.693	386.076
203.826	821.599
207.957	1241.83
212.086	602.868
216.213	257.25
220.337	109.342
224.46	69.046
228.581	58.915
232.699	37.502
236.816	26.879
240.931	5.322
245.043	9.2
249.154	18.821
253.262	45.482
257.369	119.467
261.473	104.644
265.576	50.699
269.676	62.053
273.775	75.794
277.871	41.86
281.965	3.858
286.058	17.38
290.148	68.132
294.236	160.134
298.323	113.011
302.407	104.39
306.489	91.45
310.57	116.912
314.648	239.167
318.724	460.98
322.799	896.702
326.871	1208.67
330.941	926.321
335.01	577.916
339.076	417.99
343.14	370.473
347.203	404.01
351.263	560.711
355.321	889.445
359.378	876.737
363.432	652.363
367.484	385.204
371.535	277.611
375.583	223.562
379.63	208.282
383.674	248.936
387.717	384.04
391.757	618.358
395.796	1729.9
399.832	2599.51
403.867	1067.19
407.899	461.994
411.93	254.726
415.959	145.656
419.986	118.118
424.01	66.411
428.033	97.643
432.054	38.857
436.073	59.59
440.09	55.365
444.105	44.281
448.118	1.862
452.129	21.257
456.138	43.479
460.145	53.017
464.15	15.594
468.153	19.642
472.155	6.317
476.154	31.13
480.151	10.404
484.147	1.493
488.14	6.779
492.132	8.587
496.122	6.658
500.109	24.443
504.095	45.967
508.079	55.279
512.061	59.395
516.041	85.322
520.019	88.071
523.995	156.652
527.969	269.078
531.941	399.355
535.911	622.483
539.88	1060.31
543.846	1389.18
547.811	1279.97
551.773	873.678
555.734	554.318
559.693	378.913
563.65	247.464
567.605	113
571.558	101.555
575.509	78.903
579.458	57.843
583.405	32.309
587.351	18.399
591.294	10.57
595.236	17.839
599.175	24.667
603.113	1.095
607.049	28.482
610.983	1.296
614.915	28.333
618.845	9.752
622.774	8.704
626.7	15.818
630.625	34.428
634.547	5.872
638.468	66.991
642.387	87.945
646.304	110.436
650.219	151.409
654.132	178.232
658.043	320.979
661.952	473.713
665.86	784.769
669.766	1384.92
673.669	1894.29
677.571	1767.89
681.471	1229.72
685.369	937.59
689.266	942.51
693.16	1267.49
697.053	1686.56
700.943	1598.72
704.832	1034.96
708.719	588.288
712.604	340.698
716.487	202.18
720.368	101.744
724.248	71.387
728.125	57.102
732.001	73.902
735.875	54.775
739.747	44.631
743.617	70.704
747.486	165.418
751.352	258.168
755.217	391.767
759.079	581.61
762.94	1036.92
766.799	1828.94
770.657	3070.32
774.512	3620.36
778.365	2939.4
782.217	1941.66
786.067	1381.93
789.915	993.227
793.761	810.776
797.606	526.452
801.448	344.275
805.289	192.235
809.128	116.32
812.965	119.531
816.8	95.86
820.633	84.303
824.465	65.858
828.294	133.522
832.122	166.301
835.948	207.256
839.772	292.256
843.595	352.276
847.415	484.281
851.234	748.293
855.051	1167.85
858.866	1555.79
862.679	2189.2
866.491	2977.2
870.301	4376.99
874.109	7285.16
877.915	13619
881.719	28202.4
885.521	42814.6
889.322	26456.9
893.121	11969.3
896.918	6055.83
900.713	3550.43
904.506	2257.14
908.298	1477
912.088	942.093
915.876	725.188
919.662	580.295
923.447	477.496
927.229	424.78
931.01	277.143
934.789	220.584
938.566	180.084
942.342	172.697
946.116	139.311
949.888	152.042
953.658	123.76
957.426	101.524
961.193	84.333
964.957	16.251
968.72	67.312
972.482	62.509
976.241	53.474
979.999	58.263
983.755	8.435
987.509	6.223
991.261	12.172
995.012	3.325
998.761	10.023
1002.51	14.949
1006.25	8.955
1010	17.223
1013.74	15.027
1017.48	3.746
1021.22	3.22
1024.95	14.228
1028.69	9.002
1032.42	10.068
1036.15	19.737
1039.88	17.625
1043.61	38.344
1047.34	21.23
1051.06	59.158
1054.78	8.601
1058.5	4.327
1062.22	17.25
1065.94	71.345
1069.65	66.355
1073.37	74.301
1077.08	60.742
1080.79	51.311
1084.5	65.202
1088.2	57.669
1091.91	51.055
1095.61	65.78
1099.31	55.172
1103.01	64.448
1106.71	25.712
1110.41	20.877
1114.1	33.1
1117.8	22.244
1121.49	50.356
1125.18	20.335
1128.86	22.238
1132.55	20.063
1136.23	2.771
1139.92	17.941
1143.6	23.111
1147.28	33.532
1150.95	22.006
1154.63	31.898
1158.3	15.508
1161.97	5.409
1165.64	30.999
1169.31	12.378
1172.98	25.712
1176.65	22.981
1180.31	9.666
1183.97	20.866
1187.63	27.155
1191.29	20.809
1194.95	17.451
1198.6	1.248
1202.26	36.147
1205.91	26.348
1209.56	28.647
1213.2	40.047
1216.85	59.396
1220.5	26.498
1224.14	34.42
1227.78	6.245
1231.42	48.998
1235.06	59.659
1238.69	35.239
1242.33	63.785
1245.96	76.298
1249.59	55.794
1253.22	67.204
1256.85	31.792
1260.48	40.006
1264.1	57.077
1267.72	69.084
1271.35	58.027
1274.97	54.741
1278.58	60.075
1282.2	88.228
1285.81	43.055
1289.43	21.441
1293.04	459.685
1296.65	42.118
1300.26	49.711
1303.86	8.386
1307.47	19.695
1311.07	2.791
1314.67	58.01
1318.27	25.007
1321.87	25.243
1325.46	25.01
1329.06	20.62
1332.65	47.284
1336.24	52.218
1339.83	39.034
1343.42	18.298
1347	41.906
1350.59	28.538
1354.17	8.965
1357.75	19.164
1361.33	27.345
1364.91	48.815
1368.49	42.043
1372.06	35.02
1375.63	44.634
1379.2	65.857
1382.78	41.317
1386.34	54.347
1389.91	21.355
1393.47	43.134
1397.04	5.897
1400.6	51.725
1404.16	64.513
1407.72	61.137
1411.27	59.417
1414.83	31.119
1418.38	28.708
1421.93	7.1
1425.48	26.61
1429.03	58.535
1432.58	48.594
1436.12	36.174
1439.66	20.604
1443.21	17.012
1446.75	42.108
1450.29	38.287
1453.82	22.227
1457.36	32.756
1460.89	26.668
1464.42	3.978
1467.95	11.095
1471.48	31.065
1475.01	30.271
1478.54	4.256
1482.06	28.574
1485.58	37.384
1489.1	13.121
1492.62	7.285
1496.14	16.034
1499.65	25.433
1503.17	10.58
1506.68	41.716
1510.19	50.2
1513.7	1.369
1517.21	56.895
1520.72	0
