Measurement: Raman, 514 nm, ccw, Raman Data Processed
Mineral: Hubnerite
Rruff sample: R050139
Ideal chemistry: Mn^2+^WO_4_
Locality: Pasto Bueno District, Pallasca Province, Ancash Department, Peru
Source: Dave Bunk Minerals
Description: Black tabular crystals associated with quartz
Measured chemistry: (Mn^2+^_0.79_Fe^2+^_0.20_)W_1.00_O4
Pin_id: L00536
Orientation: Laser parallel to -b* (0 -1 0). Fiducial mark perpendicular to laser is parallel to -c [0 0 -1]
Raman shift (cm-1)	intensity
97.121	0
101.314	245.333
105.505	34.485
109.694	406.301
113.881	745.628
118.066	383.7
122.249	799.769
126.43	2149.13
130.608	2404.6
134.785	839.145
138.959	566.083
143.131	328.644
147.301	230.794
151.469	126.719
155.635	34.111
159.799	79.876
163.961	157.771
168.121	230.958
172.278	166.977
176.434	216.714
180.587	168.873
184.739	180.376
188.888	211.459
193.035	227.54
197.18	374.031
201.324	544.97
205.465	656.114
209.603	447.668
213.74	151.904
217.875	57.667
222.008	36.263
226.139	5.176
230.267	1.545
234.394	0.285
238.518	87.765
242.641	45.53
246.761	61.566
250.879	19.794
254.996	124.77
259.11	371.318
263.222	276.246
267.332	226.543
271.44	227.351
275.546	228.877
279.65	415.286
283.752	414.402
287.852	539.946
291.95	597.826
296.046	614.987
300.14	630.127
304.231	651.791
308.321	727.73
312.409	760.326
316.495	828.678
320.578	802.924
324.66	975.711
328.739	981.893
332.817	929.018
336.892	925.106
340.966	962.963
345.037	952.217
349.107	979.547
353.174	1011.75
357.24	1029.62
361.303	1011.95
365.365	917.416
369.424	985.458
373.481	905.535
377.537	903.764
381.59	922.812
385.642	976.986
389.691	1177.07
393.738	1776.38
397.784	2250.22
401.827	1697.21
405.868	1114.75
409.908	805.75
413.945	713.27
417.98	625.527
422.014	536.47
426.045	587.86
430.075	542.715
434.102	509.343
438.127	477.754
442.151	572.869
446.172	517.43
450.192	484.797
454.209	483.041
458.225	443.507
462.238	395.657
466.25	455.274
470.259	364.822
474.267	419.809
478.273	312.171
482.276	401.251
486.278	360.062
490.278	354.844
494.276	332.837
498.271	327.948
502.265	282.783
506.257	270.608
510.247	271.491
514.235	244.691
518.221	215.477
522.205	197.958
526.187	256.02
530.167	224.76
534.145	279.839
538.122	220.843
542.096	279.199
546.068	231.69
550.039	187.633
554.007	171.631
557.973	102.736
561.938	157.974
565.901	74.414
569.861	31.977
573.82	45.629
577.777	8.708
581.732	45.02
585.685	17.021
589.636	32.368
593.585	23.501
597.532	1.663
601.477	26.845
605.42	64.33
609.361	13.884
613.301	20.515
617.238	62.885
621.174	53.296
625.108	43.572
629.039	11.152
632.969	6.355
636.897	2.473
640.823	18.959
644.747	2.323
648.669	50.484
652.589	92.208
656.508	86.578
660.424	174.764
664.339	147.642
668.251	322.027
672.162	427.392
676.071	579.586
679.978	725.835
683.883	963.097
687.786	1392.38
691.687	1946.44
695.586	2458.53
699.484	2507.06
703.379	2287.7
707.273	1538.37
711.165	831.199
715.055	692.193
718.943	474.722
722.829	217.301
726.713	233.433
730.595	645.105
734.476	650.821
738.354	31.236
742.231	23.137
746.106	31.281
749.978	31.376
753.849	54.701
757.719	133.465
761.586	225.385
765.451	324.336
769.315	478.361
773.177	443.457
777.036	460.375
780.894	387.962
784.75	314.274
788.605	297.875
792.457	222.956
796.307	219.197
800.156	202.218
804.003	206.767
807.848	126.471
811.691	117.325
815.532	144.328
819.371	195.487
823.209	208.798
827.045	287.283
830.878	305.75
834.71	392.541
838.54	540.481
842.369	618.089
846.195	844.67
850.02	1079.77
853.842	1457.09
857.663	2052.67
861.482	2834.23
865.299	4102.16
869.115	5915.12
872.928	9129.25
876.74	15411.8
880.55	25514.1
884.358	30617.3
888.164	22360
891.969	12284.3
895.771	6648.24
899.572	3869.29
903.371	2525.36
907.168	1714.61
910.963	1202.97
914.757	867.472
918.548	662.11
922.338	524.863
926.126	410.701
929.912	364.628
933.697	313.591
937.479	277.713
941.26	167.871
945.039	175.093
948.816	149.369
952.591	159.766
956.365	133.155
960.136	163.59
963.906	64.165
967.674	141.74
971.441	46.633
975.205	38.317
978.968	49.003
982.729	60.888
986.488	75.291
990.245	12.592
994	46.775
997.754	27.383
1001.51	7.151
1005.26	3.361
1009	1.62
1012.75	15.05
1016.5	29.16
1020.24	20.555
1023.98	4.705
1027.72	25.683
1031.46	39.657
1035.19	52.336
1038.93	12.388
1042.66	41.336
1046.39	39.457
1050.12	55.608
1053.85	55.36
1057.57	125.919
1061.29	64.783
1065.02	54.627
1068.74	97.64
1072.45	74.443
1076.17	177.073
1079.88	160.008
1083.6	106.625
1087.31	87.172
1091.02	100.622
1094.72	75.011
1098.43	67.772
1102.13	97.143
1105.84	68.455
1109.54	40.686
1113.24	45.762
1116.93	51.832
1120.63	97.91
1124.32	99.822
1128.01	132.699
1131.7	41.562
1135.39	87.843
1139.08	30.689
1142.76	7.166
1146.45	33.014
1150.13	25.842
1153.81	9.218
1157.48	53.379
1161.16	80.309
1164.84	57.542
1168.51	28.195
1172.18	42.538
1175.85	55.717
1179.52	0.036
1183.18	116.278
1186.85	78.236
1190.51	49.516
1194.17	13.847
1197.83	0.27
1201.48	7.325
1205.14	53.679
1208.79	40.775
1212.44	67.941
1216.09	86.805
1219.74	57.308
1223.39	26.929
1227.03	54.401
1230.68	47.856
1234.32	59.292
1237.96	107.623
1241.6	93.589
1245.23	63.511
1248.87	40.446
1252.5	42.549
1256.13	73.227
1259.76	74.77
1263.39	32.455
1267.02	75.712
1270.64	37.028
1274.26	70.884
1277.88	46.754
1281.5	62.82
1285.12	43.504
1288.74	38.947
1292.35	3.444
1295.96	17.328
1299.57	74.674
1303.18	52.538
1306.79	38.693
1310.4	50.004
1314	0.819
1317.6	12.264
1321.2	63.006
1324.8	20.581
1328.4	6.261
1331.99	44.688
1335.59	46.642
1339.18	26.991
1342.77	34.165
1346.36	13.177
1349.95	45.534
1353.53	58.874
1357.12	12.814
1360.7	61.209
1364.28	24.251
1367.86	65.153
1371.44	8.029
1375.01	18.779
1378.59	7.635
1382.16	68.589
1385.73	124.938
1389.3	27.033
1392.87	17.154
1396.43	60.054
1399.99	79.906
1403.56	18.704
1407.12	26.439
1410.68	87.149
1414.23	89.224
1417.79	24.892
1421.34	78.361
1424.9	76.012
1428.45	88.036
1431.99	87.04
1435.54	1.008
1439.09	47.647
1442.63	13.537
1446.17	81.07
1449.71	47.052
1453.26	52.32
1456.79	85.511
1460.33	65.379
1463.86	71.895
1467.39	106.654
1470.92	67.138
1474.45	57.083
1477.98	49.809
1481.51	100.875
1485.03	74.375
1488.56	29.061
1492.08	50.534
1495.6	59.721
1499.11	40.789
1502.63	47.483
1506.14	54.842
1509.66	55.702
1513.17	42.141
1516.68	8.062
1520.19	54.197
1523.69	0
