Measurement: Raman, 514 nm, ccw, Raman Data Processed
Mineral: Hubnerite
Rruff sample: R050139
Ideal chemistry: Mn^2+^WO_4_
Locality: Pasto Bueno District, Pallasca Province, Ancash Department, Peru
Source: Dave Bunk Minerals
Description: Black tabular crystals associated with quartz
Measured chemistry: (Mn^2+^_0.79_Fe^2+^_0.20_)W_1.00_O4
Pin_id: L00483
Orientation: Laser parallel to -a* (-1 0 0). Fiducial mark perpendicular to laser is parallel to -b [0 -1 0]
Raman shift (cm-1)	intensity
101.314	0
105.505	49.273
109.694	515.422
113.881	743.712
118.066	276.851
122.249	688.056
126.43	2379.55
130.608	2861.84
134.785	1151.22
138.959	726.225
143.131	541.278
147.301	307.749
151.469	181.724
155.635	56.157
159.799	14.272
163.961	13.571
168.121	125.341
172.278	244.784
176.434	334.595
180.587	283.933
184.739	318.588
188.888	328.535
193.035	471.774
197.18	560.028
201.324	984.648
205.465	1486.55
209.603	1244.23
213.74	633.203
217.875	261.727
222.008	114.632
226.139	36.59
230.267	31.295
234.394	36.16
238.518	14.409
242.641	48.302
246.761	67.674
250.879	55.852
254.996	25.241
259.11	67.592
263.222	90.886
267.332	180.306
271.44	359.621
275.546	261.615
279.65	264.85
283.752	279.433
287.852	439.524
291.95	609.117
296.046	723.877
300.14	679.065
304.231	671.002
308.321	782.933
312.409	1008.3
316.495	1355.72
320.578	2030.9
324.66	2514.81
328.739	2380.28
332.817	1802.12
336.892	1356.94
340.966	1106.63
345.037	1008.39
349.107	1021.38
353.174	990.64
357.24	1089.17
361.303	940.085
365.365	835.274
369.424	821.201
373.481	790.282
377.537	733.621
381.59	737.356
385.642	775.843
389.691	829.344
393.738	1091.69
397.784	1249.48
401.827	949.809
405.868	684.045
409.908	536.606
413.945	467.203
417.98	425.558
422.014	448.428
426.045	442.036
430.075	406.99
434.102	403.747
438.127	415.408
442.151	408.634
446.172	389.649
450.192	354.11
454.209	387.045
458.225	360.912
462.238	300.295
466.25	324.807
470.259	306.017
474.267	279.828
478.273	321.525
482.276	282.759
486.278	339.69
490.278	337.237
494.276	322.529
498.271	353.268
502.265	424.694
506.257	624.769
510.247	784.406
514.235	682.962
518.221	512.579
522.205	514.701
526.187	491.926
530.167	564.348
534.145	649.202
538.122	693.345
542.096	861.455
546.068	838.502
550.039	668.249
554.007	534.093
557.973	391.876
561.938	254.629
565.901	214.053
569.861	249.485
573.82	132.38
577.777	135.399
581.732	105.493
585.685	50.791
589.636	32.649
593.585	23.369
597.532	25.836
601.477	14.822
605.42	6.421
609.361	35.258
613.301	16.923
617.238	50.039
621.174	28.147
625.108	32.42
629.039	23.5
632.969	28.036
636.897	10.362
640.823	24.917
644.747	22.572
648.669	3.019
652.589	73.315
656.508	99.136
660.424	187.553
664.339	218.024
668.251	381.541
672.162	479.104
676.071	583.715
679.978	629.379
683.883	688.136
687.786	904.019
691.687	979.027
695.586	1169.18
699.484	1191.43
703.379	1003.79
707.273	753.231
711.165	475.751
715.055	344.339
718.943	250.008
722.829	119.748
726.713	105.577
730.595	76.296
734.476	64.075
738.354	48.698
742.231	3.393
746.106	0.823
749.978	17.045
753.849	50.37
757.719	38.698
761.586	36.654
765.451	47.909
769.315	162.219
773.177	158.77
777.036	122.624
780.894	103.373
784.75	46.694
788.605	47.02
792.457	16.718
796.307	11.611
800.156	30.489
804.003	6.293
807.848	47.525
811.691	40.942
815.532	64.487
819.371	95.182
823.209	107.984
827.045	147.528
830.878	163.605
834.71	261.923
838.54	283.891
842.369	361.115
846.195	505.892
850.02	666.288
853.842	844.582
857.663	1187.77
861.482	1730.03
865.299	2439.54
869.115	3494.11
872.928	5501.63
876.74	9407.48
880.55	15379.9
884.358	18621.7
888.164	13213.3
891.969	7102.73
895.771	3878.64
899.572	2137.87
903.371	1350.26
907.168	915.502
910.963	642.854
914.757	462.776
918.548	309.937
922.338	283.163
926.126	160.44
929.912	202.756
933.697	155.115
937.479	126.516
941.26	93.959
945.039	102.768
948.816	107.192
952.591	132.754
956.365	157.567
960.136	57.548
963.906	18.529
967.674	60.993
971.441	44.644
975.205	39.388
978.968	4.061
982.729	9.733
986.488	46.573
990.245	39.085
994	15.837
997.754	22.252
1001.51	39.063
1005.26	24.323
1009	22.271
1012.75	27.34
1016.5	58.771
1020.24	84.806
1023.98	36.125
1027.72	41.153
1031.46	13.471
1035.19	61.243
1038.93	56.889
1042.66	21.104
1046.39	24.847
1050.12	40.192
1053.85	88.013
1057.57	42.526
1061.29	42.82
1065.02	51.102
1068.74	44.085
1072.45	91.59
1076.17	74.825
1079.88	99.102
1083.6	53.245
1087.31	54.428
1091.02	31.5
1094.72	71.937
1098.43	67.481
1102.13	22.518
1105.84	103.444
1109.54	17.324
1113.24	18.305
1116.93	52.26
1120.63	32.865
1124.32	113.801
1128.01	76.159
1131.7	43.556
1135.39	52.958
1139.08	31.587
1142.76	32.407
1146.45	55.866
1150.13	17.21
1153.81	48.412
1157.48	39.738
1161.16	62.369
1164.84	1.235
1168.51	41.026
1172.18	59.998
1175.85	38.117
1179.52	50.206
1183.18	61.427
1186.85	53.22
1190.51	10.831
1194.17	28.171
1197.83	22.739
1201.48	25.528
1205.14	64.035
1208.79	64.418
1212.44	17.638
1216.09	28.912
1219.74	96.975
1223.39	58.969
1227.03	71.224
1230.68	78.447
1234.32	78.525
1237.96	42.377
1241.6	20.926
1245.23	43.896
1248.87	87.831
1252.5	67.382
1256.13	36.125
1259.76	16.222
1263.39	62.186
1267.02	13.495
1270.64	40.732
1274.26	94.911
1277.88	13.996
1281.5	24.991
1285.12	61.074
1288.74	18.635
1292.35	42.403
1295.96	39.121
1299.57	52.722
1303.18	27.95
1306.79	3.779
1310.4	32.851
1314	42.273
1317.6	33.834
1321.2	10.448
1324.8	30.683
1328.4	3.919
1331.99	22.084
1335.59	29.875
1339.18	11.423
1342.77	21.411
1346.36	27.764
1349.95	43.458
1353.53	11.821
1357.12	32.605
1360.7	76.615
1364.28	67.971
1367.86	75.475
1371.44	30.85
1375.01	9.311
1378.59	12.094
1382.16	61.509
1385.73	41.455
1389.3	19.786
1392.87	29.953
1396.43	61.96
1399.99	34.794
1403.56	49.638
1407.12	83.47
1410.68	121.435
1414.23	49.028
1417.79	75.256
1421.34	69.112
1424.9	11.581
1428.45	40.782
1431.99	21.442
1435.54	17.297
1439.09	35.033
1442.63	101.172
1446.17	52.194
1449.71	0.098
1453.26	45.947
1456.79	24.323
1460.33	43.427
1463.86	86.685
1467.39	52.344
1470.92	104.3
1474.45	46.378
1477.98	22.391
1481.51	61.479
1485.03	86.964
1488.56	52.494
1492.08	74.92
1495.6	69.93
1499.11	69.103
1502.63	48.402
1506.14	46.379
1509.66	47.599
1513.17	87.584
1516.68	34.674
1520.19	62.022
1523.69	0
