Measurement: Raman, 514 nm, ccw, Raman Data Processed
Mineral: Hubnerite
Rruff sample: R050139
Ideal chemistry: Mn^2+^WO_4_
Locality: Pasto Bueno District, Pallasca Province, Ancash Department, Peru
Source: Dave Bunk Minerals
Description: Black tabular crystals associated with quartz
Measured chemistry: (Mn^2+^_0.79_Fe^2+^_0.20_)W_1.00_O4
Pin_id: L00536
Orientation: Laser parallel to -b* (0 -1 0). Fiducial mark perpendicular to laser is parallel to -c [0 0 -1]
Raman shift (cm-1)	intensity
99.917	0
104.109	34.465
108.298	172.113
112.486	708.485
116.672	670.426
120.855	573.817
125.036	2093.8
129.216	3268.11
133.393	2144.15
137.568	1370.6
141.741	869.081
145.911	727.602
150.08	486.854
154.247	154.016
158.411	81.967
162.574	17.834
166.734	99.271
170.893	248.698
175.049	158.336
179.203	238.248
183.355	212.756
187.505	285.629
191.653	451.485
195.799	712.457
199.943	1350.22
204.084	2253.57
208.224	2057.71
212.362	1041.27
216.497	434.825
220.631	178.69
224.762	45.06
228.891	15.809
233.018	55.814
237.144	32.987
241.267	15.896
245.388	20.456
249.507	34.792
253.624	140.86
257.739	371.48
261.852	222.977
265.962	117.48
270.071	107.758
274.178	126.548
278.283	164.2
282.385	311.229
286.486	453.524
290.584	585.067
294.681	770.982
298.775	903.197
302.868	1036.76
306.958	1292.3
311.047	1794.97
315.133	2574.17
319.217	4229.27
323.299	6305.64
327.38	6805.05
331.458	5565.94
335.534	3985.17
339.608	2851.14
343.681	2084.6
347.751	1695.53
351.819	1393.65
355.885	1224.79
359.949	1126.32
364.011	1070.7
368.071	962.7
372.129	890.728
376.185	869.852
380.239	889.027
384.291	830.696
388.341	846.833
392.389	1040.63
396.435	1272.99
400.479	1177.4
404.521	845.662
408.561	723.634
412.599	604.612
416.636	619.073
420.67	519.778
424.702	535.232
428.732	572.481
432.76	539.167
436.786	510.982
440.81	558.58
444.832	591.91
448.852	519.467
452.87	516.874
456.887	454.507
460.901	433.335
464.913	444.277
468.923	362.679
472.931	413.659
476.938	317.83
480.942	399.53
484.944	300.403
488.945	373.781
492.943	369.759
496.94	330.616
500.934	289.143
504.927	332.393
508.917	340.415
512.906	311.194
516.892	317.725
520.877	333.551
524.86	355.643
528.841	485.365
532.82	623.821
536.796	775.217
540.771	827.203
544.744	890.914
548.715	707.736
552.684	502.13
556.652	437.66
560.617	283.438
564.58	269.255
568.541	175.945
572.501	114.057
576.458	106.197
580.414	78.966
584.367	96.986
588.319	43.368
592.268	25.322
596.216	32.488
600.162	7.215
604.106	11.038
608.048	9.644
611.988	12.125
615.926	5.758
619.862	18.42
623.797	42.569
627.729	2.778
631.659	102.811
635.588	21.208
639.515	62.252
643.439	112.042
647.362	11.305
651.283	44.208
655.202	31.292
659.119	52.011
663.034	90.397
666.947	124.681
670.859	143.216
674.768	321.894
678.676	432.652
682.581	606.638
686.485	950.554
690.387	1388.54
694.287	1792.57
698.185	2037.74
702.081	1896
705.975	1485.78
709.868	998.822
713.758	663.376
717.647	479.015
721.533	303.505
725.418	168.516
729.301	233.462
733.182	731.086
737.061	565.751
740.939	6.737
744.814	42.559
748.688	4.768
752.559	1.218
756.429	20.327
760.297	30.606
764.163	34.703
768.027	123.004
771.89	98.072
775.75	134.297
779.609	73.304
783.465	67.324
787.32	83.07
791.173	76.514
795.024	47.286
798.873	32.267
802.721	156.014
806.566	131.29
810.41	119.904
814.252	148.655
818.092	139.518
821.93	224.494
825.766	293.612
829.601	284.549
833.433	386.85
837.264	483.248
841.093	573.743
844.92	752.419
848.745	962.301
852.568	1286.55
856.39	1843.76
860.209	2585.44
864.027	3730.48
867.843	5373.72
871.657	8395.62
875.47	13668.4
879.28	24085.2
883.089	30823.9
886.896	26558.6
890.701	15370.6
894.504	8320.67
898.305	4717.9
902.105	3050.75
905.902	2057.22
909.698	1447.61
913.492	1101.1
917.285	814.779
921.075	608.562
924.864	550.436
928.65	450.4
932.435	404.467
936.218	314.613
940	294.862
943.779	219.239
947.557	244.714
951.333	125.583
955.107	167.209
958.879	134.905
962.65	158.816
966.418	20.727
970.185	30.635
973.95	115.561
977.714	83.51
981.475	42.913
985.235	35.915
988.993	29.045
992.749	10.672
996.503	23.056
1000.26	23.82
1004.01	16.056
1007.75	22.239
1011.5	19.784
1015.25	36.51
1018.99	49.481
1022.73	38.823
1026.47	18.963
1030.21	39.334
1033.95	49.305
1037.68	38.15
1041.41	30.159
1045.15	66.836
1048.88	36.861
1052.6	24.234
1056.33	68.494
1060.05	116.238
1063.78	95.77
1067.5	107.811
1071.21	72.767
1074.93	88.764
1078.65	154.768
1082.36	179.653
1086.07	111.525
1089.78	95.629
1093.49	92.402
1097.2	65.166
1100.9	93.908
1104.6	146.566
1108.3	99.248
1112	146.827
1115.7	104.343
1119.4	47.29
1123.09	91.663
1126.78	21.94
1130.47	103.44
1134.16	86.618
1137.85	107.731
1141.54	51.795
1145.22	63.917
1148.9	59.023
1152.58	67.14
1156.26	18.679
1159.94	64.371
1163.61	30.874
1167.28	25.646
1170.95	55.219
1174.62	35.439
1178.29	16.581
1181.96	47.889
1185.62	64.042
1189.29	20.032
1192.95	45.822
1196.61	8.565
1200.26	14.232
1203.92	4.421
1207.57	50.994
1211.23	100.33
1214.88	90.27
1218.53	68.421
1222.17	68.396
1225.82	98.17
1229.46	143.203
1233.11	107.845
1236.74	99.207
1240.38	105.581
1244.02	76.841
1247.66	73.608
1251.29	127.612
1254.92	66.255
1258.55	114.08
1262.18	99.753
1265.81	107.431
1269.43	145.046
1273.06	111.066
1276.68	85.403
1280.3	89.736
1283.91	131.79
1287.53	76.421
1291.15	147.3
1294.76	92.114
1298.37	72.107
1301.98	10.884
1305.59	16.316
1309.19	8.264
1312.8	23.267
1316.4	24.488
1320	46.167
1323.6	95.365
1327.2	82.092
1330.8	47.045
1334.39	40.024
1337.98	54.517
1341.58	3.384
1345.16	26.263
1348.75	64.353
1352.34	44.579
1355.92	56.223
1359.51	18.821
1363.09	18.091
1366.67	60.863
1370.24	5.547
1373.82	28.271
1377.39	74.893
1380.97	70.169
1384.54	77.262
1388.11	81.18
1391.68	68.901
1395.24	5.022
1398.81	39.616
1402.37	35.104
1405.93	28.336
1409.49	37.402
1413.05	48.204
1416.6	77.313
1420.16	52.974
1423.71	56.916
1427.26	14.197
1430.81	85.146
1434.36	179.907
1437.91	201.621
1441.45	30.218
1444.99	13.636
1448.54	33.332
1452.08	10.889
1455.61	35.504
1459.15	11.458
1462.68	82.418
1466.22	59.756
1469.75	53.588
1473.28	93.16
1476.81	83.323
1480.33	85.903
1483.86	60.904
1487.38	21.477
1490.9	0.084
1494.42	63.645
1497.94	20.941
1501.46	30.901
1504.97	40.919
1508.49	2.079
1512	58.103
1515.51	91.831
1519.02	38.361
