Measurement: Raman, 514 nm, ccw, Raman Data Processed
Mineral: Hubnerite
Rruff sample: R050139
Ideal chemistry: Mn^2+^WO_4_
Locality: Pasto Bueno District, Pallasca Province, Ancash Department, Peru
Source: Dave Bunk Minerals
Description: Black tabular crystals associated with quartz
Measured chemistry: (Mn^2+^_0.79_Fe^2+^_0.20_)W_1.00_O4
Pin_id: L00483
Orientation: Laser parallel to -a* (-1 0 0). Fiducial mark perpendicular to laser is parallel to -b [0 -1 0]
Raman shift (cm-1)	intensity
95.723	0
99.917	289.055
104.109	34.692
108.298	291.045
112.486	831.546
116.672	454.063
120.855	323.98
125.036	1477.58
129.216	2918.86
133.393	1768.07
137.568	1094.65
141.741	987.511
145.911	902.184
150.08	605.26
154.247	174.101
158.411	104.638
162.574	288.775
166.734	149.468
170.893	270.54
175.049	235.058
179.203	477.303
183.355	544.804
187.505	569.196
191.653	779.936
195.799	1070.78
199.943	1565.82
204.084	2723.79
208.224	2875.53
212.362	1612.19
216.497	737.928
220.631	320.163
224.762	31.087
228.891	12.906
233.018	82.342
237.144	80.236
241.267	92.831
245.388	43.441
249.507	1.758
253.624	45.471
257.739	76.585
261.852	30.216
265.962	135.48
270.071	220.737
274.178	326.318
278.283	454.268
282.385	559.621
286.486	739.204
290.584	903.434
294.681	973.155
298.775	1207.7
302.868	1401.46
306.958	1526.85
311.047	2123.43
315.133	3010.5
319.217	4723.92
323.299	6848.28
327.38	7004.92
331.458	5343.9
335.534	3825.98
339.608	2770.26
343.681	2218.31
347.751	1870.12
351.819	1648.32
355.885	1568.74
359.949	1477.61
364.011	1440.52
368.071	1261.33
372.129	1243.23
376.185	1191.71
380.239	1194.45
384.291	1128.2
388.341	1150.25
392.389	1184.15
396.435	1157.14
400.479	1089.22
404.521	1003.05
408.561	934.963
412.599	841.497
416.636	834.209
420.67	782.965
424.702	752.712
428.732	714.664
432.76	737.905
436.786	689.88
440.81	759.417
444.832	734.862
448.852	719.696
452.87	704.243
456.887	677.569
460.901	609.171
464.913	604.816
468.923	546.848
472.931	580.468
476.938	580.058
480.942	588.604
484.944	514.857
488.945	539.042
492.943	524.161
496.94	524.713
500.934	545.903
504.927	511.819
508.917	461.452
512.906	518.755
516.892	480.191
520.877	472.28
524.86	460.254
528.841	530.815
532.82	549.816
536.796	656.675
540.771	729.522
544.744	693.745
548.715	741.269
552.684	589.36
556.652	449.32
560.617	320.883
564.58	284.129
568.541	267.347
572.501	180.404
576.458	132.392
580.414	123.041
584.367	82.249
588.319	33.353
592.268	34.51
596.216	49.12
600.162	58.441
604.106	37.094
608.048	41.108
611.988	27.356
615.926	44.995
619.862	24.726
623.797	47.729
627.729	10.334
631.659	4.978
635.588	11.318
639.515	34.715
643.439	9.856
647.362	16.972
651.283	35.096
655.202	72.427
659.119	148.138
663.034	175.175
666.947	225.51
670.859	317.934
674.768	466.654
678.676	697.703
682.581	966.227
686.485	1347.93
690.387	1961.85
694.287	2598.02
698.185	3007.45
702.081	2713.13
705.975	2066.05
709.868	1355.2
713.758	860.56
717.647	657.162
721.533	446.844
725.418	278.629
729.301	200.393
733.182	98.18
737.061	79.845
740.939	26.036
744.814	27.113
748.688	27.87
752.559	58.031
756.429	59.74
760.297	15.24
764.163	4.001
768.027	24.541
771.89	39.543
775.75	9.986
779.609	39.658
783.465	64.423
787.32	79.125
791.173	85.295
795.024	67.836
798.873	92.608
802.721	63.56
806.566	29.951
810.41	83.555
814.252	102.285
818.092	94.136
821.93	82.105
825.766	178.296
829.601	185.535
833.433	321.467
837.264	347.018
841.093	441.757
844.92	572.695
848.745	726.302
852.568	973.154
856.39	1409.26
860.209	1939.8
864.027	2820.15
867.843	4126.66
871.657	6513.81
875.47	10832.3
879.28	19127.4
883.089	26745.1
886.896	23020
890.701	13104.9
894.504	7079.43
898.305	3897.95
902.105	2475.2
905.902	1622.44
909.698	1168.53
913.492	826.881
917.285	660.717
921.075	472.816
924.864	369.459
928.65	327.574
932.435	296.906
936.218	262.809
940	132.978
943.779	223.174
947.557	203.385
951.333	191.79
955.107	175.683
958.879	134.418
962.65	136.841
966.418	67.115
970.185	86.126
973.95	29.39
977.714	36.002
981.475	47.242
985.235	28.621
988.993	7.254
992.749	37.037
996.503	0.026
1000.26	0.671
1004.01	28.088
1007.75	45.165
1011.5	28.055
1015.25	15.452
1018.99	30.672
1022.73	32.391
1026.47	71.83
1030.21	29.47
1033.95	35.232
1037.68	18.384
1041.41	33.596
1045.15	52.749
1048.88	89.06
1052.6	78.195
1056.33	88.482
1060.05	87.991
1063.78	104.405
1067.5	74.439
1071.21	131.671
1074.93	74.237
1078.65	95.062
1082.36	72.769
1086.07	102.51
1089.78	82.217
1093.49	93.73
1097.2	48.184
1100.9	122.563
1104.6	46.873
1108.3	125.063
1112	137.403
1115.7	36.448
1119.4	82.388
1123.09	50.318
1126.78	95.059
1130.47	77.754
1134.16	58.726
1137.85	100.675
1141.54	73.56
1145.22	42.676
1148.9	104.324
1152.58	54.34
1156.26	37.679
1159.94	68.629
1163.61	96.79
1167.28	27.582
1170.95	36.149
1174.62	20.505
1178.29	36.786
1181.96	51.707
1185.62	62.193
1189.29	70.558
1192.95	41.289
1196.61	19.831
1200.26	51.87
1203.92	8.092
1207.57	21.589
1211.23	38.323
1214.88	75.028
1218.53	26.792
1222.17	52.93
1225.82	109.249
1229.46	93.804
1233.11	40.328
1236.74	95.047
1240.38	85.058
1244.02	117.106
1247.66	80.259
1251.29	64.701
1254.92	39.039
1258.55	58.628
1262.18	110.968
1265.81	36.997
1269.43	62.793
1273.06	94.08
1276.68	81.371
1280.3	38.284
1283.91	63.049
1287.53	74.525
1291.15	46.295
1294.76	45.093
1298.37	21.048
1301.98	12.351
1305.59	59.057
1309.19	20.893
1312.8	18.891
1316.4	51.807
1320	21.854
1323.6	27.019
1327.2	15.493
1330.8	20.629
1334.39	84.545
1337.98	31.47
1341.58	63.791
1345.16	3.164
1348.75	14.587
1352.34	16.215
1355.92	47.586
1359.51	71.146
1363.09	6.16
1366.67	21.894
1370.24	24.221
1373.82	52.557
1377.39	0.617
1380.97	16.334
1384.54	69.976
1388.11	72.534
1391.68	36.784
1395.24	83.111
1398.81	48.409
1402.37	54.436
1405.93	6.455
1409.49	2.783
1413.05	40.282
1416.6	45.996
1420.16	53.402
1423.71	28.685
1427.26	43.366
1430.81	32.312
1434.36	9.739
1437.91	59.234
1441.45	12.277
1444.99	33.675
1448.54	12.597
1452.08	19.582
1455.61	91.521
1459.15	49.219
1462.68	45.724
1466.22	35.047
1469.75	32.22
1473.28	53.67
1476.81	3.909
1480.33	37.239
1483.86	19.274
1487.38	28.002
1490.9	73.368
1494.42	100.962
1497.94	50.291
1501.46	26.375
1504.97	12.559
1508.49	28.55
1512	48.502
1515.51	77.204
1519.02	38.98
