Measurement: Raman, 514 nm, ccw, Raman Data Processed
Mineral: Hubnerite
Rruff sample: R050139
Ideal chemistry: Mn^2+^WO_4_
Locality: Pasto Bueno District, Pallasca Province, Ancash Department, Peru
Source: Dave Bunk Minerals
Description: Black tabular crystals associated with quartz
Measured chemistry: (Mn^2+^_0.79_Fe^2+^_0.20_)W_1.00_O4
Pin_id: L00483
Orientation: Laser parallel to -a* (-1 0 0). Fiducial mark perpendicular to laser is parallel to -b [0 -1 0]
Raman shift (cm-1)	intensity
84.529	0
88.728	82.656
92.926	397.059
97.121	391.34
101.314	131.994
105.505	163.585
109.694	695.724
113.881	807.628
118.066	608.057
122.249	1644.76
126.43	5842.62
130.608	6766.72
134.785	2250.42
138.959	924.993
143.131	408.829
147.301	175.611
151.469	8.157
155.635	22.116
159.799	24.279
163.961	40.346
168.121	151.614
172.278	170.079
176.434	132.347
180.587	226.063
184.739	256.229
188.888	319.599
193.035	438.698
197.18	600.701
201.324	1129.44
205.465	1761.5
209.603	1331.09
213.74	642.268
217.875	234.873
222.008	98.903
226.139	36.627
230.267	53.454
234.394	16.441
238.518	41.289
242.641	82.033
246.761	84.943
250.879	33.941
254.996	85.268
259.11	199.281
263.222	336.627
267.332	381.28
271.44	507.117
275.546	477.516
279.65	569.683
283.752	621.517
287.852	630.435
291.95	710.796
296.046	783.608
300.14	820.859
304.231	928.042
308.321	1085.43
312.409	1247.83
316.495	1671.28
320.578	2398.89
324.66	3055.65
328.739	2690.36
332.817	2020.98
336.892	1561.72
340.966	1256.29
345.037	1025.21
349.107	967.669
353.174	901.448
357.24	924.91
361.303	911.552
365.365	904.229
369.424	965.617
373.481	960.946
377.537	929.366
381.59	960.282
385.642	1091.95
389.691	1460.28
393.738	2554.87
397.784	3375.37
401.827	2225.93
405.868	1244.24
409.908	924.533
413.945	675.019
417.98	605.133
422.014	606.742
426.045	549.076
430.075	527.597
434.102	411.395
438.127	442.966
442.151	439.322
446.172	436.581
450.192	422.251
454.209	437.279
458.225	352.528
462.238	342.947
466.25	331.724
470.259	346.415
474.267	327.853
478.273	288.927
482.276	315.298
486.278	333.38
490.278	352.686
494.276	368.131
498.271	393.277
502.265	385.659
506.257	401.457
510.247	414.135
514.235	439.07
518.221	520.982
522.205	602.179
526.187	787.872
530.167	1054.12
534.145	1478.51
538.122	1863.86
542.096	2153.37
546.068	2086.43
550.039	1652.58
554.007	1152.92
557.973	777.514
561.938	586.423
565.901	358.672
569.861	335.312
573.82	250.345
577.777	193.808
581.732	121.244
585.685	68.123
589.636	48.308
593.585	28.392
597.532	29.214
601.477	52.202
605.42	85.898
609.361	71.41
613.301	107.938
617.238	32.98
621.174	30.004
625.108	37.179
629.039	27.809
632.969	0.015
636.897	18.62
640.823	27.448
644.747	37.032
648.669	18.592
652.589	53.78
656.508	26.232
660.424	18.684
664.339	45.204
668.251	129.807
672.162	113.514
676.071	178.328
679.978	248.245
683.883	359.268
687.786	531.396
691.687	677.621
695.586	783.884
699.484	783.435
703.379	686.052
707.273	439.773
711.165	256.583
715.055	182.492
718.943	161.488
722.829	65.57
726.713	36.736
730.595	30.98
734.476	17.305
738.354	26.594
742.231	40.89
746.106	13.68
749.978	2.074
753.849	4.667
757.719	74.853
761.586	1.487
765.451	22.969
769.315	53.94
773.177	113.198
777.036	156.906
780.894	138.951
784.75	118.081
788.605	80.168
792.457	167.759
796.307	359.958
800.156	227.224
804.003	231.821
807.848	255.964
811.691	238.466
815.532	300.636
819.371	329.76
823.209	361.195
827.045	483.346
830.878	548.978
834.71	702.6
838.54	798.606
842.369	928.46
846.195	1084.8
850.02	1361.21
853.842	1790.2
857.663	2521.32
861.482	3355.37
865.299	4765.31
869.115	6851.7
872.928	10767.2
876.74	18419.1
880.55	30661.1
884.358	36203.3
888.164	24074.7
891.969	12242.5
895.771	6458.5
899.572	3685.23
903.371	2303.5
907.168	1583.4
910.963	1104.46
914.757	798.141
918.548	598.836
922.338	481.74
926.126	376.697
929.912	289.258
933.697	232.787
937.479	210.905
941.26	170.07
945.039	203.485
948.816	197.76
952.591	183.425
956.365	167.811
960.136	171.264
963.906	58.824
967.674	48.883
971.441	63.744
975.205	5.635
978.968	14.428
982.729	60.298
986.488	12.965
990.245	9.889
994	24.71
997.754	4.036
1001.51	17.643
1005.26	25.481
1009	41.365
1012.75	64.464
1016.5	49.225
1020.24	11.357
1023.98	39.351
1027.72	38.031
1031.46	14.754
1035.19	23.662
1038.93	19.25
1042.66	14.725
1046.39	41.544
1050.12	37.722
1053.85	57.696
1057.57	27.534
1061.29	42.592
1065.02	32.61
1068.74	72.639
1072.45	66.682
1076.17	59.635
1079.88	77.663
1083.6	29.629
1087.31	54.974
1091.02	49.856
1094.72	40.913
1098.43	19.746
1102.13	48.593
1105.84	55.922
1109.54	56.179
1113.24	11.945
1116.93	48.623
1120.63	32.45
1124.32	12.481
1128.01	22.984
1131.7	48.459
1135.39	39.387
1139.08	21.313
1142.76	32.979
1146.45	51.302
1150.13	38.505
1153.81	49.52
1157.48	31.712
1161.16	22.928
1164.84	9.43
1168.51	31.039
1172.18	27.735
1175.85	65.437
1179.52	14.461
1183.18	50.444
1186.85	30.737
1190.51	56.437
1194.17	6.321
1197.83	29.026
1201.48	77.004
1205.14	80.339
1208.79	34.706
1212.44	36.654
1216.09	45.76
1219.74	78.827
1223.39	57.82
1227.03	80.665
1230.68	40.493
1234.32	88.562
1237.96	40.85
1241.6	55.224
1245.23	76.663
1248.87	71.978
1252.5	52.88
1256.13	46.478
1259.76	96.56
1263.39	45.682
1267.02	75.6
1270.64	62.479
1274.26	67.307
1277.88	20.263
1281.5	52.182
1285.12	45.578
1288.74	64.261
1292.35	36.269
1295.96	27.059
1299.57	12.153
1303.18	60.376
1306.79	68.204
1310.4	12.238
1314	14.198
1317.6	12.134
1321.2	19.188
1324.8	17.204
1328.4	3.858
1331.99	3.555
1335.59	3.712
1339.18	15.754
1342.77	17.103
1346.36	39.434
1349.95	56.952
1353.53	44.765
1357.12	38.885
1360.7	6.961
1364.28	31.922
1367.86	85.906
1371.44	70.921
1375.01	40.974
1378.59	89.348
1382.16	87.165
1385.73	53.032
1389.3	76.924
1392.87	2.262
1396.43	49.223
1399.99	38.899
1403.56	75.064
1407.12	48.085
1410.68	89.985
1414.23	76.492
1417.79	38.383
1421.34	31.975
1424.9	86.394
1428.45	14.141
1431.99	56.769
1435.54	55.807
1439.09	23.356
1442.63	12.963
1446.17	24.112
1449.71	60.731
1453.26	13.541
1456.79	63.177
1460.33	39.812
1463.86	40.753
1467.39	33.544
1470.92	54.062
1474.45	66.008
1477.98	33.102
1481.51	34.147
1485.03	33.355
1488.56	70.249
1492.08	111.04
1495.6	56.792
1499.11	40.595
1502.63	39.75
1506.14	51.051
1509.66	22.322
1513.17	1.531
1516.68	33.534
1520.19	23.377
