Measurement: Raman, 514 nm, ccw, Raman Data Processed
Mineral: Hubnerite
Rruff sample: R050069
Ideal chemistry: Mn^2+^WO_4_
Locality: Yaogangxian, Yizhang County, Hunan Province, China
Source: Rock Currier
Description: Black colored prismatic single crystal
Measured chemistry: (Mn_0.68_Fe_0.32_)W_1.00_O_4_
Pin_id: L00506
Orientation: Laser parallel to b* (0 1 0). Fiducial mark perpendicular to laser is parallel to c [0 0 1]
Raman shift (cm-1)	intensity
151.324	0
155.481	204.825
159.636	2.791
163.789	52.076
167.939	160.238
172.088	224.686
176.234	116.061
180.379	127.301
184.521	27.423
188.662	196.03
192.8	207.531
196.937	381.669
201.071	633.824
205.203	884.184
209.333	1034.76
213.462	820.862
217.588	568.515
221.712	361.802
225.834	326.792
229.954	232.614
234.072	136.278
238.188	59.651
242.302	121.178
246.414	70.292
250.523	64.491
254.631	130.33
258.737	79.839
262.841	150.89
266.943	150.453
271.042	42.068
275.14	0.86
279.236	23.997
283.33	81.503
287.421	6.069
291.511	46.692
295.599	37.192
299.684	70.284
303.768	139.464
307.85	204.993
311.929	252.161
316.007	546.972
320.083	929.496
324.156	1536.03
328.228	2126.59
332.298	2159.22
336.365	1912.83
340.431	1491.56
344.495	1123.11
348.556	910.384
352.616	700.489
356.674	585.231
360.729	491.61
364.783	448.944
368.835	440.787
372.884	365.194
376.932	312.781
380.978	339.654
385.022	290.852
389.064	293.848
393.104	261.374
397.141	282.568
401.177	318.224
405.211	242.392
409.243	232.002
413.273	223.9
417.301	174.042
421.327	197.84
425.351	178.64
429.374	115.09
433.394	114.545
437.412	171.221
441.428	171.194
445.443	148.339
449.455	99.93
453.465	70.92
457.474	132.292
461.48	114.056
465.485	107.188
469.487	69.845
473.488	130.314
477.487	71.282
481.483	132.29
485.478	274.329
489.471	129.373
493.462	100.506
497.451	64.678
501.438	148.308
505.423	88.529
509.406	160.198
513.388	61.484
517.367	137.343
521.344	183.802
525.32	205.871
529.293	204.19
533.265	174.556
537.234	254.426
541.202	232.02
545.168	182.961
549.132	221.564
553.094	163.049
557.054	179.394
561.012	116.714
564.968	73.352
568.923	13.336
572.875	37.816
576.825	98.396
580.774	0.572
584.721	45.23
588.665	7.042
592.608	22.5
596.549	3.805
600.488	28.292
604.425	41.459
608.361	6.935
612.294	8.871
616.225	40.193
620.155	26.244
624.083	45.134
628.008	9.456
631.932	35.388
635.854	32.575
639.774	26.847
643.693	18.332
647.609	80.888
651.523	33.267
655.436	89.63
659.346	24.5
663.255	76.604
667.162	88.102
671.067	159.226
674.97	187.49
678.871	220.108
682.771	345.015
686.668	449.977
690.564	627.155
694.458	631.162
698.35	644.346
702.24	684.527
706.128	590.7
710.014	466.894
713.898	361.791
717.781	279.605
721.662	226.191
725.541	166.418
729.418	121.718
733.293	55.998
737.166	54.031
741.037	44.277
744.907	82.44
748.775	47.348
752.64	85.422
756.504	24.19
760.367	21.499
764.227	29.651
768.085	29.428
771.942	61.371
775.797	101.676
779.65	75.588
783.501	74.157
787.35	49.936
791.197	31.158
795.043	58.199
798.887	30.05
802.728	54.618
806.568	77.813
810.407	81.037
814.243	51.368
818.078	114.248
821.91	130.225
825.741	156.256
829.57	188.377
833.398	236.208
837.223	244.101
841.047	330.083
844.868	386.517
848.688	483.858
852.507	576.77
856.323	858.096
860.137	1209.05
863.95	1709.61
867.761	2460.22
871.57	3673.89
875.377	5682.63
879.183	8256.44
882.987	9576.31
886.788	8286.24
890.588	5852.23
894.387	3705.29
898.183	2270.46
901.978	1509.57
905.771	1003.67
909.562	799.144
913.351	564.495
917.138	417.138
920.924	364.853
924.708	288.643
928.49	263.496
932.27	200.406
936.048	207.372
939.825	116.391
943.6	175.483
947.373	93.593
951.144	80.751
954.914	107.951
958.682	120.546
962.448	97.487
966.212	83.813
969.974	62.18
973.735	14.574
977.494	53.01
981.251	10.529
985.006	46.942
988.76	24.421
992.512	28.252
996.262	41.888
1000.01	27.294
1003.76	37.074
1007.5	17.298
1011.24	44.432
1014.99	55.999
1018.72	41.041
1022.46	58.098
1026.2	122.483
1029.93	39.969
1033.66	58.772
1037.39	77.683
1041.12	59.187
1044.85	42.727
1048.58	51.518
1052.3	42.137
1056.02	96.621
1059.74	89.181
1063.46	109.963
1067.18	119.597
1070.89	103.166
1074.6	75.722
1078.32	40.252
1082.03	37.179
1085.73	86.823
1089.44	49.229
1093.14	51.695
1096.85	65.137
1100.55	84.658
1104.25	58.381
1107.94	85.079
1111.64	55.836
1115.33	35.006
1119.03	43.972
1122.72	65.864
1126.4	53.752
1130.09	46.427
1133.78	61.928
1137.46	5.401
1141.14	16.957
1144.82	43.817
1148.5	49.937
1152.18	35.657
1155.85	10.785
1159.53	17.185
1163.2	3.491
1166.87	17.519
1170.54	33.065
1174.2	47.191
1177.87	18.505
1181.53	36.173
1185.19	13.66
1188.85	46.523
1192.51	36.929
1196.16	76.323
1199.82	4.616
1203.47	44.433
1207.12	66.965
1210.77	54.794
1214.42	64.623
1218.07	60.579
1221.71	73.14
1225.35	73.153
1228.99	55.216
1232.63	110.665
1236.27	76.471
1239.91	83.814
1243.54	88.982
1247.17	48.09
1250.8	13.358
1254.43	88.349
1258.06	98.521
1261.69	81.469
1265.31	74.968
1268.93	9.925
1272.55	110.564
1276.17	61.028
1279.79	43.386
1283.4	43.335
1287.02	41.503
1290.63	33.665
1294.24	57.771
1297.85	100.778
1301.46	32.343
1305.06	29.026
1308.67	1.987
1312.27	16.912
1315.87	6.563
1319.47	15.847
1323.07	33.052
1326.66	2.637
1330.26	24.375
1333.85	40.805
1337.44	48.371
1341.03	72.054
1344.61	65.064
1348.2	40.582
1351.78	47.254
1355.37	19.38
1358.95	49.544
1362.53	116.037
1366.1	3.445
1369.68	11.734
1373.25	53.521
1376.82	47.801
1380.39	39.157
1383.96	83.81
1387.53	59.553
1391.1	38.542
1394.66	53.651
1398.22	12.111
1401.79	32.439
1405.34	68.267
1408.9	111.699
1412.46	96.796
1416.01	93.207
1419.56	74.482
1423.12	81.62
1426.66	57.6
1430.21	21.238
1433.76	54.778
1437.3	40.474
1440.85	9.165
1444.39	46.624
1447.93	61.769
1451.46	81.587
1455	96.619
1458.54	21.907
1462.07	79.609
1465.6	60.775
1469.13	63.14
1472.66	83.778
1476.18	56.992
1479.71	34.895
1483.23	64.092
1486.76	71.825
1490.28	53.896
1493.79	107.189
1497.31	7.576
1500.83	7.02
1504.34	16.227
1507.85	61.95
1511.36	40.637
1514.87	45.665
1518.38	54.872
