Measurement: Raman, 514 nm, ccw, Raman Data Processed
Mineral: Hubnerite
Rruff sample: R050139
Ideal chemistry: Mn^2+^WO_4_
Locality: Pasto Bueno District, Pallasca Province, Ancash Department, Peru
Source: Dave Bunk Minerals
Description: Black tabular crystals associated with quartz
Measured chemistry: (Mn^2+^_0.79_Fe^2+^_0.20_)W_1.00_O4
Pin_id: L00536
Orientation: Laser parallel to -b* (0 -1 0). Fiducial mark perpendicular to laser is parallel to -c [0 0 -1]
Raman shift (cm-1)	intensity
85.929	0
90.128	265.34
94.324	568.943
98.519	536.6
102.712	163.939
106.902	199.867
111.09	794.65
115.277	815.362
119.461	694.402
123.643	2508.86
127.823	4951.33
132.001	4238.15
136.176	1785.82
140.35	982.771
144.521	493.786
148.691	262.631
152.858	148.388
157.024	69.858
161.187	191.492
165.348	313.566
169.507	181.037
173.664	165.21
177.819	64.082
181.971	79.145
186.122	206.607
190.271	276.039
194.417	268.615
198.562	476.428
202.704	807.145
206.844	872.107
210.983	492.904
215.119	190.601
219.253	17.134
223.385	114.856
227.515	75.817
231.643	83.87
235.769	140.352
239.893	1.855
244.014	22.296
248.134	77.187
252.252	303.681
256.367	929.878
260.481	1134.75
264.592	927.786
268.702	714.521
272.809	616.924
276.915	685.642
281.018	784.194
285.119	903.146
289.218	1043.97
293.316	1127.05
297.411	1243.65
301.504	1463.01
305.595	1668.36
309.684	2040.71
313.771	2541.67
317.856	3655.82
321.939	5529.19
326.02	6479.2
330.099	5771.34
334.176	4475.55
338.251	3274.53
342.323	2550.33
346.394	2055.58
350.463	1743.01
354.53	1604.7
358.594	1484.55
362.657	1382.63
366.718	1320.99
370.777	1295.05
374.833	1272.03
378.888	1192.4
382.941	1239.17
386.992	1295.97
391.04	1585.53
395.087	2459.08
399.132	2838.02
403.174	1948.69
407.215	1353.31
411.254	1048.15
415.29	961.281
419.325	790.701
423.358	759.457
427.389	750.855
431.417	729.309
435.444	712.421
439.469	682.195
443.492	719.889
447.512	644.496
451.531	586.82
455.548	527.995
459.563	493.875
463.576	558.494
467.587	497.072
471.596	465.344
475.603	406.282
479.608	430.265
483.611	384.102
487.612	409.091
491.611	355.288
495.608	357.334
499.603	388.267
503.596	363.671
507.587	365.001
511.577	353.067
515.564	318.034
519.549	438.776
523.533	468.625
527.514	501.875
531.493	609.593
535.471	834.934
539.447	1001.69
543.42	1022.51
547.392	932.229
551.362	788.443
555.329	516.01
559.295	384.92
563.259	262.625
567.221	191.844
571.181	167.681
575.139	140.895
579.095	157.781
583.049	56.339
587.002	47.289
590.952	75.819
594.9	58.633
598.847	112.773
602.792	45.903
606.734	29.617
610.675	122.73
614.614	35.872
618.55	109.975
622.485	98.544
626.418	9.255
630.349	3.4
634.279	42.755
638.206	7.894
642.131	6.324
646.055	44.802
649.976	32.064
653.896	29.203
657.814	8.278
661.729	28.385
665.643	68.829
669.555	147.349
673.465	173.123
677.373	243.488
681.28	401.617
685.184	537.966
689.087	794.405
692.987	967.983
696.886	1093.7
700.783	978.536
704.677	756.499
708.57	481.576
712.462	275.715
716.351	102.933
720.238	8.228
724.124	25.192
728.007	19.123
731.889	54.974
735.769	91.072
739.647	59.647
743.523	81.628
747.397	52.698
751.269	50.392
755.139	63.228
759.008	99.071
762.875	151.365
766.739	169.228
770.602	216.147
774.463	267.084
778.323	278.154
782.18	247.774
786.035	227.833
789.889	243.328
793.741	337.495
797.591	278.199
801.439	227.012
805.285	188.1
809.129	340.261
812.971	322.374
816.812	390.198
820.651	403.167
824.488	455.305
828.323	600.525
832.156	646.825
835.987	777.191
839.817	917.618
843.644	1091.09
847.47	1457.99
851.294	1968.91
855.116	2671.1
858.936	3509.08
862.755	5140.12
866.571	7395.64
870.386	10829.3
874.199	16960.2
878.01	28161.4
881.82	42028.5
885.627	41652.3
889.433	26774.9
893.236	14849.3
897.038	8390.73
900.838	5161.12
904.637	3488.08
908.433	2488.6
912.228	1902.23
916.021	1437.22
919.812	1142.29
923.601	923.553
927.388	737.794
931.174	697.111
934.958	554.506
938.739	423.979
942.52	369.742
946.298	361.414
950.074	387.185
953.849	360.202
957.622	256.116
961.393	253.282
965.162	245.583
968.93	191.206
972.696	179.16
976.459	129.729
980.222	36.973
983.982	55.386
987.74	97.695
991.497	66.043
995.252	84.325
999.005	31.44
1002.76	42.246
1006.51	23.41
1010.25	9.249
1014	20.39
1017.74	33.198
1021.49	31.963
1025.23	24.455
1028.96	24.718
1032.7	13.061
1036.44	26.572
1040.17	8.516
1043.9	105.314
1047.63	128.549
1051.36	98.194
1055.09	119.548
1058.81	3.783
1062.54	81.073
1066.26	74.398
1069.97	20.808
1073.69	90.099
1077.41	124.354
1081.12	82.614
1084.84	61.983
1088.55	58.219
1092.25	113.446
1095.96	82.651
1099.67	22.834
1103.37	58.992
1107.07	58.125
1110.77	59.231
1114.47	6.305
1118.16	69.33
1121.86	54.41
1125.55	40.374
1129.24	28.305
1132.93	72.197
1136.62	68.051
1140.31	20.864
1143.99	11.639
1147.67	100.022
1151.35	1.716
1155.03	51.458
1158.71	10.688
1162.39	3.728
1166.06	8.136
1169.73	9.182
1173.4	21.479
1177.07	29.544
1180.74	49.605
1184.4	26.701
1188.07	50.199
1191.73	39.719
1195.39	23.006
1199.05	38.978
1202.7	76.911
1206.36	96.215
1210.01	48.491
1213.66	38.753
1217.31	60.653
1220.96	69.37
1224.6	102.107
1228.25	44.961
1231.89	117.714
1235.53	184.391
1239.17	130.82
1242.81	123.326
1246.44	123.74
1250.08	83.065
1253.71	131.528
1257.34	98.643
1260.97	109.024
1264.6	116.137
1268.22	104.63
1271.85	142.457
1275.47	170.571
1279.09	113.385
1282.71	118.881
1286.33	154.912
1289.94	101.103
1293.56	39.15
1297.17	45.382
1300.78	83.956
1304.39	42.171
1307.99	24.295
1311.6	5.565
1315.2	15.447
1318.8	67.046
1322.4	0.808
1326	32.563
1329.6	81.168
1333.19	17.103
1336.79	10.531
1340.38	36.577
1343.97	15.611
1347.56	16.82
1351.14	5.939
1354.73	2.965
1358.31	28.845
1361.89	55.71
1365.47	64.487
1369.05	50.222
1372.63	52.847
1376.2	29.853
1379.78	63.519
1383.35	60.008
1386.92	106.382
1390.49	106.636
1394.05	106.693
1397.62	80.708
1401.18	89.597
1404.74	44.386
1408.3	0.211
1411.86	39.12
1415.42	1.901
1418.97	72.815
1422.53	53.175
1426.08	53.523
1429.63	44.073
1433.18	11.943
1436.72	36.951
1440.27	63.365
1443.81	51.144
1447.36	42.674
1450.89	75.902
1454.43	49.678
1457.97	40.99
1461.51	28.045
1465.04	39.195
1468.57	33.952
1472.1	84.833
1475.63	70.439
1479.16	28.319
1482.68	77.189
1486.21	65.896
1489.73	51.349
1493.25	37.851
1496.77	8.674
1500.29	98.728
1503.8	61.749
1507.32	49.119
1510.83	32.372
1514.34	7.585
1517.85	0
