Measurement: Raman, 514 nm, ccw, Raman Data Processed
Mineral: Hubnerite
Rruff sample: R050069
Ideal chemistry: Mn^2+^WO_4_
Locality: Yaogangxian, Yizhang County, Hunan Province, China
Source: Rock Currier
Description: Black colored prismatic single crystal
Measured chemistry: (Mn_0.68_Fe_0.32_)W_1.00_O_4_
Pin_id: L00498
Orientation: Laser parallel to c* (0 0 1). Fiducial mark perpendicular to laser is parallel to a [1 0 0]
Raman shift (cm-1)	intensity
151.324	0
155.481	53.455
159.636	11.252
163.789	80.085
167.939	117.541
172.088	69.547
176.234	7.85
180.379	44.72
184.521	12.741
188.662	71.102
192.8	129.14
196.937	298.669
201.071	756.694
205.203	2084.86
209.333	2133.56
213.462	794.714
217.588	316.073
221.712	182.98
225.834	87.631
229.954	35.326
234.072	73.885
238.188	35.051
242.302	38.69
246.414	31.548
250.523	3.396
254.631	0.148
258.737	81.53
262.841	80.354
266.943	36.245
271.042	18.615
275.14	0.845
279.236	10.728
283.33	16.936
287.421	25.512
291.511	95.089
295.599	59.841
299.684	115.058
303.768	109.095
307.85	195.707
311.929	318.127
316.007	601.547
320.083	1234.16
324.156	2226.2
328.228	2512.41
332.298	1675.51
336.365	960.588
340.431	483.726
344.495	301.737
348.556	242.178
352.616	204.112
356.674	198.794
360.729	144.123
364.783	124.018
368.835	146.001
372.884	157.805
376.932	172.204
380.978	224.074
385.022	323.41
389.064	508.715
393.104	1170.98
397.141	3528.16
401.177	2924.96
405.211	916.47
409.243	431.078
413.273	246.292
417.301	199.942
421.327	110.356
425.351	80.863
429.374	85.515
433.394	83.124
437.412	69.714
441.428	53.494
445.443	29.801
449.455	23.549
453.465	47.104
457.474	48.135
461.48	15.842
465.485	25.471
469.487	28.063
473.488	21.719
477.487	9.568
481.483	28.87
485.478	37.372
489.471	46.477
493.462	67.021
497.451	79.03
501.438	114.37
505.423	121.134
509.406	121.76
513.388	208.252
517.367	241.609
521.344	307.689
525.32	434.246
529.293	626.736
533.265	1097.35
537.234	1763.97
541.202	2594.64
545.168	3077.21
549.132	2650.7
553.094	1883.12
557.054	1166.47
561.012	777.777
564.968	514.05
568.923	348.285
572.875	299.548
576.825	207.864
580.774	126.712
584.721	124.52
588.665	90.699
592.608	119.618
596.549	515.74
600.488	73.999
604.425	66.89
608.361	74.469
612.294	47.56
616.225	40.524
620.155	6.798
624.083	16.252
628.008	21.509
631.932	17.193
635.854	16.252
639.774	29.95
643.693	0.456
647.609	6.041
651.523	5.556
655.436	40.73
659.346	18.92
663.255	64.002
667.162	122.072
671.067	200.132
674.97	256.185
678.871	283.234
682.771	298.285
686.668	392.343
690.564	517.408
694.458	816.482
698.35	1077.57
702.24	945.665
706.128	574.783
710.014	279.934
713.898	131.112
717.781	80.317
721.662	63.544
725.541	40.796
729.418	21.078
733.293	28.385
737.166	14.717
741.037	30.078
744.907	12.472
748.775	0.093
752.64	34.301
756.504	20.815
760.367	50.373
764.227	121.972
768.085	229.592
771.942	321.29
775.797	338.338
779.65	256.929
783.501	229.69
787.35	168.341
791.197	139.753
795.043	125.56
798.887	117.619
802.728	100.957
806.568	92.417
810.407	118.448
814.243	122.876
818.078	93.365
821.91	160.912
825.741	221.518
829.57	253.185
833.398	321.913
837.223	348.71
841.047	444.594
844.868	633.552
848.688	866.708
852.507	1243.15
856.323	1543.03
860.137	2150.34
863.95	3047.69
867.761	4368.96
871.57	6738.46
875.377	10906.5
879.183	20467.6
882.987	41949
886.788	48119.6
890.588	24880.5
894.387	11591.1
898.183	5856.09
901.978	3337.11
905.771	2052.23
909.562	1442.24
913.351	1123.48
917.138	924.776
920.924	666.13
924.708	583.541
928.49	491.01
932.27	390.544
936.048	324.134
939.825	300.226
943.6	270.981
947.373	204.839
951.144	163.784
954.914	141.828
958.682	143.858
962.448	117.04
966.212	100.286
969.974	70.577
973.735	62.91
977.494	20.284
981.251	44.7
985.006	81.156
988.76	32.604
992.512	51.207
996.262	6.543
1000.01	13.124
1003.76	13.051
1007.5	14.88
1011.24	46.053
1014.99	4.936
1018.72	5.091
1022.46	13.186
1026.2	5.041
1029.93	16.152
1033.66	29.47
1037.39	21.662
1041.12	33.623
1044.85	20.393
1048.58	51.925
1052.3	10.066
1056.02	34.786
1059.74	33.761
1063.46	55.941
1067.18	3.706
1070.89	36.486
1074.6	10.226
1078.32	44.041
1082.03	55.843
1085.73	6.447
1089.44	42.508
1093.14	67.558
1096.85	7.27
1100.55	10.002
1104.25	7.352
1107.94	18.28
1111.64	10.862
1115.33	10.499
1119.03	28.096
1122.72	23.697
1126.4	18.404
1130.09	22.108
1133.78	3.425
1137.46	3.051
1141.14	9.114
1144.82	5.201
1148.5	7.908
1152.18	11.212
1155.85	16.317
1159.53	2.306
1163.2	42.191
1166.87	45.637
1170.54	23.016
1174.2	8.635
1177.87	13.478
1181.53	4.013
1185.19	4.212
1188.85	36.86
1192.51	20.543
1196.16	35.971
1199.82	113.391
1203.47	26.899
1207.12	23.298
1210.77	23.528
1214.42	27.163
1218.07	48.281
1221.71	58.362
1225.35	36.357
1228.99	65.338
1232.63	20.078
1236.27	30.099
1239.91	30.92
1243.54	30.668
1247.17	44.39
1250.8	52.445
1254.43	77.755
1258.06	45.741
1261.69	53.277
1265.31	26.766
1268.93	46.249
1272.55	56.857
1276.17	14.225
1279.79	55.867
1283.4	30.179
1287.02	54.939
1290.63	41.53
1294.24	63.986
1297.85	27.385
1301.46	38.748
1305.06	11.064
1308.67	0.338
1312.27	29.657
1315.87	35.384
1319.47	28.526
1323.07	29.11
1326.66	22.606
1330.26	23.702
1333.85	54.29
1337.44	34.719
1341.03	18.411
1344.61	3.61
1348.2	11.005
1351.78	16.109
1355.37	4.008
1358.95	46.477
1362.53	62.507
1366.1	31.724
1369.68	25.836
1373.25	8.986
1376.82	15.761
1380.39	26.04
1383.96	28.24
1387.53	17.725
1391.1	24.174
1394.66	17.371
1398.22	17.412
1401.79	55.343
1405.34	52.621
1408.9	5.763
1412.46	27.871
1416.01	11.735
1419.56	20.859
1423.12	4.903
1426.66	0.833
1430.21	4.225
1433.76	29.559
1437.3	24.321
1440.85	7.61
1444.39	16.591
1447.93	28.46
1451.46	32.796
1455	35.589
1458.54	12.391
1462.07	40.199
1465.6	24.609
1469.13	45.561
1472.66	53.912
1476.18	24.101
1479.71	26.592
1483.23	4.26
1486.76	27.123
1490.28	27.626
1493.79	31.166
1497.31	29.803
1500.83	20.667
1504.34	9.342
1507.85	21.401
1511.36	80.67
1514.87	53.732
1518.38	45.995
