Measurement: Raman, 514 nm, ccw, Raman Data Processed
Mineral: Hubnerite
Rruff sample: R050069
Ideal chemistry: Mn^2+^WO_4_
Locality: Yaogangxian, Yizhang County, Hunan Province, China
Source: Rock Currier
Description: Black colored prismatic single crystal
Measured chemistry: (Mn_0.68_Fe_0.32_)W_1.00_O_4_
Pin_id: L00211
Orientation: Laser parallel to a* (1 0 0). Fiducial mark perpendicular to laser is parallel to -b [0 -1 0]
Raman shift (cm-1)	intensity
151.324	0
155.481	106.698
159.636	40.695
163.789	62.839
167.939	15.139
172.088	50.783
176.234	99.861
180.379	46.494
184.521	82.82
188.662	107.494
192.8	178.684
196.937	357.033
201.071	603.151
205.203	1154.59
209.333	1650.55
213.462	1552
217.588	945.682
221.712	512.433
225.834	312.704
229.954	228.61
234.072	139.795
238.188	52.421
242.302	114.067
246.414	27.106
250.523	14.261
254.631	74.259
258.737	45.021
262.841	66.302
266.943	79.141
271.042	39.18
275.14	22.19
279.236	30.494
283.33	50.52
287.421	18.746
291.511	35.517
295.599	97.135
299.684	150.635
303.768	132.472
307.85	272.194
311.929	415.876
316.007	677.725
320.083	1216.75
324.156	2158.97
328.228	2995.36
332.298	2845.2
336.365	2014.47
340.431	1386.36
344.495	1020.35
348.556	705.045
352.616	574.755
356.674	524.908
360.729	414.713
364.783	393.79
368.835	292.386
372.884	324.24
376.932	305.521
380.978	244.257
385.022	183.928
389.064	171.851
393.104	197.959
397.141	184.522
401.177	208.439
405.211	195.897
409.243	208.98
413.273	180.871
417.301	172.721
421.327	183.54
425.351	232.736
429.374	160.888
433.394	117.456
437.412	134.393
441.428	207.908
445.443	162.728
449.455	169.451
453.465	251.861
457.474	193.58
461.48	175.408
465.485	131.262
469.487	87.512
473.488	186.506
477.487	162.269
481.483	152.438
485.478	99.986
489.471	147.091
493.462	151.716
497.451	148.922
501.438	145.727
505.423	80.15
509.406	208.208
513.388	180.929
517.367	157.324
521.344	119.396
525.32	140.146
529.293	135.144
533.265	119.46
537.234	200.208
541.202	169.229
545.168	194.551
549.132	203.511
553.094	184.814
557.054	100.228
561.012	109.275
564.968	114.896
568.923	48.779
572.875	54.453
576.825	51.8
580.774	60.78
584.721	16.978
588.665	7.984
592.608	70.405
596.549	8.687
600.488	55.476
604.425	68.358
608.361	10.33
612.294	24.308
616.225	45.398
620.155	52.186
624.083	29.733
628.008	28.11
631.932	61.85
635.854	91.156
639.774	74.38
643.693	58.444
647.609	78.727
651.523	95.871
655.436	118.927
659.346	142.135
663.255	143.003
667.162	208.178
671.067	288.281
674.97	366.288
678.871	461.591
682.771	679.821
686.668	924.941
690.564	1112.93
694.458	1383.47
698.35	1517.06
702.24	1409.64
706.128	1243.28
710.014	930.797
713.898	732.021
717.781	515.425
721.662	391.912
725.541	296.609
729.418	239.876
733.293	210.61
737.166	161.719
741.037	101.597
744.907	107.755
748.775	42.87
752.64	9.609
756.504	28.305
760.367	3.82
764.227	23.892
768.085	64.291
771.942	48.06
775.797	44.772
779.65	98.126
783.501	37.085
787.35	40.269
791.197	56.42
795.043	74.76
798.887	71.141
802.728	60.587
806.568	78.125
810.407	103.732
814.243	122.397
818.078	104.606
821.91	89.75
825.741	124.601
829.57	86.513
833.398	205.55
837.223	209.189
841.047	272.409
844.868	313.075
848.688	454.802
852.507	538.966
856.323	737.254
860.137	1049.67
863.95	1521.39
867.761	2186.96
871.57	3377.61
875.377	5300.32
879.183	8432.11
882.987	11452.1
886.788	11002.2
890.588	7412.47
894.387	4411.31
898.183	2479.51
901.978	1642.82
905.771	1095.36
909.562	692.764
913.351	517.39
917.138	342.135
920.924	280.999
924.708	275.943
928.49	222.946
932.27	157.015
936.048	125.141
939.825	91.319
943.6	89.546
947.373	126.821
951.144	136.146
954.914	97.517
958.682	111.931
962.448	59.391
966.212	13.08
969.974	7.317
973.735	4.245
977.494	6.097
981.251	2.521
985.006	11.152
988.76	4.152
992.512	31.898
996.262	1.752
1000.01	24.472
1003.76	61.371
1007.5	2.639
1011.24	2.312
1014.99	7.667
1018.72	39.812
1022.46	37.065
1026.2	20.016
1029.93	0.381
1033.66	41.399
1037.39	17.353
1041.12	36.072
1044.85	58.104
1048.58	65.069
1052.3	62.646
1056.02	40.62
1059.74	52.331
1063.46	70.598
1067.18	45.594
1070.89	57.956
1074.6	131.955
1078.32	118.456
1082.03	58.401
1085.73	82.532
1089.44	94.452
1093.14	74.369
1096.85	34.524
1100.55	43.4
1104.25	33.285
1107.94	90.311
1111.64	13.095
1115.33	5.801
1119.03	47.247
1122.72	36.98
1126.4	192.764
1130.09	31.413
1133.78	60.702
1137.46	40.91
1141.14	42.875
1144.82	10.415
1148.5	23.135
1152.18	43.905
1155.85	23.89
1159.53	1.864
1163.2	29.556
1166.87	14.818
1170.54	15.545
1174.2	1.493
1177.87	7.044
1181.53	42.494
1185.19	74.545
1188.85	90.056
1192.51	55.305
1196.16	21.344
1199.82	80.148
1203.47	59.694
1207.12	85.213
1210.77	102.901
1214.42	11.47
1218.07	61.802
1221.71	114.94
1225.35	93.889
1228.99	27.07
1232.63	137.336
1236.27	69.204
1239.91	51.893
1243.54	94.503
1247.17	115.082
1250.8	96.577
1254.43	102.013
1258.06	55.609
1261.69	104.973
1265.31	26.315
1268.93	52.825
1272.55	53.721
1276.17	74.732
1279.79	20.687
1283.4	35.474
1287.02	70.881
1290.63	47.313
1294.24	44.043
1297.85	16.456
1301.46	52.563
1305.06	43.043
1308.67	47.891
1312.27	35.545
1315.87	3.51
1319.47	43.842
1323.07	43.173
1326.66	29.497
1330.26	1.858
1333.85	17.93
1337.44	14.333
1341.03	47.604
1344.61	8.742
1348.2	42.005
1351.78	58.201
1355.37	11.783
1358.95	58.468
1362.53	83.477
1366.1	91.398
1369.68	83.602
1373.25	37.012
1376.82	42.308
1380.39	99.168
1383.96	66.932
1387.53	87.692
1391.1	80.033
1394.66	89.565
1398.22	36.968
1401.79	11.225
1405.34	137.75
1408.9	57.709
1412.46	60.54
1416.01	71.682
1419.56	79.822
1423.12	95.431
1426.66	19.424
1430.21	16.125
1433.76	55.278
1437.3	22.259
1440.85	43.503
1444.39	55.135
1447.93	69.183
1451.46	44.686
1455	45.823
1458.54	12.207
1462.07	101.125
1465.6	26.83
1469.13	35.267
1472.66	35.982
1476.18	55.353
1479.71	56.436
1483.23	2.802
1486.76	46.234
1490.28	75.16
1493.79	38.682
1497.31	107.372
1500.83	71.55
1504.34	47.517
1507.85	37.92
1511.36	41.641
1514.87	0.797
1518.38	48.912
