Measurement: Raman, 514 nm, ccw, Raman Data Processed
Mineral: Hubnerite
Rruff sample: R050069
Ideal chemistry: Mn^2+^WO_4_
Locality: Yaogangxian, Yizhang County, Hunan Province, China
Source: Rock Currier
Description: Black colored prismatic single crystal
Measured chemistry: (Mn_0.68_Fe_0.32_)W_1.00_O_4_
Pin_id: L00211
Orientation: Laser parallel to a* (1 0 0). Fiducial mark perpendicular to laser is parallel to -b [0 -1 0]
Raman shift (cm-1)	intensity
151.324	0
155.481	96.324
159.636	45.004
163.789	32.112
167.939	60.382
172.088	84.572
176.234	42.142
180.379	50.551
184.521	47.903
188.662	87.563
192.8	100.761
196.937	273.346
201.071	444.462
205.203	799.382
209.333	1035.78
213.462	847.961
217.588	468.349
221.712	218.252
225.834	201.926
229.954	187.248
234.072	100.085
238.188	45.567
242.302	104.931
246.414	30.718
250.523	29.98
254.631	30.888
258.737	0.24
262.841	54.073
266.943	53.349
271.042	48.695
275.14	12.671
279.236	14.834
283.33	30.778
287.421	16.874
291.511	7.631
295.599	10.698
299.684	69.557
303.768	32.485
307.85	120.508
311.929	141.827
316.007	327.778
320.083	601.374
324.156	1053.74
328.228	1414.84
332.298	1237.75
336.365	874.26
340.431	551.639
344.495	438.319
348.556	278.761
352.616	271.224
356.674	269.674
360.729	250.007
364.783	258.628
368.835	230.985
372.884	270.339
376.932	256.932
380.978	291.725
385.022	275.031
389.064	392.177
393.104	645.339
397.141	1256.49
401.177	1567.17
405.211	1004.21
409.243	555.345
413.273	259.969
417.301	156.214
421.327	195.457
425.351	107.32
429.374	74.591
433.394	70.673
437.412	36.338
441.428	51.648
445.443	72.904
449.455	47.716
453.465	56.13
457.474	62.329
461.48	49.312
465.485	69.953
469.487	48.88
473.488	58.886
477.487	51.043
481.483	65.071
485.478	100.057
489.471	178.612
493.462	172.711
497.451	94.613
501.438	145.823
505.423	221.215
509.406	267.833
513.388	327.47
517.367	280.789
521.344	370.411
525.32	454.772
529.293	548.835
533.265	725.747
537.234	873.937
541.202	1002.8
545.168	1019.75
549.132	943
553.094	718.102
557.054	539.072
561.012	440.929
564.968	293.679
568.923	211.341
572.875	164.85
576.825	138.681
580.774	93.944
584.721	85.155
588.665	34.774
592.608	5.857
596.549	0.594
600.488	32.062
604.425	8.453
608.361	24.89
612.294	26.879
616.225	80.83
620.155	2.811
624.083	5.504
628.008	14.436
631.932	7.539
635.854	9.437
639.774	14.701
643.693	14.789
647.609	18.108
651.523	2.91
655.436	5.226
659.346	9.55
663.255	20.016
667.162	46.428
671.067	48.788
674.97	145.099
678.871	181.369
682.771	173.615
686.668	304.839
690.564	354.039
694.458	482.209
698.35	444.38
702.24	441.559
706.128	360.709
710.014	305.829
713.898	180.931
717.781	154.008
721.662	101.063
725.541	90.098
729.418	72.118
733.293	51.127
737.166	66.081
741.037	5.969
744.907	41.319
748.775	68.215
752.64	48.303
756.504	14.279
760.367	4.93
764.227	16.624
768.085	33.102
771.942	48.829
775.797	92.966
779.65	130.099
783.501	92.612
787.35	156.2
791.197	142.871
795.043	176.518
798.887	194.516
802.728	184.393
806.568	194.266
810.407	287.429
814.243	272.945
818.078	254.738
821.91	312.127
825.741	377.552
829.57	368.003
833.398	434.62
837.223	591.233
841.047	666.262
844.868	716.833
848.688	918.061
852.507	1115.94
856.323	1452.6
860.137	1976.29
863.95	2635.62
867.761	3803.38
871.57	5732.17
875.377	8818.14
879.183	13698
882.987	17538.5
886.788	15358.5
890.588	9648.44
894.387	5331.47
898.183	2977.14
901.978	1843.26
905.771	1186.3
909.562	777.876
913.351	561.842
917.138	416.123
920.924	319.496
924.708	213.91
928.49	157.897
932.27	166.866
936.048	89.423
939.825	104.018
943.6	141.655
947.373	159.347
951.144	105.111
954.914	112.949
958.682	64.846
962.448	116.787
966.212	16.778
969.974	84.951
973.735	36.025
977.494	45.123
981.251	8.382
985.006	20.544
988.76	4.402
992.512	7.782
996.262	5.715
1000.01	31.866
1003.76	5.468
1007.5	5.71
1011.24	29.257
1014.99	44.402
1018.72	56.601
1022.46	47.836
1026.2	22.407
1029.93	10.487
1033.66	18.763
1037.39	52.028
1041.12	38.302
1044.85	5.018
1048.58	20.362
1052.3	36.015
1056.02	32.371
1059.74	24.569
1063.46	35.46
1067.18	58.207
1070.89	55.813
1074.6	58.384
1078.32	71.855
1082.03	11.424
1085.73	29.886
1089.44	53.514
1093.14	55.177
1096.85	41.618
1100.55	69.054
1104.25	32.523
1107.94	27.93
1111.64	49.325
1115.33	4.705
1119.03	41.099
1122.72	43.391
1126.4	5.777
1130.09	45.115
1133.78	35.347
1137.46	11.294
1141.14	21.192
1144.82	34.392
1148.5	47.379
1152.18	51.915
1155.85	19.476
1159.53	34.557
1163.2	11.638
1166.87	14.707
1170.54	36.521
1174.2	24.428
1177.87	40.908
1181.53	96.291
1185.19	2.279
1188.85	18.462
1192.51	59.973
1196.16	2.779
1199.82	51.63
1203.47	44.441
1207.12	56.232
1210.77	5.826
1214.42	28.633
1218.07	27.1
1221.71	63.438
1225.35	50.734
1228.99	50.845
1232.63	50.973
1236.27	20.159
1239.91	77.112
1243.54	89.035
1247.17	80.919
1250.8	89.654
1254.43	60.813
1258.06	76.752
1261.69	78.951
1265.31	76.701
1268.93	94.393
1272.55	126.965
1276.17	53.486
1279.79	77.096
1283.4	54.451
1287.02	53.146
1290.63	50.602
1294.24	40.904
1297.85	53.925
1301.46	60.841
1305.06	55.445
1308.67	5.307
1312.27	2.105
1315.87	24.159
1319.47	4.5
1323.07	6.279
1326.66	3.189
1330.26	59.011
1333.85	31.633
1337.44	49.611
1341.03	30.584
1344.61	32.725
1348.2	21.053
1351.78	18.417
1355.37	27.875
1358.95	53.836
1362.53	30.396
1366.1	82.107
1369.68	57.721
1373.25	85.234
1376.82	54.009
1380.39	52.291
1383.96	45.023
1387.53	66.662
1391.1	12.283
1394.66	95.712
1398.22	21.11
1401.79	60.413
1405.34	84.753
1408.9	114.934
1412.46	69.543
1416.01	86.376
1419.56	68.045
1423.12	43.629
1426.66	0.796
1430.21	5.47
1433.76	36.131
1437.3	37.765
1440.85	65.777
1444.39	46.817
1447.93	41.784
1451.46	7.41
1455	24.036
1458.54	61.675
1462.07	19.961
1465.6	71.152
1469.13	15.54
1472.66	38.954
1476.18	63.808
1479.71	0.316
1483.23	17.253
1486.76	34.05
1490.28	60.359
1493.79	82.673
1497.31	75.987
1500.83	27.731
1504.34	32.434
1507.85	31.476
1511.36	7.002
1514.87	0.206
1518.38	5.841
