Measurement: Raman, 514 nm, ccw, Raman Data Processed
Mineral: Hubnerite
Rruff sample: R050139
Ideal chemistry: Mn^2+^WO_4_
Locality: Pasto Bueno District, Pallasca Province, Ancash Department, Peru
Source: Dave Bunk Minerals
Description: Black tabular crystals associated with quartz
Measured chemistry: (Mn^2+^_0.79_Fe^2+^_0.20_)W_1.00_O4
Pin_id: L00188
Orientation: Laser parallel to -c* (0 0 -1). Fiducial mark perpendicular to laser is parallel to -a [-1 0 0]
Raman shift (cm-1)	intensity
88.728	0
92.926	202.262
97.121	245.156
101.314	241.308
105.505	303.318
109.694	140.384
113.881	371.034
118.066	204.636
122.249	721.986
126.43	2699.58
130.608	3253.47
134.785	1434.54
138.959	864.694
143.131	445.832
147.301	229.761
151.469	62.404
155.635	14.19
159.799	34.825
163.961	105.136
168.121	39.494
172.278	69.928
176.434	53.302
180.587	21.342
184.739	19.34
188.888	13.431
193.035	58.375
197.18	118.79
201.324	905.083
205.465	298.825
209.603	196.122
213.74	86.85
217.875	29.389
222.008	4.521
226.139	36.41
230.267	5.31
234.394	4.25
238.518	70.561
242.641	41.878
246.761	41.586
250.879	27.834
254.996	22.566
259.11	195.661
263.222	358.904
267.332	353.824
271.44	296.783
275.546	414.367
279.65	460.369
283.752	505.867
287.852	512.167
291.95	591.553
296.046	620.588
300.14	645.412
304.231	601.354
308.321	620.718
312.409	721.513
316.495	674.839
320.578	743.98
324.66	762.833
328.739	741.8
332.817	735.931
336.892	760.304
340.966	783.376
345.037	756.65
349.107	757.194
353.174	840.995
357.24	818.877
361.303	834.985
365.365	866.54
369.424	841.336
373.481	863.686
377.537	880.979
381.59	876.312
385.642	1011.86
389.691	1319.21
393.738	2356.66
397.784	3367.61
401.827	2621.59
405.868	1470.61
409.908	1088.37
413.945	867.029
417.98	690.565
422.014	601.022
426.045	579.738
430.075	528.227
434.102	488.838
438.127	569.915
442.151	538.725
446.172	579.583
450.192	519.896
454.209	517.975
458.225	489.212
462.238	491.927
466.25	443.556
470.259	392.088
474.267	452.868
478.273	400.521
482.276	389.588
486.278	354.79
490.278	362.819
494.276	364.797
498.271	279.749
502.265	285.777
506.257	262.2
510.247	237.717
514.235	223.743
518.221	215.852
522.205	206.507
526.187	202.363
530.167	173.94
534.145	207.557
538.122	181.094
542.096	199.568
546.068	170.034
550.039	125.531
554.007	79.071
557.973	40.644
561.938	40.28
565.901	51.079
569.861	83.978
573.82	25.996
577.777	34.079
581.732	6.091
585.685	13.877
589.636	22.129
593.585	45.523
597.532	26.656
601.477	7.137
605.42	17.176
609.361	45.458
613.301	50.766
617.238	37.953
621.174	14.249
625.108	39.544
629.039	3.354
632.969	17.975
636.897	13.073
640.823	60.44
644.747	11.908
648.669	63.378
652.589	60.961
656.508	102.325
660.424	140.56
664.339	172.923
668.251	255.339
672.162	404.141
676.071	541.514
679.978	720.51
683.883	992.888
687.786	1482.74
691.687	1989.68
695.586	2528.06
699.484	2685.86
703.379	2530.41
707.273	1550.77
711.165	992.175
715.055	735.689
718.943	508.973
722.829	330.127
726.713	168.078
730.595	147.209
734.476	82.432
738.354	97.21
742.231	23.778
746.106	1.516
749.978	31.11
753.849	24.611
757.719	94.002
761.586	105.912
765.451	243.495
769.315	337.118
773.177	388.585
777.036	426.508
780.894	344.368
784.75	325.848
788.605	277.027
792.457	235.343
796.307	265.435
800.156	207.516
804.003	165.316
807.848	183.259
811.691	131.345
815.532	227.585
819.371	276.001
823.209	346.535
827.045	353.882
830.878	395.077
834.71	491.07
838.54	642.208
842.369	767.497
846.195	946.112
850.02	1251.49
853.842	1638.29
857.663	2314.82
861.482	3262.83
865.299	4514.48
869.115	6698.35
872.928	10485.7
876.74	17897.4
880.55	30749.1
884.358	40571.3
888.164	31855.2
891.969	18318.7
895.771	10410.5
899.572	6005.55
903.371	3775.3
907.168	2568.18
910.963	1827.21
914.757	1270.37
918.548	992.644
922.338	799.018
926.126	659.49
929.912	508.053
933.697	387.704
937.479	330.283
941.26	320.266
945.039	280.197
948.816	223.176
952.591	256.262
956.365	240.375
960.136	218.598
963.906	148.946
967.674	116.377
971.441	59.346
975.205	70.758
978.968	55.85
982.729	37.074
986.488	30.628
990.245	39.223
994	1.016
997.754	22.78
1001.51	18.732
1005.26	37.576
1009	26.894
1012.75	13.712
1016.5	0.878
1020.24	10.683
1023.98	18.696
1027.72	22.137
1031.46	9.77
1035.19	12.988
1038.93	7.215
1042.66	16.98
1046.39	38.579
1050.12	88.281
1053.85	65.622
1057.57	77.993
1061.29	104.428
1065.02	49.667
1068.74	52.801
1072.45	107.897
1076.17	85.07
1079.88	124.106
1083.6	54.108
1087.31	67.099
1091.02	34.026
1094.72	45.911
1098.43	34.777
1102.13	82.574
1105.84	43.429
1109.54	53.851
1113.24	43.498
1116.93	29.071
1120.63	75.567
1124.32	96.999
1128.01	52.427
1131.7	55.952
1135.39	66.355
1139.08	6.717
1142.76	80.795
1146.45	44.855
1150.13	36.427
1153.81	49.711
1157.48	27.779
1161.16	38.882
1164.84	4.182
1168.51	15.972
1172.18	16.958
1175.85	66.598
1179.52	58.928
1183.18	37.935
1186.85	15.552
1190.51	24.949
1194.17	5.827
1197.83	4.158
1201.48	27.839
1205.14	26.814
1208.79	55.396
1212.44	78.939
1216.09	54.584
1219.74	48.328
1223.39	70.51
1227.03	79.306
1230.68	48.934
1234.32	122.272
1237.96	83.041
1241.6	65.215
1245.23	87.873
1248.87	104.814
1252.5	97.757
1256.13	93.083
1259.76	73.451
1263.39	82.469
1267.02	67.351
1270.64	46.502
1274.26	72.252
1277.88	39.386
1281.5	92.373
1285.12	70.216
1288.74	39.271
1292.35	20.939
1295.96	3.171
1299.57	9.717
1303.18	9.953
1306.79	47.161
1310.4	41.491
1314	16.667
1317.6	51.785
1321.2	26.955
1324.8	47.734
1328.4	59.23
1331.99	29.453
1335.59	0.312
1339.18	22
1342.77	25.294
1346.36	1.636
1349.95	29.984
1353.53	33.305
1357.12	64.598
1360.7	62.936
1364.28	65.637
1367.86	16.764
1371.44	31.666
1375.01	9.07
1378.59	53.698
1382.16	47.925
1385.73	60.967
1389.3	3.229
1392.87	4.213
1396.43	48.066
1399.99	99.449
1403.56	86.874
1407.12	48.879
1410.68	48.757
1414.23	47.928
1417.79	64.469
1421.34	35.872
1424.9	61.213
1428.45	7.594
1431.99	5.011
1435.54	42.991
1439.09	30.925
1442.63	53.621
1446.17	41.529
1449.71	43.249
1453.26	95.698
1456.79	75.201
1460.33	76.15
1463.86	73.719
1467.39	39.315
1470.92	124.198
1474.45	45.999
1477.98	71.618
1481.51	95.162
1485.03	107.849
1488.56	98.844
1492.08	84.49
1495.6	67.685
1499.11	82.711
1502.63	121.796
1506.14	64.183
1509.66	60.116
1513.17	28.856
1516.68	0
