Measurement: Raman, 514 nm, ccw, Raman Data Processed
Mineral: Hubnerite
Rruff sample: R050069
Ideal chemistry: Mn^2+^WO_4_
Locality: Yaogangxian, Yizhang County, Hunan Province, China
Source: Rock Currier
Description: Black colored prismatic single crystal
Measured chemistry: (Mn_0.68_Fe_0.32_)W_1.00_O_4_
Pin_id: L00322
Orientation: Laser parallel to (-1 0 -1). Fiducial mark perpendicular to laser is parallel to -b [0 -1 0]
Raman shift (cm-1)	intensity
149.938	0
154.096	115.681
158.251	94.788
162.405	13.245
166.556	59.01
170.705	122.334
174.853	78.469
178.998	40.393
183.141	2.514
187.282	119.438
191.421	210.313
195.558	375.908
199.693	582.098
203.826	890.056
207.957	1206.01
212.086	1048.65
216.213	625.136
220.337	357.412
224.46	268.066
228.581	222.895
232.699	125.951
236.816	70.254
240.931	20.897
245.043	55.171
249.154	25.278
253.262	0.691
257.369	42.282
261.473	36.406
265.576	16.696
269.676	67.545
273.775	60.953
277.871	26.718
281.965	29.905
286.058	10.88
290.148	85.929
294.236	0.652
298.323	48.635
302.407	43.062
306.489	85.687
310.57	150.994
314.648	395.634
318.724	612.687
322.799	1069.36
326.871	1392.49
330.941	1283.54
335.01	998.549
339.076	744.04
343.14	570.52
347.203	387.578
351.263	347.589
355.321	350.869
359.378	335.778
363.432	327.412
367.484	356.313
371.535	363.838
375.583	377.221
379.63	420.597
383.674	413.238
387.717	537.679
391.757	771.136
395.796	1389.67
399.832	1806.51
403.867	1277.76
407.899	715.047
411.93	497.631
415.959	366.259
419.986	363.007
424.01	288.182
428.033	223.622
432.054	232.336
436.073	217.829
440.09	207.834
444.105	212.71
448.118	124.272
452.129	142.43
456.138	176.632
460.145	152.676
464.15	140.78
468.153	116.984
472.155	82.493
476.154	90
480.151	125.234
484.147	138.214
488.14	163.78
492.132	230.853
496.122	268.821
500.109	270.258
504.095	292.255
508.079	309.031
512.061	405.669
516.041	377.458
520.019	497.947
523.995	531.995
527.969	637.885
531.941	775.757
535.911	895.322
539.88	1072.11
543.846	1096.9
547.811	913.955
551.773	778.826
555.734	558.535
559.693	454.107
563.65	317.56
567.605	199.952
571.558	190.258
575.509	148.403
579.458	82.187
583.405	55.768
587.351	11.936
591.294	20.06
595.236	14.662
599.175	24.12
603.113	26.017
607.049	26.564
610.983	44.269
614.915	5.506
618.845	0.967
622.774	10.403
626.7	7.437
630.625	37.229
634.547	13.965
638.468	4.135
642.387	2.253
646.304	7.4
650.219	55.947
654.132	73.891
658.043	25.215
661.952	42.652
665.86	55.153
669.766	120.622
673.669	156.044
677.571	252.425
681.471	289.769
685.369	337.093
689.266	410.411
693.16	473.72
697.053	476.015
700.943	448.302
704.832	403.567
708.719	269.817
712.604	256.045
716.487	144.25
720.368	109.432
724.248	80.601
728.125	89.751
732.001	66.444
735.875	41.057
739.747	82.16
743.617	19.199
747.486	22.504
751.352	7.935
755.217	17.81
759.079	32.684
762.94	41.041
766.799	149.519
770.657	209.587
774.512	239.908
778.365	155.099
782.217	191.519
786.067	192.976
789.915	221.72
793.761	170.866
797.606	181.333
801.448	205.394
805.289	261.133
809.128	263.322
812.965	303.261
816.8	331.537
820.633	391.267
824.465	337.087
828.294	459.185
832.122	560.212
835.948	614.164
839.772	686.383
843.595	828.123
847.415	997.382
851.234	1233.89
855.051	1637.47
858.866	2100.26
862.679	2909.04
866.491	4103.3
870.301	5987.77
874.109	8897.75
877.915	13337.3
881.719	17107
885.521	16006.6
889.322	11546.4
893.121	6956.36
896.918	4175.23
900.713	2571.2
904.506	1707.18
908.298	1163.29
912.088	809.469
915.876	648.32
919.662	474.669
923.447	454.125
927.229	294.661
931.01	347.267
934.789	159.934
938.566	114.688
942.342	110.545
946.116	60.485
949.888	203.563
953.658	172.63
957.426	127.785
961.193	78.038
964.957	43.778
968.72	61.134
972.482	60.538
976.241	2.984
979.999	29.463
983.755	45.981
987.509	24.242
991.261	3.609
995.012	19.132
998.761	26.684
1002.51	9.715
1006.25	14.762
1010	33.809
1013.74	44.726
1017.48	0.016
1021.22	38.653
1024.95	27.354
1028.69	28.17
1032.42	39.95
1036.15	41.726
1039.88	27.654
1043.61	119.534
1047.34	54.931
1051.06	41.898
1054.78	36.295
1058.5	9.25
1062.22	36.244
1065.94	14.338
1069.65	114.694
1073.37	73.495
1077.08	78.445
1080.79	85.492
1084.5	73.386
1088.2	81.412
1091.91	84.375
1095.61	94.466
1099.31	52.338
1103.01	78.204
1106.71	71.043
1110.41	32.139
1114.1	57.593
1117.8	53.766
1121.49	57.816
1125.18	54.412
1128.86	41.86
1132.55	52.397
1136.23	1.025
1139.92	55.608
1143.6	45.905
1147.28	28.984
1150.95	38.761
1154.63	14.976
1158.3	2.736
1161.97	5.844
1165.64	36.758
1169.31	7.929
1172.98	44.739
1176.65	67.93
1180.31	72.867
1183.97	62.135
1187.63	32.076
1191.29	4.127
1194.95	28.822
1198.6	5.722
1202.26	77.984
1205.91	53.84
1209.56	52.521
1213.2	31.43
1216.85	2.901
1220.5	90.49
1224.14	45.572
1227.78	39.584
1231.42	75.538
1235.06	97.433
1238.69	39.641
1242.33	67.577
1245.96	63.666
1249.59	77.354
1253.22	85.908
1256.85	74.075
1260.48	45.517
1264.1	95.263
1267.72	90.6
1271.35	73.715
1274.97	68.799
1278.58	78.702
1282.2	69.397
1285.81	29.942
1289.43	48.607
1293.04	21.167
1296.65	25.23
1300.26	36.98
1303.86	31.985
1307.47	24.243
1311.07	60.097
1314.67	67.536
1318.27	41.451
1321.87	27.882
1325.46	54.727
1329.06	44.281
1332.65	59.679
1336.24	65.546
1339.83	67.673
1343.42	3.976
1347	28.378
1350.59	47.384
1354.17	54.284
1357.75	101.869
1361.33	3.582
1364.91	93.135
1368.49	80.114
1372.06	40.052
1375.63	44.462
1379.2	48.342
1382.78	54.127
1386.34	65.064
1389.91	74.917
1393.47	71.207
1397.04	53.561
1400.6	40.988
1404.16	51.843
1407.72	97.69
1411.27	99.086
1414.83	89.898
1418.38	100.051
1421.93	9.705
1425.48	51.556
1429.03	54.002
1432.58	82.595
1436.12	28.406
1439.66	33.522
1443.21	91.396
1446.75	65.619
1450.29	76.918
1453.82	23.879
1457.36	60.428
1460.89	88.743
1464.42	85.748
1467.95	40.732
1471.48	8.106
1475.01	89.471
1478.54	40.555
1482.06	62.65
1485.58	103.004
1489.1	65.196
1492.62	109.763
1496.14	117.88
1499.65	78.825
1503.17	75.174
1506.68	34.537
1510.19	58.274
1513.7	70.499
1517.21	45.213
