Measurement: Raman, 514 nm, ccw, Raman Data Processed
Mineral: Hubnerite
Rruff sample: R050069
Ideal chemistry: Mn^2+^WO_4_
Locality: Yaogangxian, Yizhang County, Hunan Province, China
Source: Rock Currier
Description: Black colored prismatic single crystal
Measured chemistry: (Mn_0.68_Fe_0.32_)W_1.00_O_4_
Pin_id: L00211
Orientation: Laser parallel to a* (1 0 0). Fiducial mark perpendicular to laser is parallel to -b [0 -1 0]
Raman shift (cm-1)	intensity
149.938	0
154.096	57.719
158.251	109.868
162.405	29.626
166.556	87.034
170.705	108.671
174.853	149.061
178.998	55.616
183.141	22.281
187.282	89.271
191.421	0.883
195.558	247.184
199.693	370.303
203.826	629.131
207.957	987.688
212.086	1067.58
216.213	681.956
220.337	406.99
224.46	192.951
228.581	165.229
232.699	100.032
236.816	20.171
240.931	9.421
245.043	24.145
249.154	44.916
253.262	11.554
257.369	20.684
261.473	87.303
265.576	84.121
269.676	179.767
273.775	165.896
277.871	93.545
281.965	17.726
286.058	21.609
290.148	64.208
294.236	13.419
298.323	142.924
302.407	104.865
306.489	77.643
310.57	96.288
314.648	203.825
318.724	352.626
322.799	564.104
326.871	914.076
330.941	1071.56
335.01	792.585
339.076	576.964
343.14	434.597
347.203	467.474
351.263	364.993
355.321	348.23
359.378	367.825
363.432	353.641
367.484	343.58
371.535	296.383
375.583	258.482
379.63	212.893
383.674	321.335
387.717	138.506
391.757	189.548
395.796	289.232
399.832	405.845
403.867	341.259
407.899	179.266
411.93	135.324
415.959	115.44
419.986	132.383
424.01	122.116
428.033	113.555
432.054	91.887
436.073	54.439
440.09	85.044
444.105	62.642
448.118	153.345
452.129	141.183
456.138	124.13
460.145	24.621
464.15	54.064
468.153	49.545
472.155	20.996
476.154	57.851
480.151	83.827
484.147	95.886
488.14	103.568
492.132	131.699
496.122	168.277
500.109	158.458
504.095	191.266
508.079	257.745
512.061	391.924
516.041	380.758
520.019	291.356
523.995	235.547
527.969	265.461
531.941	307.671
535.911	325.1
539.88	349.815
543.846	351.802
547.811	371.548
551.773	283.095
555.734	241.658
559.693	154.903
563.65	94.091
567.605	104.381
571.558	49.608
575.509	78.392
579.458	31.262
583.405	6.051
587.351	8.495
591.294	36.691
595.236	9.708
599.175	19.074
603.113	14.898
607.049	34.875
610.983	5.19
614.915	6.556
618.845	23.574
622.774	29.916
626.7	30.359
630.625	2.263
634.547	26.617
638.468	62.935
642.387	21.556
646.304	20.994
650.219	115.487
654.132	79.436
658.043	126.142
661.952	130.606
665.86	221.104
669.766	269.56
673.669	255.006
677.571	445.426
681.471	514.805
685.369	550.143
689.266	665.449
693.16	772.751
697.053	794.046
700.943	777.331
704.832	689.61
708.719	549.904
712.604	462.193
716.487	247.469
720.368	249.604
724.248	167.656
728.125	101.385
732.001	134.079
735.875	63.437
739.747	44.619
743.617	78.943
747.486	80.971
751.352	49.183
755.217	41.23
759.079	65.622
762.94	102.866
766.799	83.221
770.657	86.489
774.512	110.743
778.365	123.847
782.217	70.975
786.067	32.836
789.915	52.089
793.761	11.615
797.606	0.704
801.448	72.063
805.289	49.079
809.128	67.156
812.965	52.292
816.8	71.494
820.633	117.7
824.465	110.923
828.294	168.408
832.122	203.615
835.948	253.01
839.772	262.478
843.595	316.611
847.415	382.843
851.234	521.431
855.051	615.068
858.866	887.223
862.679	1256.94
866.491	1781.72
870.301	2574.55
874.109	3932.42
877.915	6217.34
881.719	8928.31
885.521	9688.33
889.322	7468.4
893.121	4427.52
896.918	2559.71
900.713	1443.95
904.506	926.724
908.298	646.534
912.088	462.073
915.876	363.708
919.662	264.43
923.447	186.213
927.229	193.054
931.01	133.939
934.789	168.693
938.566	108.667
942.342	81.692
946.116	58.761
949.888	101.029
953.658	93.046
957.426	89.208
961.193	36.397
964.957	39.462
968.72	31.299
972.482	21.92
976.241	24.883
979.999	13.666
983.755	6.447
987.509	39.35
991.261	33.56
995.012	31.29
998.761	12.83
1002.51	19.446
1006.25	30.073
1010	12.437
1013.74	57.574
1017.48	72.735
1021.22	38.091
1024.95	74.776
1028.69	71.267
1032.42	65.622
1036.15	42.874
1039.88	32.143
1043.61	30.462
1047.34	82.352
1051.06	43.632
1054.78	115.962
1058.5	61.704
1062.22	67.309
1065.94	73.983
1069.65	92.299
1073.37	86.64
1077.08	103.918
1080.79	78.421
1084.5	85.646
1088.2	41.927
1091.91	64.267
1095.61	60.409
1099.31	69.513
1103.01	28.583
1106.71	72.583
1110.41	81.581
1114.1	40.621
1117.8	34.063
1121.49	35.395
1125.18	64.153
1128.86	68.421
1132.55	104.972
1136.23	84.796
1139.92	47.389
1143.6	43.434
1147.28	17.102
1150.95	2.705
1154.63	46.605
1158.3	79.086
1161.97	22.745
1165.64	57.053
1169.31	20.75
1172.98	25.649
1176.65	24.062
1180.31	65.176
1183.97	41.626
1187.63	84.765
1191.29	43.766
1194.95	73.834
1198.6	30.297
1202.26	36.197
1205.91	62.657
1209.56	13.318
1213.2	65.044
1216.85	59.555
1220.5	83.854
1224.14	33.389
1227.78	66.672
1231.42	90.094
1235.06	2.82
1238.69	80.192
1242.33	60.124
1245.96	53.872
1249.59	102.797
1253.22	103.678
1256.85	42.387
1260.48	44.644
1264.1	83.718
1267.72	50.933
1271.35	31.132
1274.97	61.966
1278.58	42.11
1282.2	46.696
1285.81	79.287
1289.43	77.083
1293.04	53.312
1296.65	31.577
1300.26	71.406
1303.86	20.989
1307.47	10.187
1311.07	4.362
1314.67	7.742
1318.27	10.822
1321.87	49.297
1325.46	60.58
1329.06	30.802
1332.65	37.954
1336.24	36.958
1339.83	17.334
1343.42	30.164
1347	12.977
1350.59	15.325
1354.17	9.476
1357.75	22.042
1361.33	81.552
1364.91	33.969
1368.49	27.266
1372.06	18.484
1375.63	36.935
1379.2	49.042
1382.78	69.44
1386.34	53.897
1389.91	56.211
1393.47	49.486
1397.04	82.523
1400.6	70.522
1404.16	85.573
1407.72	67.694
1411.27	26.948
1414.83	35.308
1418.38	105.118
1421.93	60.842
1425.48	54.351
1429.03	74.212
1432.58	9.894
1436.12	15.937
1439.66	3.259
1443.21	40.576
1446.75	54.567
1450.29	34.031
1453.82	7.292
1457.36	32.345
1460.89	26.006
1464.42	87.586
1467.95	103.699
1471.48	87.571
1475.01	31.866
1478.54	26.497
1482.06	14.116
1485.58	47.131
1489.1	65.819
1492.62	44.58
1496.14	24.31
1499.65	52.261
1503.17	53.409
1506.68	62.92
1510.19	62.072
1513.7	59.174
1517.21	64.359
