Measurement: Raman, 514 nm, ccw, Raman Data Processed
Mineral: Hubnerite
Rruff sample: R050069
Ideal chemistry: Mn^2+^WO_4_
Locality: Yaogangxian, Yizhang County, Hunan Province, China
Source: Rock Currier
Description: Black colored prismatic single crystal
Measured chemistry: (Mn_0.68_Fe_0.32_)W_1.00_O_4_
Pin_id: L00506
Orientation: Laser parallel to b* (0 1 0). Fiducial mark perpendicular to laser is parallel to c [0 0 1]
Raman shift (cm-1)	intensity
149.938	0
154.096	101.635
158.251	31.775
162.405	3.956
166.556	168.155
170.705	161.547
174.853	131.438
178.998	73.87
183.141	2.229
187.282	188.719
191.421	109.099
195.558	274.1
199.693	296.319
203.826	317.082
207.957	254.026
212.086	184.011
216.213	154.292
220.337	109.632
224.46	153.1
228.581	179.006
232.699	202.169
236.816	141.975
240.931	106.827
245.043	26.441
249.154	103.271
253.262	141.108
257.369	238.787
261.473	208.734
265.576	315.589
269.676	138.443
273.775	143.353
277.871	49.263
281.965	37.901
286.058	43.104
290.148	16.94
294.236	26.683
298.323	37.113
302.407	34.345
306.489	50.849
310.57	90.423
314.648	252.522
318.724	493.095
322.799	963.887
326.871	1244.99
330.941	1385.1
335.01	1226.86
339.076	1057.09
343.14	743.886
347.203	652.457
351.263	492.874
355.321	471.896
359.378	425.25
363.432	352.254
367.484	312.576
371.535	329.676
375.583	344.147
379.63	369.538
383.674	349.932
387.717	417.656
391.757	608.754
395.796	953.564
399.832	1254.95
403.867	945.776
407.899	643.986
411.93	385.926
415.959	338.786
419.986	342.784
424.01	282.442
428.033	269.154
432.054	167.817
436.073	255.8
440.09	238.721
444.105	189.15
448.118	156.778
452.129	202.395
456.138	191.251
460.145	132.287
464.15	74.607
468.153	83.854
472.155	146.079
476.154	136.096
480.151	142.893
484.147	132.706
488.14	127.546
492.132	119.099
496.122	32.416
500.109	138.802
504.095	127.898
508.079	137.448
512.061	126.548
516.041	103.148
520.019	132.233
523.995	151.674
527.969	173.775
531.941	214.368
535.911	176.388
539.88	245.476
543.846	254.428
547.811	217.68
551.773	177.802
555.734	151.031
559.693	164.102
563.65	78.032
567.605	46.136
571.558	37.333
575.509	110.239
579.458	108.502
583.405	50.148
587.351	12.745
591.294	5.978
595.236	35.03
599.175	14.599
603.113	28.083
607.049	21.314
610.983	24.765
614.915	53.607
618.845	58.939
622.774	66.793
626.7	47.777
630.625	63.306
634.547	7.748
638.468	47.056
642.387	3.556
646.304	57.06
650.219	25.779
654.132	56.282
658.043	80.129
661.952	114.356
665.86	144.883
669.766	152.244
673.669	105.839
677.571	230.442
681.471	280.271
685.369	280.388
689.266	367.433
693.16	393.469
697.053	288.739
700.943	305.96
704.832	216.137
708.719	161.257
712.604	126.281
716.487	108.177
720.368	16.571
724.248	24.561
728.125	31.643
732.001	34.7
735.875	36.87
739.747	43.59
743.617	39.374
747.486	4.028
751.352	32.492
755.217	38.579
759.079	130.404
762.94	78.008
766.799	50.059
770.657	115.11
774.512	109.524
778.365	126.734
782.217	169.207
786.067	132.588
789.915	176.095
793.761	165.982
797.606	154.471
801.448	210.894
805.289	172.993
809.128	152.912
812.965	236.255
816.8	219.385
820.633	244.767
824.465	232.123
828.294	288.572
832.122	395.059
835.948	424.16
839.772	523.791
843.595	640.248
847.415	758.381
851.234	1017.01
855.051	1317.29
858.866	1792.96
862.679	2527.12
866.491	3682.44
870.301	5267.23
874.109	7950.02
877.915	11866.3
881.719	14553.3
885.521	13338.7
889.322	9524.21
893.121	6077.32
896.918	3816.93
900.713	2451.47
904.506	1703.41
908.298	1256.61
912.088	888.309
915.876	707.874
919.662	561.501
923.447	453.522
927.229	361.271
931.01	402.082
934.789	301.95
938.566	227.877
942.342	207.86
946.116	186.897
949.888	164.963
953.658	164.46
957.426	148.677
961.193	113.947
964.957	46.845
968.72	81.628
972.482	94.04
976.241	31.498
979.999	25.801
983.755	36.346
987.509	51.928
991.261	29.541
995.012	46.196
998.761	22.85
1002.51	6.494
1006.25	3.865
1010	42.366
1013.74	4.052
1017.48	47.961
1021.22	76.967
1024.95	64.49
1028.69	26.519
1032.42	3.891
1036.15	64.466
1039.88	37.325
1043.61	90.762
1047.34	28.384
1051.06	89.044
1054.78	34.036
1058.5	10.715
1062.22	19
1065.94	11.802
1069.65	91.583
1073.37	90.321
1077.08	97.073
1080.79	28.883
1084.5	60.771
1088.2	73.557
1091.91	95.349
1095.61	72.279
1099.31	42.075
1103.01	43.891
1106.71	81.652
1110.41	62.41
1114.1	8.164
1117.8	79.003
1121.49	61.841
1125.18	40.579
1128.86	36.311
1132.55	30.001
1136.23	75.088
1139.92	47.109
1143.6	27.848
1147.28	44.822
1150.95	18.708
1154.63	18.651
1158.3	12.071
1161.97	24.925
1165.64	25.483
1169.31	12.307
1172.98	31.746
1176.65	41.861
1180.31	81.737
1183.97	71.614
1187.63	55.094
1191.29	59.397
1194.95	37.198
1198.6	54.428
1202.26	68.712
1205.91	39.828
1209.56	40.751
1213.2	64.495
1216.85	104.783
1220.5	94.86
1224.14	46.375
1227.78	30.828
1231.42	113.976
1235.06	78.558
1238.69	102.771
1242.33	93.936
1245.96	86.057
1249.59	126.888
1253.22	84.077
1256.85	82.092
1260.48	91.121
1264.1	113.004
1267.72	98.908
1271.35	115.713
1274.97	79.568
1278.58	81.114
1282.2	83.48
1285.81	6.792
1289.43	61.956
1293.04	64.987
1296.65	93.939
1300.26	70.385
1303.86	49.244
1307.47	6.043
1311.07	13.48
1314.67	27.747
1318.27	19.237
1321.87	41.678
1325.46	20.98
1329.06	38.868
1332.65	43.304
1336.24	58.122
1339.83	29.729
1343.42	0.326
1347	52.527
1350.59	46.952
1354.17	66.754
1357.75	90.052
1361.33	111.284
1364.91	58.535
1368.49	80.866
1372.06	91.942
1375.63	48.164
1379.2	122.682
1382.78	93.303
1386.34	72.792
1389.91	63.257
1393.47	38.529
1397.04	115.689
1400.6	86.863
1404.16	72.427
1407.72	115.329
1411.27	112.201
1414.83	113.24
1418.38	103.231
1421.93	54.002
1425.48	37.475
1429.03	67.317
1432.58	63.708
1436.12	38.965
1439.66	56.774
1443.21	94.967
1446.75	57.884
1450.29	61.689
1453.82	142.445
1457.36	58.799
1460.89	55.467
1464.42	63.95
1467.95	79.968
1471.48	59.286
1475.01	79.071
1478.54	69.346
1482.06	94.828
1485.58	34.497
1489.1	120.073
1492.62	136.946
1496.14	92.997
1499.65	53.11
1503.17	35.837
1506.68	57.071
1510.19	55.644
1513.7	40.64
1517.21	68.554
1520.72	0
