Measurement: Raman, 514 nm, ccw, Raman Data Processed
Mineral: Hubnerite
Rruff sample: R050069
Ideal chemistry: Mn^2+^WO_4_
Locality: Yaogangxian, Yizhang County, Hunan Province, China
Source: Rock Currier
Description: Black colored prismatic single crystal
Measured chemistry: (Mn_0.68_Fe_0.32_)W_1.00_O_4_
Pin_id: L00322
Orientation: Laser parallel to (-1 0 -1). Fiducial mark perpendicular to laser is parallel to -b [0 -1 0]
Raman shift (cm-1)	intensity
151.324	0
155.481	144.38
159.636	7.542
163.789	66.168
167.939	272.303
172.088	395.438
176.234	152.793
180.379	102.365
184.521	67.729
188.662	114.86
192.8	244.517
196.937	247.878
201.071	325.181
205.203	441.633
209.333	451.267
213.462	289.427
217.588	186.227
221.712	132.392
225.834	58.284
229.954	23.284
234.072	85.609
238.188	70.11
242.302	22.292
246.414	40.255
250.523	25.823
254.631	68.894
258.737	12.206
262.841	144.625
266.943	106.08
271.042	175.607
275.14	205.2
279.236	99.713
283.33	71.945
287.421	1.333
291.511	29.955
295.599	104.403
299.684	16.854
303.768	14.854
307.85	36.934
311.929	7.639
316.007	124.587
320.083	203.611
324.156	376.001
328.228	480.467
332.298	412.251
336.365	369.115
340.431	333.539
344.495	265.263
348.556	273.354
352.616	284.976
356.674	305.983
360.729	251.974
364.783	293.417
368.835	252.059
372.884	266.994
376.932	276.271
380.978	309.794
385.022	351.475
389.064	354.968
393.104	505.921
397.141	652.291
401.177	708.533
405.211	453.932
409.243	404.985
413.273	320.736
417.301	265.73
421.327	247.22
425.351	229.127
429.374	193.177
433.394	203.686
437.412	229.541
441.428	251.802
445.443	217.796
449.455	207.55
453.465	186.769
457.474	215.125
461.48	165.305
465.485	198.667
469.487	182.669
473.488	179.102
477.487	141.451
481.483	164.163
485.478	166.855
489.471	193.922
493.462	209.871
497.451	235.902
501.438	310.525
505.423	262.923
509.406	331.511
513.388	325.512
517.367	328.714
521.344	263.033
525.32	221.102
529.293	298.89
533.265	328.504
537.234	360.974
541.202	400.113
545.168	352.448
549.132	323.784
553.094	244.804
557.054	231.256
561.012	168.542
564.968	156.664
568.923	186.649
572.875	160.468
576.825	180.521
580.774	52.6
584.721	71.293
588.665	26.48
592.608	2.354
596.549	14.624
600.488	9.654
604.425	14.907
608.361	22.363
612.294	1.134
616.225	1.723
620.155	9.093
624.083	34.03
628.008	27.16
631.932	18.247
635.854	5.944
639.774	44.378
643.693	1.256
647.609	25.071
651.523	30.783
655.436	19.651
659.346	28.935
663.255	35.333
667.162	145.668
671.067	166.953
674.97	184.188
678.871	219.382
682.771	223.449
686.668	265.604
690.564	311.744
694.458	267.878
698.35	257.003
702.24	226.131
706.128	182.265
710.014	135.383
713.898	42.474
717.781	5.467
721.662	33.164
725.541	78.937
729.418	37.568
733.293	54.559
737.166	39.745
741.037	97.376
744.907	148.178
748.775	64.509
752.64	151.565
756.504	244.688
760.367	342.061
764.227	488.827
768.085	666.62
771.942	801.449
775.797	798.085
779.65	750.283
783.501	737.505
787.35	604.199
791.197	541.786
795.043	428.212
798.887	399.971
802.728	300.078
806.568	272.138
810.407	286.486
814.243	219.976
818.078	145.61
821.91	214.484
825.741	246.397
829.57	255.361
833.398	318.851
837.223	358.714
841.047	467.873
844.868	528.349
848.688	679.039
852.507	850.988
856.323	1145.05
860.137	1565.08
863.95	2144.84
867.761	3060.61
871.57	4341.24
875.377	6588.82
879.183	9678.61
882.987	12008.6
886.788	11178.6
890.588	8198.55
894.387	5352.63
898.183	3274.82
901.978	2092.09
905.771	1360.47
909.562	940.95
913.351	728.526
917.138	507.198
920.924	404.96
924.708	272.81
928.49	261.751
932.27	156.763
936.048	296.844
939.825	203.026
943.6	130.298
947.373	130.675
951.144	110.726
954.914	59.271
958.682	140.894
962.448	88.573
966.212	79.303
969.974	51.86
973.735	34.681
977.494	54.178
981.251	16.444
985.006	31.927
988.76	1.111
992.512	24.147
996.262	4.816
1000.01	23.216
1003.76	22.274
1007.5	3.664
1011.24	17.674
1014.99	4.328
1018.72	22.665
1022.46	26.865
1026.2	51.736
1029.93	37.907
1033.66	82.173
1037.39	56.374
1041.12	72.847
1044.85	23.07
1048.58	49.755
1052.3	34.821
1056.02	66.574
1059.74	65.213
1063.46	77.584
1067.18	44.885
1070.89	78.26
1074.6	53.595
1078.32	98.947
1082.03	113.135
1085.73	79.557
1089.44	64.779
1093.14	23.388
1096.85	57.908
1100.55	83.154
1104.25	34.281
1107.94	32.524
1111.64	69.673
1115.33	77.71
1119.03	71.847
1122.72	42.73
1126.4	82.334
1130.09	74.783
1133.78	70.309
1137.46	82.447
1141.14	48.604
1144.82	14.089
1148.5	31.436
1152.18	82.657
1155.85	16.636
1159.53	28.564
1163.2	76.822
1166.87	42.617
1170.54	22.721
1174.2	45.591
1177.87	43.642
1181.53	72.163
1185.19	109.972
1188.85	20.402
1192.51	22.592
1196.16	42.429
1199.82	38.134
1203.47	85.72
1207.12	45.128
1210.77	56.861
1214.42	37.359
1218.07	82.533
1221.71	87.789
1225.35	70.288
1228.99	69.607
1232.63	70.672
1236.27	78.412
1239.91	42.26
1243.54	95.011
1247.17	77.683
1250.8	99.158
1254.43	131.527
1258.06	134.829
1261.69	49.15
1265.31	70.528
1268.93	151.628
1272.55	49.82
1276.17	130.822
1279.79	76.105
1283.4	29.652
1287.02	100.18
1290.63	132.483
1294.24	111.994
1297.85	130.322
1301.46	88.445
1305.06	1.726
1308.67	20.796
1312.27	28.703
1315.87	37.243
1319.47	28.047
1323.07	10.744
1326.66	0.875
1330.26	8.425
1333.85	47.192
1337.44	49.529
1341.03	60.077
1344.61	49.803
1348.2	56.699
1351.78	23.048
1355.37	73.576
1358.95	79.919
1362.53	57.28
1366.1	94.55
1369.68	6.66
1373.25	36.612
1376.82	74.447
1380.39	22.858
1383.96	97.779
1387.53	55.274
1391.1	66.677
1394.66	104.916
1398.22	118.135
1401.79	46.666
1405.34	113.209
1408.9	60.765
1412.46	62.057
1416.01	53.081
1419.56	62.656
1423.12	59.692
1426.66	45.595
1430.21	30.546
1433.76	61.752
1437.3	52.631
1440.85	68.526
1444.39	77.213
1447.93	46.936
1451.46	60.382
1455	42.865
1458.54	51.929
1462.07	40.09
1465.6	15.03
1469.13	79.203
1472.66	173.887
1476.18	118.095
1479.71	54.281
1483.23	24.945
1486.76	69.964
1490.28	82.34
1493.79	60.414
1497.31	72.506
1500.83	34.912
1504.34	0.538
1507.85	53.151
1511.36	28.533
1514.87	10.556
1518.38	0.105
