Measurement: Raman, 514 nm, ccw, Raman Data Processed
Mineral: Hubnerite
Rruff sample: R050069
Ideal chemistry: Mn^2+^WO_4_
Locality: Yaogangxian, Yizhang County, Hunan Province, China
Source: Rock Currier
Description: Black colored prismatic single crystal
Measured chemistry: (Mn_0.68_Fe_0.32_)W_1.00_O_4_
Pin_id: L00506
Orientation: Laser parallel to b* (0 1 0). Fiducial mark perpendicular to laser is parallel to c [0 0 1]
Raman shift (cm-1)	intensity
151.324	0
155.481	128.126
159.636	31.383
163.789	96.765
167.939	97.232
172.088	58.473
176.234	1.385
180.379	2.866
184.521	69.157
188.662	87.668
192.8	145.674
196.937	252.428
201.071	270.691
205.203	182.967
209.333	273.419
213.462	170.022
217.588	165.788
221.712	21.399
225.834	84.503
229.954	116.229
234.072	132.742
238.188	125.356
242.302	164.68
246.414	128.532
250.523	65.336
254.631	113.802
258.737	246.192
262.841	247.532
266.943	207.734
271.042	163.448
275.14	147.552
279.236	112.489
283.33	35.295
287.421	28.422
291.511	55.129
295.599	38.206
299.684	11.921
303.768	25.545
307.85	60.98
311.929	34.872
316.007	14.53
320.083	3.736
324.156	71.366
328.228	154.982
332.298	183.254
336.365	212.579
340.431	186.441
344.495	250.958
348.556	241.675
352.616	329.334
356.674	309.721
360.729	318.214
364.783	370.294
368.835	402.721
372.884	370.339
376.932	440.505
380.978	438.127
385.022	418.559
389.064	521.152
393.104	752.792
397.141	1084.71
401.177	1000.33
405.211	700.204
409.243	550.069
413.273	455.655
417.301	371.31
421.327	348.498
425.351	303.987
429.374	376.737
433.394	330.705
437.412	322.825
441.428	325.306
445.443	375.69
449.455	357.336
453.465	312.368
457.474	289.957
461.48	283.619
465.485	270.379
469.487	277.689
473.488	303.319
477.487	248.998
481.483	158.76
485.478	192.741
489.471	245.449
493.462	253.725
497.451	197.757
501.438	240.966
505.423	198.262
509.406	175.058
513.388	203.022
517.367	224.602
521.344	204.812
525.32	200.052
529.293	214.425
533.265	263.244
537.234	279.202
541.202	189.781
545.168	157.652
549.132	225.812
553.094	215.972
557.054	121.916
561.012	106.647
564.968	127.163
568.923	110.474
572.875	156.592
576.825	111.766
580.774	24.255
584.721	14.598
588.665	29.494
592.608	19.384
596.549	22.639
600.488	10.913
604.425	6.315
608.361	11.752
612.294	31.63
616.225	11.415
620.155	28.61
624.083	17.368
628.008	76.647
631.932	35.929
635.854	25.189
639.774	41.838
643.693	21.575
647.609	39.351
651.523	72.253
655.436	54.917
659.346	45.426
663.255	125.248
667.162	133.776
671.067	189.009
674.97	248.55
678.871	418.47
682.771	559.133
686.668	564.33
690.564	854.623
694.458	991.07
698.35	1009.25
702.24	994.451
706.128	796.55
710.014	622.491
713.898	454.224
717.781	364.7
721.662	242.322
725.541	199.999
729.418	122.929
733.293	144.342
737.166	124.599
741.037	66.701
744.907	30.677
748.775	41.301
752.64	1.249
756.504	106.89
760.367	67.949
764.227	79.304
768.085	133.426
771.942	128.633
775.797	81.106
779.65	181.329
783.501	117.521
787.35	145.666
791.197	141.404
795.043	152.943
798.887	111.4
802.728	164.106
806.568	196.178
810.407	111.095
814.243	114.172
818.078	170.538
821.91	175.962
825.741	155.453
829.57	219.978
833.398	248.133
837.223	334.584
841.047	356.89
844.868	491.844
848.688	624.143
852.507	795.469
856.323	1055.47
860.137	1365.51
863.95	2078.02
867.761	2971.55
871.57	4486.78
875.377	6863.14
879.183	9705.32
882.987	10476.2
886.788	8536.72
890.588	5587.28
894.387	3495.92
898.183	2068.65
901.978	1315.46
905.771	877.377
909.562	636.384
913.351	513.486
917.138	369.665
920.924	244.918
924.708	233.254
928.49	156.659
932.27	157.138
936.048	139.678
939.825	106.267
943.6	85.925
947.373	76.628
951.144	70.421
954.914	81.212
958.682	84.041
962.448	41.12
966.212	25.809
969.974	75.257
973.735	44.707
977.494	13.299
981.251	17.669
985.006	9.611
988.76	16.673
992.512	34.651
996.262	24.408
1000.01	21.509
1003.76	10.203
1007.5	16.651
1011.24	26.651
1014.99	60.955
1018.72	48.993
1022.46	38.172
1026.2	9.547
1029.93	3.462
1033.66	50.629
1037.39	73.656
1041.12	64.89
1044.85	71.95
1048.58	65.465
1052.3	33.502
1056.02	82.524
1059.74	83.539
1063.46	153.59
1067.18	121.753
1070.89	81.839
1074.6	110.887
1078.32	83.088
1082.03	75.102
1085.73	102.184
1089.44	111.059
1093.14	77.908
1096.85	19.728
1100.55	78.643
1104.25	51.401
1107.94	46.125
1111.64	50.958
1115.33	150.668
1119.03	87.289
1122.72	53.153
1126.4	60.126
1130.09	46.183
1133.78	36.11
1137.46	94.634
1141.14	72.341
1144.82	84.322
1148.5	51.387
1152.18	23.381
1155.85	7.094
1159.53	47.094
1163.2	84.188
1166.87	23.249
1170.54	22.268
1174.2	82.314
1177.87	75.768
1181.53	101.527
1185.19	67.576
1188.85	119.2
1192.51	83.695
1196.16	81.255
1199.82	77.06
1203.47	93.553
1207.12	56.892
1210.77	68.302
1214.42	39.998
1218.07	89.682
1221.71	58.776
1225.35	106.52
1228.99	55.215
1232.63	99.04
1236.27	103.767
1239.91	91.224
1243.54	52.639
1247.17	90.098
1250.8	82.506
1254.43	107.737
1258.06	55.902
1261.69	117.357
1265.31	70.431
1268.93	77.388
1272.55	7.307
1276.17	103.971
1279.79	17.521
1283.4	71.88
1287.02	53.251
1290.63	60.595
1294.24	29.87
1297.85	20.234
1301.46	0.792
1305.06	26.166
1308.67	22.435
1312.27	21.854
1315.87	17.662
1319.47	18.473
1323.07	31.713
1326.66	35.118
1330.26	46.485
1333.85	46.587
1337.44	66.851
1341.03	15.95
1344.61	31.612
1348.2	36.654
1351.78	49.608
1355.37	13.49
1358.95	115.084
1362.53	48.921
1366.1	80.578
1369.68	49.271
1373.25	23.436
1376.82	28.961
1380.39	55.287
1383.96	39.973
1387.53	111.674
1391.1	27.266
1394.66	61.848
1398.22	57.085
1401.79	84.437
1405.34	94.841
1408.9	56.679
1412.46	84.122
1416.01	56.409
1419.56	43.754
1423.12	42.088
1426.66	62.969
1430.21	98.782
1433.76	72.989
1437.3	60.697
1440.85	43.973
1444.39	25.23
1447.93	47.803
1451.46	53.651
1455	9.708
1458.54	116.318
1462.07	110.123
1465.6	61.737
1469.13	79.886
1472.66	76.956
1476.18	64.3
1479.71	83.624
1483.23	25.014
1486.76	69.232
1490.28	41.352
1493.79	66.905
1497.31	45.344
1500.83	55.435
1504.34	46.097
1507.85	40.449
1511.36	5.001
1514.87	61.062
1518.38	20.771
1521.88	0.003
