Measurement: Raman, 514 nm, ccw, Raman Data Processed
Mineral: Hubnerite
Rruff sample: R050139
Ideal chemistry: Mn^2+^WO_4_
Locality: Pasto Bueno District, Pallasca Province, Ancash Department, Peru
Source: Dave Bunk Minerals
Description: Black tabular crystals associated with quartz
Measured chemistry: (Mn^2+^_0.79_Fe^2+^_0.20_)W_1.00_O4
Pin_id: L00188
Orientation: Laser parallel to -c* (0 0 -1). Fiducial mark perpendicular to laser is parallel to -a [-1 0 0]
Raman shift (cm-1)	intensity
84.529	0
88.728	127.527
92.926	510.105
97.121	370.321
101.314	271.712
105.505	253.305
109.694	239.86
113.881	492.223
118.066	436.345
122.249	971.971
126.43	3348.54
130.608	3899.37
134.785	1437.69
138.959	802.138
143.131	417.955
147.301	148.774
151.469	70.937
155.635	83.344
159.799	334.77
163.961	1085.06
168.121	1354.79
172.278	533.911
176.434	307.76
180.587	185.131
184.739	268.032
188.888	249.59
193.035	344.331
197.18	483.36
201.324	716.467
205.465	1008.87
209.603	811.414
213.74	414.853
217.875	152.923
222.008	10.774
226.139	10.118
230.267	40.773
234.394	69.808
238.518	56.175
242.641	63.522
246.761	49.571
250.879	109.972
254.996	30.477
259.11	222.848
263.222	290.351
267.332	382.837
271.44	521.593
275.546	552.162
279.65	591.973
283.752	611.12
287.852	665.662
291.95	871.256
296.046	940.327
300.14	883.656
304.231	847.317
308.321	921.949
312.409	1027.26
316.495	1140.35
320.578	1456.06
324.66	1760.79
328.739	1781.92
332.817	1539.48
336.892	1358.62
340.966	1277.42
345.037	1377.71
349.107	1405.32
353.174	1450
357.24	1476.79
361.303	1413.6
365.365	1267.12
369.424	1152.74
373.481	1116.57
377.537	1080.54
381.59	1032.97
385.642	1013.9
389.691	1188.98
393.738	1712.58
397.784	2275.2
401.827	1659.84
405.868	1129.28
409.908	824.099
413.945	697.77
417.98	662.146
422.014	556.144
426.045	580.719
430.075	530.044
434.102	500.86
438.127	529.226
442.151	517.381
446.172	493.966
450.192	443.658
454.209	497.2
458.225	475.447
462.238	429.767
466.25	390.229
470.259	400.781
474.267	383.123
478.273	343.871
482.276	350.885
486.278	342.876
490.278	327.389
494.276	338.378
498.271	305.929
502.265	359.023
506.257	366.053
510.247	368.026
514.235	355.857
518.221	364.548
522.205	384.093
526.187	396.466
530.167	494.564
534.145	719.148
538.122	813.968
542.096	966.492
546.068	957.143
550.039	753.787
554.007	536.653
557.973	371.366
561.938	244.504
565.901	235.007
569.861	209.849
573.82	105.008
577.777	95.762
581.732	86.525
585.685	13.041
589.636	79.231
593.585	1.81
597.532	11.115
601.477	8.53
605.42	16.179
609.361	30.648
613.301	17.375
617.238	19.167
621.174	38.238
625.108	21.704
629.039	20.097
632.969	25.399
636.897	39.825
640.823	88.809
644.747	77.018
648.669	86.111
652.589	160.898
656.508	266.546
660.424	359.861
664.339	562.458
668.251	857.198
672.162	1135.28
676.071	1249.87
679.978	1180.84
683.883	1054.01
687.786	1055.39
691.687	1190.97
695.586	1331.75
699.484	1357.8
703.379	1201.09
707.273	793.6
711.165	505.329
715.055	261.262
718.943	215.393
722.829	165.706
726.713	116.212
730.595	81.753
734.476	3.186
738.354	8.627
742.231	85.904
746.106	67.603
749.978	108.689
753.849	259.265
757.719	488.058
761.586	791.236
765.451	1322.85
769.315	1911.42
773.177	2347.4
777.036	2226.56
780.894	1808.77
784.75	1443.76
788.605	1037.05
792.457	808.584
796.307	686.308
800.156	516.212
804.003	387.299
807.848	299.561
811.691	186.998
815.532	219.606
819.371	183.148
823.209	196.314
827.045	216.26
830.878	332.841
834.71	345.741
838.54	482.208
842.369	513.326
846.195	709.668
850.02	915.789
853.842	1232.3
857.663	1803.42
861.482	2370.18
865.299	3447.4
869.115	4977.67
872.928	7525.11
876.74	12641.4
880.55	21405.6
884.358	29389.9
888.164	24213.5
891.969	14395.7
895.771	8050.89
899.572	4569.47
903.371	2821.41
907.168	1837.29
910.963	1243.05
914.757	921.209
918.548	696.285
922.338	474.499
926.126	329.81
929.912	276.203
933.697	210.684
937.479	162.244
941.26	182.865
945.039	146.534
948.816	102.476
952.591	137.676
956.365	140.476
960.136	108.423
963.906	96.568
967.674	46.451
971.441	20.525
975.205	84.468
978.968	6.313
982.729	9.902
986.488	22.79
990.245	36.001
994	0.909
997.754	9.309
1001.51	33.301
1005.26	13.291
1009	73.961
1012.75	41.51
1016.5	33.223
1020.24	21.581
1023.98	45.172
1027.72	46.236
1031.46	53.386
1035.19	68.412
1038.93	62.498
1042.66	10.117
1046.39	56.962
1050.12	70.901
1053.85	97.679
1057.57	81.487
1061.29	62.403
1065.02	72.554
1068.74	108.168
1072.45	95.143
1076.17	102.727
1079.88	97.438
1083.6	97.916
1087.31	91.208
1091.02	82.473
1094.72	35.844
1098.43	71.915
1102.13	55.917
1105.84	300.979
1109.54	53.003
1113.24	88.87
1116.93	47.658
1120.63	67.269
1124.32	40.846
1128.01	80.747
1131.7	39.63
1135.39	67.583
1139.08	40.45
1142.76	48.033
1146.45	45.011
1150.13	14.053
1153.81	27.119
1157.48	86.898
1161.16	80.664
1164.84	68.074
1168.51	40.311
1172.18	50.603
1175.85	33.113
1179.52	48.058
1183.18	65.133
1186.85	40.104
1190.51	51.139
1194.17	51.108
1197.83	87.085
1201.48	44.699
1205.14	31.137
1208.79	56.897
1212.44	118.235
1216.09	55.439
1219.74	88.787
1223.39	71.708
1227.03	68.552
1230.68	101.434
1234.32	64.037
1237.96	31.584
1241.6	98.958
1245.23	88.414
1248.87	79.277
1252.5	52.58
1256.13	43.601
1259.76	120.433
1263.39	93.301
1267.02	47.157
1270.64	89.641
1274.26	59.258
1277.88	61.658
1281.5	113.617
1285.12	77.773
1288.74	59.983
1292.35	1.094
1295.96	7.463
1299.57	45.045
1303.18	35.125
1306.79	52.882
1310.4	20.198
1314	21.219
1317.6	9.358
1321.2	23.233
1324.8	57.834
1328.4	37.398
1331.99	26.643
1335.59	23.699
1339.18	16.867
1342.77	35.107
1346.36	26.277
1349.95	75.26
1353.53	17.291
1357.12	41.861
1360.7	64.794
1364.28	46.357
1367.86	48.181
1371.44	42.035
1375.01	75.596
1378.59	71.993
1382.16	30.516
1385.73	74.99
1389.3	66.729
1392.87	39.225
1396.43	57.805
1399.99	59.393
1403.56	35.427
1407.12	105.283
1410.68	70.647
1414.23	80.232
1417.79	92.219
1421.34	70.361
1424.9	45.098
1428.45	34.877
1431.99	23.385
1435.54	48.574
1439.09	3.877
1442.63	23.456
1446.17	49.736
1449.71	70.202
1453.26	25.965
1456.79	24.083
1460.33	37.229
1463.86	29.238
1467.39	53.147
1470.92	79.077
1474.45	35.356
1477.98	64.978
1481.51	52.256
1485.03	70.471
1488.56	39.476
1492.08	34.228
1495.6	109.394
1499.11	43.859
1502.63	30.626
1506.14	48.102
1509.66	46.876
1513.17	13.936
1516.68	3.428
1520.19	30.797
1523.69	0
