Measurement: Raman, 632 nm, ccw, Raman Data Processed
Mineral: Hughesite
Rruff sample: R130080
Ideal chemistry: Na_3_Al(V_10_O_28_)22H_2_O
Locality: Sunday mine, Gypsum Valley, San Miguel County, Slick Rock District, Colorado, USA
Source: John Rakovan
Description: Orange to golden orange crystals in efflorescent crusts. Data from Rakovan et al (2011)
Measured chemistry: Na_2.99_Al_1.05_(V_10_O_28_)5.70H_2_O
Orientation: Laser parallel to a [1 0 0]. Fiducial mark perpendicular to laser is parallel to b [0 1 0]
Raman shift (cm-1)	intensity
139.605	0
144.053	2617.89
148.499	1034.3
152.942	48
157.382	17.5938
161.819	358.594
166.253	3817.92
170.684	16749.2
175.113	40438.1
179.538	42859.3
183.961	38657.7
188.381	16791.2
192.798	4770.77
197.212	1318.45
201.623	595.828
206.031	3579.66
210.436	10134.1
214.839	8322.38
219.239	8022.47
223.636	14387.9
228.03	16659.9
232.421	16899.1
236.809	12872
241.194	13270.5
245.577	22874.3
249.957	28704.6
254.334	35983.3
258.708	38448.5
263.079	33954.7
267.448	28560.2
271.813	18046.6
276.176	8793.86
280.536	4860.89
284.893	4384.84
289.247	6821.78
293.599	8654
297.948	11867.5
302.293	19109.8
306.636	33286.2
310.977	56276.3
315.314	78796.8
319.649	75870.2
323.981	54113.5
328.31	36553.4
332.636	26409
336.959	20520.5
341.28	15938.8
345.598	12276.7
349.913	10637
354.226	9359.84
358.535	10395.4
362.842	8489.58
367.146	4909.53
371.447	2389.38
375.746	1678.19
380.041	753.984
384.334	240.828
388.624	380.359
392.912	202.766
397.196	495.25
401.478	488.125
405.758	505.438
410.034	140.078
414.308	105.125
418.578	141.328
422.847	537.25
427.112	1773.97
431.375	1805.53
435.635	1305.03
439.892	1848.58
444.146	2829.22
448.398	4153.92
452.647	5645.8
456.893	7389.91
461.137	8860.61
465.378	10368.4
469.616	9731.7
473.851	6793.78
478.084	4660.61
482.314	3592.2
486.541	3642.61
490.766	3303.94
494.988	2615.16
499.207	3098.31
503.424	3377.61
507.637	5011.09
511.848	4830.05
516.057	4575.98
520.263	4253.78
524.466	5349.98
528.666	4699.78
532.864	4672.7
537.059	5116.62
541.251	5236.56
545.441	6984.06
549.628	7707.03
553.812	8670.7
557.993	8886.12
562.172	10227.3
566.349	10770.3
570.522	12091.2
574.693	14407.9
578.862	18344.5
583.027	20913.9
587.19	22993.4
591.351	21818.1
595.508	21419.2
599.663	19030.6
603.816	17461.3
607.966	14106.2
612.113	12514.6
616.257	11614.2
620.399	8801.66
624.538	8507.95
628.675	7336.86
632.809	6760.05
636.94	6839.8
641.069	5348.98
645.195	5860.42
649.319	4973.73
653.439	4249.19
657.558	3795.64
661.673	3843.44
665.786	2882.7
669.897	3032.81
674.005	2823.06
678.11	2876.75
682.212	2637.59
686.313	2234.23
690.41	1919.56
694.505	1200.45
698.597	1353.86
702.687	1062.67
706.774	767.844
710.858	1722.23
714.94	1027.72
719.019	823.109
723.096	1371.95
727.17	94.3594
731.242	271.453
735.311	902.969
739.377	71.0625
743.441	107.703
747.502	284.812
751.561	8.98438
755.617	1265.31
759.671	816.969
763.722	363.438
767.771	861.484
771.816	298.641
775.86	1.9375
779.901	96.9375
783.939	151.844
787.975	438.859
792.008	240.641
796.039	584.453
800.067	1605.77
804.092	1734.98
808.116	2176.27
812.136	2408.2
816.154	2590.09
820.17	3096.59
824.183	3904.58
828.193	3833.03
832.201	5502.78
836.206	7527.53
840.209	11038.2
844.209	14730.6
848.207	22716
852.203	27727.1
856.196	23545.9
860.186	16149.5
864.174	10419.1
868.159	6202.77
872.142	6073.47
876.122	3320.12
880.1	2226.02
884.075	1350.08
888.048	1453.09
892.018	1643.59
895.986	1067.61
899.952	1094.23
903.915	325.594
907.875	959.219
911.833	1113.27
915.788	64.6719
919.741	90.9219
923.692	732.797
927.64	586.516
931.586	1423.72
935.529	2595.27
939.469	3130.78
943.407	3030.05
947.343	4649.83
951.276	8372.12
955.207	12156.7
959.136	22991.8
963.061	34546.6
966.985	57979.8
970.906	90710.2
974.824	67626.8
978.741	36377.6
982.654	21744.4
986.565	20717.4
990.474	30015.8
994.381	63707.2
998.284	135898
1002.19	83136.4
1006.09	31384.4
1009.98	13211
1013.88	7265.56
1017.77	4649.84
1021.66	1731.88
1025.54	2574.06
1029.43	1977.06
1033.31	834.562
1037.19	741.875
1041.07	442.094
1044.94	794.531
1048.81	681.875
1052.68	1140.94
1056.55	596.594
1060.42	362.906
1064.28	988.375
1068.14	997.656
1072	830.281
1075.85	1548.56
1079.71	905.312
1083.56	2677.56
1087.41	2967.88
1091.25	2215.44
1095.1	1071.22
1098.94	1807.25
1102.78	2181.5
1106.61	1716.53
1110.45	2885.34
1114.28	1359.41
1118.11	1067.75
1121.94	2080.41
1125.76	1234.34
1129.58	2495.53
1133.4	227.031
1137.22	1302.62
1141.04	477.562
1144.85	1751.66
1148.66	1100.16
1152.47	38.4375
1156.27	430.844
1160.08	30.6562
1163.88	867.5
1167.68	119.25
1171.47	257.469
1175.27	1750.16
1179.06	177.938
1182.85	9.71875
1186.64	6.78125
1190.42	943.219
1194.2	869.5
1197.98	1078.12
1201.76	2121.28
1205.54	965
1209.31	1841.22
1213.08	1484.94
1216.85	897.156
1220.61	2299.94
1224.38	2335.22
1228.14	2873.12
1231.9	2575.59
1235.66	2765.69
1239.41	1574.31
1243.16	1349.62
1246.91	1359.59
1250.66	2147.66
1254.41	1279.75
1258.15	1010.03
1261.89	1173.75
1265.63	192.5
1269.36	1232.97
1273.1	1586.41
1276.83	1099.25
1280.56	1972.47
1284.29	1806.16
1288.01	341.75
1291.73	1164.94
1295.45	952.281
1299.17	1704.91
1302.89	417.156
1306.6	1362.41
1310.31	2899.62
1314.02	2366.91
1317.72	1260.78
1321.43	2074.72
1325.13	2559.28
1328.83	2410.19
1332.53	2723
1336.22	1588.53
1339.92	2405.53
1343.61	1700
1347.29	2666.41
1350.98	1314.5
1354.66	286.719
1358.35	1334
1362.03	1758.59
1365.7	1698.56
1369.38	1070.88
1373.05	940.375
1376.72	1005.59
1380.39	339.188
1384.05	336.188
1387.72	562.625
1391.38	157.781
1395.04	422.344
1398.69	82.4062
1402.35	92.9062
1406	344.781
1409.65	408.656
1413.3	428.719
1416.95	1419.16
1420.59	563.688
1424.23	1687.56
1427.87	232.875
1431.51	2232.97
1435.14	571.531
1438.77	739.938
1442.4	1044.09
1446.03	720.438
1449.66	809.438
1453.28	2553.62
1456.9	2069.12
1460.52	1463.97
1464.14	2027.41
1467.75	2275.5
1471.37	1678.69
1474.98	2024.19
1478.58	311.875
1482.19	802.594
1485.79	2102.47
1489.4	2081.03
1493	1212.41
1496.59	732.375
1500.19	455.438
