Measurement: Raman, 632 nm, ccw, Raman Data Processed
Mineral: Hughesite
Rruff sample: R130080
Ideal chemistry: Na_3_Al(V_10_O_28_)22H_2_O
Locality: Sunday mine, Gypsum Valley, San Miguel County, Slick Rock District, Colorado, USA
Source: John Rakovan
Description: Orange to golden orange crystals in efflorescent crusts. Data from Rakovan et al (2011)
Measured chemistry: Na_2.99_Al_1.05_(V_10_O_28_)5.70H_2_O
Orientation: Laser parallel to a [1 0 0]. Fiducial mark perpendicular to laser is parallel to b [0 1 0]
Raman shift (cm-1)	intensity
140.717	0
145.165	4187.09
149.61	5047.59
154.052	2683.28
158.491	1030.75
162.928	1030.34
167.361	3801.34
171.792	13283.5
176.219	26738.5
180.644	37812.5
185.066	59186.6
189.485	82420.6
193.901	75501
198.315	60243.4
202.725	51474.1
207.133	31800
211.537	25133.5
215.939	27870.5
220.338	26390.8
224.734	30066.6
229.128	42668.2
233.518	49336.8
237.906	46568.5
242.29	51963.6
246.672	52053.2
251.051	46640.1
255.428	42435.4
259.801	38248.8
264.171	30465.6
268.539	26988.7
272.904	26031.9
277.266	18723.7
281.625	12648.6
285.982	9121.81
290.335	8940.72
294.686	8977.69
299.034	11191.9
303.379	17837.7
307.722	30007
312.061	50510.9
316.398	64199.6
320.732	58992.8
325.063	45722
329.392	37379.6
333.717	30301.1
338.04	24342.4
342.36	20870
346.677	18215
350.992	14738.5
355.303	13531.9
359.612	13516.3
363.918	13385.9
368.221	7436.62
372.522	2912.69
376.82	38.3438
381.115	1650.91
385.407	1331.47
389.697	1537.28
393.983	948.125
398.267	192.031
402.548	579.562
406.827	867.656
411.103	1031.91
415.376	2990.22
419.646	2024.12
423.913	3366.31
428.178	2637.47
432.44	4471.28
436.699	3253.34
440.956	4901.66
445.21	7871.34
449.461	9291.56
453.709	10064.7
457.955	12852.2
462.197	14101.8
466.438	15548.8
470.675	15846.5
474.91	14222.8
479.142	10697.1
483.371	8766.16
487.598	7194.97
491.822	7250.59
496.043	8561.66
500.261	8132.84
504.477	8554.22
508.69	8235.41
512.901	8607.09
517.109	9575.62
521.314	9799.69
525.516	9623.88
529.716	10977.3
533.913	9925.56
538.107	11372.2
542.299	10238.3
546.488	11023
550.674	12493.8
554.857	13258
559.038	13600.1
563.217	13629
567.392	15133.3
571.565	17473.8
575.736	20625.1
579.903	24359.6
584.068	29528.7
588.231	31936.6
592.39	33367.8
596.547	32839.2
600.702	29607.5
604.854	27298.7
609.003	22778.8
613.149	22095.8
617.293	16344.5
621.434	15494.6
625.573	13143.4
629.709	12778.8
633.842	9519.59
637.973	8387.59
642.101	7102.44
646.226	6836.38
650.349	5393.97
654.469	3598.06
658.587	4427.81
662.702	4172.38
666.814	2789.12
670.924	2246
675.031	882.688
679.136	2097.84
683.238	1377.31
687.337	885.938
691.434	866.719
695.528	167.719
699.62	385.062
703.709	548.688
707.795	1297.81
711.879	480.188
715.96	133
720.039	699.875
724.115	50.4062
728.188	576.625
732.259	444.969
736.328	415.844
740.393	32.375
744.457	895
748.517	2017.28
752.575	597.375
756.631	1549.31
760.684	1087.03
764.734	3104.25
768.782	2198.69
772.828	3465.16
776.87	3813.41
780.911	2847.38
784.948	3932.06
788.983	4511.03
793.016	5780.28
797.046	5619.5
801.073	5842.53
805.098	5890.91
809.121	5381.53
813.141	6053.88
817.158	5521.78
821.173	5220.16
825.185	5600.75
829.195	6366.66
833.202	5811.81
837.207	5650.41
841.209	6469.81
845.209	5501.16
849.206	3531.62
853.201	5775.22
857.193	5026.19
861.183	6775.75
865.17	8337.59
869.155	10249.6
873.137	12557.4
877.117	12079.3
881.094	7354.47
885.069	3457.53
889.041	1274.53
893.011	129.312
896.978	1226.78
900.943	162.25
904.905	92.25
908.865	191.031
912.822	512.781
916.777	1543.72
920.729	327.781
924.679	2022.75
928.627	3599.91
932.572	7974.5
936.514	17127.3
940.454	24689.9
944.392	25451.6
948.327	24549.3
952.259	33946.2
956.19	42171.8
960.117	42477
964.043	47820.3
967.965	65730.1
971.886	74275.6
975.804	67614.6
979.719	60921.6
983.632	56493.8
987.543	71385.6
991.451	88898.3
995.357	88746.7
999.26	99682.7
1003.16	135589
1007.06	165889
1010.96	71856.9
1014.85	23591.9
1018.74	9824.75
1022.63	4651.75
1026.52	2850
1030.4	458.938
1034.28	449.5
1038.16	652.25
1042.04	684.031
1045.91	746.906
1049.78	481.656
1053.65	1344.06
1057.52	1373.03
1061.38	964.969
1065.25	1038.22
1069.11	1030.12
1072.96	2774
1076.82	1930.44
1080.67	1682.19
1084.52	3521.78
1088.37	2325.28
1092.21	2961.81
1096.06	3962.34
1099.9	3434.97
1103.74	4354.72
1107.57	3598.69
1111.41	2930.97
1115.24	4138.56
1119.07	2658.56
1122.89	2238.09
1126.72	3782.16
1130.54	2259.97
1134.36	2520.62
1138.18	1570.72
1141.99	1721.81
1145.8	2470.59
1149.61	1376.06
1153.42	770.062
1157.22	269.562
1161.03	483.938
1164.83	439.344
1168.63	1109.41
1172.42	1060.72
1176.22	925.5
1180.01	69.0625
1183.8	72.4375
1187.58	387.188
1191.37	1106.31
1195.15	1749.34
1198.93	2234.31
1202.7	2229.16
1206.48	3601.91
1210.25	3556.84
1214.02	3488.97
1217.79	4645.53
1221.56	2786.56
1225.32	3243.25
1229.08	4680.72
1232.84	3326.12
1236.59	3990.56
1240.35	3920.19
1244.1	3809.09
1247.85	3923.47
1251.6	2714.41
1255.34	4736.03
1259.08	3399.62
1262.82	4318.53
1266.56	3277.5
1270.3	3990.75
1274.03	3915.91
1277.76	2177.12
1281.49	3814.47
1285.22	4595.78
1288.94	2721.72
1292.66	3548.81
1296.38	3179.69
1300.1	4149.28
1303.81	3983.91
1307.53	4254.16
1311.24	4972.19
1314.95	5518.72
1318.65	5238.62
1322.35	6817.97
1326.06	6905.84
1329.75	5404.38
1333.45	6796.66
1337.15	6727.75
1340.84	5082.72
1344.53	7518.56
1348.22	7017.88
1351.9	6056.5
1355.58	5654
1359.27	5391.16
1362.94	4976.06
1366.62	5012.03
1370.3	5476.41
1373.97	2901.62
1377.64	3115.91
1381.3	2657.84
1384.97	2313.75
1388.63	1812.25
1392.29	1913.12
1395.95	67.2812
1399.61	718.812
1403.26	1380.94
1406.91	475.438
1410.56	663.344
1414.21	946.188
1417.86	604.156
1421.5	101.375
1425.14	2129.78
1428.78	1019.56
1432.42	215.75
1436.05	316.281
1439.68	1115.69
1443.31	1055.91
1446.94	1029.31
1450.56	1529.06
1454.19	1699.88
1457.81	3385
1461.43	1481.12
1465.04	2890.38
1468.66	2439.53
1472.27	1123.81
1475.88	598.469
1479.49	1482
1483.09	311.156
1486.7	2059.94
1490.3	1342.34
1493.89	914.438
1497.49	2927.75
1501.09	0
