Measurement: Raman, 514 nm, ccw, Raman Data Processed
Mineral: Humite
Rruff sample: R050665
Ideal chemistry: Mg_7_(SiO_4_)_3_(F,OH)_2_
Locality: Tilly Foster mine, Brewster, Putnam County, New York, USA
Source: University of Arizona Mineral Museum
Description: Granular aggregate of reddish-orange crystals
Measured chemistry: (Mg_0.91_Fe^2+^_0.09_)_7_(Si_1.00_O_4_)_3_(F_0.56_(OH)_0.44_)_2_
Pin_id: M00589
Orientation: Laser parallel to b* (0 1 0). Fiducial mark perpendicular to laser is parallel to c [0 0 1]
Raman shift (cm-1)	intensity
161.8	0
166.72	4.3761
171.638	41.5314
176.552	16.5946
181.464	108.707
186.373	249.53
191.28	497.674
196.183	816.339
201.084	446.121
205.982	138.545
210.878	32.1929
215.77	102.868
220.66	275.462
225.547	269.039
230.431	191.413
235.313	120.16
240.192	57.1764
245.068	122.227
249.941	210.453
254.811	309.914
259.679	750.643
264.544	482.672
269.406	366.798
274.265	346.546
279.122	386.725
283.976	425.983
288.827	352.199
293.676	375.555
298.521	360.543
303.364	198.705
308.205	204.769
313.042	131.188
317.877	196.949
322.709	196.434
327.538	172.475
332.365	101.968
337.188	183.837
342.009	232.028
346.828	320.507
351.643	312.313
356.456	180.245
361.266	171.937
366.074	74.0903
370.878	22.5499
375.68	73.4753
380.479	71.0177
385.276	110.968
390.07	90.3616
394.861	59.176
399.649	5.38074
404.435	7.14148
409.218	83.4177
413.998	155.007
418.775	201.56
423.55	230.064
428.322	172.477
433.091	36.7683
437.858	34.0643
442.622	55.3088
447.383	40.5341
452.142	127.2
456.898	189.009
461.651	209.154
466.401	191.174
471.149	301.048
475.894	305.757
480.636	317.285
485.376	365.65
490.113	361.125
494.847	336.534
499.578	324.276
504.307	269.37
509.033	290.091
513.757	288.063
518.478	328.243
523.196	433.459
527.911	678.087
532.624	859.678
537.334	806.123
542.041	740.145
546.746	775.672
551.448	555.861
556.147	344.397
560.844	281.379
565.538	265.806
570.229	330.675
574.918	283.719
579.604	336.036
584.287	406.781
588.967	393.278
593.645	416.394
598.321	602.974
602.993	801.018
607.663	718.53
612.33	583.515
616.995	414.976
621.657	234.92
626.316	185.353
630.973	46.2227
635.627	61.1693
640.278	3.15723
644.927	3.65466
649.573	43.3323
654.216	18.2635
658.857	58.4156
663.495	42.1352
668.131	14.3745
672.763	96.0305
677.393	44.8243
682.021	24.6344
686.646	19.1685
691.268	55.8359
695.888	54.5259
700.504	143.992
705.119	299.263
709.73	559.364
714.339	715.409
718.946	1152.21
723.55	1430.13
728.151	1861.03
732.749	2382.9
737.345	2823.74
741.938	3375.59
746.529	4518.48
751.117	5606.42
755.702	6075.44
760.285	5514.57
764.865	4283.8
769.442	3201.3
774.017	2986.99
778.59	3363.11
783.159	3830.68
787.726	2763.41
792.291	1827.15
796.852	1359.27
801.412	1152.5
805.968	1184.91
810.522	1490.92
815.073	1912.79
819.622	2883.42
824.168	5131.84
828.712	9470.95
833.253	17561.3
837.791	23362.6
842.327	27017.7
846.86	23088.6
851.39	15777.2
855.918	15303.7
860.444	20358.8
864.966	19908.8
869.487	12210.5
874.004	7298
878.519	5014.29
883.031	3198.36
887.541	1972.21
892.048	1421.87
896.553	1265.32
901.055	821.559
905.554	564.649
910.051	450.662
914.545	522.662
919.037	547.865
923.526	528.653
928.013	723.203
932.497	1285.19
936.978	1126.87
941.457	725.699
945.933	813.56
950.407	1214.29
954.878	1994.45
959.346	3709.22
963.812	6508.63
968.276	5721.21
972.736	2593.58
977.195	1249.03
981.65	743.793
986.103	347.611
990.554	207.655
995.002	160.764
999.447	156.913
1003.89	200.923
1008.33	146.064
1012.77	206.708
1017.2	105.117
1021.64	134.541
1026.07	143.11
1030.49	83.0681
1034.92	85.4377
1039.34	94.6941
1043.76	36.5222
1048.18	6.58887
1052.59	0.639893
1057.01	25.3831
1061.41	80.9983
1065.82	82.3472
1070.23	34.1221
1074.63	53.1687
1079.03	39.6445
1083.43	21.7124
1087.82	24.2585
1092.21	43.2656
1096.6	103.783
1100.99	18.9414
1105.37	21.3728
1109.76	67.3218
1114.13	43.9321
1118.51	47.2039
1122.88	93.2236
1127.26	8.98804
1131.63	132.381
1135.99	134.462
1140.36	113.247
1144.72	151.714
1149.08	181.855
1153.43	137.656
1157.79	144.184
1162.14	128.242
1166.49	153.996
1170.84	146.373
1175.18	114.101
1179.52	170.867
1183.86	88.9878
1188.2	127.094
1192.53	182.713
1196.86	251.248
1201.19	202.918
1205.52	261.612
1209.84	263.292
1214.16	247.419
1218.48	195.869
1222.8	289.306
1227.11	211.363
1231.42	259.215
1235.73	284.032
1240.04	303.36
1244.34	276.087
1248.64	221.811
1252.94	191.132
1257.24	202.518
1261.54	251.515
1265.83	260.108
1270.12	243.09
1274.4	256.405
1278.69	225.739
1282.97	218.39
1287.25	196.66
1291.52	190.25
1295.8	100.714
1300.07	165.085
1304.34	153.336
1308.61	130.231
1312.87	74.2104
1317.13	41.374
1321.39	72.571
1325.65	22.7515
1329.9	87.9023
1334.15	9.97119
1338.4	23.0474
1342.65	25.1956
1346.89	48.3291
1351.14	17.4978
1355.38	39.6814
1359.61	36.9253
1363.85	1.87036
1368.08	56.2505
1372.31	33.2808
1376.54	20.2239
1380.76	69.9282
1384.98	32.7842
1389.2	52.458
1393.42	26.0471
1397.64	1.54614
1401.85	46.9624
1406.06	0.679199
1410.27	3.23999
1414.47	55.4307
1418.67	63.6514
1422.88	17.8689
1427.07	22.0676
1431.27	104.168
1435.46	114.57
1439.65	119.907
1443.84	116.013
1448.03	94.9341
1452.21	142.042
1456.39	99.9517
1460.57	184.285
1464.74	135.792
1468.92	200.628
1473.09	171.686
1477.26	254.235
1481.42	316.991
1485.59	274.014
1489.75	301.562
1493.91	339.724
1498.06	357.914
1502.22	315.125
1506.37	365.256
1510.52	292.472
1514.67	258.879
1518.81	214.299
1522.95	189.742
1527.09	95.5784
1531.23	67.99
1535.36	61.7578
1539.5	12.9993
1543.63	46.9319
1547.75	25.3198
1551.88	65.7712
1556	0.643555
1560.12	0.130371
