Measurement: Raman, 514 nm, ccw, Raman Data Processed
Mineral: Humite
Rruff sample: R050665
Ideal chemistry: Mg_7_(SiO_4_)_3_(F,OH)_2_
Locality: Tilly Foster mine, Brewster, Putnam County, New York, USA
Source: University of Arizona Mineral Museum
Description: Granular aggregate of reddish-orange crystals
Measured chemistry: (Mg_0.91_Fe^2+^_0.09_)_7_(Si_1.00_O_4_)_3_(F_0.56_(OH)_0.44_)_2_
Pin_id: M01318
Orientation: Laser parallel to c* (0 0 1). Fiducial mark perpendicular to laser is parallel to -a [-1 0 0]
Raman shift (cm-1)	intensity
171.638	0
176.552	4.88794
181.464	67.7563
186.373	110.446
191.28	208.668
196.183	280.959
201.084	261.774
205.982	247.872
210.878	292.356
215.77	341.648
220.66	409.666
225.547	401.066
230.431	313.431
235.313	307.695
240.192	450.226
245.068	360.354
249.941	383.352
254.811	333.597
259.679	478.348
264.544	306.735
269.406	404.861
274.265	535.832
279.122	542.715
283.976	497.456
288.827	483.862
293.676	623.994
298.521	576.908
303.364	645.483
308.205	793.274
313.042	821.862
317.877	812.611
322.709	864.946
327.538	753.689
332.365	660.655
337.188	581.054
342.009	661.722
346.828	643.548
351.643	747.475
356.456	716.566
361.266	585.957
366.074	479.65
370.878	273.653
375.68	210.903
380.479	248.314
385.276	199.736
390.07	171.998
394.861	123.019
399.649	23.2793
404.435	115.063
409.218	98.5762
413.998	21.8706
418.775	8.87183
423.55	132.904
428.322	164.208
433.091	264.885
437.858	211.221
442.622	342.67
447.383	505.789
452.142	616.653
456.898	731.257
461.651	797.598
466.401	968.664
471.149	1091.45
475.894	1278.91
480.636	1433.04
485.376	1668.83
490.113	1846.37
494.847	1838.11
499.578	1951.16
504.307	1890.78
509.033	1775.42
513.757	1853.42
518.478	1965.83
523.196	2569.95
527.911	3117.6
532.624	3688.25
537.334	3488.59
542.041	2943.05
546.746	2498.77
551.448	1635.37
556.147	1109.36
560.844	773.332
565.538	705.034
570.229	618.936
574.918	573.998
579.604	524.165
584.287	399.882
588.967	452.734
593.645	431.2
598.321	595.288
602.993	630.111
607.663	702.349
612.33	479.336
616.995	393.971
621.657	261.262
626.316	156.229
630.973	108.072
635.627	25.7034
640.278	32.1072
644.927	55.5662
649.573	27.0942
654.216	93.7256
658.857	50.4065
663.495	27.1006
668.131	35.426
672.763	91.5644
677.393	135.46
682.021	142.264
686.646	204.195
691.268	326.497
695.888	462.135
700.504	585.965
705.119	772.33
709.73	1020.74
714.339	1315.59
718.946	1767.44
723.55	2283.3
728.151	3019.18
732.749	4096.12
737.345	5456.11
741.938	7428.19
746.529	10909.4
751.117	13895.7
755.702	14875.2
760.285	12476.8
764.865	8893.53
769.442	5309.76
774.017	3305.11
778.59	2457.97
783.159	2154.09
787.726	1614.36
792.291	1001.27
796.852	585.591
801.412	343.91
805.968	327.063
810.522	471.084
815.073	911.616
819.622	1904.85
824.168	3881.62
828.712	7640.94
833.253	14205.9
837.791	16409.5
842.327	14640.7
846.86	10345.6
851.39	6116.96
855.918	4153.97
860.444	3814.5
864.966	3191.59
869.487	1938.3
874.004	1244.81
878.519	746.182
883.031	446.231
887.541	285.964
892.048	108.473
896.553	64.625
901.055	133.672
905.554	17.4477
910.051	48.1694
914.545	230.703
919.037	272.188
923.526	265.141
928.013	359.517
932.497	627.8
936.978	467.825
941.457	188.747
945.933	256.228
950.407	407.238
954.878	756.422
959.346	1489.43
963.812	2788.95
968.276	2508.49
972.736	1286.39
977.195	808.846
981.65	679.16
986.103	524.316
990.554	555.911
995.002	517.921
999.447	599.085
1003.89	587.485
1008.33	529.167
1012.77	572.799
1017.2	489.041
1021.64	377.592
1026.07	307.567
1030.49	310.692
1034.92	246.769
1039.34	256.804
1043.76	122.6
1048.18	110.638
1052.59	9.72217
1057.01	63.8076
1061.41	51.8223
1065.82	36.1851
1070.23	13.6836
1074.63	45.4204
1079.03	20.9253
1083.43	18.5615
1087.82	16.1562
1092.21	111.91
1096.6	19.2407
1100.99	14.8706
1105.37	1.05322
1109.76	53.3403
1114.13	61.8804
1118.51	115.783
1122.88	173.44
1127.26	12.8691
1131.63	56.9731
1135.99	69.2617
1140.36	54.313
1144.72	61.8374
1149.08	17.5518
1153.43	27.6636
1157.79	40.1338
1162.14	83.2041
1166.49	53.0132
1170.84	81.5352
1175.18	152.751
1179.52	225.661
1183.86	274.264
1188.2	236.012
1192.53	389.994
1196.86	396.167
1201.19	464.181
1205.52	509.231
1209.84	671.827
1214.16	660.589
1218.48	768.59
1222.8	713.106
1227.11	733.754
1231.42	735.373
1235.73	811.359
1240.04	885.586
1244.34	835.127
1248.64	732.396
1252.94	934.302
1257.24	824.623
1261.54	917.699
1265.83	729.223
1270.12	794.428
1274.4	908.486
1278.69	883.868
1282.97	897.011
1287.25	785.354
1291.52	689.547
1295.8	705.098
1300.07	573.953
1304.34	384.597
1308.61	317.196
1312.87	165.689
1317.13	184.088
1321.39	120.408
1325.65	94.6387
1329.9	148.824
1334.15	124.455
1338.4	87.981
1342.65	70.9966
1346.89	20.0083
1351.14	88.9902
1355.38	79.8584
1359.61	142.834
1363.85	48.8569
1368.08	108.814
1372.31	123.788
1376.54	53.8018
1380.76	65.8023
1384.98	31.8008
1389.2	30.1645
1393.42	33.9258
1397.64	40.3223
1401.85	44.9473
1406.06	85.7012
1410.27	18.2778
1414.47	53.9668
1418.67	42.5576
1422.88	42.0352
1427.07	4.24121
1431.27	122.311
1435.46	122.889
1439.65	236.883
1443.84	278.414
1448.03	382.025
1452.21	414.736
1456.39	409.365
1460.57	452.81
1464.74	567.73
1468.92	560.998
1473.09	655.465
1477.26	807.791
1481.42	933.453
1485.59	987.556
1489.75	1194.89
1493.91	1241.57
1498.06	1254.67
1502.22	1339.8
1506.37	1225.98
1510.52	1050.21
1514.67	956.505
1518.81	693.748
1522.95	387.637
1527.09	511.262
1531.23	217.247
1535.36	140.977
1539.5	106.812
1543.63	50.3726
1547.75	98.2607
1551.88	58.376
1556	1.04785
1560.12	6.97607
