Measurement: Raman, 514 nm, ccw, Raman Data Processed
Mineral: Humite
Rruff sample: R040071
Ideal chemistry: Mg_7_(SiO_4_)_3_(F,OH)_2_
Locality: Tilly Foster mine, Brewster, Putnam County, New York, USA
Source: University of Arizona Mineral Museum
Description: Red crystals
Measured chemistry: (Mg_0.91_Fe_0.09_)_7_(Si_0.99_Ti_0.01_O_4_)_3_(F_0.76_(OH)_0.24_)_2_
Pin_id: L00308
Orientation: Laser parallel to b* (0 1 0). Fiducial mark perpendicular to laser is parallel to c [0 0 1]
Raman shift (cm-1)	intensity
80.125	0
84.311	137.55
88.496	190.448
92.678	468.912
96.858	355.566
101.036	76.451
105.212	351.842
109.387	180.317
113.559	382.521
117.729	330.809
121.897	276.191
126.063	279.846
130.228	347.045
134.39	341.303
138.55	387.638
142.709	259.077
146.865	256.17
151.019	251.859
155.171	106.25
159.322	18.184
163.47	11.354
167.617	49.881
171.761	49.535
175.904	27.776
180.044	31.546
184.183	25.021
188.319	162.953
192.454	430.331
196.586	772.976
200.717	548.442
204.846	392.357
208.972	184.556
213.097	248.001
217.22	344.276
221.341	388.664
225.46	400.924
229.577	373.802
233.692	351.595
237.805	409.914
241.916	471.101
246.025	598.953
250.132	667.882
254.237	729.002
258.34	677.765
262.442	840.854
266.541	809.663
270.639	690.378
274.734	634.551
278.828	703.824
282.919	656.496
287.009	574.853
291.097	541.045
295.183	461.695
299.266	399.201
303.348	338.122
307.428	415.86
311.507	508.314
315.583	587.12
319.657	700.143
323.729	715.579
327.8	637.561
331.868	499.378
335.935	487.25
339.999	483.962
344.062	448.57
348.123	419.511
352.182	460.723
356.239	508.635
360.294	541.317
364.347	432.892
368.398	198.279
372.448	82.818
376.495	59.834
380.54	107.173
384.584	102.278
388.626	70.615
392.666	20.564
396.704	53.015
400.74	142.241
404.774	13.186
408.806	114.575
412.836	148.334
416.865	219.37
420.891	301.739
424.916	319.495
428.939	243.677
432.959	176.319
436.978	121.425
440.996	201.034
445.011	270.162
449.024	472.876
453.036	603.247
457.045	1016.59
461.053	1077.16
465.059	1049.38
469.063	1071.44
473.065	1060.81
477.065	851.9
481.063	644.689
485.06	547.378
489.054	442.528
493.047	382.278
497.038	289.666
501.027	376.627
505.014	303.798
508.999	368.464
512.982	336.277
516.964	421.239
520.944	480.586
524.921	516.121
528.897	552.385
532.871	595.775
536.844	548.256
540.814	598.532
544.783	789.719
548.749	727.617
552.714	559.424
556.677	540.286
560.638	615.086
564.597	701.65
568.555	837.131
572.511	1237.46
576.464	1749.1
580.416	2195.21
584.366	2035.86
588.315	1818.88
592.261	2259.74
596.206	3458.31
600.148	5008.88
604.089	5811.91
608.028	4655.79
611.965	2968.56
615.901	1797.99
619.834	1149.08
623.766	715.843
627.696	402.287
631.624	285.412
635.551	128.201
639.475	74.602
643.398	74.611
647.318	2.758
651.237	0.346
655.155	43.259
659.07	95.68
662.984	120.292
666.895	160.946
670.805	78.109
674.713	91.055
678.62	74.609
682.524	104.001
686.427	66.144
690.328	84.886
694.227	27.733
698.124	9.016
702.02	131.095
705.913	247.056
709.805	428.919
713.695	770.744
717.584	1076.59
721.47	1353.53
725.355	1678.44
729.238	2047.3
733.119	2491.12
736.998	2602.89
740.876	2929.63
744.752	3363.35
748.626	4193.06
752.498	4762.8
756.368	4778.58
760.237	4504.4
764.104	3966.3
767.969	3663.32
771.832	3923.51
775.693	4717.89
779.553	5872.48
783.411	5883.3
787.267	4586.28
791.122	3508.74
794.974	2943.76
798.825	2732.22
802.674	2822.43
806.522	3107.25
810.367	3521.68
814.211	4334.16
818.053	5784.32
821.893	8206.11
825.732	13156.6
829.568	22588.9
833.403	38553.6
837.236	44354.2
841.068	45271.1
844.898	40046.4
848.726	26847.2
852.552	20341.1
856.376	21827.6
860.199	27437.7
864.02	27920.3
867.839	20784.3
871.656	14932.7
875.472	10850.7
879.286	7732.04
883.098	5475.87
886.909	4194.12
890.717	3629.88
894.524	3785.09
898.33	3744.75
902.133	2655.87
905.935	1915.45
909.735	1730.48
913.533	1556.25
917.33	1418.16
921.124	1421.27
924.918	1258.67
928.709	1348.56
932.499	1394.52
936.286	1454.92
940.073	1588.99
943.857	1843.98
947.64	2500.81
951.421	4013.52
955.2	4398.07
958.978	5273.58
962.753	8542.39
966.527	10476.8
970.3	7168.36
974.071	4108.97
977.84	2526.37
981.607	1675.15
985.372	1206.81
989.136	918.33
992.898	780.696
996.659	742.645
1000.42	798.042
1004.17	799.79
1007.93	697.852
1011.68	704.219
1015.43	695.219
1019.18	779.776
1022.93	774.302
1026.68	616.565
1030.42	587.68
1034.17	444.46
1037.91	486.417
1041.65	436.052
1045.39	523.7
1049.12	340.502
1052.86	124.58
1056.59	18.628
1060.33	15.167
1064.06	76.84
1067.78	14.438
1071.51	14.05
1075.23	46.806
1078.96	102.7
1082.68	98.745
1086.4	46.009
1090.12	62.43
1093.83	34.131
1097.55	53.94
1101.26	33.933
1104.97	31.851
1108.68	13.323
1112.39	13.61
1116.1	14.006
1119.8	10.449
1123.5	66.727
1127.2	115.832
1130.9	9.198
1134.6	12.583
1138.3	20.318
1141.99	59.989
1145.69	68.468
1149.38	213.648
1153.07	163.549
1156.76	96.979
1160.44	97.818
1164.13	69.269
1167.81	45.144
1171.49	86.866
1175.17	102.201
1178.85	139.355
1182.52	190.581
1186.2	110.641
1189.87	165.047
1193.54	144.712
1197.21	144.75
1200.88	215.416
1204.55	266.819
1208.21	332.039
1211.88	438.871
1215.54	368.721
1219.2	375.439
1222.86	301.783
1226.51	292.125
1230.17	357.205
1233.82	355.667
1237.47	436.782
1241.12	415.429
1244.77	391.808
1248.42	306.24
1252.06	239.133
1255.71	242.026
1259.35	266.303
1262.99	281.728
1266.63	323.137
1270.26	336.941
1273.9	338.672
1277.53	222.335
1281.16	223.262
1284.8	128.443
1288.42	173.361
1292.05	138.945
1295.68	159.383
1299.3	188.721
1302.92	106.175
1306.55	128.593
1310.16	130.897
1313.78	68.194
1317.4	72.748
1321.01	10.167
1324.62	11.581
1328.24	75.831
1331.85	83.252
1335.45	96.615
1339.06	192.134
1342.66	78.214
1346.27	74.033
1349.87	81.42
1353.47	41.388
1357.07	73.032
1360.66	8.13
1364.26	43.028
1367.85	63.737
1371.44	70.284
1375.04	106.765
1378.62	12.475
1382.21	61.156
1385.8	46.741
1389.38	18.042
1392.96	46.08
1396.54	18.884
1400.12	25.461
1403.7	87.632
1407.28	136.005
1410.85	149.151
1414.42	2.594
1417.99	191.088
1421.56	81.514
1425.13	74.042
1428.7	19.42
1432.26	168.718
1435.83	35.047
1439.39	102.121
1442.95	137.92
1446.51	154.307
1450.06	127.742
1453.62	196.559
1457.17	190.292
1460.73	138.248
1464.28	149.192
1467.83	154.128
1471.37	74.583
1474.92	32.402
1478.46	130.158
1482.01	191.404
1485.55	122.765
1489.09	256.127
1492.63	188.249
1496.16	224.042
1499.7	272.316
1503.23	200.988
1506.76	214.164
1510.29	111.086
1513.82	42.088
1517.35	3.175
1520.88	0
