Measurement: Raman, 514 nm, ccw, Raman Data Processed
Mineral: Humite
Rruff sample: R050665
Ideal chemistry: Mg_7_(SiO_4_)_3_(F,OH)_2_
Locality: Tilly Foster mine, Brewster, Putnam County, New York, USA
Source: University of Arizona Mineral Museum
Description: Granular aggregate of reddish-orange crystals
Measured chemistry: (Mg_0.91_Fe^2+^_0.09_)_7_(Si_1.00_O_4_)_3_(F_0.56_(OH)_0.44_)_2_
Pin_id: M01318
Orientation: Laser parallel to c* (0 0 1). Fiducial mark perpendicular to laser is parallel to -a [-1 0 0]
Raman shift (cm-1)	intensity
159.339	0
164.26	105.743
169.179	35.6406
174.095	16.1792
179.009	52.1392
183.919	107.185
188.827	113.319
193.732	207.238
198.634	170.781
203.534	222.321
208.43	127.525
213.324	76.5708
218.215	147.318
223.104	151.428
227.99	201.867
232.872	206.04
237.753	203.935
242.63	283.634
247.504	256.244
252.376	227.831
257.245	256.423
262.112	246.04
266.975	254.713
271.836	101.539
276.694	105.476
281.549	126.889
286.402	218.346
291.252	167.881
296.099	143.915
300.943	92.0713
305.785	220.155
310.624	265.396
315.46	331.23
320.293	398.381
325.124	435.618
329.952	367.337
334.777	271.24
339.599	277.29
344.419	304.45
349.236	181.695
354.05	173.014
358.862	143.453
363.67	83.0149
368.476	51.6423
373.28	12.3613
378.08	43.3301
382.878	108.604
387.673	119.159
392.466	42.0215
397.255	36.1668
402.042	82.3953
406.827	8.98438
411.608	33.7051
416.387	100.467
421.163	289.554
425.936	432.392
430.707	388.815
435.475	165.816
440.24	152.829
445.003	212.737
449.763	245.532
454.52	202.222
459.274	263.797
464.026	218.243
468.775	290.551
473.522	301.705
478.265	319.695
483.006	427.51
487.744	421.142
492.48	395.686
497.213	393.956
501.943	454.103
506.671	391.55
511.395	334.194
516.117	402.262
520.837	438.171
525.554	633.217
530.268	826.769
534.979	837.342
539.688	810.113
544.394	650.429
549.097	635.542
553.798	546.979
558.496	528.124
563.191	476.037
567.884	497.559
572.574	481.695
577.261	636.45
581.945	695.823
586.627	823.816
591.307	954.43
595.983	1476.66
600.657	1995.52
605.329	2087
609.997	1435.11
614.663	902.854
619.326	561.229
623.987	362.242
628.645	307.828
633.3	109.205
637.953	20.1406
642.603	46.5557
647.25	70.5039
651.895	104.016
656.537	17.0925
661.176	16.1614
665.813	93.1211
670.447	5.07275
675.079	70.9375
679.708	80.7798
684.334	67.5456
688.957	22.708
693.578	3.84839
698.196	98.2546
702.812	180.489
707.425	297.569
712.035	388.513
716.643	588.338
721.248	852.059
725.85	1067.69
730.45	1396.26
735.047	1765.76
739.642	2217.24
744.234	2829.69
748.823	4011.15
753.41	4595.62
757.994	4386.14
762.575	3513.71
767.154	2524.35
771.73	1894.84
776.304	1847.11
780.875	2002.98
785.443	1807.9
790.009	1283.38
794.572	915.157
799.132	660.446
803.69	649.959
808.245	807.453
812.798	1094.41
817.348	1584.34
821.896	2908.84
826.44	5693.93
830.983	10913.5
835.522	16200
840.059	16235
844.594	14290.5
849.125	9170.56
853.655	6452.1
858.181	6509.11
862.705	7081.6
867.227	5587.57
871.746	3358.11
876.262	2113.27
880.776	1168.02
885.287	784.478
889.795	507.631
894.301	564.355
898.804	418.675
903.305	210.546
907.803	378.948
912.299	518.884
916.792	682.433
921.282	341.483
925.77	201.722
930.255	341.005
934.738	425.158
939.218	302.899
943.695	233.865
948.17	316.224
952.643	681.794
957.112	828.3
961.58	1274.2
966.044	1971.43
970.506	1424.89
974.966	747.865
979.423	507.092
983.877	324.794
988.329	268.769
992.778	190.049
997.225	312.793
1001.67	374.605
1006.11	350.31
1010.55	225.105
1014.99	209.073
1019.42	247.113
1023.85	312.924
1028.28	241.059
1032.71	243.435
1037.13	130.49
1041.55	95.978
1045.97	73.5654
1050.39	71.2217
1054.8	70.8999
1059.21	50.4805
1063.62	78.0342
1068.03	61.792
1072.43	60.9204
1076.83	81.644
1081.23	55.9477
1085.62	2.13428
1090.02	11.4565
1094.41	26.0283
1098.8	6.65332
1103.18	39.4087
1107.56	1.70264
1111.94	44.8359
1116.32	155.066
1120.7	141.12
1125.07	111.985
1129.44	138.682
1133.81	51.1675
1138.17	19.2578
1142.54	92.8984
1146.9	25.895
1151.26	93.708
1155.61	84.7759
1159.96	73.5562
1164.32	142.97
1168.66	157.064
1173.01	107.891
1177.35	155.452
1181.69	179.741
1186.03	194.816
1190.36	162.255
1194.7	142.134
1199.03	245.085
1203.36	180.497
1207.68	253.411
1212	221.017
1216.32	268.93
1220.64	391.144
1224.96	274.725
1229.27	321.208
1233.58	388.723
1237.89	423.636
1242.19	404.743
1246.49	427.578
1250.8	412.031
1255.09	346.32
1259.39	379.681
1263.68	394.269
1267.97	431.229
1272.26	344.69
1276.54	398.277
1280.83	320.491
1285.11	328.544
1289.38	345.377
1293.66	363.312
1297.93	337.527
1302.2	236.912
1306.47	310.318
1310.74	289.627
1315	167.873
1319.26	242.102
1323.52	134.351
1327.78	74.6284
1332.03	65.0166
1336.28	82.4678
1340.53	81.9565
1344.77	122.573
1349.02	73.1641
1353.26	74.707
1357.49	77.2339
1361.73	56.6704
1365.96	70.8789
1370.19	34.1128
1374.42	166.326
1378.65	95.5117
1382.87	17.6724
1387.09	130.768
1391.31	29.8608
1395.53	49.044
1399.74	34.3023
1403.95	47.6773
1408.16	90.2402
1412.37	47.9526
1416.57	41.7315
1420.78	3.25879
1424.97	15.956
1429.17	77.2803
1433.37	171.406
1437.56	206.075
1441.75	229.067
1445.93	255.661
1450.12	420.332
1454.3	370.896
1458.48	345.411
1462.66	369.215
1466.83	376.85
1471	400.922
1475.17	323.366
1479.34	393.331
1483.51	509.705
1487.67	489.604
1491.83	412.828
1495.99	419.951
1500.14	458.023
1504.29	533
1508.44	431.89
1512.59	340.648
1516.74	347.165
1520.88	177.623
1525.02	237.284
1529.16	197.852
1533.3	225.204
1537.43	119.206
1541.56	136.328
1545.69	19.3315
1549.82	83.6255
1553.94	191.579
1558.06	169.784
1562.18	0
