Measurement: Raman, 514 nm, ccw, Raman Data Processed
Mineral: Humite
Rruff sample: R040071
Ideal chemistry: Mg_7_(SiO_4_)_3_(F,OH)_2_
Locality: Tilly Foster mine, Brewster, Putnam County, New York, USA
Source: University of Arizona Mineral Museum
Description: Red crystals
Measured chemistry: (Mg_0.91_Fe_0.09_)_7_(Si_0.99_Ti_0.01_O_4_)_3_(F_0.76_(OH)_0.24_)_2_
Pin_id: L00052
Orientation: Laser parallel to a* (1 0 0). Fiducial mark perpendicular to laser is parallel to -b [0 -1 0]
Raman shift (cm-1)	intensity
51.466	0
55.666	111.679
59.863	165.06
64.059	14.461
68.253	31.841
72.445	95.161
76.635	307.343
80.823	536.98
85.009	453.851
89.193	810.036
93.375	828.854
97.554	674.655
101.732	590.709
105.908	1036.84
110.082	685.76
114.254	1084.19
118.424	1382.07
122.592	1180.77
126.758	1043.62
130.922	1214.42
135.083	1289.09
139.243	1422.67
143.401	1484.2
147.557	1417.97
151.711	1319.82
155.863	1318.43
160.013	1223.94
164.161	1252.37
168.308	1135.8
172.452	1214.12
176.594	1217.32
180.734	1453.41
184.872	1635.39
189.008	1941.3
193.143	2221.19
197.275	2132.11
201.405	1792.13
205.534	1742.28
209.66	1538.56
213.784	1414.91
217.907	1515.02
222.027	1582.57
226.146	1363.31
230.263	1323.12
234.377	1217.59
238.49	1197.61
242.601	1248.1
246.709	1224.05
250.816	1347.53
254.921	1382.34
259.024	1381.59
263.125	1452.21
267.224	1381.7
271.321	1321.02
275.416	1442.19
279.51	1448.04
283.601	1348.61
287.69	1349.86
291.778	1239.77
295.863	1079.32
299.947	997.468
304.029	910.209
308.108	933.54
312.186	960.372
316.262	983.429
320.336	977.527
324.408	891.356
328.478	904.116
332.546	922.901
336.612	1200.78
340.677	1825.5
344.739	1412.42
348.799	1076.43
352.858	1014.37
356.915	879.027
360.969	822.175
365.022	628.723
369.073	949.589
373.122	2075.76
377.169	3239.5
381.215	2515.91
385.258	1765.01
389.299	1388.51
393.339	872.452
397.376	271.812
401.412	25.465
405.446	231.581
409.478	93.02
413.508	74.657
417.536	53.346
421.562	16.064
425.586	132.685
429.609	87.5
433.629	43.509
437.648	80.56
441.665	78.718
445.68	318.003
449.693	440.399
453.704	596.892
457.713	773.466
461.721	969.107
465.726	1137.8
469.73	1303.27
473.731	1446.92
477.731	1993.7
481.729	2291.23
485.725	2445.94
489.72	2559.09
493.712	2690.51
497.703	2831.66
501.691	2902.51
505.678	2703.14
509.663	2520.98
513.646	2591.59
517.627	3019.93
521.607	3619.74
525.584	4481.7
529.56	5374.25
533.534	5647.39
537.506	5071.11
541.476	4545.41
545.444	3756.28
549.41	2866.71
553.375	2070.7
557.337	1744.23
561.298	1676.78
565.257	1642.37
569.214	1637.85
573.17	1654.36
577.123	1912.2
581.075	2501.03
585.024	2566.43
588.972	2197.38
592.918	1738.91
596.863	1589.87
600.805	1780.49
604.746	1743.68
608.685	1470.42
612.621	1151.72
616.557	875.59
620.49	530.025
624.421	370.031
628.351	85.59
632.279	61.577
636.205	123.149
640.129	220.676
644.051	200.181
647.972	268.784
651.89	163.66
655.807	244.478
659.722	254.254
663.636	154.892
667.547	154.06
671.457	18.515
675.365	2.251
679.271	116.521
683.175	258.487
687.077	371.221
690.978	514.742
694.877	690.069
698.774	1077.22
702.669	1452.23
706.562	1753.09
710.454	2187.85
714.344	2896.51
718.232	3622.1
722.118	4481.79
726.002	5855.77
729.885	7404.93
733.766	8995.22
737.645	10662.6
741.522	12851.9
745.397	16727.4
749.271	20848.9
753.143	23875.5
757.013	22750.3
760.881	18734.2
764.748	14101.2
768.613	10300.4
772.476	7697.79
776.337	6609.41
780.196	6785.25
784.054	6297.46
787.91	4743.98
791.764	3539.26
795.616	2546.73
799.467	2007.39
803.316	2020.27
807.163	2104.32
811.008	2464.57
814.851	3252.16
818.693	4920.39
822.533	8226.77
826.371	13401.2
830.208	23330.2
834.042	34846.7
837.875	39950.3
841.706	41746.9
845.536	36460.5
849.363	26553.9
853.189	21698.4
857.013	23784.8
860.836	28184.1
864.656	24733.3
868.475	16897.5
872.292	11056.5
876.108	7929.38
879.922	6030.08
883.733	4146.62
887.544	3094.97
891.352	2380.12
895.159	1683.09
898.964	1344.86
902.767	1217.45
906.568	1324.86
910.368	1384.45
914.166	1668.48
917.962	1960.33
921.757	2452.32
925.55	4059.13
929.341	8371.68
933.13	11090.9
936.918	7210.7
940.703	4057.69
944.488	2734.26
948.27	2454.58
952.051	2993.55
955.83	4067.08
959.607	6742.45
963.383	9899.38
967.156	9752.07
970.928	6009.81
974.699	3430.95
978.468	2270.48
982.234	1842.34
986	1461.16
989.763	1244.76
993.525	1235.28
997.285	1231.36
1001.04	1034.28
1004.8	1238.81
1008.55	1212.51
1012.31	1153.14
1016.06	1105.7
1019.81	992.224
1023.56	904.862
1027.31	719.268
1031.05	605.792
1034.79	558.838
1038.53	627.714
1042.27	520.766
1046.01	306.08
1049.75	160.616
1053.48	109.368
1057.22	43.314
1060.95	107.423
1064.68	120.542
1068.4	51.001
1072.13	15.416
1075.86	69.127
1079.58	42.328
1083.3	28.205
1087.02	41.881
1090.74	107.762
1094.45	60.002
1098.17	119.202
1101.88	40.25
1105.59	226.301
1109.3	95.83
1113.01	42.808
1116.71	64.163
1120.42	6.05
1124.12	71.03
1127.82	77.27
1131.52	108.225
1135.22	22.023
1138.91	23.427
1142.61	84.825
1146.3	49.053
1149.99	14.748
1153.68	6.393
1157.37	138.111
1161.06	62.916
1164.74	112.992
1168.42	177.426
1172.1	233.143
1175.78	234.236
1179.46	252.742
1183.14	368.781
1186.81	486.3
1190.48	504.788
1194.15	650.75
1197.83	718.847
1201.49	843.798
1205.16	914.827
1208.82	989.982
1212.49	1194.91
1216.15	1201.5
1219.81	1303.7
1223.46	1362.28
1227.12	1540.77
1230.78	1643.87
1234.43	1632.92
1238.08	1605.96
1241.73	1846.13
1245.38	1791.11
1249.03	1813.14
1252.67	1724.07
1256.31	1765.78
1259.95	1858.6
1263.6	1840.68
1267.23	1771.6
1270.87	1857.32
1274.51	1875.1
1278.14	1916.96
1281.77	1854.26
1285.4	1807.35
1289.03	1721.78
1292.66	1613.02
1296.28	1384.88
1299.91	1206.6
1303.53	1015.42
1307.15	776.335
1310.77	764.286
1314.38	581.646
1318	507.461
1321.61	391.037
1325.23	366.232
1328.84	383.602
1332.45	290.612
1336.06	372.271
1339.66	366.724
1343.27	295.042
1346.87	281.231
1350.47	359.228
1354.07	306.986
1357.67	723.598
1361.26	342.217
1364.86	234.934
1368.45	205.853
1372.04	159.646
1375.63	158.114
1379.22	225.327
1382.81	152.32
1386.39	13.476
1389.98	40.104
1393.56	39.949
1397.14	11.307
1400.72	55.032
1404.3	160.363
1407.87	71.949
1411.45	6.396
1415.02	4.789
1418.59	19.871
1422.16	36.202
1425.73	44.405
1429.29	98.474
1432.86	95.708
1436.42	163.991
1439.98	233.97
1443.54	274.081
1447.1	273.609
1450.66	409.604
1454.21	444.115
1457.77	558.583
1461.32	617.467
1464.87	550.868
1468.42	621.137
1471.96	609.191
1475.51	745.44
1479.06	703.354
1482.6	832.268
1486.14	947.122
1489.68	1167.23
1493.22	1411.94
1496.75	1349.36
1500.29	1511.18
1503.82	1452.64
1507.35	1224.37
1510.88	987.456
1514.41	716.746
1517.94	362.144
1521.46	145.451
1524.99	0
