Measurement: Raman, 514 nm, ccw, Raman Data Processed
Mineral: Humite
Rruff sample: R050665
Ideal chemistry: Mg_7_(SiO_4_)_3_(F,OH)_2_
Locality: Tilly Foster mine, Brewster, Putnam County, New York, USA
Source: University of Arizona Mineral Museum
Description: Granular aggregate of reddish-orange crystals
Measured chemistry: (Mg_0.91_Fe^2+^_0.09_)_7_(Si_1.00_O_4_)_3_(F_0.56_(OH)_0.44_)_2_
Pin_id: M00589
Orientation: Laser parallel to b* (0 1 0). Fiducial mark perpendicular to laser is parallel to c [0 0 1]
Raman shift (cm-1)	intensity
161.8	0
166.72	22.0442
171.638	48.547
176.552	5.36475
181.464	14.0139
186.373	89.1724
191.28	208.551
196.183	356.571
201.084	370.766
205.982	140.411
210.878	114.103
215.77	213.114
220.66	154.919
225.547	203.63
230.431	249.189
235.313	292.866
240.192	287.428
245.068	335.939
249.941	453.529
254.811	410.266
259.679	513.326
264.544	390.279
269.406	391.591
274.265	271.138
279.122	319.207
283.976	347.731
288.827	280.407
293.676	253.08
298.521	223.099
303.364	197.273
308.205	207.923
313.042	272.567
317.877	340.134
322.709	447.232
327.538	365.853
332.365	328.974
337.188	289.426
342.009	272.155
346.828	286.111
351.643	276.259
356.456	305.578
361.266	255.08
366.074	171.825
370.878	40.8711
375.68	74.1567
380.479	34.7168
385.276	87.667
390.07	32.0668
394.861	21.9943
399.649	14.6904
404.435	60.1891
409.218	5.47583
413.998	80.3939
418.775	107.461
423.55	170.494
428.322	138.224
433.091	112.611
437.858	50.9143
442.622	94.1351
447.383	217.259
452.142	337.276
456.898	477.221
461.651	538.076
466.401	487.822
471.149	593.439
475.894	497.911
480.636	368.22
485.376	409.353
490.113	297.296
494.847	267.038
499.578	223.266
504.307	196.325
509.033	223.799
513.757	196.094
518.478	243.449
523.196	247.311
527.911	330.727
532.624	364.97
537.334	427.658
542.041	421.257
546.746	453.127
551.448	373.912
556.147	335.735
560.844	400.959
565.538	579.36
570.229	674.264
574.918	846.675
579.604	1254.59
584.287	1284.02
588.967	1245.96
593.645	1707.4
598.321	2486.36
602.993	3397.83
607.663	3063.81
612.33	1952.31
616.995	1112.33
621.657	674.884
626.316	427.966
630.973	184.586
635.627	145.752
640.278	67.4564
644.927	45.6077
649.573	45.9277
654.216	16.6526
658.857	17.5237
663.495	52.6082
668.131	64.817
672.763	76.2356
677.393	48.0483
682.021	97.8346
686.646	62.4315
691.268	67.5763
695.888	22.0565
700.504	46.2225
705.119	91.2706
709.73	280.142
714.339	542.86
718.946	733.447
723.55	1029.92
728.151	1184.32
732.749	1505.64
737.345	1706.93
741.938	1946.2
746.529	2495.47
751.117	3055.77
755.702	3298.11
760.285	3062.53
764.865	2638.05
769.442	2247.68
774.017	2444.41
778.59	3089.95
783.159	3544.91
787.726	2743.07
792.291	1838.3
796.852	1430.78
801.412	1315.91
805.968	1449.25
810.522	1651.1
815.073	2212.84
819.622	3299.69
824.168	5702.56
828.712	10821.7
833.253	19872.1
837.791	25351
842.327	25128
846.86	19973.6
851.39	12693.9
855.918	11001.9
860.444	13710.5
864.966	13987.8
869.487	9808.77
874.004	6616.44
878.519	4102.8
883.031	2650.86
887.541	1825.65
892.048	1490.18
896.553	1558.45
901.055	1160.42
905.554	703.109
910.051	583.506
914.545	533.625
919.037	513.539
923.526	322.399
928.013	395.416
932.497	612.365
936.978	621.527
941.457	610.263
945.933	877.108
950.407	1491.11
954.878	2022.91
959.346	2560.72
963.812	4715.21
968.276	4796.45
972.736	2652.95
977.195	1407.07
981.65	835.464
986.103	581.574
990.554	363.133
995.002	405.077
999.447	414.931
1003.89	430.821
1008.33	399.814
1012.77	358.75
1017.2	345.613
1021.64	322.259
1026.07	333.951
1030.49	315.317
1034.92	222.503
1039.34	240.325
1043.76	188.27
1048.18	139.811
1052.59	70.9802
1057.01	54.3169
1061.41	24.0569
1065.82	142.187
1070.23	71.8506
1074.63	33.0562
1079.03	69.6785
1083.43	19.7771
1087.82	27.6582
1092.21	13.2961
1096.6	6.85498
1100.99	0.993164
1105.37	37.4448
1109.76	33.6938
1114.13	3.67773
1118.51	74.3513
1122.88	124.818
1127.26	68.0674
1131.63	111.081
1135.99	108.825
1140.36	83.3135
1144.72	137.568
1149.08	142.549
1153.43	28.1548
1157.79	128.359
1162.14	161.248
1166.49	140.827
1170.84	159.066
1175.18	163.969
1179.52	132.704
1183.86	152.14
1188.2	160.006
1192.53	165.565
1196.86	129.383
1201.19	171.248
1205.52	149.688
1209.84	164.236
1214.16	183.76
1218.48	189.339
1222.8	292.181
1227.11	234.377
1231.42	206.153
1235.73	176.559
1240.04	152.813
1244.34	178.672
1248.64	145.923
1252.94	156.059
1257.24	188.035
1261.54	222.158
1265.83	113.915
1270.12	144.739
1274.4	67.9578
1278.69	97.8499
1282.97	172.605
1287.25	84.5164
1291.52	96.8452
1295.8	158.74
1300.07	95.9519
1304.34	111.788
1308.61	46.905
1312.87	65.4658
1317.13	62.4773
1321.39	12.6787
1325.65	20.0149
1329.9	57.4705
1334.15	46.125
1338.4	31.7004
1342.65	29.2493
1346.89	15.8267
1351.14	55.4006
1355.38	48.0796
1359.61	21.7705
1363.85	8.41089
1368.08	56.8364
1372.31	9.1936
1376.54	11.4736
1380.76	1.64136
1384.98	4.70068
1389.2	37.3708
1393.42	4.47119
1397.64	57.3037
1401.85	88.5354
1406.06	55.5847
1410.27	19.783
1414.47	0.04248
1418.67	19.4194
1422.88	36.3975
1427.07	77.0803
1431.27	44.5601
1435.46	76.3916
1439.65	125.415
1443.84	92.04
1448.03	107.657
1452.21	167
1456.39	17.2459
1460.57	129.048
1464.74	95.3315
1468.92	159.75
1473.09	108.663
1477.26	187.714
1481.42	251.112
1485.59	190.252
1489.75	210.094
1493.91	249.276
1498.06	247.66
1502.22	244.874
1506.37	212.059
1510.52	216.745
1514.67	141.79
1518.81	140.132
1522.95	122.677
1527.09	137.712
1531.23	44.3852
1535.36	137.425
1539.5	39.1362
1543.63	13.794
1547.75	117.717
1551.88	123.855
1556	73.0244
1560.12	112.697
