Measurement: Raman, 514 nm, ccw, Raman Data Processed
Mineral: Humite
Rruff sample: R040071
Ideal chemistry: Mg_7_(SiO_4_)_3_(F,OH)_2_
Locality: Tilly Foster mine, Brewster, Putnam County, New York, USA
Source: University of Arizona Mineral Museum
Description: Red crystals
Measured chemistry: (Mg_0.91_Fe_0.09_)_7_(Si_0.99_Ti_0.01_O_4_)_3_(F_0.76_(OH)_0.24_)_2_
Pin_id: L00333
Orientation: Laser parallel to -c* (0 0 -1). Fiducial mark perpendicular to laser is parallel to a [1 0 0]
Raman shift (cm-1)	intensity
133.003	0
137.164	7.286
141.323	251.424
145.48	212.251
149.635	264.678
153.788	194.611
157.939	113.038
162.088	199.109
166.235	219.17
170.38	154.582
174.523	147.34
178.664	291.267
182.803	433.968
186.94	703.681
191.076	750.96
195.209	994.497
199.34	1139.23
203.47	1291.94
207.597	1637.01
211.722	1254.78
215.846	988.883
219.967	1064.37
224.087	1110.75
228.204	1043.42
232.32	898.642
236.434	874.633
240.545	1005.53
244.655	1146.38
248.763	1087.21
252.869	959.979
256.973	870.654
261.075	931.51
265.175	966.003
269.273	1130.91
273.369	1369.32
277.463	1421.71
281.556	1448.37
285.646	1601.18
289.734	1545.74
293.821	1594.97
297.905	1429.13
301.988	1598.03
306.069	1760.02
310.147	1843.3
314.224	1893.25
318.299	2065.88
322.372	1918.55
326.443	1858.21
330.512	1566.74
334.579	1450.07
338.645	1298.09
342.708	1369.62
346.769	1605.38
350.829	1660.27
354.887	1845.12
358.942	1745.83
362.996	1235.36
367.048	1024.66
371.098	756.583
375.146	586.104
379.192	458.237
383.236	426.998
387.279	173.394
391.319	32.425
395.358	32.04
399.394	2.856
403.429	170.424
407.462	178.946
411.493	210.541
415.522	144.196
419.549	87.303
423.575	270.257
427.598	456.709
431.619	484.161
435.639	655.778
439.657	764.836
443.673	952.333
447.687	1154.51
451.699	1368.36
455.709	1614.89
459.717	1810.1
463.724	2079.03
467.728	2253.63
471.731	2529.88
475.732	2928.58
479.731	3326.04
483.728	3796.67
487.723	4258.44
491.716	4587.33
495.708	4771.02
499.697	4835.66
503.685	4958.36
507.671	4711.29
511.655	4376.78
515.637	4375.8
519.617	5015.82
523.596	5947.23
527.572	7115.04
531.547	8417.24
535.52	8398.83
539.491	7734.84
543.46	7343.25
547.427	6381.84
551.393	4669.48
555.356	3178.59
559.318	2463.69
563.278	1834.96
567.236	1615.73
571.192	1410.75
575.147	1179.11
579.099	989.257
583.05	700.193
586.999	618.822
590.946	709.184
594.891	883.161
598.834	1201.78
602.776	1537.06
606.715	1398
610.653	1226.63
614.589	1099.94
618.523	832.943
622.456	610.655
626.386	368.082
630.315	278.234
634.242	69.978
638.167	161.068
642.09	211.44
646.012	194.253
649.931	205.786
653.849	219.119
657.765	91.124
661.679	8.856
665.592	24.754
669.502	6.162
673.411	130.889
677.318	203.538
681.223	345.126
685.126	528.68
689.028	692.22
692.927	844.77
696.825	1049.22
700.721	1384.99
704.616	1746.71
708.508	2301.54
712.399	3001.56
716.288	3528.91
720.175	4364.33
724.06	5459.52
727.944	6891.15
731.825	8996.58
735.705	11078.6
739.584	14151.9
743.46	18377.5
747.334	25589.4
751.207	31571.6
755.078	34274
758.947	32304.8
762.815	26332
766.68	19109.5
770.544	12531.3
774.406	8479.57
778.267	6691.21
782.125	6079.25
785.982	5469.74
789.837	4186.75
793.69	3045.93
797.542	1987.65
801.391	1360.66
805.239	1262.94
809.085	1548.53
812.93	1979.3
816.772	3133.24
820.613	4933.18
824.452	8498.02
828.29	14959.9
832.125	26722.6
835.959	37796.2
839.791	37169.9
843.621	33524.8
847.45	25316.7
851.277	15941.6
855.102	10969.6
858.925	9394.6
862.746	8966.51
866.566	7194.35
870.384	4953.07
874.2	3227.63
878.015	2479.97
881.828	1892.09
885.639	1327.95
889.448	857.562
893.256	631.912
897.061	401.999
900.865	241.822
904.668	211.378
908.468	306.667
912.267	601.681
916.064	883.421
919.86	955.879
923.653	788.054
927.445	765.938
931.236	590.527
935.024	599.394
938.811	453.118
942.596	532.34
946.379	673.353
950.161	1043.79
953.94	1517.89
957.719	2435.36
961.495	4350.57
965.27	6762.76
969.043	6308.12
972.814	3994.99
976.583	2507.44
980.351	1682.66
984.117	1363.3
987.882	1406.48
991.644	1430.81
995.405	1439.24
999.165	1554.39
1002.92	1580.64
1006.68	1490.61
1010.43	1452.6
1014.18	1429.38
1017.93	1234.42
1021.68	1070.94
1025.43	978.93
1029.18	829.632
1032.92	797.899
1036.66	711.379
1040.4	553.056
1044.14	433.913
1047.88	348.94
1051.62	267.118
1055.35	159.431
1059.08	78.594
1062.81	87.367
1066.54	101.956
1070.27	120.602
1073.99	141.278
1077.72	123.961
1081.44	28.639
1085.16	11.718
1088.88	44.152
1092.59	66.733
1096.31	22.513
1100.02	74.458
1103.73	48.648
1107.44	61.075
1111.15	94.723
1114.86	70.686
1118.57	28.964
1122.27	31.523
1125.97	177.04
1129.67	25.471
1133.37	61.368
1137.07	108.961
1140.76	54.5
1144.45	52.92
1148.15	55.22
1151.84	23.477
1155.53	45.338
1159.21	8.417
1162.9	86.679
1166.58	72.24
1170.26	209.154
1173.94	209.504
1177.62	367.323
1181.3	502.713
1184.97	620.729
1188.65	650.187
1192.32	715.575
1195.99	944.401
1199.66	953.06
1203.33	1084.9
1206.99	1264.77
1210.65	1221.38
1214.32	1527.37
1217.98	1587.36
1221.64	1635.08
1225.29	1683.71
1228.95	1821.93
1232.6	2055.51
1236.26	2022.76
1239.91	2239.07
1243.56	2198.48
1247.2	2299.21
1250.85	2370.67
1254.49	2332.65
1258.13	2338.18
1261.78	2359.81
1265.41	2333.5
1269.05	2337.05
1272.69	2300.13
1276.32	2416.75
1279.95	2453.38
1283.59	2420.33
1287.21	2420.52
1290.84	2304.45
1294.47	2135.57
1298.09	1835
1301.72	1556.06
1305.34	1353.25
1308.96	1142.6
1312.58	971.401
1316.19	661.854
1319.81	702.574
1323.42	553.252
1327.03	514.45
1330.64	528.56
1334.25	515.744
1337.86	433.171
1341.46	411.967
1345.07	330.534
1348.67	416.929
1352.27	377.07
1355.87	363.834
1359.46	365.222
1363.06	404.397
1366.65	393.54
1370.25	373.747
1373.84	375.185
1377.43	242.2
1381.02	153.326
1384.6	168.686
1388.18	80.849
1391.77	88.495
1395.35	5.957
1398.93	31.625
1402.51	40.31
1406.08	9.543
1409.66	80.012
1413.23	90.424
1416.8	8.504
1420.37	85.475
1423.94	18.618
1427.51	30.15
1431.08	3.048
1434.64	92.875
1438.2	152.603
1441.76	301.37
1445.32	275.461
1448.88	336.504
1452.43	417.435
1455.99	601.96
1459.54	608.311
1463.09	827.358
1466.64	802.922
1470.19	757.625
1473.74	877.291
1477.28	894.558
1480.83	956.683
1484.37	1142.55
1487.91	1326.02
1491.45	1501.53
1494.98	1793.62
1498.52	1932.82
1502.05	1805.26
1505.59	1785.3
1509.12	1560.53
1512.65	1330.01
1516.17	961.996
1519.7	530.422
1523.23	216.145
1526.75	6.964
