Measurement: Raman, 514 nm, ccw, Raman Data Processed
Mineral: Humite
Rruff sample: R050665
Ideal chemistry: Mg_7_(SiO_4_)_3_(F,OH)_2_
Locality: Tilly Foster mine, Brewster, Putnam County, New York, USA
Source: University of Arizona Mineral Museum
Description: Granular aggregate of reddish-orange crystals
Measured chemistry: (Mg_0.91_Fe^2+^_0.09_)_7_(Si_1.00_O_4_)_3_(F_0.56_(OH)_0.44_)_2_
Pin_id: M00589
Orientation: Laser parallel to b* (0 1 0). Fiducial mark perpendicular to laser is parallel to c [0 0 1]
Raman shift (cm-1)	intensity
161.8	0
166.72	32.6989
171.638	79.0081
176.552	43.614
181.464	95.2527
186.373	116.328
191.28	281.859
196.183	559.692
201.084	514.163
205.982	255.687
210.878	191.675
215.77	296.029
220.66	265.857
225.547	472.865
230.431	705.236
235.313	852.549
240.192	869.964
245.068	857.297
249.941	840.697
254.811	676.244
259.679	705.262
264.544	488.885
269.406	281.656
274.265	216.815
279.122	216.012
283.976	115.941
288.827	115.87
293.676	140.208
298.521	117.914
303.364	164.38
308.205	350.509
313.042	618.197
317.877	1075.87
322.709	1328.63
327.538	1268.95
332.365	1123.77
337.188	951.771
342.009	799.521
346.828	633.324
351.643	443.342
356.456	256.092
361.266	93.8809
366.074	89.8728
370.878	49.0677
375.68	28.3264
380.479	44.7259
385.276	118.239
390.07	159.278
394.861	99.8899
399.649	74.1677
404.435	39.0282
409.218	83.3933
413.998	202.138
418.775	178.093
423.55	189.085
428.322	92.967
433.091	0.279541
437.858	68.7633
442.622	42.6384
447.383	0.880005
452.142	19.984
456.898	80.9418
461.651	24.8334
466.401	106.355
471.149	182.755
475.894	182.072
480.636	307.852
485.376	300.512
490.113	191.892
494.847	279.976
499.578	231.751
504.307	219.236
509.033	191.464
513.757	211.536
518.478	177.242
523.196	196.671
527.911	219.579
532.624	281.931
537.334	296.921
542.041	326.516
546.746	590.296
551.448	528.128
556.147	590.65
560.844	623.996
565.538	640
570.229	773.324
574.918	972.503
579.604	1269.15
584.287	1795.95
588.967	2777.1
593.645	4816.06
598.321	7696.36
602.993	10556.8
607.663	9581.94
612.33	5925.43
616.995	3260.3
621.657	1840.58
626.316	1129.26
630.973	668.351
635.627	417.873
640.278	234.834
644.927	163.116
649.573	107.1
654.216	10.6675
658.857	61.2413
663.495	63.0161
668.131	57.1711
672.763	53.8511
677.393	134.115
682.021	94.1511
686.646	115.675
691.268	119.606
695.888	83.8176
700.504	15.093
705.119	167.677
709.73	249.089
714.339	542.366
718.946	802.689
723.55	1116.14
728.151	1432.64
732.749	1575.16
737.345	1791.69
741.938	2155.28
746.529	2827.95
751.117	3518.73
755.702	3809.65
760.285	3690.74
764.865	3343.03
769.442	3349.56
774.017	3887.35
778.59	5302.43
783.159	6156.71
787.726	4867.95
792.291	3360.28
796.852	2801.84
801.412	2817.19
805.968	3139.3
810.522	3924.48
815.073	5134.34
819.622	7766.59
824.168	13752
828.712	26135.3
833.253	47310
837.791	58742.4
842.327	54504.4
846.86	43056.4
851.39	25826.3
855.918	20317.2
860.444	22666
864.966	22896.7
869.487	15220.5
874.004	8727.16
878.519	5387.84
883.031	3528.52
887.541	2369.18
892.048	1749.85
896.553	1423.53
901.055	1032.22
905.554	730.911
910.051	628.615
914.545	676.316
919.037	523.002
923.526	494.284
928.013	492.805
932.497	570.803
936.978	724.213
941.457	1028.38
945.933	1433.22
950.407	2168.43
954.878	2591.59
959.346	4041.59
963.812	8224.12
968.276	9502.94
972.736	5500.13
977.195	3076.84
981.65	1908.57
986.103	1271.95
990.554	900.821
995.002	736.563
999.447	698.474
1003.89	711.747
1008.33	665.448
1012.77	528.048
1017.2	490.521
1021.64	546.165
1026.07	462.963
1030.49	413.432
1034.92	434.301
1039.34	354.421
1043.76	349.825
1048.18	262.299
1052.59	26.4138
1057.01	62.3247
1061.41	28.366
1065.82	117.948
1070.23	144.775
1074.63	146.59
1079.03	67.4751
1083.43	49.1362
1087.82	31.4265
1092.21	90.5332
1096.6	41.4011
1100.99	39.8499
1105.37	34.1992
1109.76	126.165
1114.13	88.1841
1118.51	88.8811
1122.88	126.267
1127.26	112.365
1131.63	170.175
1135.99	192.444
1140.36	115.71
1144.72	151.379
1149.08	130.634
1153.43	168.448
1157.79	135.895
1162.14	144.778
1166.49	223.138
1170.84	139.025
1175.18	203.473
1179.52	222.313
1183.86	192.058
1188.2	174.78
1192.53	255.054
1196.86	239.388
1201.19	235.274
1205.52	276.22
1209.84	273.511
1214.16	280.613
1218.48	205.834
1222.8	247.711
1227.11	237.865
1231.42	230.311
1235.73	190.494
1240.04	198.339
1244.34	184.669
1248.64	205.25
1252.94	172.989
1257.24	203.651
1261.54	168.169
1265.83	125.041
1270.12	172.273
1274.4	159.209
1278.69	173.963
1282.97	82.6868
1287.25	145.359
1291.52	132.936
1295.8	77.105
1300.07	55.0405
1304.34	90.2019
1308.61	134.563
1312.87	134.59
1317.13	74.3142
1321.39	131.259
1325.65	62.3518
1329.9	122.678
1334.15	54.3413
1338.4	65.2639
1342.65	58.3179
1346.89	17.4443
1351.14	1.35693
1355.38	66.9468
1359.61	11.1497
1363.85	32.3484
1368.08	54.5269
1372.31	56.5879
1376.54	42.531
1380.76	29.3616
1384.98	18.9639
1389.2	54.7605
1393.42	29.1924
1397.64	27.0456
1401.85	53.2334
1406.06	19.4023
1410.27	14.4873
1414.47	34.0151
1418.67	83.0742
1422.88	89.9831
1427.07	98.9898
1431.27	61.8572
1435.46	42.1506
1439.65	175.679
1443.84	194.542
1448.03	157.177
1452.21	109.413
1456.39	160.43
1460.57	155.407
1464.74	127.951
1468.92	143.919
1473.09	137.702
1477.26	108.189
1481.42	111.647
1485.59	96.9741
1489.75	156.414
1493.91	115.61
1498.06	175.082
1502.22	86.7363
1506.37	120.131
1510.52	125.282
1514.67	122.344
1518.81	114.898
1522.95	90.5859
1527.09	65.0588
1531.23	38.7144
1535.36	14.6487
1539.5	44.4895
1543.63	64.2236
1547.75	47.5071
1551.88	81.082
1556	103.775
1560.12	0.069336
