Measurement: Raman, 514 nm, ccw, Raman Data Processed
Mineral: Humite
Rruff sample: R040071
Ideal chemistry: Mg_7_(SiO_4_)_3_(F,OH)_2_
Locality: Tilly Foster mine, Brewster, Putnam County, New York, USA
Source: University of Arizona Mineral Museum
Description: Red crystals
Measured chemistry: (Mg_0.91_Fe_0.09_)_7_(Si_0.99_Ti_0.01_O_4_)_3_(F_0.76_(OH)_0.24_)_2_
Pin_id: L00333
Orientation: Laser parallel to -c* (0 0 -1). Fiducial mark perpendicular to laser is parallel to a [1 0 0]
Raman shift (cm-1)	intensity
54.966	0
59.164	32.29
63.36	36.16
67.554	46.439
71.747	78.928
75.937	42.859
80.125	29.875
84.311	30.438
88.496	17.315
92.678	55.538
96.858	41.923
101.036	35.992
105.212	70.044
109.387	63.608
113.559	69.467
117.729	149.65
121.897	56.144
126.063	62.912
130.228	61.918
134.39	66.142
138.55	130.578
142.709	120.269
146.865	117.109
151.019	77.98
155.171	74.795
159.322	68.55
163.47	159.419
167.617	199.695
171.761	245.332
175.904	253.142
180.044	262.139
184.183	315.923
188.319	374.422
192.454	478.639
196.586	664.905
200.717	628.225
204.846	621.616
208.972	642.1
213.097	305.695
217.22	304.41
221.341	326.737
225.46	418.671
229.577	615.91
233.692	684.459
237.805	735.477
241.916	731.889
246.025	724.118
250.132	709.23
254.237	615.985
258.34	551.963
262.442	401.407
266.541	331.95
270.639	270.476
274.734	209.086
278.828	234.278
282.919	204.097
287.009	180.989
291.097	144.57
295.183	152.883
299.266	181.283
303.348	179.594
307.428	247.886
311.507	439.486
315.583	683.771
319.657	885.087
323.729	933.435
327.8	834.814
331.868	765.246
335.935	713.253
339.999	614.363
344.062	518.084
348.123	407.157
352.182	309.395
356.239	174.92
360.294	137.7
364.347	78.669
368.398	32.803
372.448	6.052
376.495	9.385
380.54	111.727
384.584	110.044
388.626	103.32
392.666	96.56
396.704	17.77
400.74	40.954
404.774	58.116
408.806	51.26
412.836	150.386
416.865	193.511
420.891	161.624
424.916	77.694
428.939	34.716
432.959	35.328
436.978	25.569
440.996	19.978
445.011	16.547
449.024	3.26
453.036	39.934
457.045	12.967
461.053	0.001
465.059	33.848
469.063	1.6
473.065	82.257
477.065	132.834
481.063	195.328
485.06	189.737
489.054	136.879
493.047	118.533
497.038	129.596
501.027	167.485
505.014	173.736
508.999	161.333
512.982	138.955
516.964	181.251
520.944	215.006
524.921	233.52
528.897	184.835
532.871	223.591
536.844	217.394
540.814	237.998
544.783	290.396
548.749	283.617
552.714	334.661
556.677	327.53
560.638	389.223
564.597	355.741
568.555	447.087
572.511	528.26
576.464	645.261
580.416	834.092
584.366	1196.76
588.315	1778.25
592.261	2870.87
596.206	4452.34
600.148	6419.29
604.089	7294.41
608.028	6307.99
611.965	4159.46
615.901	2446.52
619.834	1522.33
623.766	924.751
627.696	607.384
631.624	338.324
635.551	206.153
639.475	148.875
643.398	80.497
647.318	21.009
651.237	7.358
655.155	35.506
659.07	39.736
662.984	43.397
666.895	96.506
670.805	96.232
674.713	73.586
678.62	59.463
682.524	58.755
686.427	20.43
690.328	33.357
694.227	2.518
698.124	36.347
702.02	59.161
705.913	95.968
709.805	215.773
713.695	365.586
717.584	542.412
721.47	771.26
725.355	930.136
729.238	1079.05
733.119	1262.01
736.998	1339.01
740.876	1564.08
744.752	1856.2
748.626	2149.43
752.498	2569.81
756.368	2713.32
760.237	2627.98
764.104	2457.8
767.969	2398.81
771.832	2756.04
775.693	3319.49
779.553	4257.17
783.411	4696.06
787.267	3998.18
791.122	2918.59
794.974	2446.22
798.825	2265.12
802.674	2384.66
806.522	2698.03
810.367	3042.12
814.211	3750.95
818.053	5068.59
821.893	7456.91
825.732	11997.7
829.568	20249.3
833.403	33250
837.236	39765.2
841.068	38586.2
844.898	34462.6
848.726	23967.6
852.552	16606.9
856.376	14366.6
860.199	16173.6
864.02	16781.9
867.839	12939.5
871.656	8421.45
875.472	5361.72
879.286	3769.32
883.098	2737.22
886.909	2096.45
890.717	1749
894.524	1419.87
898.33	1165.05
902.133	951.529
905.935	876.316
909.735	932.406
913.533	995.186
917.33	1053.06
921.124	896.415
924.918	720.654
928.709	660.427
932.499	671.514
936.286	808.606
940.073	927.897
943.857	1067.81
947.64	1278.03
951.421	1658.74
955.2	1859.26
958.978	2681.48
962.753	4972.81
966.527	6882.52
970.3	6053.2
974.071	3767.39
977.84	2435.11
981.607	1615.31
985.372	1169.37
989.136	865.419
992.898	724.427
996.659	676.369
1000.42	617.695
1004.17	595.277
1007.93	592.543
1011.68	560.359
1015.43	528.58
1019.18	519.575
1022.93	522.274
1026.68	488.285
1030.42	423.774
1034.17	401.271
1037.91	340.601
1041.65	311.343
1045.39	278.126
1049.12	178.742
1052.86	78.419
1056.59	41.173
1060.33	1.999
1064.06	11.139
1067.78	15.3
1071.51	35.567
1075.23	43.947
1078.96	28.466
1082.68	30.113
1086.4	62.873
1090.12	53.866
1093.83	36.078
1097.55	25.459
1101.26	0.99
1104.97	16.669
1108.68	47.474
1112.39	9.444
1116.1	0.533
1119.8	0.733
1123.5	153.969
1127.2	83.616
1130.9	18.195
1134.6	17.684
1138.3	29.057
1141.99	68.32
1145.69	42.621
1149.38	29.798
1153.07	57.728
1156.76	54.636
1160.44	23.286
1164.13	43.331
1167.81	35.837
1171.49	37.419
1175.17	70.653
1178.85	54.96
1182.52	58.111
1186.2	71.929
1189.87	73.447
1193.54	96.515
1197.21	114.202
1200.88	143.072
1204.55	169.315
1208.21	177.238
1211.88	182.115
1215.54	183.818
1219.2	177.262
1222.86	171.972
1226.51	204.458
1230.17	206.721
1233.82	235.187
1237.47	235.146
1241.12	188.441
1244.77	171.253
1248.42	170.225
1252.06	168.399
1255.71	145.708
1259.35	128.671
1262.99	106.917
1266.63	155.057
1270.26	151.348
1273.9	106.146
1277.53	92.342
1281.16	121.148
1284.8	79.725
1288.42	53.302
1292.05	78.87
1295.68	88.721
1299.3	68.234
1302.92	82.419
1306.55	34.01
1310.16	86.919
1313.78	42.028
1317.4	57.686
1321.01	23.797
1324.62	33.174
1328.24	59.346
1331.85	48.016
1335.45	20.376
1339.06	37.916
1342.66	22.319
1346.27	36.566
1349.87	18.662
1353.47	36.61
1357.07	10.559
1360.66	43.173
1364.26	28.865
1367.85	7.506
1371.44	30.125
1375.04	34.704
1378.62	10.635
1382.21	45.009
1385.8	4.324
1389.38	13.467
1392.96	27.78
1396.54	40.13
1400.12	69.432
1403.7	13.569
1407.28	21.567
1410.85	1.264
1414.42	20.807
1417.99	22.28
1421.56	17.876
1425.13	24.405
1428.7	24.96
1432.26	47.366
1435.83	11.542
1439.39	76.914
1442.95	58.748
1446.51	78.333
1450.06	52.283
1453.62	71.971
1457.17	47.943
1460.73	46.665
1464.28	61.036
1467.83	30.529
1471.37	51.157
1474.92	86.614
1478.46	64.699
1482.01	52.277
1485.55	51.057
1489.09	39.873
1492.63	68.058
1496.16	73.534
1499.7	42.331
1503.23	77.317
1506.76	6.545
1510.29	47.198
1513.82	18.421
1517.35	29.408
1520.88	24.641
1524.4	33.363
1527.92	0
