Measurement: Raman, 514 nm, ccw, Raman Data Processed
Mineral: Humite
Rruff sample: R040071
Ideal chemistry: Mg_7_(SiO_4_)_3_(F,OH)_2_
Locality: Tilly Foster mine, Brewster, Putnam County, New York, USA
Source: University of Arizona Mineral Museum
Description: Red crystals
Measured chemistry: (Mg_0.91_Fe_0.09_)_7_(Si_0.99_Ti_0.01_O_4_)_3_(F_0.76_(OH)_0.24_)_2_
Pin_id: L00308
Orientation: Laser parallel to b* (0 1 0). Fiducial mark perpendicular to laser is parallel to c [0 0 1]
Raman shift (cm-1)	intensity
82.916	0
87.101	194.611
91.284	492.683
95.465	214.045
99.644	22.744
103.82	54.802
107.995	275.834
112.168	57.386
116.339	387.826
120.508	171.263
124.675	190.321
128.84	240.009
133.003	264.24
137.164	362.79
141.323	227.869
145.48	188.777
149.635	159.061
153.788	110.332
157.939	41.063
162.088	6.838
166.235	48.366
170.38	26.405
174.523	13.477
178.664	56.305
182.803	113.737
186.94	317.331
191.076	751.384
195.209	1318.29
199.34	963.812
203.47	336.034
207.597	98.233
211.722	24.259
215.846	123.882
219.967	384.58
224.087	483.125
228.204	185.999
232.32	127.336
236.434	93.646
240.545	14.652
244.655	77.761
248.763	219.327
252.869	322.72
256.973	553.396
261.075	769.489
265.175	793.957
269.273	575.401
273.369	489.148
277.463	598.482
281.556	654.687
285.646	557.361
289.734	560.794
293.821	460.104
297.905	421.166
301.988	387.3
306.069	276.432
310.147	266.828
314.224	192.744
318.299	245.442
322.372	234.357
326.443	225.063
330.512	262.054
334.579	326.063
338.645	435.588
342.708	447.159
346.769	518.554
350.829	545.503
354.887	522.554
358.942	427.487
362.996	323.25
367.048	193.571
371.098	148.393
375.146	141.158
379.192	131.555
383.236	174.986
387.279	180.397
391.319	147.913
395.358	160.939
399.394	138.042
403.429	74.334
407.462	188.335
411.493	394.724
415.522	487.109
419.549	527.034
423.575	561.546
427.598	376.141
431.619	174.167
435.639	30.063
439.657	85.966
443.673	15.423
447.687	142.274
451.699	163.685
455.709	191.724
459.717	205.333
463.724	305.182
467.728	310.264
471.731	410.581
475.732	462.943
479.731	497.105
483.728	546.982
487.723	396.319
491.716	295.395
495.708	292.633
499.697	299.164
503.685	265.231
507.671	205.43
511.655	226.866
515.637	293.862
519.617	426.135
523.596	541.996
527.572	698.556
531.547	815.098
535.52	883.61
539.491	833.49
543.46	999.32
547.427	1064.28
551.393	735.098
555.356	462.16
559.318	321.717
563.278	281.649
567.236	240.208
571.192	224.839
575.147	253.005
579.099	227.702
583.05	290.935
586.999	232.72
590.946	302.198
594.891	532.202
598.834	834.438
602.776	1200.79
606.715	1239.32
610.653	910.238
614.589	573.888
618.523	360.102
622.456	273.023
626.386	106.843
630.315	63.475
634.242	0.291
638.167	27.667
642.09	6.725
646.012	6.555
649.931	51.757
653.849	116.801
657.765	80.864
661.679	108.367
665.592	123.46
669.502	131.917
673.411	139.747
677.318	70.527
681.223	67.978
685.126	17.149
689.028	14.896
692.927	32.771
696.825	109.503
700.721	247.105
704.616	328.58
708.508	636.947
712.399	805.225
716.288	1200.05
720.175	1562.2
724.06	1975
727.944	2469.15
731.825	2922.48
735.705	3475.12
739.584	4013.2
743.46	4707.08
747.334	5720.54
751.207	6719.5
755.078	7125.59
758.947	6696.84
762.815	5841.22
766.68	4869.74
770.544	4223.39
774.406	4347.19
778.267	5337.07
782.125	6201.28
785.982	5291.8
789.837	3677.5
793.69	2868.89
797.542	2614.54
801.391	2603.27
805.239	2894.21
809.085	2970.75
812.93	3439.08
816.772	4389.45
820.613	6421.42
824.452	9915.54
828.29	16357
832.125	28033
835.959	37438.2
839.791	42360.5
843.621	46288.2
847.45	34725.2
851.277	25995.7
855.102	25919.6
858.925	34167.9
862.746	38584.8
866.566	28763
870.384	18290.8
874.2	12352
878.015	9385.78
881.828	6754.08
885.639	4757.9
889.448	3801.23
893.256	3251.1
897.061	2773.47
900.865	2284.34
904.668	1746.79
908.468	1678.68
912.267	1654.84
916.064	1469.69
919.86	1333.18
923.653	1356.02
927.445	1294.87
931.236	1453.06
935.024	1523.03
938.811	1476.88
942.596	1556.66
946.379	1842.76
950.161	2466.29
953.94	3846.08
957.719	5787.45
961.495	9861.16
965.27	13036.3
969.043	8776.9
972.814	4476.47
976.583	2439.64
980.351	1587.43
984.117	1118.91
987.882	683.049
991.644	503.109
995.405	387.761
999.165	353.114
1002.92	420.69
1006.68	388.333
1010.43	350.72
1014.18	267.846
1017.93	252.479
1021.68	276.056
1025.43	358.093
1029.18	334.149
1032.92	269.78
1036.66	201.805
1040.4	431.703
1044.14	234.908
1047.88	185.131
1051.62	102.469
1055.35	48.703
1059.08	21.105
1062.81	11.354
1066.54	104.74
1070.27	11.109
1073.99	63.395
1077.72	47.69
1081.44	19.037
1085.16	0.489
1088.88	118.079
1092.59	112.865
1096.31	52.781
1100.02	0.173
1103.73	53.937
1107.44	23.244
1111.15	36.213
1114.86	28.402
1118.57	75.614
1122.27	51.096
1125.97	51.738
1129.67	11.285
1133.37	49.709
1137.07	154.059
1140.76	120.37
1144.45	56.869
1148.15	104.92
1151.84	10.256
1155.53	70.366
1159.21	73.846
1162.9	86
1166.58	76.381
1170.26	112.245
1173.94	77.277
1177.62	3.155
1181.3	76.962
1184.97	57.978
1188.65	113.139
1192.32	157.143
1195.99	121.346
1199.66	177.146
1203.33	181.025
1206.99	210.088
1210.65	258.307
1214.32	236.649
1217.98	349.792
1221.64	355.903
1225.29	357.257
1228.95	373.492
1232.6	709.659
1236.26	267.935
1239.91	286.921
1243.56	365.841
1247.2	368.934
1250.85	306.47
1254.49	439.62
1258.13	328.392
1261.78	263.405
1265.41	257.833
1269.05	176.83
1272.69	217.353
1276.32	207.933
1279.95	185.053
1283.59	251.885
1287.21	231.089
1290.84	222.787
1294.47	217.231
1298.09	143.888
1301.72	87.215
1305.34	119.113
1308.96	75.266
1312.58	79.497
1316.19	90.504
1319.81	82.61
1323.42	108.949
1327.03	24.925
1330.64	37.852
1334.25	13.364
1337.86	41.093
1341.46	0.42
1345.07	78.206
1348.67	27.423
1352.27	122.151
1355.87	11.471
1359.46	81.422
1363.06	65.02
1366.65	71.292
1370.25	7.684
1373.84	45.761
1377.43	99.228
1381.02	55.096
1384.6	127.812
1388.18	111.281
1391.77	85.654
1395.35	74.058
1398.93	64.254
1402.51	57.023
1406.08	37.138
1409.66	7.16
1413.23	17.59
1416.8	76.479
1420.37	88.665
1423.94	95.667
1427.51	114.784
1431.08	137.545
1434.64	92.5
1438.2	64.25
1441.76	4.297
1445.32	35.664
1448.88	40.084
1452.43	88.103
1455.99	38.654
1459.54	115.135
1463.09	134.633
1466.64	181.553
1470.19	251.698
1473.74	172.964
1477.28	180.135
1480.83	117.87
1484.37	177.595
1487.91	194.235
1491.45	219.674
1494.98	160.279
1498.52	177.072
1502.05	176.272
1505.59	225.668
1509.12	227.444
1512.65	183.979
1516.17	140.64
1519.7	62.857
