Measurement: Raman, 514 nm, ccw, Raman Data Processed
Mineral: Humite
Rruff sample: R040071
Ideal chemistry: Mg_7_(SiO_4_)_3_(F,OH)_2_
Locality: Tilly Foster mine, Brewster, Putnam County, New York, USA
Source: University of Arizona Mineral Museum
Description: Red crystals
Measured chemistry: (Mg_0.91_Fe_0.09_)_7_(Si_0.99_Ti_0.01_O_4_)_3_(F_0.76_(OH)_0.24_)_2_
Pin_id: L00052
Orientation: Laser parallel to a* (1 0 0). Fiducial mark perpendicular to laser is parallel to -b [0 -1 0]
Raman shift (cm-1)	intensity
51.466	0
55.666	156.246
59.863	85.023
64.059	9.579
68.253	223.659
72.445	324.661
76.635	380.447
80.823	497.41
85.009	520.389
89.193	698.677
93.375	592.337
97.554	544.036
101.732	192.926
105.908	200.001
110.082	144.568
114.254	386.658
118.424	354.754
122.592	245.263
126.758	78.083
130.922	123.203
135.083	100.658
139.243	188.689
143.401	102.893
147.557	143.379
151.711	64.16
155.863	1.81
160.013	14.565
164.161	53.388
168.308	51.349
172.452	16.487
176.594	134.373
180.734	652.245
184.872	1081.16
189.008	973.056
193.143	1442.64
197.275	1216.12
201.405	715.827
205.534	353.831
209.66	222.143
213.784	221.749
217.907	443.791
222.027	603.864
226.146	481.474
230.263	339.931
234.377	252.509
238.49	206.425
242.601	249.103
246.709	344.231
250.816	615.273
254.921	815.268
259.024	987.214
263.125	1014.15
267.224	861.12
271.321	734.334
275.416	743.048
279.51	784.132
283.601	755.831
287.69	704.919
291.778	644.363
295.863	586.647
299.947	460.464
304.029	377.875
308.108	353.31
312.186	230.195
316.262	259.151
320.336	310.515
324.408	264.206
328.478	296.223
332.546	359.572
336.612	514.125
340.677	573.058
344.739	666.204
348.799	665.842
352.858	626.977
356.915	461.466
360.969	382.219
365.022	179.028
369.073	184.802
373.122	343.523
377.169	451.138
381.215	391.757
385.258	368.196
389.299	312.524
393.339	185.466
397.376	41.951
401.412	127.992
405.446	173.145
409.478	360.82
413.508	479.671
417.536	558.974
421.562	550.791
425.586	444.944
429.609	222.926
433.629	70.272
437.648	78.894
441.665	39.514
445.68	30.314
449.693	105.466
453.704	172.419
457.713	229.175
461.721	236.725
465.726	279.258
469.73	304.372
473.731	397.401
477.731	615.967
481.729	686.736
485.725	648.285
489.72	540.538
493.712	478.145
497.703	498.33
501.691	527.281
505.678	435.321
509.663	467.972
513.646	444.519
517.627	642.987
521.607	793.45
525.584	1015.15
529.56	1217.25
533.534	1353.62
537.506	1267.62
541.476	1445.13
545.444	1403.14
549.41	1086.67
553.375	662.7
557.337	497.093
561.298	439.965
565.257	360.526
569.214	344.582
573.17	359.125
577.123	280.159
581.075	458.695
585.024	510.755
588.972	530.345
592.918	664.664
596.863	1001.08
600.805	1421.57
604.746	1602.19
608.685	1316.1
612.621	828.032
616.557	572.546
620.49	346.65
624.421	199.978
628.351	43.618
632.279	19.837
636.205	52.926
640.129	35.233
644.051	54.582
647.972	127.986
651.89	111.502
655.807	179.194
659.722	145.261
663.636	154.642
667.547	177.312
671.457	55.221
675.365	59.034
679.271	59.462
683.175	57.659
687.077	138.411
690.978	146.462
694.877	205.106
698.774	397.601
702.669	543.963
706.562	844.211
710.454	1295.36
714.344	1729.43
718.232	2204.44
722.118	2820.92
726.002	3608.91
729.885	4333.69
733.766	5017.48
737.645	5753.44
741.522	7038.44
745.397	8339.51
749.271	9742.67
753.143	11142.1
757.013	10971.8
760.881	9276.74
764.748	7670.84
768.613	6575.14
772.476	6136.65
776.337	6626.42
780.196	7735.95
784.054	7260.77
787.91	5685.1
791.764	4164.59
795.616	3454.28
799.467	3227.18
803.316	3348.35
807.163	3665.93
811.008	3992.56
814.851	4835.83
818.693	6650.55
822.533	10116
826.371	16095.7
830.208	27181.8
834.042	40605.1
837.875	48121
841.706	53568.7
845.536	48365.1
849.363	36002.1
853.189	31143.8
857.013	36541.2
860.836	44733.3
864.656	39786.1
868.475	26751.6
872.292	16982.8
876.108	12121.7
879.922	9324.45
883.733	6475.91
887.544	4786.12
891.352	3663.08
895.159	2865.75
898.964	2434.12
902.767	2023.18
906.568	1863.93
910.368	1745.44
914.166	1839.51
917.962	1835.55
921.757	1877.74
925.55	2359.03
929.341	3465.99
933.13	4320.7
936.918	3402.7
940.703	2619.68
944.488	2258.64
948.27	2450.16
952.051	3339.18
955.83	5278.09
959.607	8810.44
963.383	13423.8
967.156	12847
970.928	7433.43
974.699	4030.52
978.468	2459.56
982.234	1657.48
986	1139.79
989.763	775.269
993.525	688.033
997.285	591.579
1001.04	524.281
1004.8	506.073
1008.55	491.017
1012.31	474.452
1016.06	411.705
1019.81	454.053
1023.56	390.903
1027.31	367.27
1031.05	262.324
1034.79	317.759
1038.53	360.682
1042.27	330.719
1046.01	234.625
1049.75	91.992
1053.48	27.164
1057.22	36.485
1060.95	43.002
1064.68	12.351
1068.4	53.576
1072.13	31.742
1075.86	61.881
1079.58	82.067
1083.3	69.404
1087.02	42.985
1090.74	75.767
1094.45	71.818
1098.17	75.696
1101.88	63.98
1105.59	110.082
1109.3	99.599
1113.01	46.584
1116.71	7.879
1120.42	147.556
1124.12	233.846
1127.82	15.011
1131.52	61.927
1135.22	60.591
1138.91	72.003
1142.61	35.123
1146.3	88.417
1149.99	93.441
1153.68	74.638
1157.37	54.419
1161.06	54.734
1164.74	431.728
1168.42	64.949
1172.1	121.053
1175.78	90.277
1179.46	138.304
1183.14	91.581
1186.81	141.367
1190.48	186.532
1194.15	209.166
1197.83	229.381
1201.49	414.474
1205.16	355.406
1208.82	463.639
1212.49	496.204
1216.15	538.099
1219.81	546.936
1223.46	551.89
1227.12	622.783
1230.78	637.23
1234.43	657.021
1238.08	637.794
1241.73	632.159
1245.38	718.652
1249.03	669.581
1252.67	625.683
1256.31	563.058
1259.95	599.704
1263.6	606.035
1267.23	558.082
1270.87	613.235
1274.51	627.393
1278.14	602.222
1281.77	667.992
1285.4	596.177
1289.03	502.498
1292.66	517.968
1296.28	363.876
1299.91	415.755
1303.53	317.787
1307.15	276.007
1310.77	231.75
1314.38	212.506
1318	155.656
1321.61	124.001
1325.23	91.977
1328.84	117.224
1332.45	73.063
1336.06	2.768
1339.66	79.586
1343.27	98.429
1346.87	79.066
1350.47	111.066
1354.07	80.433
1357.67	72.214
1361.26	67.466
1364.86	85.243
1368.45	89.626
1372.04	127.719
1375.63	48.713
1379.22	49.845
1382.81	43.637
1386.39	30.613
1389.98	56.458
1393.56	10.749
1397.14	50.25
1400.72	4.396
1404.3	50.334
1407.87	3.376
1411.45	63.934
1415.02	14.857
1418.59	4.462
1422.16	20.167
1425.73	10.347
1429.29	84.43
1432.86	23.226
1436.42	88.849
1439.98	59.655
1443.54	91.995
1447.1	103.19
1450.66	136.51
1454.21	101.556
1457.77	202.245
1461.32	183.066
1464.87	194.851
1468.42	170.794
1471.96	249.74
1475.51	264.474
1479.06	246.772
1482.6	348.686
1486.14	338.784
1489.68	396.122
1493.22	517.44
1496.75	444.021
1500.29	501.797
1503.82	457.753
1507.35	402.73
1510.88	386.975
1514.41	202.635
1517.94	111.523
1521.46	44.037
1524.99	0
