Measurement: Raman, 514 nm, ccw, Raman Data Processed
Mineral: Humite
Rruff sample: R040071
Ideal chemistry: Mg_7_(SiO_4_)_3_(F,OH)_2_
Locality: Tilly Foster mine, Brewster, Putnam County, New York, USA
Source: University of Arizona Mineral Museum
Description: Red crystals
Measured chemistry: (Mg_0.91_Fe_0.09_)_7_(Si_0.99_Ti_0.01_O_4_)_3_(F_0.76_(OH)_0.24_)_2_
Pin_id: L00052
Orientation: Laser parallel to a* (1 0 0). Fiducial mark perpendicular to laser is parallel to -b [0 -1 0]
Raman shift (cm-1)	intensity
51.466	0
55.666	178.719
59.863	342.197
64.059	34.968
68.253	1.505
72.445	30.419
76.635	86.948
80.823	153.198
85.009	143.344
89.193	392.508
93.375	410.987
97.554	366.161
101.732	339.369
105.908	735.755
110.082	490.01
114.254	828.701
118.424	975.514
122.592	977.218
126.758	1007.66
130.922	1266.73
135.083	1417.36
139.243	1816.07
143.401	1791.84
147.557	1906.08
151.711	1862.84
155.863	1797.65
160.013	1819.08
164.161	1801.91
168.308	1764.16
172.452	1784.89
176.594	1849.11
180.734	1936.82
184.872	2134.04
189.008	2361.81
193.143	2486.19
197.275	2516.26
201.405	2497.06
205.534	2630.59
209.66	2737.82
213.784	2645.72
217.907	2710.3
222.027	2752.93
226.146	2567.07
230.263	2430.33
234.377	2342.69
238.49	2479.85
242.601	2543.8
246.709	2463.16
250.816	2368.61
254.921	2251.96
259.024	2117.7
263.125	2182.39
267.224	2265.72
271.321	2285.66
275.416	2467.16
279.51	2444.19
283.601	2376.71
287.69	2422.7
291.778	2347.12
295.863	2270.97
299.947	2424.2
304.029	2607.81
308.108	2634.79
312.186	2639.15
316.262	2773.04
320.336	2722.89
324.408	2496.63
328.478	2254.34
332.546	2110.7
336.612	1991.72
340.677	2068.29
344.739	2095.48
348.799	2354.22
352.858	2396.36
356.915	2136.74
360.969	1758.27
365.022	1437.51
369.073	1138.75
373.122	1025.66
377.169	1021.67
381.215	714.761
385.258	527.959
389.299	451.331
393.339	202.931
397.376	51.519
401.412	111.094
405.446	209.32
409.478	200.422
413.508	150.571
417.536	30.524
421.562	104.247
425.586	303.062
429.609	408.92
433.629	472.806
437.648	653.711
441.665	804.623
445.68	1138.53
449.693	1253.42
453.704	1484.29
457.713	1874.12
461.721	2194.9
465.726	2404.64
469.73	2686.32
473.731	2898.28
477.731	3399.26
481.729	4079.14
485.725	4479.01
489.72	4927.23
493.712	5069.54
497.703	5362.35
501.691	5462.72
505.678	5108.53
509.663	4757.15
513.646	4803.06
517.627	5453.04
521.607	6357.67
525.584	7659.93
529.56	9338.83
533.534	9840.36
537.506	8809.52
541.476	8130.32
545.444	7360.74
549.41	5598.79
553.375	3663.47
557.337	2616.78
561.298	2127.25
565.257	1838.44
569.214	1663.76
573.17	1429.29
577.123	1107.25
581.075	874.876
585.024	879.881
588.972	1013.6
592.918	1083.05
596.863	1349.21
600.805	1601.11
604.746	1578.43
608.685	1450.11
612.621	1101.22
616.557	968.08
620.49	635.695
624.421	444.07
628.351	103.214
632.279	79.956
636.205	113.136
640.129	166.218
644.051	251.077
647.972	257.99
651.89	230.573
655.807	237.778
659.722	126.311
663.636	57.779
667.547	91.923
671.457	86.467
675.365	292.737
679.271	381.947
683.175	629.116
687.077	639.265
690.978	908.415
694.877	1194.59
698.774	1546.81
702.669	1867.09
706.562	2482.47
710.454	3085.95
714.344	3963.56
718.232	4727.38
722.118	5899.69
726.002	7802.74
729.885	9665.55
733.766	13777.9
737.645	15403.6
741.522	20243.6
745.397	27024.8
749.271	33905.2
753.143	38830
757.013	37302.1
760.881	30213.5
764.748	22231.2
768.613	15289.3
772.476	10202.7
776.337	7550.53
780.196	6850.75
784.054	6092.87
787.91	4953.32
791.764	3611.68
795.616	2431.42
799.467	1642.73
803.316	1530.11
807.163	1723.1
811.008	2161.01
814.851	3226.3
818.693	5479.66
822.533	9494.8
826.371	16881.6
830.208	29852.2
834.042	44605.4
837.875	45877.7
841.706	40586
845.536	31378.7
849.363	20603.6
853.189	13505.7
857.013	11140.9
860.836	10614.2
864.656	8380.57
868.475	5772.85
872.292	3981.04
876.108	3045.11
879.922	2381.04
883.733	1657.8
887.544	1171.39
891.352	823.8
895.159	425.034
898.964	190.089
902.767	207.965
906.568	308.66
910.368	428.168
914.166	681.49
917.962	871.62
921.757	926.554
925.55	1359.14
929.341	2196.82
933.13	2716.13
936.918	2001.62
940.703	1569.86
944.488	1017.51
948.27	1285
952.051	1714.86
955.83	2651.27
959.607	4713.51
963.383	7464.88
967.156	7449.69
970.928	4951.35
974.699	3075.89
978.468	2151.39
982.234	1811.67
986	1606.87
989.763	1595.84
993.525	1693.11
997.285	1729.8
1001.04	1700.39
1004.8	1693.82
1008.55	1696.09
1012.31	1661.51
1016.06	1447.16
1019.81	1309.04
1023.56	1124.89
1027.31	987.447
1031.05	793.688
1034.79	845.514
1038.53	723.588
1042.27	602.891
1046.01	410.408
1049.75	351.759
1053.48	199.999
1057.22	213.023
1060.95	148.173
1064.68	128.414
1068.4	80.715
1072.13	11.069
1075.86	47.453
1079.58	25.845
1083.3	33.225
1087.02	43.443
1090.74	54.228
1094.45	18.199
1098.17	49.492
1101.88	32.016
1105.59	70.792
1109.3	1.755
1113.01	20.885
1116.71	44.207
1120.42	3.191
1124.12	217.344
1127.82	53.628
1131.52	71.926
1135.22	42.077
1138.91	86.687
1142.61	143.505
1146.3	69.694
1149.99	36.091
1153.68	79.585
1157.37	30.855
1161.06	104.341
1164.74	205.028
1168.42	173.986
1172.1	222.278
1175.78	355.944
1179.46	417.583
1183.14	560.346
1186.81	737.345
1190.48	810.457
1194.15	927.999
1197.83	1080.68
1201.49	1269.43
1205.16	1368.75
1208.82	1479.21
1212.49	1579.18
1216.15	1761.97
1219.81	1903.65
1223.46	1996.05
1227.12	2071.25
1230.78	2326.57
1234.43	2415.55
1238.08	2498.06
1241.73	2616.65
1245.38	2652.12
1249.03	2649.09
1252.67	2667.72
1256.31	2595.58
1259.95	2631.75
1263.6	2715.12
1267.23	2788.47
1270.87	2734.68
1274.51	2767.3
1278.14	2928.71
1281.77	2845.03
1285.4	2874.55
1289.03	2644.85
1292.66	2571.6
1296.28	2030.54
1299.91	1833.39
1303.53	1554.21
1307.15	1327.2
1310.77	1035.72
1314.38	872.193
1318	719.065
1321.61	597.175
1325.23	525.483
1328.84	508.104
1332.45	440.349
1336.06	406.569
1339.66	407.175
1343.27	417.276
1346.87	454.952
1350.47	524.159
1354.07	461.775
1357.67	545.833
1361.26	393.526
1364.86	417.018
1368.45	348.422
1372.04	380.943
1375.63	267.949
1379.22	167.03
1382.81	177.374
1386.39	41.46
1389.98	53.009
1393.56	73.042
1397.14	56.733
1400.72	42.406
1404.3	124.065
1407.87	116.411
1411.45	67.229
1415.02	28.689
1418.59	46.449
1422.16	20.647
1425.73	37.609
1429.29	56.137
1432.86	118.511
1436.42	183.527
1439.98	216.184
1443.54	326.719
1447.1	449.882
1450.66	517.755
1454.21	584.155
1457.77	769.855
1461.32	796.051
1464.87	842.477
1468.42	906.375
1471.96	931.937
1475.51	952.744
1479.06	1156.63
1482.6	1391.37
1486.14	1714.73
1489.68	1840.19
1493.22	2050.56
1496.75	2150.14
1500.29	2240.85
1503.82	2277.12
1507.35	1965.16
1510.88	1640.19
1514.41	1249.8
1517.94	878.277
1521.46	1484.89
1524.99	8.937
