Measurement: Raman, 514 nm, ccw, Raman Data Processed
Mineral: Humite
Rruff sample: R040071
Ideal chemistry: Mg_7_(SiO_4_)_3_(F,OH)_2_
Locality: Tilly Foster mine, Brewster, Putnam County, New York, USA
Source: University of Arizona Mineral Museum
Description: Red crystals
Measured chemistry: (Mg_0.91_Fe_0.09_)_7_(Si_0.99_Ti_0.01_O_4_)_3_(F_0.76_(OH)_0.24_)_2_
Pin_id: L00333
Orientation: Laser parallel to -c* (0 0 -1). Fiducial mark perpendicular to laser is parallel to a [1 0 0]
Raman shift (cm-1)	intensity
54.966	0
59.164	51.856
63.36	139.179
67.554	121.334
71.747	280.731
75.937	107.707
80.125	18.209
84.311	5.95
88.496	29.176
92.678	156.381
96.858	129.468
101.036	173.947
105.212	223.484
109.387	234.92
113.559	225.034
117.729	439.031
121.897	285.818
126.063	356.327
130.228	443.52
134.39	455.384
138.55	646.921
142.709	706.171
146.865	716.265
151.019	719.74
155.171	709.597
159.322	692.308
163.47	760.211
167.617	792.337
171.761	800.708
175.904	774.335
180.044	761.229
184.183	785.394
188.319	958.831
192.454	1128.12
196.586	1272.6
200.717	1305.01
204.846	1370.85
208.972	1544.14
213.097	838.892
217.22	696.077
221.341	729.358
225.46	785.772
229.577	808.649
233.692	896.884
237.805	928.702
241.916	977.843
246.025	934.778
250.132	920.789
254.237	834.96
258.34	757.042
262.442	661.5
266.541	643.344
270.639	711.507
274.734	684.972
278.828	638.722
282.919	615.745
287.009	570.03
291.097	517.564
295.183	530.34
299.266	494.345
303.348	517.013
307.428	657.008
311.507	811.644
315.583	918.461
319.657	1106.46
323.729	1191.85
327.8	1002.78
331.868	913.289
335.935	792.432
339.999	656.241
344.062	700.741
348.123	655.896
352.182	589.667
356.239	505.942
360.294	364.492
364.347	297.28
368.398	233.182
372.448	197.173
376.495	143.244
380.54	140.383
384.584	117.579
388.626	73.809
392.666	3.917
396.704	89.663
400.74	93.629
404.774	71.889
408.806	47.488
412.836	120.836
416.865	351.296
420.891	677.841
424.916	1068.42
428.939	1208.03
432.959	981.664
436.978	653.304
440.996	573.948
445.011	642.59
449.024	749.22
453.036	624.833
457.045	532.423
461.053	444.981
465.059	549.503
469.063	538.983
473.065	623.413
477.065	734.789
481.063	888.532
485.06	1119.42
489.054	1096.23
493.047	1231.99
497.038	1309.28
501.027	1349.59
505.014	1342.4
508.999	1319.3
512.982	1259.88
516.964	1414.31
520.944	1603.94
524.921	1946.18
528.897	2321.21
532.871	2749.96
536.844	2655.42
540.814	2372.58
544.783	2243.46
548.749	1973.04
552.714	1649.18
556.677	1429.69
560.638	1441
564.597	1380.18
568.555	1152.62
572.511	1102.62
576.464	1178.24
580.416	1368.27
584.366	1532.67
588.315	1584.49
592.261	2184.04
596.206	3138.33
600.148	4335.36
604.089	5010.13
608.028	4561.64
611.965	3011.89
615.901	1871.9
619.834	1213.66
623.766	762.178
627.696	435.458
631.624	200.507
635.551	89.328
639.475	39.185
643.398	83.498
647.318	110.812
651.237	136.197
655.155	146.755
659.07	197.535
662.984	178.595
666.895	134.827
670.805	113.139
674.713	20.548
678.62	15.659
682.524	113.569
686.427	146.688
690.328	165.713
694.227	241.655
698.124	343.528
702.02	517.345
705.913	619.12
709.805	1026.87
713.695	1301.68
717.584	1715.63
721.47	2259.34
725.355	2915.23
729.238	3819.72
733.119	4599.25
736.998	5559.84
740.876	6737.49
744.752	8434.22
748.626	10802
752.498	12814
756.368	13542
760.237	12227.1
764.104	9888.43
767.969	7118.89
771.832	5707.6
775.693	4998.52
779.553	5104.7
783.411	5419.16
787.267	4570.88
791.122	3474.29
794.974	2673.15
798.825	2125.72
802.674	2054.74
806.522	2262.22
810.367	2577.44
814.211	3166.47
818.053	4396.68
821.893	6776.71
825.732	11219.9
829.568	19050.9
833.403	32182.5
837.236	40134
841.068	38604.1
844.898	35101.7
848.726	25070
852.552	17213.9
856.376	14089.4
860.199	15073.5
864.02	15734.3
867.839	12158.6
871.656	7948.5
875.472	5245.98
879.286	3578.02
883.098	2623.6
886.909	2045.71
890.717	1564.35
894.524	1219.51
898.33	1001.2
902.133	926.424
905.935	1017.17
909.735	1292.45
913.533	1997.28
917.33	2721.01
921.124	2067.64
924.918	1270.35
928.709	1017.23
932.499	822.69
936.286	756.138
940.073	868.158
943.857	919.975
947.64	1186.06
951.421	1519.76
955.2	1914.21
958.978	2808.25
962.753	5130.04
966.527	7429.48
970.3	6491.14
974.071	4074.4
977.84	2775.03
981.607	1911.8
985.372	1418.25
989.136	1173.23
992.898	1068.35
996.659	996.262
1000.42	999.959
1004.17	957.776
1007.93	1005.1
1011.68	945.857
1015.43	972.343
1019.18	857.857
1022.93	801.251
1026.68	800.708
1030.42	588.995
1034.17	511.514
1037.91	524.026
1041.65	424.701
1045.39	418.531
1049.12	248.51
1052.86	116.615
1056.59	62.831
1060.33	21.781
1064.06	1.556
1067.78	32.979
1071.51	63.57
1075.23	20.293
1078.96	67.079
1082.68	65.037
1086.4	27.142
1090.12	82.401
1093.83	72.915
1097.55	123.322
1101.26	2.051
1104.97	17.194
1108.68	34.712
1112.39	14.515
1116.1	20.435
1119.8	4.109
1123.5	291.566
1127.2	47.971
1130.9	3.246
1134.6	3.796
1138.3	22.784
1141.99	32.974
1145.69	18.189
1149.38	40.112
1153.07	35.942
1156.76	88.704
1160.44	55.84
1164.13	102.59
1167.81	87.556
1171.49	129.061
1175.17	122.317
1178.85	118.382
1182.52	341.671
1186.2	283.243
1189.87	295.69
1193.54	358.281
1197.21	375.167
1200.88	457.113
1204.55	529.017
1208.21	568.758
1211.88	658.677
1215.54	698.891
1219.2	758.771
1222.86	788.222
1226.51	836.65
1230.17	854.15
1233.82	930.467
1237.47	1002.34
1241.12	996.632
1244.77	1006.69
1248.42	1058.67
1252.06	1095.24
1255.71	1075.05
1259.35	1016.83
1262.99	971.782
1266.63	939.619
1270.26	967.764
1273.9	1008.33
1277.53	1035.98
1281.16	1048.98
1284.8	1041.42
1288.42	1059.12
1292.05	902.611
1295.68	864.289
1299.3	766.02
1302.92	639.961
1306.55	585.869
1310.16	452.397
1313.78	354.319
1317.4	394.917
1321.01	272.608
1324.62	228.17
1328.24	253.935
1331.85	205.762
1335.45	183.625
1339.06	154.794
1342.66	222.681
1346.27	172.096
1349.87	136.778
1353.47	148.673
1357.07	167.783
1360.66	186.193
1364.26	139.053
1367.85	169.418
1371.44	146.358
1375.04	109.095
1378.62	26.856
1382.21	105.268
1385.8	26.085
1389.38	55.723
1392.96	56.322
1396.54	6.843
1400.12	6.69
1403.7	1.567
1407.28	30.926
1410.85	71.65
1414.42	44.411
1417.99	2.756
1421.56	4.131
1425.13	11.492
1428.7	92.462
1432.26	10.823
1435.83	74.148
1439.39	107.345
1442.95	136.088
1446.51	152.154
1450.06	139.639
1453.62	197.473
1457.17	234.526
1460.73	243.967
1464.28	317.802
1467.83	279.769
1471.37	293.244
1474.92	259.082
1478.46	376.925
1482.01	451.376
1485.55	489.665
1489.09	510.326
1492.63	608.871
1496.16	661.744
1499.7	703.747
1503.23	694.564
1506.76	665.708
1510.29	551.282
1513.82	462.366
1517.35	257.566
1520.88	112.205
1524.4	22.185
