Measurement: Raman, 514 nm, ccw, Raman Data Processed
Mineral: Humite
Rruff sample: R040071
Ideal chemistry: Mg_7_(SiO_4_)_3_(F,OH)_2_
Locality: Tilly Foster mine, Brewster, Putnam County, New York, USA
Source: University of Arizona Mineral Museum
Description: Red crystals
Measured chemistry: (Mg_0.91_Fe_0.09_)_7_(Si_0.99_Ti_0.01_O_4_)_3_(F_0.76_(OH)_0.24_)_2_
Pin_id: L00308
Orientation: Laser parallel to b* (0 1 0). Fiducial mark perpendicular to laser is parallel to c [0 0 1]
Raman shift (cm-1)	intensity
81.521	0
85.706	56.479
89.89	152.419
94.071	208.948
98.251	184.742
102.428	43.558
106.604	206.862
110.777	12.508
114.949	214.089
119.119	111.477
123.286	185.794
127.452	170.737
131.615	171.156
135.777	153.666
139.937	159.86
144.094	83.821
148.25	122.323
152.403	32.086
156.555	12.766
160.705	26.643
164.853	44.193
168.998	10.101
173.142	14.727
177.284	48.076
181.424	33.131
185.562	45.578
189.698	132.259
193.831	316.402
197.963	449.59
202.093	311.95
206.221	224.353
210.347	160.836
214.472	164.742
218.594	148.286
222.714	241.729
226.832	389.039
230.948	602.75
235.063	674.022
239.175	661.689
243.286	610.496
247.394	533.11
251.501	548.091
255.605	543.649
259.708	400.624
263.808	326.258
267.907	229.111
272.004	171.923
276.099	179.474
280.192	175.278
284.283	210.216
288.372	200.958
292.459	160.028
296.544	108.01
300.627	188.807
304.709	249.519
308.788	333.711
312.865	499.091
316.941	815.756
321.015	1040.82
325.086	951.601
329.156	844.396
333.224	770.536
337.29	661.121
341.354	594.086
345.416	525.099
349.476	355.381
353.534	210.423
357.591	166.377
361.645	72.599
365.698	8.968
369.748	10.788
373.797	19.967
377.844	35.898
381.889	79.097
385.932	185.54
389.973	143.456
394.012	105.187
398.049	85.751
402.084	59.165
406.118	90.41
410.15	159.466
414.179	158.196
418.207	193.593
422.233	131.674
426.257	66.45
430.279	7.88
434.299	15.536
438.318	54.56
442.334	23.139
446.349	9.592
450.361	33.221
454.372	76.603
458.381	47.613
462.388	52.497
466.394	87.852
470.397	108.466
474.398	119.051
478.398	137.525
482.396	263.89
486.391	209.242
490.385	139.861
494.377	118.873
498.368	151.189
502.356	158.717
506.342	184.618
510.327	130.211
514.31	134.922
518.291	168.786
522.27	196.942
526.247	226.213
530.222	208.938
534.196	212.626
538.167	246.563
542.137	288.18
546.105	354.316
550.071	348.566
554.035	319.353
557.998	364.388
561.958	375.182
565.917	440.756
569.874	509.847
573.829	615.052
577.782	794.032
581.733	1052.7
585.683	1428.67
589.63	2209.39
593.576	3615.95
597.52	5861.53
601.462	7975.71
605.402	9180.74
609.341	6860.59
613.277	3758.73
617.212	2052.68
621.145	1234.76
625.076	841.481
629.006	575.642
632.933	310.784
636.859	197.171
640.783	132.424
644.705	76.544
648.625	103.531
652.543	10.35
656.46	13.049
660.375	16.299
664.288	80.628
668.199	62.073
672.108	48.311
676.016	111.098
679.921	98.384
683.825	75.29
687.727	69.428
691.628	46.045
695.526	1.172
699.423	36.899
703.318	35.959
707.211	170.767
711.102	237.548
714.992	340.318
718.879	498.085
722.765	761.858
726.649	887.638
730.532	1010.42
734.412	1098.22
738.291	1220.05
742.168	1451.9
746.043	1812.81
749.916	2217.79
753.788	2417.93
757.658	2359.24
761.526	2254.71
765.392	2119.36
769.257	2177.18
773.119	2537.13
776.98	3383.23
780.839	4295.57
784.697	4211.15
788.552	3177.93
792.406	2382.9
796.258	2200.05
800.108	2203.22
803.957	2512.53
807.804	2889.3
811.649	3506.73
815.492	4580.23
819.333	6103.72
823.173	9508.69
827.011	16551.9
830.847	30085
834.681	44522.3
838.514	42601.4
842.345	40515.9
846.174	30676.5
850.001	19775.4
853.827	15502.3
857.651	16240.5
861.473	18777.5
865.293	16011.8
869.112	10787.3
872.928	7265.11
876.744	4988.25
880.557	3448.69
884.369	2610.43
888.178	2107.46
891.987	1788.78
895.793	1679.39
899.598	1434.29
903.401	1107.47
907.202	958.941
911.001	884.323
914.799	839.537
918.595	850.805
922.389	717.3
926.182	634.283
929.972	708.615
933.761	801.909
937.549	1029.43
941.334	1142.01
945.118	1435.23
948.9	1820.2
952.681	2180.47
956.459	2395.63
960.236	4016.93
964.012	7724.13
967.785	8120.13
971.557	5074.64
975.327	2948.98
979.095	1871.3
982.862	1308.69
986.627	973.064
990.39	754.129
994.152	648.973
997.912	549.373
1001.67	571.449
1005.43	568.718
1009.18	564.628
1012.93	511.52
1016.68	474.98
1020.43	435.227
1024.18	426.188
1027.93	379.159
1031.67	328.616
1035.42	384.688
1039.16	367.45
1042.9	325.695
1046.63	268.948
1050.37	151.514
1054.11	24.206
1057.84	24.282
1061.57	26.578
1065.3	0.528
1069.03	24.462
1072.75	15.482
1076.47	47.517
1080.2	129.68
1083.92	63.116
1087.64	1.242
1091.36	18.465
1095.07	16.454
1098.79	10.504
1102.5	51.642
1106.21	29.88
1109.92	4.219
1113.62	34.292
1117.33	21.683
1121.04	8.224
1124.74	14.537
1128.44	19.427
1132.14	11.613
1135.83	51.481
1139.53	36.314
1143.22	107.149
1146.92	65.792
1150.61	106.446
1154.3	66.032
1157.98	48.546
1161.67	36.913
1165.35	34.13
1169.04	78.17
1172.72	99.057
1176.4	113.967
1180.07	64.644
1183.75	75.489
1187.42	61.78
1191.1	69.292
1194.77	144.646
1198.44	148.581
1202.1	230.035
1205.77	197.835
1209.43	222.243
1213.1	196.84
1216.76	216.936
1220.42	259.414
1224.07	215.19
1227.73	249.955
1231.38	255.115
1235.04	325.016
1238.69	261.864
1242.34	214.31
1245.99	161.771
1249.63	154.776
1253.28	158.605
1256.92	216.943
1260.56	158.222
1264.2	199.003
1267.84	147.268
1271.48	106.056
1275.11	80.242
1278.74	95.755
1282.38	96.172
1286.01	72.355
1289.63	136.097
1293.26	107.077
1296.89	89.867
1300.51	135.894
1304.13	54.78
1307.75	85.284
1311.37	60.408
1314.99	83.608
1318.6	88.177
1322.22	90.536
1325.83	103
1329.44	103.193
1333.05	108.177
1336.66	82.981
1340.26	22.018
1343.87	8.695
1347.47	8.015
1351.07	47.469
1354.67	69.618
1358.27	49.635
1361.86	66.525
1365.46	121.335
1369.05	96.918
1372.64	62.758
1376.23	29.39
1379.82	29.422
1383.41	47.747
1386.99	1.025
1390.57	60.203
1394.16	63.099
1397.74	134.083
1401.32	143.874
1404.89	65.316
1408.47	105.814
1412.04	85.054
1415.61	44.438
1419.18	25.835
1422.75	84.89
1426.32	90.879
1429.89	77.678
1433.45	160.11
1437.01	133.344
1440.58	146.604
1444.13	107.485
1447.69	147.166
1451.25	120.578
1454.81	44.263
1458.36	42.012
1461.91	53.533
1465.46	61.976
1469.01	78.163
1472.56	108.931
1476.1	123.162
1479.64	113.484
1483.19	123.43
1486.73	171.356
1490.27	109.391
1493.81	116.494
1497.34	124.627
1500.88	53.837
1504.41	4.275
1507.94	79.801
1511.47	62.265
1515	43.652
1518.53	46.279
