Measurement: Raman, 514 nm, ccw, Raman Data Processed
Mineral: Humite
Rruff sample: R050665
Ideal chemistry: Mg_7_(SiO_4_)_3_(F,OH)_2_
Locality: Tilly Foster mine, Brewster, Putnam County, New York, USA
Source: University of Arizona Mineral Museum
Description: Granular aggregate of reddish-orange crystals
Measured chemistry: (Mg_0.91_Fe^2+^_0.09_)_7_(Si_1.00_O_4_)_3_(F_0.56_(OH)_0.44_)_2_
Pin_id: M01318
Orientation: Laser parallel to c* (0 0 1). Fiducial mark perpendicular to laser is parallel to -a [-1 0 0]
Raman shift (cm-1)	intensity
159.339	0
164.26	107.407
169.179	129.254
174.095	103.061
179.009	100.944
183.919	140.799
188.827	269.798
193.732	406.885
198.634	450.571
203.534	263.275
208.43	160.415
213.324	177.741
218.215	162.152
223.104	338.61
227.99	438.989
232.872	561.333
237.753	585.07
242.63	619.626
247.504	649.241
252.376	595
257.245	485.94
262.112	494.078
266.975	416.549
271.836	236.257
276.694	292.945
281.549	184.996
286.402	199.755
291.252	181.227
296.099	207.06
300.943	116.46
305.785	218.956
310.624	391.414
315.46	580.991
320.293	800.862
325.124	801.369
329.952	659.376
334.777	609.791
339.599	501.545
344.419	445.582
349.236	415.857
354.05	216.335
358.862	226.989
363.67	139.798
368.476	26.2634
373.28	10.2302
378.08	64.9492
382.878	35.6123
387.673	143.793
392.466	93.7415
397.255	36.7371
402.042	35.1606
406.827	21.0308
411.608	119.82
416.387	59.718
421.163	74.6812
425.936	38.5938
430.707	66.3386
435.475	40.0535
440.24	47.7463
445.003	73.0015
449.763	167.365
454.52	196.644
459.274	193.872
464.026	188.008
468.775	317.024
473.522	343.902
478.265	179.624
483.006	279.176
487.744	177.544
492.48	204.714
497.213	139.675
501.943	173.595
506.671	168.14
511.395	71.4629
516.117	127.347
520.837	134.748
525.554	229.335
530.268	87.9563
534.979	192.82
539.688	228.795
544.394	233.412
549.097	265.429
553.798	311.038
558.496	473.118
563.191	463.433
567.884	522.937
572.574	793.921
577.261	954.788
581.945	1281.71
586.627	1716.7
591.307	2531.66
595.983	4020.12
600.657	5721.1
605.329	5812.6
609.997	4161.6
614.663	2318.14
619.326	1385.2
623.987	954.793
628.645	691.926
633.3	237.606
637.953	171.842
642.603	192.637
647.25	160.998
651.895	99.9297
656.537	77.4463
661.176	13.751
665.813	43.2593
670.447	140.289
675.079	109.489
679.708	31.0645
684.334	62.8887
688.957	124.853
693.578	21.1953
698.196	35.0747
702.812	28.6977
707.425	193.299
712.035	445.756
716.643	589.168
721.248	919.735
725.85	1188.37
730.45	1296.98
735.047	1512.56
739.642	1813.14
744.234	2222.75
748.823	2780.4
753.41	3042.12
757.994	3063.93
762.575	2916.87
767.154	2624.95
771.73	2945.19
776.304	3674.63
780.875	4412.1
785.443	3974.94
790.009	2834.18
794.572	2227.85
799.132	1985.75
803.69	2159.96
808.245	2430.26
812.798	3159.67
817.348	4682.45
821.896	7541.43
826.44	14161.1
830.983	25828.6
835.522	36315.6
840.059	36884.4
844.594	31810.9
849.125	20840.3
853.655	15050.3
858.181	15826.1
862.705	16994.6
867.227	13173.8
871.746	8195.83
876.262	5123.57
880.776	3218.11
885.287	2053.43
889.795	1525.59
894.301	1333.54
898.804	1318.27
903.305	715.762
907.803	596.031
912.299	594.101
916.792	690.995
921.282	368.663
925.77	334.834
930.255	330.901
934.738	471.42
939.218	483.33
943.695	532.92
948.17	975.235
952.643	1443.01
957.112	1441.62
961.58	2680.56
966.044	3863.25
970.506	2832.38
974.966	1529.8
979.423	1014.29
983.877	530
988.329	348.834
992.778	425.108
997.225	436.805
1001.67	549.74
1006.11	429.977
1010.55	375.054
1014.99	388.789
1019.42	331.517
1023.85	403.337
1028.28	384.66
1032.71	318.535
1037.13	328.301
1041.55	303.322
1045.97	172.635
1050.39	73
1054.8	35.3174
1059.21	50.2285
1063.62	23.4273
1068.03	67.1245
1072.43	42.2119
1076.83	32.2129
1081.23	75.7954
1085.62	52.5332
1090.02	56.6099
1094.41	74.0093
1098.8	20.3408
1103.18	9.73633
1107.56	14.7261
1111.94	0.873535
1116.32	156.748
1120.7	261.471
1125.07	213.031
1129.44	157.404
1133.81	62.5566
1138.17	119.484
1142.54	73.166
1146.9	124.575
1151.26	4.30322
1155.61	157.418
1159.96	132.858
1164.32	130.989
1168.66	134.798
1173.01	153.278
1177.35	93.3623
1181.69	167.018
1186.03	240.333
1190.36	207.814
1194.7	208.571
1199.03	186.194
1203.36	234.764
1207.68	205.543
1212	156.254
1216.32	282.63
1220.64	227.011
1224.96	212.533
1229.27	342.343
1233.58	179.128
1237.89	266.238
1242.19	237.399
1246.49	245.434
1250.8	236.856
1255.09	197.33
1259.39	105.023
1263.68	165.426
1267.97	151.24
1272.26	256.926
1276.54	214.89
1280.83	175.829
1285.11	225.291
1289.38	176.794
1293.66	182.534
1297.93	229.949
1302.2	253.298
1306.47	105.053
1310.74	173.134
1315	272.571
1319.26	261.857
1323.52	215.024
1327.78	133.372
1332.03	103.324
1336.28	151.417
1340.53	62.669
1344.77	13.0718
1349.02	4.4165
1353.26	24.6816
1357.49	68.8115
1361.73	84.853
1365.96	72.8013
1370.19	109.732
1374.42	165.544
1378.65	42.749
1382.87	2.17871
1387.09	36.2891
1391.31	47.6445
1395.53	35.9253
1399.74	15.9385
1403.95	86.1289
1408.16	65.8101
1412.37	197.926
1416.57	92.3369
1420.78	33.4946
1424.97	3.271
1429.17	181.595
1433.37	235.108
1437.56	232.927
1441.75	363.558
1445.93	384.327
1450.12	413.135
1454.3	457.448
1458.48	449.707
1462.66	409.354
1466.83	340.036
1471	300.743
1475.17	221.167
1479.34	222.833
1483.51	238.958
1487.67	132.407
1491.83	292.441
1495.99	264.69
1500.14	204.799
1504.29	221.706
1508.44	226.127
1512.59	219.051
1516.74	107.571
1520.88	174.297
1525.02	110.22
1529.16	135.426
1533.3	41.0459
1537.43	45.1572
1541.56	115.142
1545.69	140.965
1549.82	60.6851
1553.94	204.252
1558.06	1.39062
1562.18	0
