Measurement: Raman, 514 nm, ccw, Raman Data Processed
Mineral: Huntite
Rruff sample: R040126
Ideal chemistry: CaMg_3_(CO_3_)_4_
Locality: Crestmore Quarry, Riverside County, California, USA
Source: University of Arizona Mineral Museum
Description: White fine-grained massive
Measured chemistry: Ca_0.97_Mg_3.02_(CO_3_)_4_
Pin_id: M00404
Raman shift (cm-1)	intensity
116.427	0
120.581	451.406
124.734	281.538
128.884	16.144
133.033	16.577
137.179	11.127
141.324	43.354
145.467	130.302
149.608	214.298
153.747	552.482
157.884	1000.84
162.019	731.953
166.152	174.791
170.284	147.567
174.413	166.142
178.541	1.389
182.667	0.21
186.791	2.478
190.912	36.253
195.033	90.384
199.151	3.151
203.267	44.933
207.381	69.204
211.494	121.739
215.605	227.542
219.713	209.674
223.82	237.976
227.925	532.37
232.029	849.803
236.13	972.479
240.229	1353.22
244.327	2484.99
248.422	3235.83
252.516	3306.75
256.608	3567.69
260.698	2538.63
264.786	1306.56
268.873	1610.97
272.957	3443.17
277.04	4090.91
281.12	3032.32
285.199	2100.19
289.276	1004.49
293.351	647.896
297.425	385.655
301.496	329.354
305.566	324.678
309.633	712.784
313.699	1417.05
317.763	2462.73
321.826	2324.7
325.886	1075.61
329.944	528.83
334.001	212.52
338.056	210.234
342.109	169.604
346.16	52.699
350.209	221.581
354.257	141.889
358.302	254.037
362.346	203.322
366.388	331.2
370.428	313.558
374.466	425.728
378.503	367.077
382.537	339.17
386.57	450.408
390.601	641.219
394.63	632.159
398.658	492.826
402.683	402.674
406.707	423.525
410.729	134.223
414.749	34.347
418.767	155.526
422.783	45.179
426.798	6.244
430.811	56.755
434.821	66.181
438.831	6.513
442.838	95.543
446.843	34.374
450.847	36.352
454.849	17.398
458.849	89.594
462.847	1.677
466.844	165.918
470.839	28.834
474.831	11.23
478.822	7.076
482.812	135.242
486.799	1.698
490.785	151.307
494.769	36.687
498.751	141.901
502.731	76.601
506.71	71.23
510.686	23.942
514.661	19.363
518.634	32.604
522.606	196.044
526.575	79.367
530.543	22.472
534.509	84.266
538.473	55.811
542.436	146.671
546.396	127.257
550.355	17.592
554.312	87.741
558.268	187.648
562.221	117.242
566.173	156.498
570.123	25.407
574.071	13.803
578.018	171.695
581.962	139.246
585.905	85.773
589.846	182.611
593.786	112.864
597.723	87.714
601.659	113.702
605.593	39.327
609.526	31.492
613.456	134.848
617.385	93.772
621.312	58.682
625.237	22.868
629.161	51.579
633.083	144.511
637.003	17.626
640.921	15.861
644.838	43.248
648.752	179.343
652.666	204.391
656.577	156.578
660.486	110.258
664.394	102.534
668.3	192.145
672.205	252.094
676.107	142.634
680.008	120.344
683.907	123.946
687.804	190.22
691.7	337.415
695.594	284.824
699.486	334.475
703.377	355.708
707.265	549.682
711.152	633.689
715.037	699.512
718.921	624.685
722.803	858.646
726.683	1080.57
730.561	1083.1
734.438	516.03
738.313	350.029
742.186	431.055
746.057	462.228
749.927	364.403
753.795	314.861
757.661	215.591
761.526	318.168
765.389	238.45
769.25	150.119
773.109	49.922
776.967	79.245
780.823	167.548
784.677	171.269
788.53	227.877
792.381	94.652
796.23	162.783
800.077	66.59
803.923	28.471
807.767	78.756
811.61	85.326
815.45	8.373
819.289	27.537
823.126	123.26
826.962	0.648
830.796	54.768
834.628	169.762
838.459	114.818
842.287	108.951
846.115	93.752
849.94	198.291
853.764	162.615
857.586	227.066
861.406	221.428
865.225	84.711
869.042	17.422
872.857	169.887
876.671	402.15
880.483	1514.27
884.293	546.316
888.101	8.201
891.908	139.91
895.714	221.494
899.517	3.01
903.319	104.312
907.119	225
910.918	15.68
914.715	6.309
918.51	13.367
922.303	186.027
926.095	184.527
929.885	372.793
933.674	372.283
937.461	48.572
941.246	79.982
945.03	188.105
948.811	235.754
952.592	243.691
956.37	138.281
960.147	85.111
963.922	171.49
967.696	174.066
971.468	230.537
975.238	273.98
979.007	249.348
982.774	35.367
986.539	8.664
990.303	154.266
994.065	120.705
997.825	316.852
1001.58	182.924
1005.34	386.066
1009.1	12.682
1012.85	54.852
1016.6	192.342
1020.35	487.77
1024.1	404.68
1027.85	352.508
1031.6	363.393
1035.34	271.766
1039.08	161.709
1042.82	447.318
1046.56	338.27
1050.3	483.342
1054.03	608.691
1057.77	424.551
1061.5	499.615
1065.23	383.418
1068.96	397.678
1072.69	392.984
1076.41	488.92
1080.14	535.047
1083.86	371.018
1087.58	502.902
1091.3	428.531
1095.02	544.553
1098.74	939.777
1102.45	1245.46
1106.16	1563.16
1109.88	1997.65
1113.59	2442.61
1117.29	4817.58
1121	14562.3
1124.71	33856.9
1128.41	15601.8
1132.11	4665.81
1135.81	1860
1139.51	844.498
1143.21	465.51
1146.9	250.258
1150.6	54.766
1154.29	369.697
1157.98	492.541
1161.67	386.295
1165.36	310.465
1169.04	85.428
1172.72	17.404
1176.41	70.557
1180.09	406.16
1183.77	272.492
1187.44	318.875
1191.12	435.355
1194.8	301.959
1198.47	258.609
1202.14	45.352
1205.81	282.238
1209.48	319.26
1213.14	346.637
1216.81	584.189
1220.47	481.949
1224.14	399.953
1227.8	488.252
1231.45	226.57
1235.11	343.482
1238.77	321.639
1242.42	449.74
1246.07	644.234
1249.72	467.904
1253.37	316.414
1257.02	581.09
1260.67	194.529
1264.31	196.062
1267.95	327.809
1271.6	226.996
1275.24	237.26
1278.88	415.84
1282.51	815.422
1286.15	670.061
1289.78	245.818
1293.41	182.979
1297.04	203.152
1300.67	244.709
1304.3	66.166
1307.92	226.156
1311.55	561.09
