Measurement: Raman, 514 nm, ccw, Raman Data Processed
Mineral: Huntite
Rruff sample: R040126
Ideal chemistry: CaMg_3_(CO_3_)_4_
Locality: Crestmore Quarry, Riverside County, California, USA
Source: University of Arizona Mineral Museum
Description: White fine-grained massive
Measured chemistry: Ca_0.97_Mg_3.02_(CO_3_)_4_
Pin_id: M00404
Raman shift (cm-1)	intensity
116.427	0
120.581	476.209
124.734	311.154
128.884	81.569
133.033	14.753
137.179	4.358
141.324	19.168
145.467	137.576
149.608	174.287
153.747	559.875
157.884	983.725
162.019	723.54
166.152	249.562
170.284	232.581
174.413	129.504
178.541	36.246
182.667	35.669
186.791	42.959
190.912	45.128
195.033	31.999
199.151	40.267
203.267	37.949
207.381	50.896
211.494	53.918
215.605	281.377
219.713	132.334
223.82	213.52
227.925	503.226
232.029	985.35
236.13	966.584
240.229	1326.86
244.327	2373.13
248.422	3328.42
252.516	3313.72
256.608	3529.01
260.698	2574.28
264.786	1351.54
268.873	1493.81
272.957	3330.14
277.04	4175.72
281.12	3062.23
285.199	2219.41
289.276	1005.39
293.351	622.364
297.425	283.569
301.496	346.018
305.566	360.245
309.633	666.979
313.699	1364.67
317.763	2404.04
321.826	2349.47
325.886	1019.35
329.944	524.966
334.001	239.18
338.056	164.609
342.109	151.963
346.16	105.523
350.209	168.291
354.257	150.798
358.302	322.081
362.346	205.214
366.388	328.621
370.428	422.033
374.466	385.49
378.503	423.147
382.537	447.038
386.57	521.144
390.601	696.022
394.63	650.524
398.658	525.1
402.683	360.122
406.707	344.439
410.729	226.755
414.749	75.845
418.767	116.998
422.783	104.383
426.798	128.597
430.811	103.792
434.821	57.988
438.831	21.486
442.838	74.506
446.843	28.731
450.847	28.107
454.849	54.264
458.849	57.211
462.847	89.546
466.844	8.133
470.839	102.143
474.831	50.18
478.822	121.037
482.812	113.158
486.799	74.596
490.785	195.455
494.769	18.827
498.751	9.583
502.731	89.254
506.71	208.422
510.686	87.3
514.661	45.371
518.634	83.785
522.606	261.419
526.575	80.198
530.543	127.05
534.509	53.397
538.473	160.057
542.436	145.642
546.396	151.049
550.355	138.191
554.312	140.992
558.268	55.543
562.221	219.789
566.173	93.723
570.123	157.283
574.071	220.503
578.018	173.398
581.962	125.958
585.905	28.09
589.846	149.957
593.786	191.152
597.723	72.057
601.659	144.921
605.593	45.752
609.526	110.372
613.456	90.636
617.385	170.253
621.312	200.249
625.237	108.982
629.161	97.589
633.083	171.412
637.003	29.494
640.921	37.166
644.838	45.013
648.752	170.74
652.666	237.514
656.577	169.201
660.486	75.05
664.394	117.681
668.3	164.153
672.205	105.28
676.107	139.032
680.008	13.403
683.907	257.352
687.804	300.433
691.7	284.332
695.594	347.591
699.486	342.969
703.377	484.376
707.265	576.727
711.152	549.24
715.037	610.672
718.921	621.163
722.803	930.525
726.683	1036.68
730.561	1035.57
734.438	723.495
738.313	301.33
742.186	518.766
746.057	446.018
749.927	401.441
753.795	487.787
757.661	124.588
761.526	310.295
765.389	127.643
769.25	218.56
773.109	36.253
776.967	88.675
780.823	142.17
784.677	162.252
788.53	216.186
792.381	198.987
796.23	181.031
800.077	103.051
803.923	10.942
807.767	75.865
811.61	98.326
815.45	170.453
819.289	141.751
823.126	212.753
826.962	143.362
830.796	63.483
834.628	143.613
838.459	195.154
842.287	195.361
846.115	15.232
849.94	75.617
853.764	173.895
857.586	73.248
861.406	222.533
865.225	71.016
869.042	69.262
872.857	227.371
876.671	445.256
880.483	1502.94
884.293	460.611
888.101	117.916
891.908	135.08
895.714	72.076
899.517	71.07
903.319	125.438
907.119	211.715
910.918	7.27
914.715	33.18
918.51	8.08
922.303	153.18
926.095	83.672
929.885	271.371
933.674	334.955
937.461	39.338
941.246	33.59
945.03	127.568
948.811	240.896
952.592	173.773
956.37	284.143
960.147	46.498
963.922	35.783
967.696	148.326
971.468	102.164
975.238	303.252
979.007	128.996
982.774	101.506
986.539	26.387
990.303	45.668
994.065	168.252
997.825	268.115
1001.58	174.232
1005.34	259.457
1009.1	8.457
1012.85	93.506
1016.6	267.16
1020.35	328.84
1024.1	331.92
1027.85	414.775
1031.6	212.424
1035.34	185.033
1039.08	211.555
1042.82	293.479
1046.56	291.291
1050.3	278.176
1054.03	335.486
1057.77	280.279
1061.5	461.025
1065.23	307.104
1068.96	367.723
1072.69	445.027
1076.41	467.316
1080.14	444.535
1083.86	317.232
1087.58	479.312
1091.3	451.295
1095.02	413.686
1098.74	756.439
1102.45	1118.87
1106.16	1457.93
1109.88	1869.5
1113.59	2451.92
1117.29	4774.03
1121	14046
1124.71	33798.1
1128.41	15900.3
1132.11	4722.44
1135.81	1892.79
1139.51	924.379
1143.21	261.055
1146.9	393.15
1150.6	125.723
1154.29	397.926
1157.98	288.881
1161.67	380.363
1165.36	94.34
1169.04	4.736
1172.72	8.373
1176.41	88.133
1180.09	265.475
1183.77	289.127
1187.44	463.008
1191.12	416.977
1194.8	271.135
1198.47	55.359
1202.14	20.363
1205.81	84.055
1209.48	358.643
1213.14	263.486
1216.81	338.529
1220.47	353.797
1224.14	309.324
1227.8	275.176
1231.45	71.168
1235.11	207.199
1238.77	236.514
1242.42	360.355
1246.07	564.318
1249.72	380.262
1253.37	548.977
1257.02	593.242
1260.67	213.629
1264.31	214.682
1267.95	285.896
1271.6	170.5
1275.24	189.053
1278.88	527.842
1282.51	837.619
1286.15	646.094
1289.78	398.432
1293.41	93.65
1297.04	326.762
1300.67	229.695
1304.3	231.637
1307.92	190.057
1311.55	0
