Measurement: Raman, 514 nm, ccw, Raman Data Processed
Mineral: Huntite
Rruff sample: R040126
Ideal chemistry: CaMg_3_(CO_3_)_4_
Locality: Crestmore Quarry, Riverside County, California, USA
Source: University of Arizona Mineral Museum
Description: White fine-grained massive
Measured chemistry: Ca_0.97_Mg_3.02_(CO_3_)_4_
Pin_id: M00404
Raman shift (cm-1)	intensity
116.427	0
120.581	512.047
124.734	272.961
128.884	139.876
133.033	17.715
137.179	41.637
141.324	87.639
145.467	128.218
149.608	214.548
153.747	548.072
157.884	963.378
162.019	788.924
166.152	211.684
170.284	170.501
174.413	122.242
178.541	29.816
182.667	70.105
186.791	19.01
190.912	59.438
195.033	122.316
199.151	79.916
203.267	12.291
207.381	82.553
211.494	52.725
215.605	250.195
219.713	135.01
223.82	240.03
227.925	533.43
232.029	1024.15
236.13	1118.19
240.229	1280.33
244.327	2367.52
248.422	3271.81
252.516	3396.2
256.608	3650.61
260.698	2535.05
264.786	1280.5
268.873	1633.94
272.957	3368.69
277.04	4119.57
281.12	3025.53
285.199	2166.01
289.276	1186.92
293.351	657.106
297.425	493.89
301.496	242.17
305.566	412.678
309.633	692.474
313.699	1461
317.763	2515.7
321.826	2390.6
325.886	1085.36
329.944	627.443
334.001	242.857
338.056	158.648
342.109	129.914
346.16	102.807
350.209	82.331
354.257	140.827
358.302	233.54
362.346	228.534
366.388	311.607
370.428	436.203
374.466	455.781
378.503	458.753
382.537	387.087
386.57	478.749
390.601	612.486
394.63	596.812
398.658	592.146
402.683	396.036
406.707	289.788
410.729	184.923
414.749	144.054
418.767	92.784
422.783	135.942
426.798	0.548
430.811	7.055
434.821	54.919
438.831	11.575
442.838	81.364
446.843	15.035
450.847	67.826
454.849	39.904
458.849	38.198
462.847	16.24
466.844	65.448
470.839	13.056
474.831	53.002
478.822	23.24
482.812	44.928
486.799	15.555
490.785	195.934
494.769	13.969
498.751	65.066
502.731	15.961
506.71	142.88
510.686	121.447
514.661	69.621
518.634	87.582
522.606	124.611
526.575	102.395
530.543	49.266
534.509	65.187
538.473	40.963
542.436	76.848
546.396	141.342
550.355	46.156
554.312	50.739
558.268	245.099
562.221	59.218
566.173	103.031
570.123	176.514
574.071	99.681
578.018	182.518
581.962	145.031
585.905	96.923
589.846	22.937
593.786	163.864
597.723	51.838
601.659	162.215
605.593	41.212
609.526	111.73
613.456	131.959
617.385	127.994
621.312	147.01
625.237	85.159
629.161	58.22
633.083	215.646
637.003	23.815
640.921	12.46
644.838	79.482
648.752	94.557
652.666	206.387
656.577	144.411
660.486	109.535
664.394	109.459
668.3	261.562
672.205	45.562
676.107	220.936
680.008	47.062
683.907	153.79
687.804	206.368
691.7	260.522
695.594	323.512
699.486	431.924
703.377	524.655
707.265	549.144
711.152	495.857
715.037	644.146
718.921	614.573
722.803	824.814
726.683	1122.99
730.561	952.003
734.438	689.798
738.313	389.169
742.186	597.843
746.057	488.296
749.927	405.791
753.795	382.294
757.661	231.836
761.526	200.029
765.389	160.96
769.25	247.5
773.109	43.504
776.967	248.744
780.823	153.716
784.677	103.528
788.53	179.319
792.381	113.165
796.23	215.884
800.077	129.752
803.923	113.011
807.767	13.619
811.61	0.971
815.45	91.407
819.289	76.238
823.126	156.229
826.962	107.201
830.796	89.188
834.628	170.189
838.459	151.014
842.287	152.17
846.115	16.734
849.94	104.801
853.764	175.176
857.586	65.391
861.406	257.521
865.225	108.209
869.042	37.156
872.857	225.811
876.671	354.25
880.483	1532.54
884.293	600.635
888.101	88.555
891.908	196.301
895.714	113.879
899.517	21.381
903.319	188.734
907.119	125.91
910.918	107.143
914.715	39.223
918.51	55.004
922.303	130.844
926.095	105.666
929.885	229.391
933.674	274.842
937.461	29.682
941.246	64.242
945.03	147.738
948.811	221.105
952.592	254.635
956.37	337.621
960.147	299.287
963.922	131.033
967.696	353.475
971.468	20.566
975.238	303.246
979.007	296.211
982.774	78.531
986.539	99.824
990.303	39.492
994.065	102.016
997.825	320.768
1001.58	203.369
1005.34	379.85
1009.1	48.859
1012.85	27.527
1016.6	259.23
1020.35	273.658
1024.1	226.342
1027.85	409.674
1031.6	296.623
1035.34	279.938
1039.08	134.9
1042.82	207.5
1046.56	278.043
1050.3	380.109
1054.03	541.574
1057.77	274.156
1061.5	376.395
1065.23	188.551
1068.96	309.736
1072.69	451.52
1076.41	503.043
1080.14	521.602
1083.86	373.205
1087.58	464.244
1091.3	485.756
1095.02	407.852
1098.74	710.355
1102.45	1013.71
1106.16	1395.46
1109.88	1857.18
1113.59	2509.19
1117.29	4581.1
1121	13922.4
1124.71	33834.3
1128.41	16066.9
1132.11	4558.34
1135.81	1870.02
1139.51	761.287
1143.21	403.342
1146.9	304.934
1150.6	145.562
1154.29	297.15
1157.98	436.127
1161.67	377.664
1165.36	320.049
1169.04	172.336
1172.72	15.979
1176.41	63.73
1180.09	70.717
1183.77	169.771
1187.44	430.502
1191.12	333.375
1194.8	366.215
1198.47	229.262
1202.14	17.504
1205.81	205.791
1209.48	99.01
1213.14	282.334
1216.81	355.73
1220.47	369.16
1224.14	282.686
1227.8	276.314
1231.45	140.064
1235.11	103.943
1238.77	217.982
1242.42	391.664
1246.07	514.264
1249.72	427.438
1253.37	400.416
1257.02	665.658
1260.67	183
1264.31	65.115
1267.95	165.242
1271.6	136.934
1275.24	279.477
1278.88	444.273
1282.51	615.223
1286.15	565.279
1289.78	318.244
1293.41	127.143
1297.04	156.787
1300.67	236.076
1304.3	9.191
1307.92	211.346
1311.55	569.947
1315.17	572.613
1318.79	612.266
1322.41	491.5
1326.03	399.152
1329.65	0
