Measurement: Raman, 514 nm, ccw, Raman Data Processed
Mineral: Hydroxylbastnasite-(Ce)
Rruff sample: R060283
Ideal chemistry: CeCO_3_(OH)
Locality: Trimouns, Luzenac, France
Source: Herb Obodda
Description: Brown hexagonal tablet
Measured chemistry: (Ce_0.50_Nd_0.24_(La,Pr)_0.23_Y_0.03_)_Σ=1_CO_3_((OH)_0.65_F_0.35_)_Σ=1_
Pin_id: M00326
Orientation: Laser parallel to -c* (0 0 -1). Fiducial mark perpendicular to laser is parallel to a [1 0 0]
Raman shift (cm-1)	intensity
41.831	0
46.827	41.7225
51.819	228.196
56.809	286.291
61.795	353.126
66.779	488.791
71.76	768.99
76.738	553.21
81.713	261.888
86.685	98.7891
91.655	73.0931
96.621	175.152
101.585	82.0025
106.545	420.489
111.503	1853.4
116.458	5950.76
121.41	7127.91
126.36	6232.66
131.306	8654.56
136.25	9919.57
141.19	9239.12
146.128	8058.1
151.063	8720.09
155.995	10149.9
160.925	9072.52
165.851	7252.89
170.775	7385.94
175.695	8490.64
180.613	8422.91
185.528	7731.69
190.44	8230.08
195.35	8625.07
200.256	8268.26
205.16	6876.04
210.061	5253.58
214.959	4101.06
219.854	3624.64
224.747	4044.11
229.636	4443.79
234.523	4646.7
239.407	4772.29
244.288	4938.62
249.166	5689.84
254.042	6563.06
258.915	6957.79
263.784	5859.91
268.651	4740.31
273.516	3531.94
278.377	2730.72
283.236	2340.65
288.092	2207.68
292.945	2211.84
297.795	2575.11
302.642	3371.44
307.487	4464.78
312.329	5569.07
317.168	6604.23
322.004	7195.22
326.838	7894.97
331.668	8539.42
336.496	8954.6
341.321	9087.66
346.144	9046.79
350.963	8726.01
355.78	7785.49
360.594	6922.03
365.405	5915.61
370.214	5239.97
375.019	4696.67
379.822	4241.73
384.622	3691.04
389.42	3178.39
394.215	2818.98
399.006	2464.76
403.795	2181.68
408.582	1908.67
413.365	1655.69
418.146	1292.69
422.924	1066.63
427.7	741.465
432.472	637.157
437.242	556.661
442.009	496.936
446.774	462.939
451.535	448.629
456.294	355.967
461.05	327.913
465.804	262.431
470.554	174.483
475.302	63.0339
480.047	17.043
484.79	76.5986
489.529	40.2117
494.266	88.1392
499.001	125.619
503.732	183.375
508.461	159.417
513.187	158.16
517.911	157.331
522.631	116.957
527.349	62.8257
532.065	25.4678
536.777	27.397
541.487	112.037
546.194	295.72
550.898	473.463
555.6	691.254
560.299	1169.08
564.995	1655.93
569.689	2208.79
574.38	2592.66
579.068	2798.51
583.754	2891.34
588.437	2666.14
593.117	2456.9
597.794	1923.61
602.469	1417.28
607.141	968.888
611.81	617.434
616.477	413.915
621.141	252.244
625.802	235.454
630.461	249.303
635.117	256.632
639.77	280.766
644.421	216.963
649.069	266.617
653.714	356.703
658.357	683.964
662.997	1241.91
667.634	1323.71
672.269	1212.1
676.901	1425.64
681.53	1654.02
686.157	2815.35
690.781	4293.16
695.402	4804.43
700.021	3565.04
704.637	2837.98
709.251	2092.23
713.861	1392.78
718.469	1224.64
723.075	1373.81
727.678	1695.28
732.278	1513.07
736.876	1419.16
741.47	1337.57
746.063	1391.3
750.652	1378.33
755.239	1435.68
759.824	1683.21
764.406	2033.77
768.985	2627.73
773.561	3120.66
778.135	3532.79
782.706	3953.82
787.275	3885.46
791.841	3649.38
796.404	3215.19
800.965	2732.66
805.523	2208.85
810.079	1648.19
814.632	1238.03
819.182	955.548
823.73	805.012
828.275	568.327
832.818	667.809
837.358	802.039
841.895	1501.23
846.43	2755.2
850.962	3472.97
855.491	2959.76
860.018	2217.56
864.543	1553.33
869.064	2696.08
873.583	3137.8
878.1	1536.46
882.614	561.06
887.125	123.585
891.634	115.38
896.14	70.8674
900.644	72.8572
905.145	5.44019
909.644	51.385
914.14	39.125
918.633	27.6457
923.124	57.939
927.612	31.0461
932.098	27.4565
936.581	63.6489
941.061	50.8376
945.539	57.9075
950.015	45.9998
954.487	4.09936
958.958	18.0698
963.425	7.51367
967.89	125.309
972.353	97.7192
976.813	149.715
981.271	286.303
985.726	228.488
990.178	289.262
994.628	357.621
999.075	332.557
1003.52	373.08
1007.96	399.551
1012.4	311.917
1016.84	252.263
1021.27	203.223
1025.71	162.794
1030.13	185.53
1034.56	217.545
1038.99	277.389
1043.41	368.159
1047.83	449.64
1052.24	604.041
1056.66	761.376
1061.07	1171.89
1065.48	1445.56
1069.89	2247.59
1074.29	7564.52
1078.69	32991.6
1083.09	42323.1
1087.49	48596.2
1091.88	38561.9
1096.28	38716.8
1100.66	45214.2
1105.05	21098.6
1109.43	4878.77
1113.82	1276.52
1118.2	756.234
1122.57	770.415
1126.95	437.388
1131.32	250.878
1135.69	292.703
1140.05	189.684
1144.42	210.741
1148.78	193.435
1153.14	136.658
1157.5	139.779
1161.85	101.759
1166.2	132.661
1170.55	143.011
1174.9	77.9766
1179.24	78.8174
1183.58	119.438
1187.92	99.866
1192.26	52.1538
1196.6	55.3066
1200.93	90.4795
1205.26	15.2341
1209.58	53.1111
1213.91	47.5781
1218.23	92.1331
1222.55	23.6377
1226.87	37.8447
1231.18	40.4661
1235.49	13.5686
1239.8	64.4976
1244.11	20.2764
1248.41	18.8955
1252.72	10.3704
1257.02	22.7044
1261.32	11.0891
1265.61	20.9385
1269.9	2.18603
1274.19	52.511
1278.48	50.0776
1282.77	26.863
1287.05	77.1384
1291.33	32.0723
1295.61	95.4917
1299.88	43.1672
1304.15	70.2568
1308.42	20.3374
1312.69	88.6458
1316.96	29.8381
1321.22	19.8467
1325.48	84.5269
1329.74	85.3926
1334	90.4106
1338.25	62.2046
1342.5	69.7683
1346.75	64.9199
1351	65.4878
1355.24	16.7971
1359.48	85.9976
1363.72	141.16
1367.96	107.288
1372.19	115.13
1376.42	77.1506
1380.65	89.1982
1384.88	284.39
1389.11	583.981
1393.33	1249.6
1397.55	2042.81
1401.76	2390.06
1405.98	2554.68
1410.19	2974.73
1414.4	3134.88
1418.61	3183.88
1422.82	2894.32
1427.02	2664.4
1431.22	2574.94
1435.42	2564.23
1439.61	2220.64
1443.81	1643.01
1448	1181.52
1452.18	865.132
1456.37	776.871
1460.56	852.739
1464.74	933.875
1468.92	1157.17
1473.09	1329.59
1477.27	1216.13
1481.44	986.907
1485.61	748.141
1489.78	565.934
1493.94	268.207
1498.1	131.517
1502.26	98.0286
1506.42	83.7378
1510.58	96.0862
1514.73	113.616
1518.88	120.358
1523.03	84.5508
1527.17	144.594
1531.32	123.546
1535.46	77.6665
1539.6	26.303
1543.73	61.8625
1547.87	10.3879
1552	90.8726
1556.13	30.1567
1560.26	50.9954
