Measurement: Raman, 514 nm, ccw, Raman Data Processed
Mineral: Hydroxylbastnasite-(Ce)
Rruff sample: R060283
Ideal chemistry: CeCO_3_(OH)
Locality: Trimouns, Luzenac, France
Source: Herb Obodda
Description: Brown hexagonal tablet
Measured chemistry: (Ce_0.50_Nd_0.24_(La,Pr)_0.23_Y_0.03_)_Σ=1_CO_3_((OH)_0.65_F_0.35_)_Σ=1_
Pin_id: M00330
Orientation: Laser parallel to a* (1 0 0). Fiducial mark perpendicular to laser is parallel to c [0 0 1]
Raman shift (cm-1)	intensity
41.831	0
46.827	47.156
51.819	104.843
56.809	226.345
61.795	319.96
66.779	448.106
71.76	694.373
76.738	504.135
81.713	265.605
86.685	82.7313
91.655	92.7583
96.621	179.321
101.585	129.613
106.545	447.487
111.503	2206.04
116.458	6113.03
121.41	6911.61
126.36	7479.37
131.306	9660.24
136.25	10607.4
141.19	9952.44
146.128	9949.22
151.063	10471.2
155.995	10930.2
160.925	9519.35
165.851	8900.94
170.775	9672.5
175.695	10123.4
180.613	9486.01
185.528	9292.29
190.44	10112.8
195.35	11067.9
200.256	10762.6
205.16	9263.12
210.061	6864.52
214.959	5336.3
219.854	5075.27
224.747	5695.7
229.636	6682.04
234.523	7409.87
239.407	7765.17
244.288	8244.59
249.166	8903.19
254.042	9627.83
258.915	9532.54
263.784	9049.4
268.651	8621.27
273.516	8457.09
278.377	8602.79
283.236	7801.3
288.092	6559.6
292.945	5770.65
297.795	5397.44
302.642	5935.88
307.487	6714.89
312.329	7419.38
317.168	8355.26
322.004	8932.45
326.838	9830.87
331.668	10599.8
336.496	11414.6
341.321	11860
346.144	12119.2
350.963	11108.8
355.78	9892.68
360.594	8676.26
365.405	7537.82
370.214	7029.14
375.019	6431.79
379.822	5995.53
384.622	5417.81
389.42	5105.56
394.215	4605.65
399.006	4182.51
403.795	3607.65
408.582	3195.98
413.365	2507.43
418.146	1861.93
422.924	1248.43
427.7	843.851
432.472	556.134
437.242	502.217
442.009	431.037
446.774	383.533
451.535	390.643
456.294	358.31
461.05	251.476
465.804	214.085
470.554	20.0835
475.302	69.5991
480.047	68.2549
484.79	151.232
489.529	105.981
494.266	216.611
499.001	116.791
503.732	239.534
508.461	183.192
513.187	170.769
517.911	216.145
522.631	62.2983
527.349	117.834
532.065	0.061523
536.777	58.8721
541.487	169.009
546.194	406.818
550.898	582.322
555.6	837.503
560.299	1190.34
564.995	1576.82
569.689	2035.93
574.38	2245.64
579.068	2412.95
583.754	2367.85
588.437	2173.32
593.117	1811.34
597.794	1427.93
602.469	1201.06
607.141	804.736
611.81	699.949
616.477	508.625
621.141	471.494
625.802	444.118
630.461	446.172
635.117	473.066
639.77	412.534
644.421	358.243
649.069	283.391
653.714	471.656
658.357	818.258
662.997	1201.9
667.634	1353.16
672.269	1367.04
676.901	1510.57
681.53	2321.6
686.157	3953.8
690.781	5635.21
695.402	5933.81
700.021	4281.64
704.637	3060.61
709.251	2254.73
713.861	1919.01
718.469	2222.45
723.075	3766.06
727.678	4933.86
732.278	3919.86
736.876	2703.06
741.47	2009.47
746.063	1790.12
750.652	1682
755.239	1434.87
759.824	1624.3
764.406	2079.36
768.985	2617.38
773.561	3010.11
778.135	3479.54
782.706	3850.62
787.275	3974.24
791.841	3778.17
796.404	3624.05
800.965	3057.5
805.523	2589.67
810.079	2034.25
814.632	1546.32
819.182	1003.29
823.73	820.288
828.275	501.284
832.818	632.733
837.358	871.362
841.895	1370.88
846.43	2503.67
850.962	3204.57
855.491	2771.64
860.018	2026.71
864.543	1983.86
869.064	2929.08
873.583	2596.35
878.1	1083.68
882.614	345.046
887.125	131.57
891.634	68.9424
896.14	122.302
900.644	28.1445
905.145	89.8315
909.644	26.0156
914.14	14.46
918.633	64.7471
923.124	15.2178
927.612	38.5015
932.098	0.301758
936.581	34.5264
941.061	3.92969
945.539	2.60449
950.015	28.4473
954.487	23.0454
958.958	16.1851
963.425	41.1968
967.89	30.1631
972.353	53.6885
976.813	202.915
981.271	217.856
985.726	110.517
990.178	192.86
994.628	251.908
999.075	301.661
1003.52	283.086
1007.96	290.179
1012.4	160.922
1016.84	129.309
1021.27	176.347
1025.71	116.251
1030.13	166.33
1034.56	153.906
1038.99	240.542
1043.41	261.258
1047.83	436.92
1052.24	557.622
1056.66	705.736
1061.07	1156.66
1065.48	1575.32
1069.89	3493.48
1074.29	16194.6
1078.69	43357.4
1083.09	47660.5
1087.49	48932.3
1091.88	36524.4
1096.28	40084.8
1100.66	41905.5
1105.05	19022.8
1109.43	4277.98
1113.82	1165.34
1118.2	610.019
1122.57	383.252
1126.95	291.602
1131.32	240.01
1135.69	288.227
1140.05	223.88
1144.42	118.873
1148.78	86.9331
1153.14	203.726
1157.5	137.589
1161.85	85.5044
1166.2	148.171
1170.55	115.067
1174.9	159.204
1179.24	91.3603
1183.58	64.7529
1187.92	81.6416
1192.26	115.499
1196.6	79.355
1200.93	43.1421
1205.26	51.9014
1209.58	15.7573
1213.91	61.6016
1218.23	52.4214
1222.55	106.236
1226.87	18.9619
1231.18	80.6108
1235.49	71.1602
1239.8	33.4277
1244.11	6.22461
1248.41	15.8325
1252.72	3.76269
1257.02	97.5332
1261.32	73.1646
1265.61	2.68262
1269.9	0.118164
1274.19	10.4883
1278.48	53.8013
1282.77	40.0327
1287.05	6.18848
1291.33	57.7324
1295.61	67.0518
1299.88	10.7168
1304.15	27.3027
1308.42	74.9194
1312.69	68.3843
1316.96	76.8359
1321.22	105.936
1325.48	123.345
1329.74	97.7891
1334	100.614
1338.25	106.228
1342.5	107.948
1346.75	92.0835
1351	117.952
1355.24	104.399
1359.48	153.554
1363.72	95.3047
1367.96	108.782
1372.19	38.5508
1376.42	61.7246
1380.65	292.442
1384.88	400.183
1389.11	908.516
1393.33	1909.15
1397.55	2625.63
1401.76	2493.16
1405.98	2527.48
1410.19	2752.09
1414.4	3008.33
1418.61	2899.34
1422.82	2770.92
1427.02	2618.65
1431.22	2800.76
1435.42	2610.67
1439.61	2092.17
1443.81	1345.5
1448	1021.86
1452.18	777.323
1456.37	853.996
1460.56	871.812
1464.74	920.842
1468.92	693.144
1473.09	852.733
1477.27	866.645
1481.44	784.841
1485.61	742.225
1489.78	646.888
1493.94	714.69
1498.1	518.842
1502.26	448.697
1506.42	390.031
1510.58	360.959
1514.73	386.569
1518.88	449.95
1523.03	391.199
1527.17	270.466
1531.32	166.935
1535.46	33.8628
1539.6	4.64697
1543.73	51.7637
1547.87	112.934
1552	6.44971
1556.13	57.5449
1560.26	86.8877
