Measurement: Raman, 514 nm, ccw, Raman Data Processed
Mineral: Hydroxylbastnasite-(Ce)
Rruff sample: R060283
Ideal chemistry: CeCO_3_(OH)
Locality: Trimouns, Luzenac, France
Source: Herb Obodda
Description: Brown hexagonal tablet
Measured chemistry: (Ce_0.50_Nd_0.24_(La,Pr)_0.23_Y_0.03_)_Σ=1_CO_3_((OH)_0.65_F_0.35_)_Σ=1_
Pin_id: M00330
Orientation: Laser parallel to a* (1 0 0). Fiducial mark perpendicular to laser is parallel to c [0 0 1]
Raman shift (cm-1)	intensity
41.831	0
46.827	46.4764
51.819	133.841
56.809	260.477
61.795	349.079
66.779	508.106
71.76	750.884
76.738	534.309
81.713	292.798
86.685	71.0161
91.655	107.573
96.621	225.647
101.585	198.925
106.545	325.751
111.503	1939.46
116.458	5523.18
121.41	6565.67
126.36	7452.22
131.306	9399.63
136.25	10207
141.19	9686.97
146.128	8926.13
151.063	8937.37
155.995	9295.88
160.925	8139.4
165.851	7688.08
170.775	8566.75
175.695	9344.34
180.613	9857.72
185.528	10896.8
190.44	11797
195.35	11386.8
200.256	10075.6
205.16	8604.14
210.061	7035.63
214.959	6382.62
219.854	7116.6
224.747	8631.72
229.636	10707.6
234.523	13273.2
239.407	15718.6
244.288	17960.8
249.166	19629.7
254.042	19750.4
258.915	18995.9
263.784	17132.3
268.651	16051.4
273.516	14447
278.377	12787.2
283.236	10704
288.092	8999.07
292.945	7604.59
297.795	6954.47
302.642	6939.63
307.487	7287.95
312.329	8013.34
317.168	8252.69
322.004	8805.89
326.838	9370.84
331.668	10036.4
336.496	10484.3
341.321	10925.8
346.144	10845.5
350.963	10295.8
355.78	9070.84
360.594	8064.73
365.405	7193.5
370.214	6570.65
375.019	6099.29
379.822	5807.37
384.622	5436.88
389.42	4857.4
394.215	4575.53
399.006	4078.56
403.795	3662.27
408.582	3196.47
413.365	2524.1
418.146	1882.09
422.924	1239.35
427.7	920.813
432.472	665.398
437.242	689.027
442.009	573.625
446.774	595.117
451.535	577.43
456.294	534.491
461.05	432.231
465.804	279.582
470.554	117.478
475.302	19.144
480.047	58.5337
484.79	66.7344
489.529	214.536
494.266	205.545
499.001	215.033
503.732	258.414
508.461	239.2
513.187	248.432
517.911	222.04
522.631	131.962
527.349	117.914
532.065	10.7366
536.777	84.2656
541.487	186.664
546.194	352.661
550.898	489.329
555.6	744.646
560.299	1049.59
564.995	1323.14
569.689	1631.27
574.38	1730.96
579.068	1852.2
583.754	1825.97
588.437	1649.25
593.117	1438.03
597.794	1154.3
602.469	834.045
607.141	707.259
611.81	500.515
616.477	517.683
621.141	450.995
625.802	536.349
630.461	514.533
635.117	422.249
639.77	479.399
644.421	440.997
649.069	504.809
653.714	588.022
658.357	812.328
662.997	1230.48
667.634	1306.53
672.269	1569.15
676.901	1900.57
681.53	2390.07
686.157	3535.04
690.781	4760.46
695.402	4842.2
700.021	3733.19
704.637	3257.38
709.251	2860.77
713.861	3306.35
718.469	5591.1
723.075	11090
727.678	14668.2
732.278	10513.5
736.876	6426.13
741.47	4298.94
746.063	3404
750.652	2849.33
755.239	2242.13
759.824	2218.39
764.406	2599.23
768.985	3077.17
773.561	3583.01
778.135	3978.69
782.706	4174.23
787.275	4139.7
791.841	4044.25
796.404	3715.31
800.965	3349.36
805.523	2931.11
810.079	2349.09
814.632	1956.57
819.182	1525.95
823.73	1114.98
828.275	911.428
832.818	912.931
837.358	1112.78
841.895	1577.42
846.43	2330.25
850.962	2584.67
855.491	2303.16
860.018	1821.74
864.543	1638.26
869.064	2446.8
873.583	2050.33
878.1	972.966
882.614	315.186
887.125	113.488
891.634	19.023
896.14	121.128
900.644	5.56763
905.145	23.6111
909.644	43.5093
914.14	11.7651
918.633	34.6655
923.124	25.8054
927.612	3.53418
932.098	87.3599
936.581	61.0183
941.061	31.6067
945.539	21.116
950.015	35.5586
954.487	12.9482
958.958	1.68115
963.425	23.6924
967.89	101.114
972.353	24.3416
976.813	145.979
981.271	206.076
985.726	190.661
990.178	190.78
994.628	301.445
999.075	378.689
1003.52	249.481
1007.96	340.673
1012.4	227.343
1016.84	210.621
1021.27	105.448
1025.71	157.34
1030.13	161.653
1034.56	207.15
1038.99	371.192
1043.41	405.493
1047.83	489.043
1052.24	575.987
1056.66	851.095
1061.07	1283.05
1065.48	1754.05
1069.89	3666.95
1074.29	17605.2
1078.69	47441.2
1083.09	49999
1087.49	50795.3
1091.88	37823.6
1096.28	41707.9
1100.66	43644.3
1105.05	19298.8
1109.43	4209.2
1113.82	1115.57
1118.2	686.512
1122.57	395.6
1126.95	282.12
1131.32	259.333
1135.69	290.498
1140.05	228.64
1144.42	136.265
1148.78	209.908
1153.14	125.019
1157.5	192.174
1161.85	123.074
1166.2	187.657
1170.55	80.2478
1174.9	118.276
1179.24	138.151
1183.58	21.415
1187.92	82.3276
1192.26	85.2532
1196.6	111.903
1200.93	46.3679
1205.26	73.0066
1209.58	113.637
1213.91	46.301
1218.23	36.9475
1222.55	8.35376
1226.87	86.1389
1231.18	67.0723
1235.49	56.2378
1239.8	12.4009
1244.11	15.3699
1248.41	10.8696
1252.72	51.3704
1257.02	40.2168
1261.32	29.585
1265.61	54.1831
1269.9	70.6416
1274.19	6.97021
1278.48	35.9902
1282.77	12.5637
1287.05	33.2398
1291.33	12.2915
1295.61	53.7329
1299.88	8.04956
1304.15	16.2373
1308.42	88.6379
1312.69	40.9526
1316.96	34.5132
1321.22	53.3179
1325.48	2.07959
1329.74	130.307
1334	92.8457
1338.25	150.601
1342.5	99.2839
1346.75	50.8347
1351	128.752
1355.24	104.193
1359.48	123.213
1363.72	68.2285
1367.96	195.6
1372.19	196.444
1376.42	262.081
1380.65	311.435
1384.88	652.488
1389.11	1393.76
1393.33	2944.97
1397.55	4354.84
1401.76	3945.45
1405.98	3489.55
1410.19	3615.56
1414.4	3980.2
1418.61	4233.1
1422.82	4392.92
1427.02	5055.84
1431.22	5887.05
1435.42	5476.85
1439.61	3678.96
1443.81	2329.62
1448	1624.57
1452.18	1200.46
1456.37	1075.45
1460.56	881.609
1464.74	829.031
1468.92	746.699
1473.09	791.681
1477.27	852.317
1481.44	641.364
1485.61	635.712
1489.78	532.683
1493.94	373.903
1498.1	279.31
1502.26	271.094
1506.42	295.259
1510.58	391.168
1514.73	513.888
1518.88	588.542
1523.03	542.231
1527.17	253.019
1531.32	196.282
1535.46	106.262
1539.6	69.5261
1543.73	2.86157
1547.87	18.7834
1552	9.49854
1556.13	15.5339
1560.26	25.7532
