Measurement: Raman, 514 nm, ccw, Raman Data Processed
Mineral: Hydroxylbastnasite-(Ce)
Rruff sample: R060283
Ideal chemistry: CeCO_3_(OH)
Locality: Trimouns, Luzenac, France
Source: Herb Obodda
Description: Brown hexagonal tablet
Measured chemistry: (Ce_0.50_Nd_0.24_(La,Pr)_0.23_Y_0.03_)_Σ=1_CO_3_((OH)_0.65_F_0.35_)_Σ=1_
Pin_id: M00326
Orientation: Laser parallel to -c* (0 0 -1). Fiducial mark perpendicular to laser is parallel to a [1 0 0]
Raman shift (cm-1)	intensity
41.831	0
46.827	15.0415
51.819	115.58
56.809	197.776
61.795	269.9
66.779	397.915
71.76	644.637
76.738	464.053
81.713	219.809
86.685	66.0478
91.655	72.2761
96.621	186.42
101.585	73.9264
106.545	500.325
111.503	2058.4
116.458	6543.3
121.41	7181.68
126.36	6428.32
131.306	8958.19
136.25	10444.5
141.19	9761.93
146.128	8429.44
151.063	8927.48
155.995	10623.6
160.925	9206.72
165.851	7597.84
170.775	7652.87
175.695	8933.78
180.613	8805.49
185.528	7958.92
190.44	8607.81
195.35	9024.91
200.256	8423.06
205.16	6849.27
210.061	5222.77
214.959	4002.12
219.854	3782.66
224.747	4158.26
229.636	4587.74
234.523	4908.59
239.407	4866.38
244.288	5190.25
249.166	5903.14
254.042	6994.96
258.915	7374.57
263.784	6430.7
268.651	5117.28
273.516	3815.22
278.377	3091.49
283.236	2496.06
288.092	2418.88
292.945	2529.95
297.795	2856.27
302.642	3664.78
307.487	4797.4
312.329	5959.08
317.168	6984.75
322.004	7625.35
326.838	8567.81
331.668	9233.06
336.496	9393.05
341.321	9643.77
346.144	9581.7
350.963	9143.91
355.78	8493.47
360.594	7435.69
365.405	6437.1
370.214	5710.06
375.019	5020.31
379.822	4475.08
384.622	3939.95
389.42	3388.05
394.215	3029.8
399.006	2713.73
403.795	2436.96
408.582	2062.12
413.365	1821.35
418.146	1459.59
422.924	1060.8
427.7	830.928
432.472	603.934
437.242	553.771
442.009	575.394
446.774	461.754
451.535	466.809
456.294	386.515
461.05	365.831
465.804	239.716
470.554	59.1284
475.302	103.032
480.047	21.3877
484.79	45.9219
489.529	70.2122
494.266	123.82
499.001	158.058
503.732	200.284
508.461	117.865
513.187	164.897
517.911	132.475
522.631	159.283
527.349	141.361
532.065	47.5664
536.777	15.5049
541.487	88.1316
546.194	297.863
550.898	373.336
555.6	770.938
560.299	1130.52
564.995	1698.07
569.689	2243.58
574.38	2688.03
579.068	2944.4
583.754	2992.7
588.437	2874.91
593.117	2453.03
597.794	1998.03
602.469	1583.93
607.141	1068.71
611.81	653.36
616.477	425.887
621.141	390.29
625.802	344.11
630.461	254.467
635.117	273.4
639.77	235.657
644.421	304.437
649.069	233.983
653.714	407.507
658.357	754.264
662.997	1325.2
667.634	1331.01
672.269	1169.72
676.901	1478.07
681.53	1778.29
686.157	2877.86
690.781	4310.9
695.402	4569.35
700.021	3421.13
704.637	2780.22
709.251	2096.61
713.861	1362.28
718.469	1185.24
723.075	1421.7
727.678	1800.04
732.278	1667.88
736.876	1404.02
741.47	1267.46
746.063	1391.2
750.652	1487.25
755.239	1574.62
759.824	1780.76
764.406	2180.23
768.985	2713.15
773.561	3264.29
778.135	3737.41
782.706	4091.33
787.275	3989.67
791.841	3771.57
796.404	3273.25
800.965	2778.64
805.523	2168.9
810.079	1677.62
814.632	1349.93
819.182	934.039
823.73	776.742
828.275	553.389
832.818	563.817
837.358	835.904
841.895	1558.2
846.43	2897.73
850.962	3628.15
855.491	2910.59
860.018	2256.04
864.543	1628.49
869.064	2870.93
873.583	3240.35
878.1	1670.73
882.614	599.055
887.125	149.219
891.634	12.9016
896.14	25.281
900.644	1.10791
905.145	20.3023
909.644	63.7036
914.14	7.48608
918.633	52.0371
923.124	4.32324
927.612	16.7183
932.098	27.3538
936.581	53.7073
941.061	69.417
945.539	25.8601
950.015	1.18335
954.487	46.1321
958.958	18.8477
963.425	21.167
967.89	96.967
972.353	131.326
976.813	126.242
981.271	187.757
985.726	224.87
990.178	237.218
994.628	300.826
999.075	319.72
1003.52	359.201
1007.96	312.261
1012.4	234.896
1016.84	164.089
1021.27	154.821
1025.71	219.112
1030.13	111.273
1034.56	172.34
1038.99	216.303
1043.41	396.793
1047.83	378.796
1052.24	566.887
1056.66	710.15
1061.07	1103.75
1065.48	1357.78
1069.89	2252.86
1074.29	7666.63
1078.69	33628.3
1083.09	42988.4
1087.49	49993.2
1091.88	38823.5
1096.28	40041.9
1100.66	46178.1
1105.05	20673.1
1109.43	4596.59
1113.82	1279.23
1118.2	672.144
1122.57	476.412
1126.95	355.283
1131.32	301.623
1135.69	237.262
1140.05	294.917
1144.42	137.069
1148.78	145.231
1153.14	181.493
1157.5	154.077
1161.85	148.284
1166.2	117.378
1170.55	79.2344
1174.9	81.9265
1179.24	92.9273
1183.58	71.7331
1187.92	88.7959
1192.26	109.696
1196.6	82.2671
1200.93	12.2983
1205.26	81.4331
1209.58	31.6433
1213.91	17.1401
1218.23	48.9907
1222.55	48.2224
1226.87	14.6282
1231.18	24.1968
1235.49	11.8472
1239.8	20.3174
1244.11	54.5806
1248.41	32.6611
1252.72	24.593
1257.02	40.3464
1261.32	30.1265
1265.61	53.1836
1269.9	34.6401
1274.19	41.3467
1278.48	20.2266
1282.77	11.9695
1287.05	15.5398
1291.33	2.02612
1295.61	49.5217
1299.88	74.5474
1304.15	13.6926
1308.42	9.27515
1312.69	106.59
1316.96	55.9331
1321.22	42.0173
1325.48	54.8687
1329.74	85.092
1334	74.6733
1338.25	100.29
1342.5	49.4695
1346.75	66.0654
1351	66.2263
1355.24	98.9128
1359.48	66.7307
1363.72	116.436
1367.96	54.1397
1372.19	99.4727
1376.42	126.994
1380.65	163.937
1384.88	263.109
1389.11	587.402
1393.33	1217.41
1397.55	2132.69
1401.76	2504.94
1405.98	2629.44
1410.19	3083.99
1414.4	3318.86
1418.61	3239.13
1422.82	3069.97
1427.02	2818
1431.22	2679.37
1435.42	2726.61
1439.61	2401.99
1443.81	1844.44
1448	1167.09
1452.18	951.481
1456.37	807.012
1460.56	870.693
1464.74	1049.8
1468.92	1150.11
1473.09	1344.62
1477.27	1358.42
1481.44	1096.59
1485.61	755.062
1489.78	514.938
1493.94	315.121
1498.1	189.595
1502.26	28.106
1506.42	115.976
1510.58	113.439
1514.73	143.514
1518.88	69.2588
1523.03	62.7622
1527.17	56.1133
1531.32	70.4363
1535.46	22.0073
1539.6	89.1794
1543.73	77.3547
1547.87	78.1787
1552	92.6609
1556.13	103.39
1560.26	137.475
