Measurement: Raman, 514 nm, ccw, Raman Data Processed
Mineral: Hydroxylbastnasite-(Ce)
Rruff sample: R060283
Ideal chemistry: CeCO_3_(OH)
Locality: Trimouns, Luzenac, France
Source: Herb Obodda
Description: Brown hexagonal tablet
Measured chemistry: (Ce_0.50_Nd_0.24_(La,Pr)_0.23_Y_0.03_)_Σ=1_CO_3_((OH)_0.65_F_0.35_)_Σ=1_
Pin_id: M00330
Orientation: Laser parallel to a* (1 0 0). Fiducial mark perpendicular to laser is parallel to c [0 0 1]
Raman shift (cm-1)	intensity
41.831	0
46.827	30.5357
51.819	64.5538
56.809	94.201
61.795	129.003
66.779	178.655
71.76	263.199
76.738	186.996
81.713	95.3892
86.685	37.1249
91.655	37.2051
96.621	57.1182
101.585	48.8416
106.545	114.668
111.503	407.435
116.458	1000.47
121.41	1539.71
126.36	2235.68
131.306	3387.92
136.25	3913.09
141.19	3459.01
146.128	3027.9
151.063	2907.71
155.995	2950.09
160.925	2606
165.851	2083.45
170.775	2006.4
175.695	2090.83
180.613	2433.73
185.528	2830.14
190.44	2890.63
195.35	2458.42
200.256	2137.26
205.16	1784.4
210.061	1663.66
214.959	1645.24
219.854	2064.08
224.747	2564.25
229.636	3078.14
234.523	3686.37
239.407	4681.51
244.288	5390.34
249.166	5844.54
254.042	5959.55
258.915	5744.2
263.784	5407.84
268.651	5133.41
273.516	4890.89
278.377	4335.26
283.236	3748.51
288.092	3231.62
292.945	2840.59
297.795	2469.43
302.642	2354.1
307.487	2345.58
312.329	2408.85
317.168	2510.88
322.004	2686.54
326.838	2916.82
331.668	3034.33
336.496	2993.59
341.321	2858.7
346.144	2591.72
350.963	2246.54
355.78	2039.66
360.594	1579.13
365.405	1489.51
370.214	1234.45
375.019	1145.94
379.822	1039.58
384.622	927.879
389.42	818.176
394.215	693.833
399.006	696.975
403.795	562.579
408.582	505.013
413.365	442.828
418.146	366.035
422.924	263.617
427.7	202.726
432.472	196.829
437.242	154.424
442.009	109.32
446.774	55.5012
451.535	55.9487
456.294	94.646
461.05	86.5764
465.804	22.2944
470.554	9.08105
475.302	37.7165
480.047	7.71191
484.79	19.8227
489.529	31.6043
494.266	44.0198
499.001	35.831
503.732	24.9502
508.461	80.4934
513.187	47.551
517.911	51.1065
522.631	60.0925
527.349	10.49
532.065	3.43433
536.777	21.9558
541.487	26.0095
546.194	66.9959
550.898	83.967
555.6	244.93
560.299	333.879
564.995	417.809
569.689	476.713
574.38	556.587
579.068	597.427
583.754	665.226
588.437	617.982
593.117	459.691
597.794	403.349
602.469	313.955
607.141	279.188
611.81	214.152
616.477	224.194
621.141	155.93
625.802	203.522
630.461	190.87
635.117	176.971
639.77	159.036
644.421	117.554
649.069	103.092
653.714	61.853
658.357	91.7058
662.997	149.881
667.634	355.613
672.269	571.164
676.901	766.231
681.53	652.856
686.157	715.981
690.781	585.558
695.402	538.266
700.021	413.068
704.637	596.959
709.251	730.942
713.861	981.017
718.469	1675.19
723.075	3532.45
727.678	5304.81
732.278	3846.28
736.876	2299.84
741.47	1449.51
746.063	1012.31
750.652	890.269
755.239	646.239
759.824	430.372
764.406	519.335
768.985	586.884
773.561	655.721
778.135	702.973
782.706	676.382
787.275	629.6
791.841	662.085
796.404	604.126
800.965	515.848
805.523	505.94
810.079	399.563
814.632	354.696
819.182	365.108
823.73	341.772
828.275	257.224
832.818	357.792
837.358	396.736
841.895	354.787
846.43	264.866
850.962	177.95
855.491	260.102
860.018	245.266
864.543	233.466
869.064	258.698
873.583	290.958
878.1	98.6848
882.614	57.5549
887.125	32.8833
891.634	18.1858
896.14	15.377
900.644	4.62744
905.145	52.1728
909.644	15.1138
914.14	32.5261
918.633	37.1492
923.124	2.74292
927.612	39.7368
932.098	33.4656
936.581	44.6157
941.061	64.7158
945.539	26.6848
950.015	5.43945
954.487	64.7407
958.958	33.6128
963.425	11.7998
967.89	53.8901
972.353	98.9416
976.813	47.9309
981.271	115.851
985.726	134.696
990.178	93.4629
994.628	273.141
999.075	167.731
1003.52	184.23
1007.96	146.644
1012.4	171.005
1016.84	178.298
1021.27	133.508
1025.71	196.777
1030.13	252.997
1034.56	204.165
1038.99	203.507
1043.41	349.278
1047.83	390.39
1052.24	479.662
1056.66	697.659
1061.07	1106.55
1065.48	1463.95
1069.89	3353.58
1074.29	15741.8
1078.69	46550.8
1083.09	48611.7
1087.49	46753.9
1091.88	35740.7
1096.28	37954.6
1100.66	40673.4
1105.05	18115.2
1109.43	3979.91
1113.82	1029.77
1118.2	627.138
1122.57	538.746
1126.95	348.326
1131.32	209.853
1135.69	166.33
1140.05	108.502
1144.42	94.0073
1148.78	101.787
1153.14	87.1824
1157.5	80.5513
1161.85	53.8352
1166.2	50.2063
1170.55	56.6116
1174.9	18.0154
1179.24	22.0701
1183.58	119.419
1187.92	49.7424
1192.26	59.0596
1196.6	1.45728
1200.93	5.19043
1205.26	24.9658
1209.58	0.137939
1213.91	5.68481
1218.23	9.58398
1222.55	27.3921
1226.87	31.7598
1231.18	12.1021
1235.49	91.927
1239.8	48.9182
1244.11	6.11963
1248.41	73.8242
1252.72	31.7656
1257.02	80.7119
1261.32	1.66333
1265.61	25.6211
1269.9	49.5586
1274.19	32.4258
1278.48	68.2722
1282.77	5.09863
1287.05	88.8594
1291.33	68.594
1295.61	14.3296
1299.88	73.1575
1304.15	32.9622
1308.42	46.9016
1312.69	74.98
1316.96	89.7351
1321.22	24.3865
1325.48	92.0264
1329.74	180.022
1334	168.858
1338.25	183.677
1342.5	198.122
1346.75	163.472
1351	187.734
1355.24	147.953
1359.48	154.039
1363.72	249.294
1367.96	323.737
1372.19	374.632
1376.42	462.747
1380.65	595.723
1384.88	927.463
1389.11	1926.31
1393.33	3857.26
1397.55	5587.59
1401.76	4829.68
1405.98	3526.6
1410.19	2833.96
1414.4	2971.5
1418.61	3582.34
1422.82	4501.4
1427.02	5913.06
1431.22	7881.05
1435.42	6950.4
1439.61	4325.44
1443.81	2669.29
1448	1896.12
1452.18	1411.61
1456.37	1085.12
1460.56	738.904
1464.74	473.944
1468.92	422.239
1473.09	325.695
1477.27	249.306
1481.44	161.116
1485.61	133.284
1489.78	144.822
1493.94	102.679
1498.1	30.4302
1502.26	12.7056
1506.42	146.197
1510.58	124.179
1514.73	294.68
1518.88	254.736
1523.03	176.427
1527.17	182.841
1531.32	54.085
1535.46	105.496
1539.6	32.2266
1543.73	71.2056
1547.87	28.2686
1552	163.506
1556.13	21.0713
1560.26	101.031
