Measurement: Raman, 514 nm, ccw, Raman Data Processed
Mineral: Hydroxylbastnasite-(Ce)
Rruff sample: R060283
Ideal chemistry: CeCO_3_(OH)
Locality: Trimouns, Luzenac, France
Source: Herb Obodda
Description: Brown hexagonal tablet
Measured chemistry: (Ce_0.50_Nd_0.24_(La,Pr)_0.23_Y_0.03_)_Σ=1_CO_3_((OH)_0.65_F_0.35_)_Σ=1_
Pin_id: M00326
Orientation: Laser parallel to -c* (0 0 -1). Fiducial mark perpendicular to laser is parallel to a [1 0 0]
Raman shift (cm-1)	intensity
41.831	0
46.827	33.2209
51.819	114.756
56.809	179.219
61.795	261.303
66.779	378.894
71.76	600.663
76.738	430.92
81.713	235.998
86.685	73.6883
91.655	73.2884
96.621	167.079
101.585	81.2065
106.545	475.45
111.503	2214.95
116.458	6849.3
121.41	7655
126.36	6440.89
131.306	9133
136.25	10398.6
141.19	9714.32
146.128	8352.25
151.063	8847.81
155.995	10449.5
160.925	9464.14
165.851	7512.83
170.775	7682.45
175.695	9338.96
180.613	8960.28
185.528	8214.34
190.44	8837.33
195.35	9315.36
200.256	8573
205.16	6893
210.061	5075.97
214.959	4025.17
219.854	3738.83
224.747	4209.78
229.636	4513.16
234.523	4933.58
239.407	5103.8
244.288	5422.35
249.166	6385.42
254.042	7311.65
258.915	7684.99
263.784	6627.87
268.651	5166.2
273.516	3864.05
278.377	2947.97
283.236	2432.32
288.092	2221.95
292.945	2352.84
297.795	2685.98
302.642	3490.32
307.487	4520.78
312.329	5870.31
317.168	6720.83
322.004	7464.28
326.838	8241.61
331.668	9028.74
336.496	9304.6
341.321	9529.36
346.144	9375.54
350.963	8965.95
355.78	8223.69
360.594	7196.92
365.405	6358.01
370.214	5455.28
375.019	4891.3
379.822	4359.65
384.622	3798.23
389.42	3274.27
394.215	2982.32
399.006	2657.17
403.795	2386.09
408.582	2024.29
413.365	1684.55
418.146	1400.84
422.924	1126.09
427.7	914.27
432.472	646.328
437.242	622.219
442.009	474.896
446.774	422.315
451.535	445.029
456.294	385.201
461.05	336.582
465.804	237.536
470.554	196.021
475.302	79.9993
480.047	21.4311
484.79	60.7971
489.529	163.992
494.266	96.6851
499.001	104.939
503.732	156.837
508.461	207.822
513.187	174.228
517.911	147.123
522.631	182.442
527.349	104.266
532.065	58.2141
536.777	1.95312
541.487	61.5605
546.194	292.117
550.898	377.687
555.6	709.256
560.299	1085.44
564.995	1559.34
569.689	2009.69
574.38	2516.27
579.068	2718.65
583.754	2739.96
588.437	2726.18
593.117	2239.32
597.794	1975.36
602.469	1448.29
607.141	997.119
611.81	694.194
616.477	479.429
621.141	338.907
625.802	281.129
630.461	191.825
635.117	286.965
639.77	285.718
644.421	288.066
649.069	395.395
653.714	492.396
658.357	767.291
662.997	1292.25
667.634	1390.92
672.269	1241.78
676.901	1570.87
681.53	1851.47
686.157	2807.26
690.781	4286.53
695.402	4604.28
700.021	3409.38
704.637	2740.81
709.251	2155.56
713.861	1454.62
718.469	1304.99
723.075	1517.66
727.678	2026.66
732.278	1860.96
736.876	1575.59
741.47	1446.54
746.063	1500.81
750.652	1605.42
755.239	1570.38
759.824	1801.83
764.406	2333.17
768.985	2803.85
773.561	3302.17
778.135	3903.48
782.706	4322.47
787.275	4275.35
791.841	3964.87
796.404	3467.02
800.965	3005.26
805.523	2312.87
810.079	1720.32
814.632	1295.41
819.182	1023.84
823.73	840.942
828.275	706.047
832.818	668.301
837.358	891.162
841.895	1641.57
846.43	3146.06
850.962	3757.56
855.491	3208.1
860.018	2284.67
864.543	1715.24
869.064	2794.82
873.583	3307.39
878.1	1726.94
882.614	515.444
887.125	154.804
891.634	35.419
896.14	3.56592
900.644	33.9348
905.145	18.0632
909.644	1.62158
914.14	39.4497
918.633	33.2478
923.124	60.8113
927.612	35.949
932.098	41.2905
936.581	28.6296
941.061	15.1509
945.539	76.7527
950.015	20.4521
954.487	80.1184
958.958	31.1865
963.425	0.852051
967.89	41.855
972.353	127.406
976.813	167.513
981.271	177.197
985.726	294.495
990.178	285.384
994.628	218.982
999.075	304.153
1003.52	371.891
1007.96	326.194
1012.4	276.1
1016.84	186.578
1021.27	79.5752
1025.71	227.043
1030.13	155.867
1034.56	229.732
1038.99	276.149
1043.41	356.31
1047.83	457.527
1052.24	524.956
1056.66	775.771
1061.07	1184.19
1065.48	1376.82
1069.89	2326.3
1074.29	7988.9
1078.69	33535.4
1083.09	42689.4
1087.49	49261.1
1091.88	38700.6
1096.28	39319.8
1100.66	46433
1105.05	20420.2
1109.43	4584.5
1113.82	1262.52
1118.2	660.896
1122.57	490.994
1126.95	410.094
1131.32	336.272
1135.69	283.519
1140.05	227.34
1144.42	198.777
1148.78	249.466
1153.14	230.504
1157.5	133.42
1161.85	144.786
1166.2	147.662
1170.55	82.3455
1174.9	154.836
1179.24	104.182
1183.58	110.306
1187.92	66.2585
1192.26	93.0005
1196.6	109.68
1200.93	37.3696
1205.26	125.974
1209.58	85.6694
1213.91	7.48315
1218.23	48.4253
1222.55	32.5764
1226.87	20.2434
1231.18	20.9084
1235.49	13.3684
1239.8	96.6431
1244.11	9.26758
1248.41	19.5906
1252.72	44.3272
1257.02	112.414
1261.32	9.48901
1265.61	4.38208
1269.9	26.8745
1274.19	5.39404
1278.48	19.9421
1282.77	9.80542
1287.05	63.6309
1291.33	8.21289
1295.61	22.8831
1299.88	94.3152
1304.15	54.7566
1308.42	30.9619
1312.69	108.219
1316.96	43.0554
1321.22	106.17
1325.48	44.4727
1329.74	76.8328
1334	73.5945
1338.25	83.5266
1342.5	100.692
1346.75	86.0447
1351	119.912
1355.24	102.456
1359.48	61.9106
1363.72	85.9204
1367.96	98.5862
1372.19	141.632
1376.42	247.148
1380.65	232.698
1384.88	285.259
1389.11	607.005
1393.33	1283.66
1397.55	2110.89
1401.76	2440.36
1405.98	2746.37
1410.19	3250.76
1414.4	3387.03
1418.61	3316.6
1422.82	3025.53
1427.02	2899.28
1431.22	2735.57
1435.42	2719.74
1439.61	2384.59
1443.81	1865.32
1448	1246.12
1452.18	1037
1456.37	816.933
1460.56	849.054
1464.74	1038.49
1468.92	1356.12
1473.09	1393.07
1477.27	1479.53
1481.44	1167.29
1485.61	891.51
1489.78	490.993
1493.94	304.275
1498.1	220.817
1502.26	87.406
1506.42	70.3088
1510.58	90.8276
1514.73	134.071
1518.88	72.136
1523.03	105.11
1527.17	123.103
1531.32	73.2432
1535.46	59.821
1539.6	82.2881
1543.73	24.1245
1547.87	77.0701
1552	68.3975
1556.13	62.1257
1560.26	74.7615
