Measurement: Raman, 514 nm, ccw, Raman Data Processed
Mineral: Ilvaite
Rruff sample: R050040
Ideal chemistry: CaFe^2+^_2_Fe^3+^OSi_2_O_7_(OH)
Locality: Capo Calamita, Isle of Elba, Italy
Source: University of Arizona Mineral Museum
Description: Brown fragment
Measured chemistry: Ca_1.00_(Fe^2+^_1.89_Mn_0.10_Mg_0.01_)_Î£=2_Fe^3+^_1.00_OSi_2.00_O_7_(OH); trace amounts of Al; OH estimated by charge balance
Pin_id: M00123
Orientation: Laser parallel to (1 0 1). Fiducial mark perpendicular to laser is parallel to b [0 1 0]
Raman shift (cm-1)	intensity
159.692	0
164.62	1167.07
169.544	1732.86
174.465	1898.81
179.384	2167.7
184.3	2397.68
189.213	3358.41
194.123	4804.9
199.03	4774.89
203.934	4474.02
208.836	1048.28
213.735	1391.47
218.631	393.074
223.524	304.519
228.414	350.805
233.302	626.285
238.186	275.09
243.068	193.836
247.947	113.898
252.823	312.051
257.697	807.422
262.567	1331.38
267.435	2574.39
272.3	3529.07
277.162	4515.69
282.021	4381.96
286.878	2907.35
291.732	1546
296.583	564.859
301.431	53.1211
306.276	133.695
311.119	256.035
315.958	622.156
320.795	1864.18
325.629	3398.8
330.461	4499.59
335.289	4668.11
340.115	4350.88
344.938	3538.57
349.759	2234.06
354.576	1178.84
359.391	895.805
364.203	1059.29
369.012	129.703
373.818	172.535
378.622	129.039
383.423	38.293
388.221	237.656
393.016	26.957
397.809	442.082
402.598	168.551
407.386	651.234
412.17	819.836
416.951	1012.78
421.73	1442.01
426.506	1942.1
431.279	1910.4
436.05	2028.94
440.818	2017.87
445.583	2026.52
450.345	2097.31
455.105	2000.47
459.861	2281.97
464.615	2352.28
469.367	2800.04
474.115	3047.99
478.861	3255.34
483.604	3699.39
488.345	3714.64
493.082	4395.43
497.817	5436.48
502.55	5673.51
507.279	5261.23
512.006	5070.71
516.73	5297.57
521.451	5191.86
526.17	5634.75
530.886	4820.72
535.599	4564.54
540.31	4477.88
545.017	4335.22
549.723	3883.04
554.425	3536.21
559.125	3572.21
563.822	3450.04
568.516	3222.48
573.207	2775.11
577.896	2587.3
582.583	1858.82
587.266	1631.87
591.947	1087.32
596.625	825.305
601.3	700.66
605.973	730.281
610.643	679.758
615.311	462.051
619.975	770.832
624.637	169.152
629.297	438.539
633.953	370.246
638.607	485.562
643.259	104.652
647.907	162.648
652.553	2.96484
657.197	181.66
661.837	212.891
666.475	17.543
671.111	57.3242
675.743	29.4414
680.373	288.07
685.001	331.512
689.625	445.871
694.247	1134.12
698.867	1812.53
703.483	2409.31
708.097	2168.93
712.709	1006.02
717.318	282.695
721.924	41.7773
726.527	19.9961
731.128	144.609
735.726	186.102
740.322	15.3516
744.915	79.1133
749.505	54.3125
754.093	86.3516
758.678	215.711
763.26	47.8945
767.84	58.0156
772.417	29.5391
776.992	112.691
781.564	116.934
786.133	89.9375
790.7	8.54297
795.264	28.8633
799.825	148.551
804.384	602.426
808.94	361.402
813.494	496.898
818.045	955.578
822.593	907.34
827.139	481.723
831.682	470.934
836.223	13.582
840.761	418.457
845.296	304.027
849.829	410.18
854.359	557.121
858.887	563.293
863.412	720.562
867.934	811.711
872.454	859.438
876.971	1118.8
881.486	1162.32
885.998	1534.65
890.507	1265.41
895.014	1686.98
899.518	916.496
904.02	1071.69
908.519	664.586
913.016	1038.1
917.51	1110.2
922.001	1281.75
926.49	960.91
930.976	1160.45
935.46	1013.83
939.941	1019.47
944.42	989.633
948.896	943.027
953.369	899.707
957.84	1222.38
962.309	1674.14
966.774	2007.94
971.238	2713.81
975.698	3185.77
980.156	3477.84
984.612	3518.06
989.065	3453.44
993.516	3647.04
997.964	3212.25
1002.41	2910.98
1006.85	2670.08
1011.29	2177.57
1015.73	2387.72
1020.16	2600.65
1024.6	2234.55
1029.03	2245.91
1033.46	2493.29
1037.88	2681.77
1042.3	2771.42
1046.72	2566.85
1051.14	2636.8
1055.56	2756.97
1059.97	2843.57
1064.38	2371.52
1068.79	2746.77
1073.19	2477.94
1077.59	2233.45
1081.99	2105.02
1086.39	2158.12
1090.79	2243.2
1095.18	1955.66
1099.57	1914.75
1103.95	1794.81
1108.34	1879.46
1112.72	1518.44
1117.1	1379.58
1121.48	1170.49
1125.85	1132.15
1130.23	850.152
1134.6	762.019
1138.96	609.144
1143.33	184.637
1147.69	274.391
1152.05	178.785
1156.41	107.812
1160.76	82.3047
1165.11	152.859
1169.46	97.9102
1173.81	108.582
1178.16	150.898
1182.5	233.637
1186.84	92.7969
1191.18	55.1953
1195.51	92.5195
1199.84	22.1445
1204.17	156.551
1208.5	231.664
1212.83	194.156
1217.15	168.125
1221.47	47.9883
1225.79	205.625
1230.1	477.113
1234.41	213.867
1238.73	254.348
1243.03	186.352
1247.34	268.375
1251.64	402.387
1255.94	207.887
1260.24	147.035
1264.54	145.066
1268.83	300.176
1273.12	250.742
1277.41	50.9648
1281.69	113.316
1285.98	457.359
1290.26	30.9258
1294.54	296.922
1298.81	383.938
1303.09	411.543
1307.36	502.223
1311.63	480.273
1315.89	497.984
1320.16	567.106
1324.42	331.789
1328.68	652.559
1332.93	602.449
1337.19	442.922
1341.44	410.398
1345.69	540.93
1349.94	507.742
1354.18	397.481
1358.42	331.793
1362.66	287.613
1366.9	460.887
1371.13	551.965
1375.37	385.797
1379.6	586.781
1383.82	417.668
1388.05	492.785
1392.27	314.633
1396.49	446.43
1400.71	599.269
1404.92	444.453
1409.14	460.652
1413.35	293.551
1417.56	566.945
1421.76	1.25
1425.97	58.4844
1430.17	306.824
1434.37	325.059
1438.56	777.324
1442.76	293.027
1446.95	378.051
1451.14	392.113
1455.33	334.898
1459.51	486.695
1463.69	187.141
1467.87	425.977
1472.05	179.188
1476.22	389.402
1480.4	378.227
1484.57	432.172
1488.73	48.8672
1492.9	381.57
1497.06	81.7266
1501.22	224.312
1505.38	470.18
1509.54	10.0156
1513.69	209.152
1517.84	274.598
1521.99	547.754
1526.14	344.078
1530.28	107.43
1534.42	191.047
1538.56	437.606
1542.7	206.125
1546.83	320.527
1550.97	415.867
1555.1	221.438
1559.22	438.106
1563.35	343.766
1567.47	7.70312
