Measurement: Raman, 514 nm, ccw, Raman Data Processed
Mineral: Ilvaite
Rruff sample: R050040
Ideal chemistry: CaFe^2+^_2_Fe^3+^OSi_2_O_7_(OH)
Locality: Capo Calamita, Isle of Elba, Italy
Source: University of Arizona Mineral Museum
Description: Brown fragment
Measured chemistry: Ca_1.00_(Fe^2+^_1.89_Mn_0.10_Mg_0.01_)_Î£=2_Fe^3+^_1.00_OSi_2.00_O_7_(OH); trace amounts of Al; OH estimated by charge balance
Pin_id: M00410
Orientation: Laser parallel to b* (0 1 0). Fiducial mark perpendicular to laser is parallel to c [0 0 1]
Raman shift (cm-1)	intensity
127.596	0
132.542	218.328
137.485	1245.44
142.425	628.031
147.362	1449.49
152.296	1952.2
157.228	2582.92
162.156	2299.91
167.082	2693.58
172.005	2800.77
176.925	3817.59
181.842	4070.62
186.757	5176.12
191.668	5994.37
196.577	6002.19
201.483	6194.52
206.386	1354.85
211.286	840.969
216.183	355.164
221.078	130.266
225.969	58.1172
230.858	192.133
235.744	93.1367
240.628	29.3281
245.508	228.508
250.386	221.371
255.26	283.801
260.132	567.883
265.001	1115.83
269.868	1444.81
274.731	2097.85
279.592	2377.73
284.45	1992.04
289.305	1181.59
294.157	537.344
299.007	245.766
303.854	214.238
308.698	1083.22
313.539	818.719
318.377	1365.82
323.213	2003.98
328.046	2953.31
332.876	2813.77
337.703	3040.02
342.527	2418.88
347.349	1709.13
352.168	1660.23
356.984	950.379
361.797	668.039
366.608	579.367
371.415	259.562
376.22	336.68
381.023	109.981
385.822	133.391
390.619	57.0234
395.413	183.953
400.204	131.961
404.992	324.144
409.778	542.734
414.561	662.867
419.341	627.312
424.118	890.16
428.893	1170.9
433.665	1034.99
438.434	1141.48
443.201	1102.3
447.964	1079.48
452.725	1395.8
457.483	1388.03
462.239	1572.51
466.991	1551.8
471.741	1829.13
476.489	1869.32
481.233	2424.39
485.975	2402.19
490.714	2676.67
495.45	2881.81
500.184	3432.18
504.915	3603.75
509.643	3413.78
514.368	3348.57
519.091	3219.69
523.811	3387.45
528.528	3106.55
533.243	3301.82
537.955	2917.88
542.664	2959.15
547.37	3006.45
552.074	2677.24
556.775	2852.33
561.473	2637.45
566.169	2465.02
570.862	2275.45
575.552	2169.79
580.24	1451.54
584.925	1134.02
589.607	986.016
594.286	419.871
598.963	365.188
603.637	430.18
608.309	498.91
612.977	570.918
617.643	415.836
622.307	324.008
626.967	349.762
631.625	397.527
636.281	484.684
640.933	67.5117
645.583	170.66
650.231	147.438
654.875	129.598
659.517	6.28906
664.157	114.32
668.793	99.8125
673.427	145.496
678.059	112.246
682.687	233.758
687.313	382.75
691.937	525.188
696.557	477.18
701.175	1041.73
705.791	1099.87
710.403	545.539
715.014	257.758
719.621	209.523
724.226	46.2188
728.828	33.0547
733.428	27.7461
738.025	11.8633
742.619	91.0977
747.21	188.953
751.799	12.1914
756.386	188.106
760.969	347.258
765.551	94.1484
770.129	293.481
774.705	2.34375
779.278	163.402
783.849	69.125
788.417	166.707
792.982	148.414
797.545	118.602
802.105	113.828
806.663	364.902
811.217	406.336
815.77	264.441
820.319	478.805
824.867	232.934
829.411	498.617
833.953	267.512
838.492	85.7695
843.029	155.672
847.563	250.984
852.094	273.18
856.623	313.938
861.15	92.2188
865.673	605.777
870.194	447.32
874.713	506.242
879.229	431.828
883.742	685.602
888.253	492.68
892.761	592.297
897.267	625.031
901.77	737.301
906.27	661.715
910.768	456.09
915.263	446.652
919.756	825.672
924.246	697.719
928.734	752.078
933.219	740.894
937.701	475.637
942.181	258.973
946.658	712.465
951.133	453.844
955.605	634.918
960.075	636.769
964.542	794.422
969.006	866.668
973.468	997.617
977.928	1078.3
982.385	1335.55
986.839	1217.84
991.291	956.113
995.74	1091.23
1000.19	1070.24
1004.63	1067.27
1009.07	677.769
1013.51	932.043
1017.95	628.852
1022.38	713.609
1026.81	501.051
1031.24	407.586
1035.67	565.434
1040.09	740.246
1044.51	608.137
1048.93	674.758
1053.35	537.641
1057.76	742.918
1062.17	711.902
1066.58	634.891
1070.99	823.184
1075.39	773.012
1079.79	930.18
1084.19	624.305
1088.59	674.387
1092.98	719.941
1097.37	709.418
1101.76	542.41
1106.15	604.488
1110.53	585.398
1114.91	532.551
1119.29	651.375
1123.67	744.832
1128.04	423.078
1132.41	241.633
1136.78	263.262
1141.15	339.168
1145.51	44.5117
1149.87	259.777
1154.23	274.277
1158.59	236.062
1162.94	273.273
1167.29	54.1602
1171.64	92.0977
1175.98	86.9336
1180.33	96.9219
1184.67	38.1953
1189.01	351.648
1193.34	106.394
1197.68	99.1016
1202.01	21.3828
1206.34	17.0977
1210.66	78.2383
1214.99	163.746
1219.31	219.281
1223.63	66.9883
1227.94	122.305
1232.26	60.418
1236.57	30.0273
1240.88	222.25
1245.19	69.0938
1249.49	244.769
1253.79	248.125
1258.09	65.168
1262.39	122.68
1266.68	86.6641
1270.97	416.609
1275.26	27.4531
1279.55	213.762
1283.84	200.363
1288.12	42.1211
1292.4	278.481
1296.67	357.981
1300.95	454.59
1305.22	158.543
1309.49	510.062
1313.76	484.75
1318.03	286.492
1322.29	379.574
1326.55	508.023
1330.81	430.133
1335.06	583.144
1339.31	255.891
1343.56	366.461
1347.81	476.769
1352.06	199.383
1356.3	441.734
1360.54	425.043
1364.78	139.445
1369.02	444.766
1373.25	425.457
1377.48	361.746
1381.71	491.695
1385.94	401.938
1390.16	507.742
1394.38	111.473
1398.6	326.75
1402.82	357.312
1407.03	439.66
1411.24	308.883
1415.45	380.805
1419.66	321.242
1423.87	280.816
1428.07	301.977
1432.27	404.387
1436.46	627.816
1440.66	394.594
1444.85	392.824
1449.04	446.371
1453.23	501.902
1457.42	324.41
1461.6	427.289
1465.78	440.504
1469.96	669.055
1474.14	570.07
1478.31	114.027
1482.48	355.191
1486.65	340.336
1490.82	134.285
1494.98	413.359
1499.14	348.656
1503.3	304.125
1507.46	67.8672
1511.61	160.965
1515.77	436.68
1519.92	80.4336
1524.06	346.144
1528.21	318.164
1532.35	478.781
1536.49	5.49219
1540.63	55.6172
1544.77	297.984
1548.9	335.375
1553.03	371.066
1557.16	124.625
1561.29	338.43
1565.41	47.9219
1569.53	0.277344
