Measurement: Raman, 514 nm, ccw, Raman Data Processed
Mineral: Ilvaite
Rruff sample: R050040
Ideal chemistry: CaFe^2+^_2_Fe^3+^OSi_2_O_7_(OH)
Locality: Capo Calamita, Isle of Elba, Italy
Source: University of Arizona Mineral Museum
Description: Brown fragment
Measured chemistry: Ca_1.00_(Fe^2+^_1.89_Mn_0.10_Mg_0.01_)_Î£=2_Fe^3+^_1.00_OSi_2.00_O_7_(OH); trace amounts of Al; OH estimated by charge balance
Pin_id: M00423
Orientation: Laser parallel to -c* (0 0 -1). Fiducial mark perpendicular to laser is parallel to a [1 0 0]
Raman shift (cm-1)	intensity
143.66	0
148.596	289.894
153.53	353.484
158.46	232.144
163.388	1538.36
168.313	2175.79
173.235	1976.72
178.155	1414.09
183.071	1271.41
187.985	2250.38
192.896	3896.26
197.803	5827.74
202.709	5905.17
207.611	2059.75
212.51	2818.61
217.407	2863.03
222.301	3265.13
227.192	2981.75
232.08	1799.59
236.965	925.856
241.848	322.481
246.728	110.512
251.604	15.6523
256.479	238.93
261.35	67.9766
266.218	91.707
271.084	116.469
275.947	162
280.807	187.777
285.664	38.957
290.518	155.766
295.37	200.004
300.219	517.965
305.065	499.227
309.908	419.945
314.749	822.672
319.586	1388.82
324.421	2455.68
329.253	2939.82
334.083	2888.07
338.909	2391.91
343.733	1844.49
348.554	1212.96
353.372	1136.46
358.187	989.262
363	1130.19
367.81	590.562
372.617	554.981
377.421	458.359
382.223	535.731
387.022	515.844
391.818	231.875
396.611	230.203
401.401	437.242
406.189	362.508
410.974	816.199
415.756	591.012
420.536	761.902
425.312	1075.75
430.086	1310.86
434.858	1298.12
439.626	995.863
444.392	1342.08
449.155	1093.46
453.915	1253.57
458.672	1222.52
463.427	1656.18
468.179	1649.71
472.928	1911.24
477.675	2499.73
482.419	2773.98
487.16	3383.37
491.898	4541.91
496.634	5481.67
501.367	6257.71
506.097	6032.17
510.825	5401.03
515.549	5069.9
520.271	5172.38
524.991	5171.09
529.707	5303.75
534.421	4971.57
539.132	4662.5
543.841	4486.53
548.547	4081.59
553.25	3692.14
557.95	3361.77
562.648	3040.52
567.343	3237.23
572.035	2966.84
576.724	3309.24
581.411	3655.34
586.095	2371.47
590.777	1853.88
595.456	1123.43
600.132	773.527
604.805	625.273
609.476	618.207
614.144	493.207
618.809	106.398
623.472	16.3555
628.132	450.484
632.789	168.379
637.444	151.633
642.096	287.352
646.745	186.07
651.392	242.816
656.036	383.051
660.677	57.5508
665.316	8.75781
669.952	95.4844
674.585	203.664
679.216	585.508
683.844	350.957
688.469	555.969
693.092	1367.5
697.712	2381.52
702.329	3723
706.944	3219.92
711.556	1778.24
716.166	634.953
720.773	178.023
725.377	12.4336
729.978	217.109
734.577	36.0195
739.173	110.578
743.767	37.0469
748.358	42.5977
752.946	152.074
757.532	163.969
762.115	58.7852
766.695	257.457
771.273	124.859
775.848	206.906
780.421	253.812
784.991	183.699
789.558	336.629
794.123	144.106
798.685	530.805
803.245	559.867
807.802	915.969
812.356	1188.79
816.907	2081.01
821.456	1799.65
826.003	1422.74
830.547	806.301
835.088	875.695
839.627	394.941
844.163	430.074
848.696	613.789
853.227	840.797
857.755	901.019
862.281	1093.7
866.804	924.375
871.324	927.094
875.842	1066.15
880.357	875.789
884.87	837.312
889.38	939.629
893.888	676.234
898.393	637.098
902.895	506.344
907.395	378.688
911.892	720.055
916.387	635.996
920.879	875.121
925.368	1408.48
929.855	1291.06
934.339	1469.66
938.821	1222.89
943.301	1331.82
947.777	1156.45
952.251	1197.93
956.723	1327.21
961.192	1410.16
965.658	2000.11
970.122	2341.1
974.583	3319.14
979.042	3891.91
983.498	4007.37
987.952	3644.55
992.403	3187.46
996.852	1981.1
1001.3	1486.49
1005.74	1166.73
1010.18	1021.15
1014.62	635.926
1019.06	620.016
1023.49	494.629
1027.92	644.055
1032.35	831.856
1036.78	819.863
1041.2	901.637
1045.62	1045.32
1050.04	801.856
1054.45	1089.05
1058.87	1043.19
1063.28	859.434
1067.68	1067.1
1072.09	1115.14
1076.49	687.438
1080.89	1153.19
1085.29	585.297
1089.69	856.441
1094.08	924.973
1098.47	809.66
1102.86	841.805
1107.24	618.586
1111.63	654.504
1116.01	605.086
1120.38	763.019
1124.76	604.051
1129.13	658.625
1133.5	443.602
1137.87	569.664
1142.24	239.496
1146.6	392.273
1150.96	252.238
1155.32	241.457
1159.67	185.637
1164.03	248.328
1168.38	182.144
1172.72	253.957
1177.07	80.5742
1181.41	68.6758
1185.75	340.562
1190.09	16.9922
1194.43	197.269
1198.76	29.2617
1203.09	71.0586
1207.42	188.234
1211.75	233.828
1216.07	98.2188
1220.39	271.606
1224.71	40.6523
1229.02	34.9727
1233.34	171.637
1237.65	76.9297
1241.96	171.922
1246.26	282.781
1250.57	15.207
1254.87	374.336
1259.17	186.738
1263.46	305.977
1267.76	345.848
1272.05	162.609
1276.34	203.898
1280.62	512.547
1284.91	46.6055
1289.19	240.676
1293.47	218.816
1297.74	183.039
1302.02	246.547
1306.29	423.383
1310.56	121.062
1314.83	218.652
1319.09	491.066
1323.35	369.402
1327.61	245.023
1331.87	486.445
1336.12	248.75
1340.38	211.676
1344.63	518.324
1348.87	251.391
1353.12	88.5898
1357.36	367.824
1361.6	253.516
1365.84	228.531
1370.08	65.3281
1374.31	212.832
1378.54	162.262
1382.77	551.238
1386.99	143.191
1391.22	549.047
1395.44	262.863
1399.66	359.672
1403.87	297.379
1408.09	208.281
1412.3	362.828
1416.51	333.477
1420.71	259.223
1424.92	527.199
1429.12	299.613
1433.32	329.262
1437.51	451.508
1441.71	490.223
1445.9	274.906
1450.09	330.289
1454.28	298.894
1458.46	477.426
1462.65	333.691
1466.83	410.262
1471	218.336
1475.18	367.348
1479.35	70.6328
1483.52	376.656
1487.69	98.207
1491.86	87.4805
1496.02	136.863
1500.18	413.547
1504.34	134.34
1508.5	62.1992
1512.65	179.301
1516.8	8.45703
1520.95	46.5742
1525.1	337.836
1529.24	218.391
1533.39	219.773
1537.53	85.6055
1541.66	237.543
1545.8	371.879
1549.93	287.223
1554.06	80.3203
1558.19	241.473
1562.32	254.41
1566.44	257.539
1570.56	0
