Measurement: Raman, 514 nm, ccw, Raman Data Processed
Mineral: Ilvaite
Rruff sample: R050040
Ideal chemistry: CaFe^2+^_2_Fe^3+^OSi_2_O_7_(OH)
Locality: Capo Calamita, Isle of Elba, Italy
Source: University of Arizona Mineral Museum
Description: Brown fragment
Measured chemistry: Ca_1.00_(Fe^2+^_1.89_Mn_0.10_Mg_0.01_)_Î£=2_Fe^3+^_1.00_OSi_2.00_O_7_(OH); trace amounts of Al; OH estimated by charge balance
Pin_id: M00376
Orientation: Laser parallel to -a* (-1 0 0). Fiducial mark perpendicular to laser is parallel to -b [0 -1 0]
Raman shift (cm-1)	intensity
144.894	0
149.83	3.10156
154.762	582.945
159.692	1078.03
164.62	1766.78
169.544	2592.34
174.465	2679.92
179.384	3894.2
184.3	4930.27
189.213	6344.47
194.123	8200.84
199.03	9726.24
203.934	7059.56
208.836	3804.93
213.735	2938.48
218.631	1012.73
223.524	414.555
228.414	113.758
233.302	362.254
238.186	40.3711
243.068	37.0664
247.947	337.902
252.823	282.18
257.697	28.4805
262.567	103.82
267.435	495.766
272.3	1201.23
277.162	1897.21
282.021	1408.5
286.878	1436.04
291.732	536.848
296.583	342.348
301.431	410.781
306.276	614.738
311.119	872.965
315.958	1190.98
320.795	2367.97
325.629	3689.23
330.461	4770.64
335.289	4340.27
340.115	3320.36
344.938	2206.21
349.759	1706.7
354.576	1661.22
359.391	1581.34
364.203	1507.7
369.012	947.031
373.818	559.883
378.622	116.019
383.423	346.648
388.221	203.394
393.016	48.8984
397.809	134.363
402.598	36.125
407.386	311.852
412.17	393.082
416.951	386.027
421.73	1024.09
426.506	1389.44
431.279	1512.32
436.05	1511.7
440.818	1168.06
445.583	1320.75
450.345	1776.36
455.105	1471.79
459.861	1804.53
464.615	1529.12
469.367	1729.71
474.115	2102.34
478.861	2567.34
483.604	3093.94
488.345	3958.53
493.082	5070.31
497.817	6237.88
502.55	6814.87
507.279	6154.42
512.006	5787.45
516.73	5226.93
521.451	5086.36
526.17	5199.52
530.886	5195.43
535.599	4959.72
540.31	4808.64
545.017	4620.91
549.723	4420.53
554.425	4186.66
559.125	3641.04
563.822	3158.49
568.516	3110.46
573.207	3012
577.896	3159.19
582.583	2924.42
587.266	2552.69
591.947	1774.07
596.625	1066.33
601.3	1157.53
605.973	809.707
610.643	542.336
615.311	348.414
619.975	805.871
624.637	249.094
629.297	449.656
633.953	547.742
638.607	296.488
643.259	538.816
647.907	202.809
652.553	244.312
657.197	35.0586
661.837	61.4062
666.475	65.1094
671.111	190.449
675.743	61.9453
680.373	65.1758
685.001	262.43
689.625	549.785
694.247	1186.24
698.867	1703.78
703.483	2353.37
708.097	1387
712.709	669.691
717.318	344.438
721.924	154.941
726.527	67.0312
731.128	139.144
735.726	35.3008
740.322	35.8281
744.915	66.6836
749.505	169.094
754.093	14.6797
758.678	87.2773
763.26	39.3398
767.84	47.9023
772.417	98.0781
776.992	267.473
781.564	151.461
786.133	301.773
790.7	365.023
795.264	620.762
799.825	573.066
804.384	750.125
808.94	931.766
813.494	1659.27
818.045	1872.69
822.593	1409.69
827.139	921.504
831.682	683.269
836.223	516.922
840.761	672.223
845.296	780.992
849.829	777.914
854.359	1028.58
858.887	1284.57
863.412	1175.25
867.934	956.691
872.454	1065.11
876.971	1157.04
881.486	1250.22
885.998	1291.88
890.507	1059.26
895.014	1104
899.518	1067.69
904.02	1077.78
908.519	741.922
913.016	819.66
917.51	894.984
922.001	613.269
926.49	817.461
930.976	844.434
935.46	1186.66
939.941	941.449
944.42	966.727
948.896	795.277
953.369	1049.16
957.84	1004.4
962.309	1319.84
966.774	1184.55
971.238	2226.37
975.698	2547.25
980.156	3538.12
984.612	3495.55
989.065	2971.3
993.516	2330.66
997.964	1455.42
1002.41	1259.09
1006.85	633.332
1011.29	612.602
1015.73	775.988
1020.16	744.348
1024.6	759.812
1029.03	572.504
1033.46	455.57
1037.88	689.609
1042.3	684.16
1046.72	809.945
1051.14	913.793
1055.56	1055.63
1059.97	705.988
1064.38	693.332
1068.79	1013.25
1073.19	809.09
1077.59	963.32
1081.99	742.09
1086.39	762.945
1090.79	694.211
1095.18	693.414
1099.57	905.156
1103.95	757.797
1108.34	693.562
1112.72	498.594
1117.1	677.445
1121.48	705.606
1125.85	748.727
1130.23	425.898
1134.6	496.086
1138.96	207.664
1143.33	426.512
1147.69	133.695
1152.05	297.312
1156.41	57.5508
1160.76	59.6875
1165.11	112.906
1169.46	79.375
1173.81	165.496
1178.16	275.32
1182.5	326.055
1186.84	113.356
1191.18	133.812
1195.51	153.781
1199.84	39.9609
1204.17	2.26562
1208.5	200.238
1212.83	131.559
1217.15	248.098
1221.47	39.0195
1225.79	9.66016
1230.1	313.656
1234.41	40.3828
1238.73	283.519
1243.03	234.144
1247.34	41.0469
1251.64	257.402
1255.94	183.293
1260.24	8.42969
1264.54	211.027
1268.83	199.738
1273.12	131.445
1277.41	329.016
1281.69	396.742
1285.98	338.004
1290.26	18.0039
1294.54	184.039
1298.81	503.766
1303.09	395.691
1307.36	640.18
1311.63	577.031
1315.89	381.394
1320.16	622.387
1324.42	674.902
1328.68	196.215
1332.93	685.672
1337.19	573.793
1341.44	687.047
1345.69	259.977
1349.94	424.547
1354.18	568.469
1358.42	659.473
1362.66	489.859
1366.9	357.988
1371.13	416.738
1375.37	904.59
1379.6	821.231
1383.82	175.152
1388.05	379.594
1392.27	464.121
1396.49	255.738
1400.71	526.984
1404.92	324.316
1409.14	359.211
1413.35	339.031
1417.56	449.68
1421.76	624.629
1425.97	112.359
1430.17	553.562
1434.37	381.519
1438.56	475.883
1442.76	178.012
1446.95	416.234
1451.14	656.133
1455.33	189.644
1459.51	466.461
1463.69	383.992
1467.87	460.242
1472.05	227.836
1476.22	349.988
1480.4	750.562
1484.57	345.496
1488.73	591.539
1492.9	272.731
1497.06	166.078
1501.22	263.859
1505.38	460.406
1509.54	244.969
1513.69	453.289
1517.84	212.613
1521.99	238.734
1526.14	649.781
1530.28	376.742
1534.42	1.40625
