Measurement: Raman, 514 nm, ccw, Raman Data Processed
Mineral: Ilvaite
Rruff sample: R050040
Ideal chemistry: CaFe^2+^_2_Fe^3+^OSi_2_O_7_(OH)
Locality: Capo Calamita, Isle of Elba, Italy
Source: University of Arizona Mineral Museum
Description: Brown fragment
Measured chemistry: Ca_1.00_(Fe^2+^_1.89_Mn_0.10_Mg_0.01_)_Î£=2_Fe^3+^_1.00_OSi_2.00_O_7_(OH); trace amounts of Al; OH estimated by charge balance
Pin_id: M00423
Orientation: Laser parallel to -c* (0 0 -1). Fiducial mark perpendicular to laser is parallel to a [1 0 0]
Raman shift (cm-1)	intensity
148.596	0
153.53	793.844
158.46	224.797
163.388	395.383
168.313	1271.87
173.235	733.094
178.155	899.199
183.071	1146.22
187.985	2846.6
192.896	5418.24
197.803	8435.55
202.709	6460.64
207.611	1160.46
212.51	309.934
217.407	199.352
222.301	79.5742
227.192	142.496
232.08	258.375
236.965	398.781
241.848	68.3438
246.728	213.922
251.604	398.066
256.479	568.922
261.35	870.168
266.218	1443.33
271.084	1876.47
275.947	2250.3
280.807	1796.51
285.664	1285.73
290.518	1275.99
295.37	1413.78
300.219	1640.68
305.065	1570.88
309.908	1754.19
314.749	2652.75
319.586	3749.13
324.421	5879.27
329.253	8211.21
334.083	8309.9
338.909	7169.9
343.733	4876.72
348.554	3372.95
353.372	2675.95
358.187	2324.61
363	1874.68
367.81	1214.32
372.617	561.688
377.421	525.594
382.223	286.106
387.022	280.59
391.818	230.019
396.611	17.1016
401.401	153.762
406.189	186.559
410.974	382.164
415.756	595.231
420.536	1142.79
425.312	1652.82
430.086	2787.43
434.858	2145.55
439.626	1328.15
444.392	1421.43
449.155	997.254
453.915	1092.72
458.672	1391.06
463.427	1320.84
468.179	1324.07
472.928	2009.93
477.675	2179.28
482.419	2807.77
487.16	3870.6
491.898	4921.68
496.634	7011.91
501.367	7994.82
506.097	7853.94
510.825	6827.8
515.549	6335.71
520.271	6074.55
524.991	5871.87
529.707	5845.9
534.421	5911.74
539.132	5559.73
543.841	5116.83
548.547	4788.2
553.25	4283.65
557.95	3834.12
562.648	3620.6
567.343	3507.02
572.035	3577.37
576.724	4024.58
581.411	4971.62
586.095	4495.44
590.777	3584.04
595.456	2546.82
600.132	2045.62
604.805	1712.46
609.476	1199.59
614.144	894.281
618.809	465.477
623.472	352.457
628.132	152.203
632.789	309.5
637.444	303.617
642.096	354.438
646.745	57.1094
651.392	280.894
656.036	120.969
660.677	14.3008
665.316	213.008
669.952	220.117
674.585	90.7656
679.216	547.074
683.844	267.863
688.469	714.066
693.092	1386.61
697.712	2687.45
702.329	4354.56
706.944	4589.92
711.556	2564.49
716.166	1284.26
720.773	730.195
725.377	311.277
729.978	251.484
734.577	171.676
739.173	41.3398
743.767	168.039
748.358	260.352
752.946	238.32
757.532	60.582
762.115	56.4883
766.695	47.6367
771.273	152.535
775.848	174.394
780.421	217.883
784.991	63.1094
789.558	166.012
794.123	268.945
798.685	674.516
803.245	1130.68
807.802	2007.59
812.356	2865.71
816.907	3910.43
821.456	4039.41
826.003	2829.64
830.547	1908.17
835.088	1059.04
839.627	1172.27
844.163	1338.91
848.696	1886.99
853.227	1927.54
857.755	2400.6
862.281	2195.2
866.804	1866.38
871.324	1849.7
875.842	1498.14
880.357	1327.94
884.87	1198.58
889.38	1068.82
893.888	831.648
898.393	965.742
902.895	785.934
907.395	905.883
911.892	986.438
916.387	960.742
920.879	1200.55
925.368	1566.94
929.855	1824.37
934.339	1874.54
938.821	1823.54
943.301	1944.38
947.777	1693.12
952.251	2030.63
956.723	2193.89
961.192	2348.93
965.658	2715.25
970.122	3265.8
974.583	4330.74
979.042	5761
983.498	6023.16
987.952	5463.2
992.403	4263.15
996.852	2832.99
1001.3	2070.72
1005.74	1601.41
1010.18	1379.96
1014.62	1285.05
1019.06	1138.84
1023.49	789.652
1027.92	852.941
1032.35	793.699
1036.78	749.473
1041.2	767.727
1045.62	748.863
1050.04	672.152
1054.45	851.488
1058.87	902.914
1063.28	861.684
1067.68	856.066
1072.09	827.539
1076.49	807.379
1080.89	791.867
1085.29	775.914
1089.69	615.914
1094.08	632.156
1098.47	607.445
1102.86	776.074
1107.24	721.602
1111.63	754.398
1116.01	327.164
1120.38	788.102
1124.76	563.449
1129.13	334.195
1133.5	264.305
1137.87	369.629
1142.24	458.523
1146.6	403.055
1150.96	253.703
1155.32	192.199
1159.67	155.481
1164.03	61.3125
1168.38	102.438
1172.72	36.3125
1177.07	211.348
1181.41	179.051
1185.75	159.297
1190.09	69.6367
1194.43	208.215
1198.76	84.2461
1203.09	49.043
1207.42	171.496
1211.75	69.875
1216.07	198.371
1220.39	45.5781
1224.71	144.426
1229.02	12.6562
1233.34	200.41
1237.65	14.9453
1241.96	382.434
1246.26	364.344
1250.57	148.957
1254.87	302.773
1259.17	333.269
1263.46	187.273
1267.76	92.6484
1272.05	82.7773
1276.34	97.6758
1280.62	356.258
1284.91	446.305
1289.19	255.367
1293.47	518.148
1297.74	491.5
1302.02	208.746
1306.29	344.66
1310.56	491.965
1314.83	274.961
1319.09	547.074
1323.35	563.672
1327.61	610.953
1331.87	346.434
1336.12	518.246
1340.38	5.91797
1344.63	281.883
1348.87	674.293
1353.12	59.1055
1357.36	289.031
1361.6	461.727
1365.84	199.277
1370.08	356.273
1374.31	259.148
1378.54	339.746
1382.77	380.172
1386.99	506.621
1391.22	473.75
1395.44	412.332
1399.66	116.488
1403.87	219.461
1408.09	366.352
1412.3	274.562
1416.51	912.867
1420.71	533.434
1424.92	304.203
1429.12	207.137
1433.32	368.613
1437.51	592.031
1441.71	576.473
1445.9	351.219
1450.09	423.691
1454.28	227.945
1458.46	418.906
1462.65	230.359
1466.83	388.941
1471	429.336
1475.18	213.086
1479.35	134.832
1483.52	273.668
1487.69	555.594
1491.86	429.773
1496.02	342.481
1500.18	517.965
1504.34	359.867
1508.5	261.93
1512.65	339.426
1516.8	35.7227
1520.95	424.691
1525.1	215.41
1529.24	342.688
1533.39	178.66
1537.53	206.691
1541.66	185.043
1545.8	22.4609
1549.93	251.902
1554.06	329.551
1558.19	431.477
1562.32	162
1566.44	8.34375
1570.56	0
