Measurement: Raman, 514 nm, ccw, Raman Data Processed
Mineral: Ilvaite
Rruff sample: R050040
Ideal chemistry: CaFe^2+^_2_Fe^3+^OSi_2_O_7_(OH)
Locality: Capo Calamita, Isle of Elba, Italy
Source: University of Arizona Mineral Museum
Description: Brown fragment
Measured chemistry: Ca_1.00_(Fe^2+^_1.89_Mn_0.10_Mg_0.01_)_Î£=2_Fe^3+^_1.00_OSi_2.00_O_7_(OH); trace amounts of Al; OH estimated by charge balance
Pin_id: M00410
Orientation: Laser parallel to b* (0 1 0). Fiducial mark perpendicular to laser is parallel to c [0 0 1]
Raman shift (cm-1)	intensity
143.66	0
148.596	639.691
153.53	2000.68
158.46	275.082
163.388	1635.08
168.313	2482.82
173.235	1954.66
178.155	1883.68
183.071	1577.01
187.985	2716.84
192.896	3914.95
197.803	4744.76
202.709	4837.59
207.611	265.426
212.51	162.344
217.407	88.5273
222.301	104.375
227.192	181.402
232.08	252.102
236.965	129.801
241.848	131.566
246.728	167.879
251.604	137.555
256.479	535.094
261.35	1342.89
266.218	2119.41
271.084	3010.93
275.947	4372.66
280.807	3771.53
285.664	2481.7
290.518	1084.93
295.37	239.434
300.219	184.07
305.065	179.121
309.908	11.8438
314.749	11.6602
319.586	502.691
324.421	1947.03
329.253	2704.41
334.083	3243.03
338.909	3016.93
343.733	2360.43
348.554	1343.43
353.372	878.699
358.187	796.766
363	548.461
367.81	203.438
372.617	231.305
377.421	275.547
382.223	241.738
387.022	353.269
391.818	511.312
396.611	804.352
401.401	1099.42
406.189	1475.9
410.974	1653.49
415.756	1487.77
420.536	1551.26
425.312	1900.02
430.086	2186.45
434.858	2249.08
439.626	2367.5
444.392	1918.47
449.155	1617.66
453.915	1363.54
458.672	1261.84
463.427	1446.96
468.179	1671.56
472.928	1598.12
477.675	2074.89
482.419	2046.58
487.16	2330.32
491.898	2550.37
496.634	3617.12
501.367	3522.64
506.097	3586.21
510.825	3504.44
515.549	3529.35
520.271	3445.27
524.991	3503.06
529.707	3419.59
534.421	3339.07
539.132	2921.95
543.841	3315.22
548.547	2862.95
553.25	2744.73
557.95	2747.67
562.648	2251.96
567.343	2409.39
572.035	2300
576.724	1851.79
581.411	1579.77
586.095	1091.05
590.777	945.414
595.456	788.727
600.132	429.773
604.805	369.426
609.476	416.144
614.144	493.301
618.809	421.305
623.472	364.184
628.132	347.606
632.789	218.492
637.444	90.457
642.096	252.957
646.745	30.5508
651.392	95.8086
656.036	355.418
660.677	36.3008
665.316	4.41406
669.952	90.1992
674.585	906.082
679.216	492.32
683.844	121.949
688.469	526.102
693.092	914.758
697.712	1446.49
702.329	2304.76
706.944	1854.88
711.556	1877.48
716.166	396.555
720.773	628.066
725.377	243.008
729.978	283.469
734.577	19.8984
739.173	180.672
743.767	101.086
748.358	116.789
752.946	94.8242
757.532	159.269
762.115	86.7734
766.695	166.328
771.273	123.512
775.848	33.625
780.421	152.102
784.991	66.6602
789.558	42.3398
794.123	5.85938
798.685	334.383
803.245	383.766
807.802	428.051
812.356	493.449
816.907	498.332
821.456	338.441
826.003	140.055
830.547	55.5234
835.088	1119.67
839.627	727.519
844.163	129.832
848.696	482.43
853.227	67.543
857.755	353.457
862.281	138.227
866.804	314.227
871.324	216.867
875.842	698.625
880.357	1030.85
884.87	717.18
889.38	955.141
893.888	581.285
898.393	511.051
902.895	690.211
907.395	376.527
911.892	579.394
916.387	19.0664
920.879	750.363
925.368	599.477
929.855	318.059
934.339	785.133
938.821	622.519
943.301	558.367
947.777	594.867
952.251	502.043
956.723	861.84
961.192	1002.26
965.658	1070.71
970.122	1962
974.583	1841.42
979.042	1954.69
983.498	1734.65
987.952	2232.32
992.403	1193.79
996.852	1147.1
1001.3	765.805
1005.74	758.836
1010.18	939.996
1014.62	651.562
1019.06	841.758
1023.49	505.164
1027.92	419.856
1032.35	615.656
1036.78	678.254
1041.2	840.305
1045.62	895.949
1050.04	676.516
1054.45	744.117
1058.87	1021.66
1063.28	671.184
1067.68	1055.04
1072.09	1111.75
1076.49	807.434
1080.89	1015.75
1085.29	662.711
1089.69	747.277
1094.08	857.453
1098.47	893.277
1102.86	710.668
1107.24	690.394
1111.63	1032.88
1116.01	865.934
1120.38	968.856
1124.76	954.856
1129.13	340.016
1133.5	712.043
1137.87	646.293
1142.24	620.523
1146.6	283.934
1150.96	413.195
1155.32	130.242
1159.67	336.391
1164.03	123.672
1168.38	368.891
1172.72	76.3672
1177.07	150.078
1181.41	222.281
1185.75	364.644
1190.09	127.066
1194.43	138.481
1198.76	202.559
1203.09	23.3555
1207.42	159.594
1211.75	88.7812
1216.07	212.969
1220.39	107.996
1224.71	54.7109
1229.02	89.543
1233.34	8.62891
1237.65	305.082
1241.96	35.4336
1246.26	163.621
1250.57	110.559
1254.87	60.1914
1259.17	137.375
1263.46	13.4141
1267.76	354.59
1272.05	138.125
1276.34	103
1280.62	119.906
1284.91	226.066
1289.19	231.859
1293.47	389.422
1297.74	385.688
1302.02	323.106
1306.29	436.781
1310.56	439.488
1314.83	417.938
1319.09	739.234
1323.35	290.578
1327.61	474.598
1331.87	225.918
1336.12	413.129
1340.38	351.34
1344.63	228.305
1348.87	403.086
1353.12	510.644
1357.36	289.066
1361.6	408.328
1365.84	443.508
1370.08	397.156
1374.31	415.148
1378.54	265.902
1382.77	433.398
1386.99	487.262
1391.22	86.125
1395.44	732.648
1399.66	300.269
1403.87	213.254
1408.09	411.738
1412.3	500.781
1416.51	266.75
1420.71	450.621
1424.92	136.188
1429.12	308.016
1433.32	127.106
1437.51	193.254
1441.71	451.699
1445.9	504.141
1450.09	602.445
1454.28	378.766
1458.46	626.254
1462.65	360.133
1466.83	473.836
1471	221.797
1475.18	319.941
1479.35	507.383
1483.52	265.391
1487.69	313.602
1491.86	167.656
1496.02	393.391
1500.18	30.6289
1504.34	474.25
1508.5	292.133
1512.65	196.152
1516.8	477.566
1520.95	31.1055
1525.1	375.394
1529.24	253.223
1533.39	268.508
1537.53	163.148
1541.66	285.82
1545.8	257.578
1549.93	92.0469
1554.06	326.406
1558.19	409.188
1562.32	518.391
1566.44	6.42969
1570.56	0
