Measurement: Raman, 514 nm, ccw, Raman Data Processed
Mineral: Ilvaite
Rruff sample: R050040
Ideal chemistry: CaFe^2+^_2_Fe^3+^OSi_2_O_7_(OH)
Locality: Capo Calamita, Isle of Elba, Italy
Source: University of Arizona Mineral Museum
Description: Brown fragment
Measured chemistry: Ca_1.00_(Fe^2+^_1.89_Mn_0.10_Mg_0.01_)_Î£=2_Fe^3+^_1.00_OSi_2.00_O_7_(OH); trace amounts of Al; OH estimated by charge balance
Pin_id: M00410
Orientation: Laser parallel to b* (0 1 0). Fiducial mark perpendicular to laser is parallel to c [0 0 1]
Raman shift (cm-1)	intensity
127.596	0
132.542	99.0039
137.485	2206.85
142.425	2567.55
147.362	3899.59
152.296	5431.05
157.228	5291.25
162.156	5918.88
167.082	6211.71
172.005	5518.17
176.925	6921.78
181.842	8062.53
186.757	9027.81
191.668	8966.44
196.577	8451.53
201.483	7974.33
206.386	2921.19
211.286	1700.95
216.183	780.844
221.078	348.074
225.969	489.652
230.858	134.746
235.744	20.1875
240.628	343.231
245.508	131.168
250.386	91.6719
255.26	136.867
260.132	203.859
265.001	208.227
269.868	108.266
274.731	844.945
279.592	1223.93
284.45	1425.73
289.305	867.359
294.157	718.164
299.007	485.777
303.854	464.156
308.698	812.879
313.539	1032.01
318.377	2937.73
323.213	2428.55
328.046	2913.13
332.876	2857.52
337.703	2386.64
342.527	1887.32
347.349	1917.98
352.168	1909.09
356.984	1431.6
361.797	1154.09
366.608	449.559
371.415	268.703
376.22	174.57
381.023	159.234
385.822	87.0195
390.619	491.734
395.413	560.066
400.204	267.203
404.992	756.231
409.778	683.547
414.561	852.012
419.341	843.391
424.118	610.562
428.893	616.688
433.665	624.82
438.434	725.773
443.201	844.066
447.964	764.535
452.725	673.91
457.483	1567.66
462.239	999.336
466.991	1010.59
471.741	1279.91
476.489	1529.15
481.233	1801.7
485.975	1930.97
490.714	2458.55
495.45	2521.6
500.184	2871.05
504.915	3064.18
509.643	2898.03
514.368	2797.92
519.091	2930.14
523.811	2722.74
528.528	2424.98
533.243	2352.41
537.955	2220.22
542.664	2554.07
547.37	2525.88
552.074	2450.68
556.775	2334.26
561.473	2064.62
566.169	2164.53
570.862	1708.58
575.552	1712.24
580.24	1277.48
584.925	838.57
589.607	573.469
594.286	514.836
598.963	396.648
603.637	624.727
608.309	129.957
612.977	311.09
617.643	6.97266
622.307	60.9414
626.967	258.457
631.625	409.113
636.281	346.789
640.933	229.519
645.583	38.3477
650.231	77.4453
654.875	267.973
659.517	285.199
664.157	156.023
668.793	18.3359
673.427	143.402
678.059	28.707
682.687	63.7383
687.313	359.738
691.937	42.4883
696.557	532.367
701.175	117.578
705.791	1032.13
710.403	337.109
715.014	20.4922
719.621	82.0352
724.226	8.03125
728.828	72.7695
733.428	297.312
738.025	243.949
742.619	16.5312
747.21	110.973
751.799	59.5195
756.386	19.4609
760.969	76.8555
765.551	204.828
770.129	189.941
774.705	88.5391
779.278	240.644
783.849	318.586
788.417	448.231
792.982	200.641
797.545	512.086
802.105	213.262
806.663	352.219
811.217	355.941
815.77	567.109
820.319	523.324
824.867	620.633
829.411	586.953
833.953	405.953
838.492	425.969
843.029	494.82
847.563	336.316
852.094	499.402
856.623	471.41
861.15	356.594
865.673	658.598
870.194	491.375
874.713	487.312
879.229	398.769
883.742	689.762
888.253	564.637
892.761	600.391
897.267	659.617
901.77	1091.82
906.27	1132.62
910.768	855.941
915.263	760.695
919.756	637.519
924.246	433.043
928.734	398.125
933.219	411.801
937.701	387.039
942.181	427.043
946.658	192.953
951.133	442.703
955.605	410.168
960.075	492.273
964.542	249.125
969.006	505.543
973.468	595.766
977.928	576.164
982.385	509.258
986.839	690.977
991.291	745.551
995.74	510.047
1000.19	426.508
1004.63	393.688
1009.07	308.824
1013.51	280.957
1017.95	369.867
1022.38	235.449
1026.81	467.273
1031.24	509.852
1035.67	497.477
1040.09	255.789
1044.51	467.184
1048.93	543.781
1053.35	447.144
1057.76	495.988
1062.17	574.07
1066.58	731.637
1070.99	305.887
1075.39	701.258
1079.79	346.457
1084.19	394.098
1088.59	494.848
1092.98	311.316
1097.37	383.949
1101.76	448.336
1106.15	509.918
1110.53	537.199
1114.91	598.445
1119.29	511.633
1123.67	364.43
1128.04	303.379
1132.41	209.695
1136.78	100.223
1141.15	199.043
1145.51	85.043
1149.87	95.793
1154.23	98.8516
1158.59	97.5977
1162.94	191.332
1167.29	29.4766
1171.64	127.391
1175.98	98.832
1180.33	207.844
1184.67	80.4453
1189.01	214.398
1193.34	15.1289
1197.68	138.606
1202.01	37.6602
1206.34	70.2734
1210.66	41.9297
1214.99	219.176
1219.31	38.082
1223.63	84.7344
1227.94	163.109
1232.26	93.1367
1236.57	106.781
1240.88	94.0195
1245.19	108.312
1249.49	154.227
1253.79	94.8398
1258.09	36.8242
1262.39	220.039
1266.68	290.562
1270.97	86.6719
1275.26	8.47266
1279.55	119.852
1283.84	105.406
1288.12	123.234
1292.4	207.144
1296.67	115.34
1300.95	387.398
1305.22	345.66
1309.49	160.547
1313.76	248.191
1318.03	387.594
1322.29	320.973
1326.55	202.039
1330.81	335.879
1335.06	374.121
1339.31	329.977
1343.56	264.516
1347.81	236.981
1352.06	361.039
1356.3	528.953
1360.54	189.234
1364.78	366.551
1369.02	304.016
1373.25	285.719
1377.48	447.59
1381.71	329.883
1385.94	391.969
1390.16	406.019
1394.38	271.777
1398.6	352.106
1402.82	382.266
1407.03	180.367
1411.24	419.492
1415.45	245.898
1419.66	497.742
1423.87	412.859
1428.07	449.043
1432.27	904.625
1436.46	314.332
1440.66	342.473
1444.85	168.184
1449.04	608.242
1453.23	338.691
1457.42	405.273
1461.6	363.906
1465.78	580.082
1469.96	404.133
1474.14	494.707
1478.31	253.652
1482.48	431.707
1486.65	376.121
1490.82	186.891
1494.98	143.801
1499.14	120.844
1503.3	330.481
1507.46	413.793
1511.61	245.465
1515.77	400.68
1519.92	252.773
1524.06	356.711
1528.21	277.461
1532.35	334.16
1536.49	7.49219
1540.63	44.3555
1544.77	327.762
1548.9	335.887
1553.03	429.109
1557.16	133
1561.29	396.277
1565.41	56
1569.53	94.5938
