Measurement: Raman, 514 nm, ccw, Raman Data Processed
Mineral: Ilvaite
Rruff sample: R050040
Ideal chemistry: CaFe^2+^_2_Fe^3+^OSi_2_O_7_(OH)
Locality: Capo Calamita, Isle of Elba, Italy
Source: University of Arizona Mineral Museum
Description: Brown fragment
Measured chemistry: Ca_1.00_(Fe^2+^_1.89_Mn_0.10_Mg_0.01_)_Î£=2_Fe^3+^_1.00_OSi_2.00_O_7_(OH); trace amounts of Al; OH estimated by charge balance
Pin_id: M00123
Orientation: Laser parallel to (1 0 1). Fiducial mark perpendicular to laser is parallel to b [0 1 0]
Raman shift (cm-1)	intensity
159.692	0
164.62	558.394
169.544	1081.26
174.465	976.07
179.384	887.414
184.3	1299.13
189.213	2380.22
194.123	3995.84
199.03	4903.15
203.934	4548.09
208.836	2172.16
213.735	3239.86
218.631	2352.01
223.524	2665.36
228.414	2460.03
233.302	1573.84
238.186	627.301
243.068	191.348
247.947	106.992
252.823	284.715
257.697	65.8867
262.567	137.887
267.435	178.539
272.3	95.4922
277.162	631.504
282.021	732.719
286.878	378.035
291.732	20.2188
296.583	89.6719
301.431	209.465
306.276	347.394
311.119	191.152
315.958	605.484
320.795	1563.02
325.629	2727.59
330.461	3371.67
335.289	3571.05
340.115	2649.79
344.938	1798.9
349.759	1284.19
354.576	1105.13
359.391	1388.36
364.203	781.672
369.012	745.516
373.818	435.457
378.622	519.387
383.423	346.231
388.221	268.648
393.016	316.074
397.809	265.356
402.598	10.6914
407.386	365.809
412.17	790.731
416.951	750.328
421.73	1056.57
426.506	1412.85
431.279	1451.76
436.05	1471.14
440.818	1600.5
445.583	1542.36
450.345	1825.73
455.105	1984.82
459.861	2247.26
464.615	2339.02
469.367	2705.16
474.115	3238.25
478.861	3441.9
483.604	4035.98
488.345	4904.66
493.082	5942.83
497.817	7041.83
502.55	8076.76
507.279	7620.9
512.006	6854.13
516.73	6727.29
521.451	6345.27
526.17	6652.28
530.886	6425.96
535.599	5916.19
540.31	5570.91
545.017	5373.36
549.723	4789.19
554.425	4464.91
559.125	4311.44
563.822	3756.41
568.516	3533.65
573.207	3537.12
577.896	3526.91
582.583	3368.65
587.266	2685.22
591.947	1834.14
596.625	1441.69
601.3	855.051
605.973	745.168
610.643	574.481
615.311	375.332
619.975	359.812
624.637	491.957
629.297	221.07
633.953	338.652
638.607	392.328
643.259	285.711
647.907	319.359
652.553	124.711
657.197	187.977
661.837	4.49609
666.475	86.9727
671.111	53.6914
675.743	319.402
680.373	238.664
685.001	263.879
689.625	893.113
694.247	1703.36
698.867	3034.56
703.483	3501.73
708.097	3106.82
712.709	1531.85
717.318	740.781
721.924	265.148
726.527	35.5938
731.128	310.059
735.726	145.519
740.322	136.57
744.915	186.789
749.505	14.8516
754.093	91.6953
758.678	16.6953
763.26	215.844
767.84	2.23438
772.417	111.309
776.992	152.41
781.564	363.371
786.133	194.926
790.7	72.5508
795.264	59.6367
799.825	324.898
804.384	587.477
808.94	913.727
813.494	1340.73
818.045	1913.72
822.593	1858.98
827.139	1506.62
831.682	589.656
836.223	454.117
840.761	803.055
845.296	372.508
849.829	451.516
854.359	750.125
858.887	861.863
863.412	1148.78
867.934	866.375
872.454	762.934
876.971	956.559
881.486	1018.55
885.998	1385.64
890.507	1305.9
895.014	743.043
899.518	608.481
904.02	673.957
908.519	676.856
913.016	832.5
917.51	855.344
922.001	940.449
926.49	1086.44
930.976	1584.57
935.46	1181.77
939.941	1386.33
944.42	1474.3
948.896	1477.72
953.369	1295.23
957.84	1900.81
962.309	2321.48
966.774	2573.27
971.238	3496.32
975.698	4733.66
980.156	5456.2
984.612	5796.96
989.065	5541.96
993.516	4974.24
997.964	3926.96
1002.41	3465.87
1006.85	3010.37
1011.29	2504
1015.73	2314.55
1020.16	2307.39
1024.6	2344.2
1029.03	2240.72
1033.46	2660.52
1037.88	2599.39
1042.3	2658.73
1046.72	2547.95
1051.14	2217.4
1055.56	2803.39
1059.97	2750.55
1064.38	2329.66
1068.79	2611.73
1073.19	2508.31
1077.59	2326.31
1081.99	1996.06
1086.39	2230.33
1090.79	1806.64
1095.18	2040.23
1099.57	1859.6
1103.95	1491.46
1108.34	1662.51
1112.72	1615.7
1117.1	1593.08
1121.48	1031.91
1125.85	1367.21
1130.23	931.625
1134.6	762.891
1138.96	814.059
1143.33	324.254
1147.69	456.074
1152.05	312.004
1156.41	361.055
1160.76	202.188
1165.11	87.9805
1169.46	34.0508
1173.81	171.106
1178.16	67.5
1182.5	336.688
1186.84	226.438
1191.18	58.75
1195.51	111.66
1199.84	256.07
1204.17	66.418
1208.5	0.460938
1212.83	153.293
1217.15	358.375
1221.47	103.719
1225.79	355.125
1230.1	429.731
1234.41	141.746
1238.73	362.418
1243.03	207.832
1247.34	82.9531
1251.64	94.7656
1255.94	190.227
1260.24	155.902
1264.54	51.8984
1268.83	219.023
1273.12	183.379
1277.41	134.074
1281.69	435.285
1285.98	381.988
1290.26	264.375
1294.54	88.6992
1298.81	116.102
1303.09	343.832
1307.36	633.09
1311.63	614.262
1315.89	457.285
1320.16	409.734
1324.42	519.465
1328.68	479.5
1332.93	388.727
1337.19	619.359
1341.44	466.863
1345.69	226.562
1349.94	356.816
1354.18	564.84
1358.42	510.129
1362.66	240.484
1366.9	535.598
1371.13	611.445
1375.37	710.113
1379.6	268.059
1383.82	721.621
1388.05	416.066
1392.27	388.816
1396.49	342.941
1400.71	212.066
1404.92	442.508
1409.14	343.742
1413.35	309.387
1417.56	411.418
1421.76	60.8906
1425.97	446.074
1430.17	423.961
1434.37	47.1094
1438.56	260.141
1442.76	391.918
1446.95	555.957
1451.14	500.879
1455.33	187.148
1459.51	196.707
1463.69	212.723
1467.87	171.644
1472.05	247.129
1476.22	328.285
1480.4	305.922
1484.57	350.281
1488.73	70.082
1492.9	123.203
1497.06	319.019
1501.22	124.555
1505.38	286.75
1509.54	400.559
1513.69	150.871
1517.84	513.496
1521.99	125.441
1526.14	145.121
1530.28	231.246
1534.42	174.379
1538.56	331.176
1542.7	463.406
1546.83	175.078
1550.97	248.168
1555.1	221.41
1559.22	462.75
1563.35	213.383
1567.47	60.1562
