Measurement: Raman, 514 nm, ccw, Raman Data Processed
Mineral: Ilvaite
Rruff sample: R050040
Ideal chemistry: CaFe^2+^_2_Fe^3+^OSi_2_O_7_(OH)
Locality: Capo Calamita, Isle of Elba, Italy
Source: University of Arizona Mineral Museum
Description: Brown fragment
Measured chemistry: Ca_1.00_(Fe^2+^_1.89_Mn_0.10_Mg_0.01_)_Î£=2_Fe^3+^_1.00_OSi_2.00_O_7_(OH); trace amounts of Al; OH estimated by charge balance
Pin_id: M00123
Orientation: Laser parallel to (1 0 1). Fiducial mark perpendicular to laser is parallel to b [0 1 0]
Raman shift (cm-1)	intensity
144.894	0
149.83	992.324
154.762	1749.55
159.692	886.488
164.62	1347.52
169.544	1633.06
174.465	975.004
179.384	904.621
184.3	2653.31
189.213	4380.87
194.123	6586.62
199.03	9537.68
203.934	5275.71
208.836	584.184
213.735	241.738
218.631	462.281
223.524	142.961
228.414	900.117
233.302	401.699
238.186	497.629
243.068	97.707
247.947	127.625
252.823	176.18
257.697	1044.7
262.567	1065.42
267.435	1652.18
272.3	2702.07
277.162	2764.69
282.021	2226.84
286.878	1734.79
291.732	1920.79
296.583	2043.66
301.431	1965.79
306.276	2341.39
311.119	2308.62
315.958	3498.15
320.795	5268.6
325.629	8649.98
330.461	10412.9
335.289	10152.8
340.115	8011.13
344.938	5234.1
349.759	3423.25
354.576	2821.14
359.391	2471.8
364.203	1880.67
369.012	712.273
373.818	463.188
378.622	283.156
383.423	255.473
388.221	314.293
393.016	600.219
397.809	243.277
402.598	402.836
407.386	461.625
412.17	659.301
416.951	982.871
421.73	1895.37
426.506	2416.77
431.279	2625.04
436.05	2013.08
440.818	1604.14
445.583	1277.04
450.345	930.137
455.105	1429.88
459.861	1167.23
464.615	1699.63
469.367	1712.38
474.115	1897.2
478.861	2602.05
483.604	3854.61
488.345	5227.44
493.082	7434.18
497.817	9286.39
502.55	10493.7
507.279	9736.27
512.006	7998.6
516.73	7527.25
521.451	7406.33
526.17	7578.93
530.886	7304.5
535.599	6818.57
540.31	6567.43
545.017	6488.71
549.723	5893.16
554.425	4905.7
559.125	4586.27
563.822	3859.83
568.516	3802.55
573.207	4278.68
577.896	5485.87
582.583	5565.83
587.266	4985.53
591.947	3301.96
596.625	1931.81
601.3	1296.21
605.973	884.812
610.643	393.844
615.311	278.637
619.975	207.184
624.637	180.254
629.297	284.223
633.953	442.125
638.607	272.977
643.259	44.5039
647.907	19.1328
652.553	65.2266
657.197	96.2266
661.837	71.6484
666.475	181.07
671.111	278.703
675.743	309.016
680.373	728.398
685.001	346.644
689.625	1121.86
694.247	2218.15
698.867	4672.5
703.483	6171.85
708.097	4898.21
712.709	2273.53
717.318	1427.79
721.924	661.969
726.527	1229.05
731.128	166.996
735.726	247.648
740.322	70.7227
744.915	340.113
749.505	44.6992
754.093	286.156
758.678	61.0156
763.26	11.0391
767.84	77.793
772.417	145.469
776.992	29.457
781.564	27.043
786.133	242.746
790.7	778.598
795.264	1012.13
799.825	1383.09
804.384	1917.8
808.94	3129.81
813.494	4098.98
818.045	5268.32
822.593	4668.85
827.139	2975.64
831.682	1722.7
836.223	1350.08
840.761	1344.82
845.296	1446.96
849.829	2055.54
854.359	2647.61
858.887	2926.22
863.412	2434.38
867.934	2479.14
872.454	1797.83
876.971	1546.11
881.486	1174.86
885.998	1238.49
890.507	722.328
895.014	747.266
899.518	828.867
904.02	378.731
908.519	660.031
913.016	576.293
917.51	1195.26
922.001	1227.89
926.49	1618.32
930.976	1819.61
935.46	1823.14
939.941	1805.99
944.42	1831.68
948.896	1654.58
953.369	1933.49
957.84	2223.41
962.309	2725.42
966.774	3487.5
971.238	4466.84
975.698	6563.38
980.156	8657.16
984.612	7434.19
989.065	6706.37
993.516	4889.81
997.964	3166.42
1002.41	3088.21
1006.85	1529.96
1011.29	1230.3
1015.73	1184.76
1020.16	1032.45
1024.6	689.727
1029.03	848.406
1033.46	805.68
1037.88	656.996
1042.3	646.586
1046.72	933.242
1051.14	698.812
1055.56	766.891
1059.97	797.844
1064.38	979.219
1068.79	806.121
1073.19	916.121
1077.59	638.051
1081.99	905.344
1086.39	970.324
1090.79	740.047
1095.18	801.898
1099.57	939.945
1103.95	525.32
1108.34	722.75
1112.72	925.703
1117.1	688.481
1121.48	967.492
1125.85	708.555
1130.23	617.938
1134.6	294.664
1138.96	502.266
1143.33	4.36719
1147.69	315.984
1152.05	212.336
1156.41	329.445
1160.76	68.9609
1165.11	87.9648
1169.46	46.6602
1173.81	236.668
1178.16	185.379
1182.5	132.535
1186.84	159.812
1191.18	257.863
1195.51	92.9258
1199.84	142.047
1204.17	347.566
1208.5	88.3281
1212.83	46.2227
1217.15	40.2656
1221.47	20.25
1225.79	65.0039
1230.1	184.769
1234.41	96.4336
1238.73	26.8359
1243.03	77.8164
1247.34	263.938
1251.64	34.3789
1255.94	82.082
1260.24	400.16
1264.54	60.6719
1268.83	60.5898
1273.12	438.086
1277.41	57.8945
1281.69	635.996
1285.98	691.859
1290.26	352.352
1294.54	288.492
1298.81	262.164
1303.09	382.934
1307.36	649.801
1311.63	389.266
1315.89	509.055
1320.16	510.461
1324.42	146.723
1328.68	584.644
1332.93	277.82
1337.19	367.684
1341.44	404.508
1345.69	504.43
1349.94	731.43
1354.18	365.625
1358.42	473.602
1362.66	462.383
1366.9	468.527
1371.13	618.301
1375.37	183.699
1379.6	266.617
1383.82	624.984
1388.05	694.777
1392.27	830.981
1396.49	509.125
1400.71	855.141
1404.92	478.969
1409.14	633.637
1413.35	388.727
1417.56	591.137
1421.76	698.441
1425.97	349.004
1430.17	628.039
1434.37	538.234
1438.56	612.562
1442.76	973.812
1446.95	518.703
1451.14	602.582
1455.33	169.262
1459.51	558.277
1463.69	469.91
1467.87	390.32
1472.05	355.125
1476.22	273.094
1480.4	319.367
1484.57	354.918
1488.73	180.363
1492.9	392.766
1497.06	82.6055
1501.22	194.348
1505.38	228.68
1509.54	508.25
1513.69	352.559
1517.84	335.133
1521.99	340.535
1526.14	112.414
1530.28	624.269
1534.42	15.0195
1538.56	327.328
1542.7	262.66
1546.83	3.67578
1550.97	270.906
1555.1	337.301
1559.22	425.84
1563.35	15.4531
1567.47	376.254
