Measurement: Raman, 514 nm, ccw, Raman Data Processed
Mineral: Ilvaite
Rruff sample: R050040
Ideal chemistry: CaFe^2+^_2_Fe^3+^OSi_2_O_7_(OH)
Locality: Capo Calamita, Isle of Elba, Italy
Source: University of Arizona Mineral Museum
Description: Brown fragment
Measured chemistry: Ca_1.00_(Fe^2+^_1.89_Mn_0.10_Mg_0.01_)_Î£=2_Fe^3+^_1.00_OSi_2.00_O_7_(OH); trace amounts of Al; OH estimated by charge balance
Pin_id: M00376
Orientation: Laser parallel to -a* (-1 0 0). Fiducial mark perpendicular to laser is parallel to -b [0 -1 0]
Raman shift (cm-1)	intensity
135.014	0
139.955	650.664
144.894	1126.51
149.83	3012.49
154.762	3697.92
159.692	4158.83
164.62	4336.68
169.544	4601.3
174.465	5479.68
179.384	6649.24
184.3	7548.13
189.213	8563.69
194.123	9001.79
199.03	9176.97
203.934	6296.34
208.836	3674.61
213.735	2546.98
218.631	1518.38
223.524	1006.31
228.414	916.617
233.302	353.766
238.186	41.6641
243.068	478.738
247.947	328.023
252.823	786.891
257.697	417.559
262.567	114.191
267.435	457.106
272.3	1046.07
277.162	1737.87
282.021	1387.18
286.878	1152.18
291.732	843.715
296.583	705.641
301.431	774.894
306.276	727.654
311.119	1093.89
315.958	1482.8
320.795	2167.11
325.629	3150.5
330.461	3289.75
335.289	2998.82
340.115	2687
344.938	2078.72
349.759	1905.46
354.576	1851.25
359.391	1866.63
364.203	1623.02
369.012	1164.49
373.818	919.867
378.622	649.061
383.423	798.857
388.221	704.15
393.016	907.348
397.809	658.688
402.598	1030.53
407.386	792.356
412.17	654.721
416.951	697.684
421.73	728.648
426.506	626.049
431.279	734.203
436.05	586.484
440.818	447.615
445.583	724.559
450.345	714.734
455.105	668.363
459.861	804.15
464.615	972.664
469.367	1089.92
474.115	1051.86
478.861	1490.5
483.604	1622.9
488.345	1746.38
493.082	2041.41
497.817	2338.22
502.55	2681.15
507.279	2493.87
512.006	2492.65
516.73	2281.92
521.451	2448.36
526.17	2157.03
530.886	2261.18
535.599	1988.44
540.31	1932.58
545.017	2039.45
549.723	1893.48
554.425	1931.75
559.125	1642.76
563.822	1633.79
568.516	1670.32
573.207	1149.36
577.896	1033.64
582.583	712.033
587.266	728.133
591.947	501.838
596.625	435.695
601.3	249.865
605.973	196.412
610.643	293.531
615.311	313.19
619.975	153.957
624.637	72.4531
629.297	211.625
633.953	98.5703
638.607	215.941
643.259	108.867
647.907	48.0957
652.553	168.113
657.197	12.4355
661.837	44.7109
666.475	172.66
671.111	89.293
675.743	110.998
680.373	153.016
685.001	23.1758
689.625	0.480469
694.247	246.938
698.867	301.652
703.483	429.637
708.097	290.922
712.709	75.4512
717.318	85.8223
721.924	73.0762
726.527	118.357
731.128	28.377
735.726	86.207
740.322	40.2188
744.915	160.533
749.505	47.5586
754.093	25.0645
758.678	90.5352
763.26	46.957
767.84	72.7988
772.417	69.2168
776.992	225.33
781.564	28.1133
786.133	10.2051
790.7	139.106
795.264	176.344
799.825	340.883
804.384	562.705
808.94	412.756
813.494	394.998
818.045	546.791
822.593	485.949
827.139	348.203
831.682	272.244
836.223	405.588
840.761	218.316
845.296	390.594
849.829	573.047
854.359	558.613
858.887	607.178
863.412	470.002
867.934	723.953
872.454	823.561
876.971	875.775
881.486	877.74
885.998	1012.56
890.507	809.387
895.014	903.449
899.518	1093.82
904.02	1011.52
908.519	1073.56
913.016	849.592
917.51	794.66
922.001	720.133
926.49	727.592
930.976	432.676
935.46	464.268
939.941	382.668
944.42	616.984
948.896	481.066
953.369	472.123
957.84	464.887
962.309	494.348
966.774	402.551
971.238	471.578
975.698	645.324
980.156	386.201
984.612	547.184
989.065	698.447
993.516	539.701
997.964	344.287
1002.41	430.728
1006.85	240.947
1011.29	339.164
1015.73	463.481
1020.16	510.613
1024.6	173.367
1029.03	125.654
1033.46	320.967
1037.88	470.967
1042.3	446.982
1046.72	281.324
1051.14	493.098
1055.56	257.611
1059.97	287.615
1064.38	378.938
1068.79	446.264
1073.19	560.346
1077.59	260.574
1081.99	324.326
1086.39	608.869
1090.79	393.799
1095.18	287.705
1099.57	410.68
1103.95	453.867
1108.34	301.59
1112.72	376.881
1117.1	288.818
1121.48	316.227
1125.85	257.867
1130.23	519.555
1134.6	187.428
1138.96	267.184
1143.33	339.691
1147.69	53.3691
1152.05	48.334
1156.41	163.613
1160.76	166.451
1165.11	40.2148
1169.46	70.1504
1173.81	111.834
1178.16	211.574
1182.5	47.9824
1186.84	119.154
1191.18	84.543
1195.51	29.8008
1199.84	63.666
1204.17	162.728
1208.5	120.789
1212.83	54.3496
1217.15	33.8281
1221.47	59.709
1225.79	132.58
1230.1	86.9824
1234.41	116.348
1238.73	278.193
1243.03	81.6211
1247.34	200.361
1251.64	200.242
1255.94	81.5762
1260.24	263.457
1264.54	249.947
1268.83	112.58
1273.12	156.461
1277.41	281.627
1281.69	118.795
1285.98	373.697
1290.26	293.26
1294.54	119.022
1298.81	298.438
1303.09	258.951
1307.36	249.807
1311.63	240.373
1315.89	227.107
1320.16	333.125
1324.42	381.109
1328.68	330.51
1332.93	315.408
1337.19	377.541
1341.44	363.272
1345.69	340.861
1349.94	201.262
1354.18	342.35
1358.42	307.606
1362.66	198.387
1366.9	222.727
1371.13	275.199
1375.37	261.539
1379.6	403.906
1383.82	275.144
1388.05	193.035
1392.27	165.588
1396.49	314.668
1400.71	355.385
1404.92	354.557
1409.14	126.695
1413.35	64.1836
1417.56	301.174
1421.76	186.738
1425.97	336.863
1430.17	229.932
1434.37	298.273
1438.56	281.879
1442.76	230.965
1446.95	236.492
1451.14	345.043
1455.33	395.904
1459.51	164.117
1463.69	269.15
1467.87	81.5293
1472.05	424.525
1476.22	269.586
1480.4	45.166
1484.57	163.039
1488.73	304.367
1492.9	282.062
1497.06	285.1
1501.22	109.471
1505.38	316.166
1509.54	224.115
1513.69	103.699
1517.84	117.027
1521.99	107.457
1526.14	77.6484
1530.28	149.51
1534.42	126.127
1538.56	3.12109
1542.7	37.8789
1546.83	269.381
1550.97	294.754
1555.1	375.352
1559.22	150.744
1563.35	382.383
1567.47	168.758
