Measurement: Raman, 514 nm, ccw, Raman Data Processed
Mineral: Ilvaite
Rruff sample: R050040
Ideal chemistry: CaFe^2+^_2_Fe^3+^OSi_2_O_7_(OH)
Locality: Capo Calamita, Isle of Elba, Italy
Source: University of Arizona Mineral Museum
Description: Brown fragment
Measured chemistry: Ca_1.00_(Fe^2+^_1.89_Mn_0.10_Mg_0.01_)_Î£=2_Fe^3+^_1.00_OSi_2.00_O_7_(OH); trace amounts of Al; OH estimated by charge balance
Pin_id: M00376
Orientation: Laser parallel to -a* (-1 0 0). Fiducial mark perpendicular to laser is parallel to -b [0 -1 0]
Raman shift (cm-1)	intensity
144.894	0
149.83	1233.31
154.762	2064
159.692	830.648
164.62	1700.55
169.544	2569.3
174.465	1430.7
179.384	1316.95
184.3	2365.57
189.213	4913.79
194.123	8128.19
199.03	8821.27
203.934	4798.08
208.836	874.961
213.735	390.715
218.631	321.656
223.524	137.559
228.414	349.883
233.302	757.422
238.186	347.117
243.068	409.969
247.947	400.715
252.823	63.25
257.697	716.344
262.567	1026.49
267.435	1813
272.3	2701.09
277.162	2650.45
282.021	2000.39
286.878	1537.12
291.732	1596.39
296.583	2024.63
301.431	2425.07
306.276	2250.73
311.119	2331.6
315.958	3204.45
320.795	5492.41
325.629	8360.57
330.461	10903.4
335.289	10793
340.115	7739.57
344.938	5000.52
349.759	3584.61
354.576	3104.38
359.391	2701.78
364.203	2054.59
369.012	1109.23
373.818	320.82
378.622	175.223
383.423	4.31641
388.221	271.871
393.016	166.723
397.809	114.926
402.598	191.43
407.386	294.324
412.17	565.117
416.951	1071.77
421.73	1950.37
426.506	3110.88
431.279	3066.96
436.05	2419.52
440.818	1800.86
445.583	1674.81
450.345	1358.45
455.105	1528.04
459.861	1696.78
464.615	1632.21
469.367	2273.94
474.115	2498.98
478.861	3812.64
483.604	3962.26
488.345	5163.12
493.082	7310.16
497.817	9774.1
502.55	10497.9
507.279	9398.41
512.006	8349.48
516.73	7775.66
521.451	7191.57
526.17	7546.16
530.886	7492.53
535.599	6931.78
540.31	6982.54
545.017	6591.5
549.723	5430.96
554.425	4896.42
559.125	4577.32
563.822	3823.71
568.516	4054.82
573.207	4146.67
577.896	5278.2
582.583	6351.41
587.266	5334.08
591.947	3325.81
596.625	2431.69
601.3	1309.36
605.973	752.234
610.643	707.461
615.311	551.125
619.975	168.164
624.637	76.5469
629.297	365.441
633.953	502.754
638.607	149.519
643.259	146.359
647.907	149.891
652.553	170.613
657.197	59.0195
661.837	23.3477
666.475	4.14453
671.111	224.668
675.743	39.8125
680.373	137.246
685.001	848.848
689.625	1003.74
694.247	2016.91
698.867	4162.32
703.483	6226.97
708.097	4715.81
712.709	1932.82
717.318	706
721.924	444.336
726.527	115.769
731.128	107.121
735.726	211.059
740.322	160.68
744.915	61.3203
749.505	156.234
754.093	32.7109
758.678	58.2148
763.26	103.84
767.84	172.75
772.417	15.0508
776.992	127.734
781.564	20.625
786.133	177.711
790.7	378.129
795.264	718.961
799.825	1130.77
804.384	1722.16
808.94	2750.42
813.494	4107.01
818.045	5296.03
822.593	4339.53
827.139	2683.52
831.682	1762.04
836.223	1145.11
840.761	912.773
845.296	1134.08
849.829	2159.53
854.359	2496.77
858.887	2600.22
863.412	2443.53
867.934	1904.03
872.454	1589.39
876.971	1521.54
881.486	1068.6
885.998	767.668
890.507	495.566
895.014	467.269
899.518	349.106
904.02	730.785
908.519	760.559
913.016	1020.45
917.51	889.773
922.001	1014.55
926.49	1582.77
930.976	2014.39
935.46	1723.73
939.941	1714.15
944.42	1887.09
948.896	1731.43
953.369	1734.19
957.84	1955.24
962.309	2556.31
966.774	3246.24
971.238	4526.02
975.698	6355.02
980.156	7503.2
984.612	7528.55
989.065	6118.97
993.516	4584.56
997.964	3329.47
1002.41	2103.64
1006.85	1462.18
1011.29	1029.3
1015.73	992.625
1020.16	837.141
1024.6	707.176
1029.03	925.141
1033.46	1144.45
1037.88	659.18
1042.3	1028.69
1046.72	825.965
1051.14	790.734
1055.56	894.363
1059.97	863.195
1064.38	971.754
1068.79	1058.5
1073.19	814.461
1077.59	748.551
1081.99	970.816
1086.39	1076
1090.79	596.363
1095.18	672.117
1099.57	1181.51
1103.95	820.156
1108.34	923.606
1112.72	1007.55
1117.1	679.617
1121.48	908.469
1125.85	865.469
1130.23	531.34
1134.6	654.934
1138.96	558.879
1143.33	445.266
1147.69	259.523
1152.05	215.746
1156.41	110.703
1160.76	171.269
1165.11	130.578
1169.46	195.582
1173.81	272.926
1178.16	475.34
1182.5	254.644
1186.84	45.4219
1191.18	330.106
1195.51	256.973
1199.84	92.5898
1204.17	51.7305
1208.5	138.023
1212.83	214.617
1217.15	483.273
1221.47	72.4609
1225.79	239.09
1230.1	49.9844
1234.41	54.3867
1238.73	150.992
1243.03	55.2773
1247.34	279.699
1251.64	189.231
1255.94	63.0352
1260.24	122.117
1264.54	189.25
1268.83	470.234
1273.12	518.004
1277.41	622.285
1281.69	366.039
1285.98	636.555
1290.26	326.812
1294.54	446.301
1298.81	465.844
1303.09	425.57
1307.36	600.207
1311.63	616.027
1315.89	516.418
1320.16	415.504
1324.42	305.016
1328.68	264.684
1332.93	247.84
1337.19	532.727
1341.44	390.234
1345.69	661.836
1349.94	510.199
1354.18	311.676
1358.42	313.625
1362.66	199.992
1366.9	228.738
1371.13	172.379
1375.37	381.309
1379.6	438.844
1383.82	483.481
1388.05	571.625
1392.27	305.551
1396.49	604.406
1400.71	617.379
1404.92	342.324
1409.14	546.898
1413.35	521.66
1417.56	477.227
1421.76	360.672
1425.97	560.812
1430.17	486.945
1434.37	564.106
1438.56	515.504
1442.76	517.594
1446.95	590.75
1451.14	719.668
1455.33	787.867
1459.51	636.805
1463.69	422.106
1467.87	396.727
1472.05	467.664
1476.22	839.184
1480.4	368.836
1484.57	528.035
1488.73	72.6016
1492.9	312.164
1497.06	26.2422
1501.22	810.617
1505.38	365.969
1509.54	415.09
1513.69	458.394
1517.84	393.988
1521.99	480.828
1526.14	435.812
1530.28	545.887
1534.42	343.231
1538.56	252.578
1542.7	220.598
1546.83	29.2148
1550.97	283.348
1555.1	253.801
1559.22	294.731
1563.35	283.109
1567.47	225.555
