Measurement: Raman, 514 nm, ccw, Raman Data Processed
Mineral: Ilvaite
Rruff sample: R050040
Ideal chemistry: CaFe^2+^_2_Fe^3+^OSi_2_O_7_(OH)
Locality: Capo Calamita, Isle of Elba, Italy
Source: University of Arizona Mineral Museum
Description: Brown fragment
Measured chemistry: Ca_1.00_(Fe^2+^_1.89_Mn_0.10_Mg_0.01_)_Î£=2_Fe^3+^_1.00_OSi_2.00_O_7_(OH); trace amounts of Al; OH estimated by charge balance
Pin_id: M00423
Orientation: Laser parallel to -c* (0 0 -1). Fiducial mark perpendicular to laser is parallel to a [1 0 0]
Raman shift (cm-1)	intensity
136.25	0
141.19	359.305
146.128	617.906
151.063	2538.61
155.995	1176.47
160.925	946.856
165.851	2451.18
170.775	2711.09
175.695	1497.11
180.613	864.715
185.528	1645.9
190.44	3036.04
195.35	4356.77
200.256	5687.69
205.16	1622.98
210.061	574.664
214.959	817.074
219.854	1038.41
224.747	1156.44
229.636	1537.32
234.523	1072.23
239.407	216.816
244.288	226.336
249.166	323.133
254.042	231.164
258.915	2288.92
263.784	1796.44
268.651	2686.93
273.516	3733.38
278.377	4511.97
283.236	3352.12
288.092	1868.94
292.945	769.758
297.795	35.5938
302.642	73.375
307.487	8.07812
312.329	65.207
317.168	619.961
322.004	1352.96
326.838	2811.53
331.668	3730.75
336.496	3560.65
341.321	3268.54
346.144	2518.93
350.963	1496.97
355.78	952.488
360.594	707.547
365.405	325.856
370.214	324.402
375.019	96.9375
379.822	378.051
384.622	318.641
389.42	867.449
394.215	563.324
399.006	704.527
403.795	1059.16
408.582	1459.11
413.365	1293.29
418.146	1613.88
422.924	1599.87
427.7	1879.16
432.472	1839.64
437.242	1668.73
442.009	1604.68
446.774	1086.26
451.535	1274.91
456.294	1319.53
461.05	1290.59
465.804	1404.47
470.554	1397.13
475.302	1717.31
480.047	1961.57
484.79	1915.96
489.529	2213.65
494.266	2869.71
499.001	3432.46
503.732	3496.89
508.461	3471.49
513.187	3327.83
517.911	3420.32
522.631	3415.02
527.349	3366.83
532.065	3582.06
536.777	3875.59
541.487	3058.54
546.194	3217.86
550.898	3579.61
555.6	2436.62
560.299	2459.87
564.995	2032.34
569.689	2482
574.38	1956.85
579.068	2138.22
583.754	904.188
588.437	815.688
593.117	635.789
597.794	393.602
602.469	484.582
607.141	252.719
611.81	352.203
616.477	245.144
621.141	186.324
625.802	408.836
630.461	84.6055
635.117	177.707
639.77	232.633
644.421	377.512
649.069	44.2539
653.714	234.656
658.357	63.168
662.997	10.8711
667.634	154.445
672.269	102.902
676.901	152.805
681.53	50.2031
686.157	282.988
690.781	851.484
695.402	1289.88
700.021	2303.48
704.637	2641.82
709.251	1641.41
713.861	740.227
718.469	231.258
723.075	60.5273
727.678	216.602
732.278	24.1602
736.876	83.5586
741.47	372.398
746.063	231.129
750.652	93.3672
755.239	214.481
759.824	383.836
764.406	123.231
768.985	50.0625
773.561	113.207
778.135	85.1523
782.706	274.926
787.275	74.8008
791.841	384.984
796.404	274.746
800.965	433.394
805.523	494.078
810.079	488.969
814.632	904.469
819.182	659.602
823.73	630.695
828.275	482.359
832.818	429.391
837.358	363.527
841.895	198.07
846.43	302.977
850.962	476.574
855.491	506.117
860.018	670.434
864.543	601.262
869.064	1042.14
873.583	861.117
878.1	830.836
882.614	1123.44
887.125	1098.34
891.634	975.664
896.14	945.383
900.644	1106.07
905.145	470.078
909.644	523.988
914.14	758.387
918.633	601.129
923.124	639.574
927.612	641.852
932.098	854.863
936.581	721.57
941.061	827.797
945.539	809.711
950.015	522.281
954.487	1121.62
958.958	938.812
963.425	1401.52
967.89	1424.96
972.353	1818.88
976.813	2115.5
981.271	2292.72
985.726	2207.55
990.178	1367.03
994.628	1345.19
999.075	1140.12
1003.52	860.82
1007.96	923.188
1012.4	838.648
1016.84	731.234
1021.27	493.496
1025.71	567.289
1030.13	605.43
1034.56	547.426
1038.99	746.527
1043.41	677.324
1047.83	955.684
1052.24	842.469
1056.66	813.824
1061.07	884.004
1065.48	1074.78
1069.89	930.926
1074.29	638.746
1078.69	956.062
1083.09	1004.89
1087.49	808.359
1091.88	927.609
1096.28	930.668
1100.66	714.809
1105.05	723.68
1109.43	634.914
1113.82	544.223
1118.2	314.887
1122.57	469.234
1126.95	471.129
1131.32	489.586
1135.69	147.668
1140.05	437.762
1144.42	193.359
1148.78	342.402
1153.14	330.438
1157.5	240.32
1161.85	49.0898
1166.2	401.914
1170.55	296.363
1174.9	323.406
1179.24	163.477
1183.58	122.5
1187.92	293.238
1192.26	52.832
1196.6	83.2578
1200.93	26.3047
1205.26	177.277
1209.58	10.4531
1213.91	72.5703
1218.23	49.125
1222.55	321.68
1226.87	44.5977
1231.18	74.9648
1235.49	145.012
1239.8	129.824
1244.11	26.3789
1248.41	353.625
1252.72	248.57
1257.02	297.215
1261.32	247.559
1265.61	74.5352
1269.9	49.0039
1274.19	31.4922
1278.48	118.211
1282.77	383.148
1287.05	408.027
1291.33	389.957
1295.61	203.832
1299.88	287.125
1304.15	284.086
1308.42	488.289
1312.69	373.644
1316.96	473.957
1321.22	306.312
1325.48	471.477
1329.74	199.059
1334	524.148
1338.25	258.934
1342.5	254.922
1346.75	303.731
1351	446.375
1355.24	407.676
1359.48	543.141
1363.72	325.113
1367.96	544.402
1372.19	258.434
1376.42	396.328
1380.65	522.852
1384.88	289.098
1389.11	544.219
1393.33	529.047
1397.55	264.762
1401.76	400.777
1405.98	348.141
1410.19	389.266
1414.4	407.234
1418.61	293.633
1422.82	397.977
1427.02	118.199
1431.22	638.887
1435.42	567.887
1439.61	409.934
1443.81	272.328
1448	300.246
1452.18	513.074
1456.37	524.195
1460.56	585.133
1464.74	334.734
1468.92	540.699
1473.09	249.465
1477.27	324.981
1481.44	321.129
1485.61	260.074
1489.78	388.441
1493.94	380.484
1498.1	286.769
1502.26	207.312
1506.42	94.5078
1510.58	47.9492
1514.73	22.1914
1518.88	276.41
1523.03	151.106
1527.17	392.84
1531.32	256.383
1535.46	80.0469
1539.6	84.5742
1543.73	11.5664
1547.87	36.5742
1552	3.03125
1556.13	181.016
1560.26	233.125
1564.38	289.164
1568.5	31.4414
