Measurement: Raman, 514 nm, ccw, Raman Data Processed
Mineral: Inderite
Rruff sample: R050195
Ideal chemistry: MgB_3_O_3_(OH)_5_5H_2_O
Locality: Boron, Kern County, California, USA
Source: Dave Bunk Minerals
Description: Colorless prismatic crystal
Measured chemistry: Mg_1.00_B_3.00_O_3_(OH)_5_Â·5H_2_O ; Mg measured, only
Pin_id: L00488
Orientation: Laser parallel to a* (1 0 0). Fiducial mark perpendicular to laser is parallel to b [0 1 0]
Raman shift (cm-1)	intensity
107.995	0
112.168	293.902
116.339	1897.16
120.508	3322.94
124.675	10054.7
128.84	5020.63
133.003	1014.78
137.164	917.157
141.323	2138.32
145.48	2904.36
149.635	6907.28
153.788	5782.29
157.939	4530.45
162.088	7486.28
166.235	14818.8
170.38	17348.3
174.523	9695.83
178.664	6585.14
182.803	9378.93
186.94	11444.3
191.076	9892.31
195.209	5577.41
199.34	1868.5
203.47	285.588
207.597	44.589
211.722	56.382
215.846	331.057
219.967	444.962
224.087	192.272
228.204	614.556
232.32	1998.18
236.434	4633.21
240.545	4536.52
244.655	2516.78
248.763	1409.73
252.869	1149.32
256.973	1205.17
261.075	970.497
265.175	642.309
269.273	709.6
273.369	1094.32
277.463	1349.36
281.556	2146.41
285.646	3351.01
289.734	5348.72
293.821	8268.69
297.905	13679.6
301.988	16097.9
306.069	11726
310.147	8178.19
314.224	7564.64
318.299	6212.57
322.372	3536.93
326.443	1454.73
330.512	392.38
334.579	154.366
338.645	45.534
342.708	157.55
346.769	141.585
350.829	458.467
354.887	1151.83
358.942	1845.51
362.996	2634.49
367.048	3097.74
371.098	3521.35
375.146	4287.72
379.192	5593.95
383.236	6505.94
387.279	5906.69
391.319	4762.31
395.358	4042.26
399.394	3429.69
403.429	2953.7
407.462	2642.03
411.493	2426.68
415.522	2434.69
419.549	2678.03
423.575	2383.69
427.598	1459.67
431.619	785.969
435.639	609.574
439.657	454.441
443.673	343.459
447.687	406.58
451.699	649.779
455.709	813.053
459.717	1246.75
463.724	1769.82
467.728	2587.35
471.731	3721.98
475.732	5168.73
479.731	7937.62
483.728	13447.7
487.723	25461.9
491.716	42681.3
495.708	44286.7
499.697	29858.2
503.685	20958.8
507.671	13287.1
511.655	6327.45
515.637	3120.32
519.617	1994.68
523.596	1051.76
527.572	511.724
531.547	160.616
535.52	187.63
539.491	100.055
543.46	151.719
547.427	204.881
551.393	281.32
555.356	50.262
559.318	97.797
563.278	280.127
567.236	466.723
571.192	1096.58
575.147	2214.69
579.099	3304.04
583.05	4560.64
586.999	4402.47
590.946	3418.53
594.891	2659.82
598.834	2094.32
602.776	1976.04
606.715	2685.97
610.653	3685.1
614.589	5123.43
618.523	6809.97
622.456	9384.7
626.386	12711.6
630.315	16149.7
634.242	18583
638.167	18944.5
642.09	17767.2
646.012	15118
649.931	11782
653.849	8955.17
657.765	6417.56
661.679	4808.93
665.592	3414.99
669.502	2780.53
673.411	2368
677.318	1730.88
681.223	1530.06
685.126	1444.73
689.028	1413.79
692.927	1357.49
696.825	1216.64
700.721	913.758
704.616	989.371
708.508	793.758
712.399	784.945
716.288	891.682
720.175	998.33
724.06	1481.89
727.944	2565.35
731.825	4241.71
735.705	7634.96
739.584	14288.1
743.46	21660.1
747.334	19038
751.207	12086.8
755.078	7367.42
758.947	4918.91
762.815	3886.27
766.68	3339.47
770.544	2902.53
774.406	2231.43
778.267	1688.18
782.125	995.758
785.982	697.172
789.837	671.418
793.69	673.49
797.542	552.389
801.391	304.119
805.239	172.754
809.085	97.225
812.93	282.469
816.772	299.391
820.613	27.779
824.452	6.424
828.29	66.586
832.125	236.281
835.959	9.291
839.791	11.393
843.621	247.172
847.45	175.146
851.277	88.193
855.102	103.299
858.925	522.99
862.746	831.898
866.566	848.951
870.384	1268.89
874.2	1576.65
878.015	2327.24
881.828	2754.66
885.639	2788.93
889.448	2511.05
893.256	2155.01
897.061	1959.65
900.865	1743.52
904.668	1573.07
908.468	1489.5
912.267	1233.81
916.064	1066.01
919.86	891.096
923.653	947.082
927.445	792.973
931.236	838.77
935.024	662.48
938.811	644.115
942.596	659.676
946.379	774.172
950.161	764.527
953.94	536.047
957.719	331.711
961.495	318.361
965.27	171.068
969.043	145.805
972.814	375.732
976.583	481.137
980.351	426.369
984.117	598.244
987.882	671.891
991.644	1091.25
995.405	1548.93
999.165	2466.02
1002.92	3156.03
1006.68	2976.68
1010.43	2850.28
1014.18	2891.22
1017.93	2926.45
1021.68	3316.04
1025.43	3369.92
1029.18	2892.05
1032.92	2457.46
1036.66	1766.19
1040.4	1216.24
1044.14	1146.59
1047.88	1135.2
1051.62	1487.12
1055.35	1514.32
1059.08	1552.81
1062.81	1454.58
1066.54	974.617
1070.27	803.924
1073.99	725.504
1077.72	563.348
1081.44	573.453
1085.16	389.875
1088.88	158.584
1092.59	146.545
1096.31	109.729
1100.02	71.109
1103.73	126.611
1107.44	32.262
1111.15	6.16
1114.86	25.396
1118.57	57.162
1122.27	294.061
1125.97	389.924
1129.67	679.367
1133.37	972.533
1137.07	1178.88
1140.76	1141.89
1144.45	1135.87
1148.15	1439.05
1151.84	2011.2
1155.53	2664.83
1159.21	3207.63
1162.9	4143.61
1166.58	4649.61
1170.26	5126.14
1173.94	4934.78
1177.62	4359.81
1181.3	3909.32
1184.97	3399.77
1188.65	3319.22
1192.32	2949.5
1195.99	2410.85
1199.66	2155.61
1203.33	1714.91
1206.99	1220.75
1210.65	772.361
1214.32	730.928
1217.98	805.92
1221.64	809.734
1225.29	595.666
1228.95	507.658
1232.6	417.715
1236.26	197.689
1239.91	141.723
1243.56	201.994
1247.2	498.342
1250.85	589.432
1254.49	619.988
1258.13	460.434
1261.78	443.004
1265.41	33.285
1269.05	132.143
1272.69	228.113
1276.32	386.428
1279.95	605.682
1283.59	561.803
1287.21	589.137
1290.84	365.459
1294.47	313.891
1298.09	88.518
1301.72	90.598
1305.34	160.32
1308.96	29.434
1312.58	362.709
1316.19	613.523
1319.81	578.449
1323.42	686.025
1327.03	459.789
1330.64	35.391
1334.25	189.314
1337.86	272.986
1341.46	160.643
1345.07	516.189
1348.67	772.203
1352.27	910.605
1355.87	829.297
1359.46	763.203
1363.06	488.158
1366.65	181.199
1370.25	266.043
1373.84	50.547
1377.43	147.381
1381.02	408.92
1384.6	544.809
1388.18	572.389
1391.77	0
