Measurement: Raman, 514 nm, ccw, Raman Data Processed
Mineral: Inderite
Rruff sample: R050195
Ideal chemistry: MgB_3_O_3_(OH)_5_5H_2_O
Locality: Boron, Kern County, California, USA
Source: Dave Bunk Minerals
Description: Colorless prismatic crystal
Measured chemistry: Mg_1.00_B_3.00_O_3_(OH)_5_Â·5H_2_O ; Mg measured, only
Pin_id: L00488
Orientation: Laser parallel to a* (1 0 0). Fiducial mark perpendicular to laser is parallel to b [0 1 0]
Raman shift (cm-1)	intensity
103.82	0
107.995	5479.42
112.168	1553.33
116.339	2111.38
120.508	1598.04
124.675	10526.9
128.84	19170.7
133.003	9250.48
137.164	1065.31
141.323	215.91
145.48	2265.84
149.635	7290.15
153.788	4268.37
157.939	1033.42
162.088	1411.36
166.235	3970.19
170.38	3311.3
174.523	533.672
178.664	327.881
182.803	203.068
186.94	1662.81
191.076	4345.14
195.209	4450.74
199.34	2002.88
203.47	320.922
207.597	399.045
211.722	514.064
215.846	705.207
219.967	1028.06
224.087	710.01
228.204	236.062
232.32	164.693
236.434	273.318
240.545	746.906
244.655	1208.43
248.763	777.727
252.869	322.555
256.973	116.383
261.075	444.812
265.175	620.988
269.273	160.582
273.369	210.137
277.463	358.135
281.556	789.35
285.646	1549.46
289.734	3143.78
293.821	5139.76
297.905	8621.35
301.988	9936.54
306.069	7227.4
310.147	4838.83
314.224	4065.41
318.299	3727.31
322.372	2451.44
326.443	2182.25
330.512	2591.81
334.579	4383.28
338.645	7727.73
342.708	12449.4
346.769	14362.6
350.829	10912.6
354.887	7300.78
358.942	5048.57
362.996	3893.64
367.048	2955.69
371.098	2579.15
375.146	1998.1
379.192	2270.62
383.236	2502.63
387.279	2593.76
391.319	2552.32
395.358	2812.03
399.394	3684.79
403.429	4818.58
407.462	6337.2
411.493	9847.62
415.522	16678.5
419.549	26746.6
423.575	30505.6
427.598	21946.9
431.619	13688.5
435.639	10894.8
439.657	13518.4
443.673	14275.1
447.687	8240.39
451.699	4055.2
455.709	1761.56
459.717	738.506
463.724	224.049
467.728	144.246
471.731	83.166
475.732	119.582
479.731	738.635
483.728	2161.46
487.723	5628.11
491.716	10968.6
495.708	12017
499.697	7221.17
503.685	3905.51
507.671	1891.38
511.655	756.303
515.637	250.301
519.617	112.371
523.596	112.443
527.572	132.258
531.547	386.865
535.52	177.697
539.491	88.496
543.46	72.826
547.427	94.154
551.393	305.291
555.356	411.637
559.318	1072.94
563.278	1776.44
567.236	3200.13
571.192	4880
575.147	7138.07
579.099	9983.83
583.05	12821
586.999	12781
590.946	9895.53
594.891	7630.36
598.834	6082.85
602.776	5478.58
606.715	6145.54
610.653	7272.74
614.589	9151.19
618.523	11982.9
622.456	15363.8
626.386	20488
630.315	25854.3
634.242	30094.3
638.167	31356.4
642.09	30411.7
646.012	27554.6
649.931	23295.6
653.849	19150.8
657.765	15389.3
661.679	12594.2
665.592	10186.4
669.502	8563.94
673.411	7011.98
677.318	5674.6
681.223	4528.62
685.126	3708.86
689.028	3338.01
692.927	2709.42
696.825	2215.2
700.721	1430.91
704.616	982.871
708.508	1136.92
712.399	801.209
716.288	586.715
720.175	760.445
724.06	1191.39
727.944	2207.55
731.825	3801.92
735.705	6842.49
739.584	12709.2
743.46	18725.2
747.334	15993.2
751.207	10469.4
755.078	6287.7
758.947	3934.1
762.815	2834.59
766.68	2459.18
770.544	1996.86
774.406	1690.63
778.267	1056.48
782.125	531.408
785.982	265.418
789.837	280.664
793.69	406.977
797.542	109.35
801.391	212.707
805.239	52.084
809.085	245.51
812.93	523.98
816.772	922.486
820.613	541.371
824.452	224.16
828.29	141.1
832.125	219.641
835.959	0.67
839.791	14.025
843.621	161.766
847.45	181.039
851.277	55.074
855.102	74.543
858.925	767.125
862.746	739.648
866.566	979.094
870.384	1055.47
874.2	1307.77
878.015	2201.99
881.828	2769.14
885.639	3006.23
889.448	2944.24
893.256	2513.19
897.061	2130.06
900.865	1859.88
904.668	1635.61
908.468	1254.29
912.267	1081.89
916.064	467.43
919.86	217.906
923.653	412.316
927.445	425.664
931.236	548.957
935.024	651.191
938.811	678.367
942.596	964.492
946.379	1931.56
950.161	2056.59
953.94	1940.31
957.719	1186.25
961.495	701.168
965.27	159.059
969.043	90.07
972.814	89.551
976.583	284.035
980.351	114.074
984.117	93.461
987.882	149.25
991.644	381.59
995.405	192.914
999.165	346.508
1002.92	1080.92
1006.68	870.133
1010.43	556.719
1014.18	801.492
1017.93	1020.46
1021.68	1419.65
1025.43	1818.09
1029.18	1471.77
1032.92	1644.77
1036.66	1066.12
1040.4	1354.71
1044.14	1588.43
1047.88	2079.28
1051.62	3122.25
1055.35	3512.36
1059.08	3954.62
1062.81	3294.05
1066.54	2534.65
1070.27	1999.5
1073.99	1859.5
1077.72	1694.68
1081.44	1578.06
1085.16	1346.68
1088.88	943.57
1092.59	799.758
1096.31	476.285
1100.02	829.172
1103.73	1178.48
1107.44	1453.16
1111.15	1573.24
1114.86	1643.7
1118.57	2168.15
1122.27	2864.53
1125.97	3878.09
1129.67	5225.01
1133.37	6471.25
1137.07	7318.56
1140.76	6922
1144.45	5640.77
1148.15	4958.56
1151.84	4442.49
1155.53	4256.4
1159.21	4322.86
1162.9	4355.79
1166.58	4240.19
1170.26	3899.47
1173.94	3315.16
1177.62	2735.38
1181.3	2353.68
1184.97	2336.14
1188.65	2139.33
1192.32	2134.64
1195.99	1318.5
1199.66	1092.93
1203.33	403.941
1206.99	163.574
1210.65	191.863
1214.32	368.816
1217.98	686.461
1221.64	1065.81
1225.29	848.855
1228.95	436.051
1232.6	758.051
1236.26	383.527
1239.91	425.809
1243.56	952.949
1247.2	1084.88
1250.85	1583.57
1254.49	1826.78
1258.13	1558.14
1261.78	1175.23
1265.41	1016.16
1269.05	885.156
1272.69	890.418
1276.32	1440.91
1279.95	1523.49
1283.59	1465.15
1287.21	1713.82
1290.84	1297.55
1294.47	739.887
1298.09	226.793
1301.72	87.844
1305.34	48.875
1308.96	174.047
1312.58	910.305
1316.19	1484.25
1319.81	1442.42
1323.42	1511.62
1327.03	1317.77
1330.64	0
