Measurement: Raman, 514 nm, ccw, Raman Data Processed
Mineral: Inderite
Rruff sample: R050195
Ideal chemistry: MgB_3_O_3_(OH)_5_5H_2_O
Locality: Boron, Kern County, California, USA
Source: Dave Bunk Minerals
Description: Colorless prismatic crystal
Measured chemistry: Mg_1.00_B_3.00_O_3_(OH)_5_Â·5H_2_O ; Mg measured, only
Pin_id: L00488
Orientation: Laser parallel to a* (1 0 0). Fiducial mark perpendicular to laser is parallel to b [0 1 0]
Raman shift (cm-1)	intensity
102.428	0
106.604	2120.98
110.777	2663.37
114.949	2072.74
119.119	447.629
123.286	6195.02
127.452	10145.1
131.615	5951.94
135.777	678.348
139.937	122.715
144.094	734.676
148.25	3681.3
152.403	5058.87
156.555	3928.52
160.705	2839.6
164.853	6355.72
168.998	11483.5
173.142	7412.37
177.284	3398.24
181.424	4329.91
185.562	9076.05
189.698	13202.8
193.831	14075.1
197.963	8311.3
202.093	3299.51
206.221	781.148
210.347	252.734
214.472	201.809
218.594	46.863
222.714	339.504
226.832	218.475
230.948	834.408
235.063	2058.92
239.175	2685.47
243.286	2078.72
247.394	2023.11
251.501	955.084
255.605	179.77
259.708	152.91
263.808	149.281
267.907	630.518
272.004	602.92
276.099	125.887
280.192	666.396
284.283	1187.81
288.372	2217.83
292.459	4516.82
296.544	8433.3
300.627	11094.7
304.709	9532.15
308.788	6435.1
312.865	4974.3
316.941	4190.77
321.015	2812.8
325.086	1489.16
329.156	902.672
333.224	915.785
337.29	2093.31
341.354	4141.31
345.416	6006.36
349.476	5720.06
353.534	5536.02
357.591	5510.64
361.645	4743.33
365.698	3950.05
369.748	4039.34
373.797	4351.34
377.844	4910.24
381.889	5698.27
385.932	6516.05
389.973	7143.24
394.012	7003.01
398.049	5861.57
402.084	5148.78
406.118	5216.89
410.15	5806.86
414.179	7470.71
418.207	10955.2
422.233	14431.2
426.257	12244.8
430.279	7307.2
434.299	5346.29
438.318	5918.36
442.334	7124.71
446.349	4816.18
450.361	2647.3
454.372	1421.05
458.381	1351.44
462.388	1021.48
466.394	1315.51
470.397	1803.6
474.398	2907.7
478.398	4324.53
482.396	7016.11
486.391	13514.4
490.385	26209.6
494.377	33938.7
498.368	24954.7
502.356	16512.6
506.342	10639.4
510.327	5713.23
514.31	2515.38
518.291	1058.02
522.27	564.281
526.247	228.398
530.222	169.486
534.196	326.988
538.167	359.67
542.137	260.119
546.105	194.338
550.071	250.637
554.035	126.455
557.998	478.387
561.958	1159.31
565.917	2142.24
569.874	2773.16
573.829	4488.08
577.782	6336
581.733	8182.24
585.683	8911.38
589.63	7365.89
593.576	5970.12
597.52	4773.44
601.462	4253.08
605.402	4410.7
609.341	4767.31
613.277	6013.89
617.212	7910.45
621.145	10792
625.076	13995.5
629.006	17946
632.933	21683.5
636.859	24112.9
640.783	23112.4
644.705	20537.1
648.625	17474
652.543	13739
656.46	10981.6
660.375	8373.1
664.288	6619.75
668.199	5311.49
672.108	4207.02
676.016	3681.92
679.921	2922.83
683.825	2408.18
687.727	2623.02
691.628	2016.02
695.526	1889.3
699.423	1736.75
703.318	1226.45
707.211	769.301
711.102	846.814
714.992	1044.49
718.879	1158.2
722.765	1457.67
726.649	2089.91
730.532	3810.9
734.412	6475.64
738.291	12095.1
742.168	19526.4
746.043	20373.3
749.916	14258.9
753.788	8916.24
757.658	5815.21
761.526	4128.83
765.392	3311.11
769.257	2794.04
773.119	2405.62
776.98	1715.86
780.839	1258.74
784.697	1174.27
788.552	521.441
792.406	344.262
796.258	343.727
800.108	434.826
803.957	378.555
807.804	17.875
811.649	81.66
815.492	146.434
819.333	68.211
823.173	140.791
827.011	218.115
830.847	327.762
834.681	394.734
838.514	379.832
842.345	172.203
846.174	143.168
850.001	47.625
853.827	533.312
857.651	852.25
861.473	1655.32
865.293	1838.5
869.112	2179.4
872.928	2211.02
876.744	2503.38
880.557	2992.48
884.369	3350.33
888.178	3011.94
891.987	2758.33
895.793	2340.49
899.598	2079.45
903.401	1707.22
907.202	1439.8
911.001	1163.2
914.799	1397.44
918.595	1076.53
922.389	528.477
926.182	556.289
929.972	650.98
933.761	806.57
937.549	1055.1
941.334	1536.54
945.118	1495.91
948.9	1720.11
952.681	1323.64
956.459	988.516
960.236	680.945
964.012	322.594
967.785	182.809
971.557	164.203
975.327	13.898
979.095	29.102
982.862	202.043
986.627	497.266
990.39	617.273
994.152	843.402
997.912	1465.71
1001.67	2679.52
1005.43	3049.74
1009.18	3406.69
1012.93	3645.16
1016.68	3504.18
1020.43	3604.73
1024.18	3183.72
1027.93	3164.13
1031.67	2762.97
1035.42	2057.48
1039.16	1600.5
1042.9	1515.04
1046.63	1650.06
1050.37	1952.55
1054.11	2721.52
1057.84	2900.95
1061.57	2896.85
1065.3	2471.2
1069.03	1431.98
1072.75	872.215
1076.47	891.883
1080.2	947.516
1083.92	1027.41
1087.64	835.453
1091.36	616.844
1095.07	532.855
1098.79	59.637
1102.5	168.578
1106.21	201.031
1109.92	463.293
1113.62	618.211
1117.33	1090.36
1121.04	1296.39
1124.74	1978.53
1128.44	2275.51
1132.14	3012.65
1135.83	3577.5
1139.53	4494.92
1143.22	4589.79
1146.92	3994.28
1150.61	3392.06
1154.3	3106.22
1157.98	3242.54
1161.67	3796.6
1165.35	4191.48
1169.04	4817.65
1172.72	5282.65
1176.4	4880.94
1180.07	3895.73
1183.75	3017.37
1187.42	2740.79
1191.1	2101.03
1194.77	1973.69
1198.44	2021.68
1202.1	1810.75
1205.77	1123.22
1209.43	646.57
1213.1	281.035
1216.76	180.992
1220.42	195.414
1224.07	468.617
1227.73	565.152
1231.38	466.742
1235.04	67.109
1238.69	748.609
1242.34	477.672
1245.99	198.676
1249.63	462.762
1253.28	574.332
1256.92	707.234
1260.56	994.285
1264.2	1075.37
1267.84	737.23
1271.48	738.059
1275.11	503.27
1278.74	356.012
1282.38	282.809
1286.01	365.062
1289.63	675.074
1293.26	516.027
1296.89	650.211
1300.51	240.906
1304.13	52.414
1307.75	28.289
1311.37	139.301
1314.99	13.316
1318.6	84.137
1322.22	265.039
1325.83	385.551
1329.44	657.934
1333.05	596.043
1336.66	496.484
1340.26	392.742
1343.87	103.016
1347.47	391.582
1351.07	431.617
1354.67	748.078
1358.27	852.77
1361.86	970.129
1365.46	789.328
1369.05	417.914
1372.64	371.305
