Measurement: Raman, 514 nm, ccw, Raman Data Processed
Mineral: Inderite
Rruff sample: R050195
Ideal chemistry: MgB_3_O_3_(OH)_5_5H_2_O
Locality: Boron, Kern County, California, USA
Source: Dave Bunk Minerals
Description: Colorless prismatic crystal
Measured chemistry: Mg_1.00_B_3.00_O_3_(OH)_5_Â·5H_2_O ; Mg measured, only
Pin_id: L00380
Orientation: Laser parallel to -b* (0 -1 0). Fiducial mark perpendicular to laser is parallel to -c [0 0 -1]
Raman shift (cm-1)	intensity
87.101	0
91.284	6785.33
95.465	19412.5
99.644	13199.4
103.82	3172.64
107.995	2984.16
112.168	91.555
116.339	637.316
120.508	2019.39
124.675	8054.52
128.84	6868.11
133.003	2037.62
137.164	2183.11
141.323	3877.07
145.48	3359.67
149.635	6595.33
153.788	5849.38
157.939	6181.16
162.088	13095.5
166.235	28315.5
170.38	26963.1
174.523	13880.9
178.664	9005.09
182.803	10938.9
186.94	10194.8
191.076	6642.76
195.209	2164.99
199.34	42.695
203.47	655.361
207.597	626.421
211.722	611.333
215.846	491.277
219.967	95.19
224.087	185.162
228.204	671.838
232.32	1860.77
236.434	3744.28
240.545	4059.03
244.655	3758.02
248.763	2859.45
252.869	1717.22
256.973	862.125
261.075	378.669
265.175	219.494
269.273	47.526
273.369	146.106
277.463	587.005
281.556	1477.01
285.646	2168.23
289.734	3029.67
293.821	5540.9
297.905	9132.45
301.988	10167.5
306.069	7422.44
310.147	6438.29
314.224	6848.53
318.299	5456.68
322.372	2756.97
326.443	1262.01
330.512	654.882
334.579	501.454
338.645	349.511
342.708	715.169
346.769	1005.67
350.829	1067.7
354.887	1173.39
358.942	1743.68
362.996	2537.59
367.048	2911.56
371.098	3246.24
375.146	4342.4
379.192	5582.87
383.236	5891.31
387.279	5132.12
391.319	4655.32
395.358	4282.68
399.394	4071.72
403.429	4058.64
407.462	4588.83
411.493	5796.8
415.522	7098.56
419.549	8571.95
423.575	8752.59
427.598	7101.35
431.619	5424.54
435.639	5169.03
439.657	6911.9
443.673	6932.68
447.687	4538.52
451.699	2576.44
455.709	2071.48
459.717	1866.66
463.724	2082.03
467.728	2409.61
471.731	2936.43
475.732	4075.64
479.731	6409.38
483.728	10523.7
487.723	19257.7
491.716	32571.7
495.708	31640.5
499.697	19996.6
503.685	13074.6
507.671	7715.61
511.655	3931.61
515.637	2150.12
519.617	1029.36
523.596	328.488
527.572	198.738
531.547	11.518
535.52	155.531
539.491	262.088
543.46	482.404
547.427	234.551
551.393	65.207
555.356	160.178
559.318	174.41
563.278	571.316
567.236	978.949
571.192	1923.32
575.147	2891.42
579.099	3904.27
583.05	5392.85
586.999	4991.29
590.946	3564.06
594.891	2447.27
598.834	2003.5
602.776	2277.54
606.715	2669.38
610.653	3409.03
614.589	4196.52
618.523	5760.83
622.456	8247.98
626.386	10884
630.315	12813.9
634.242	14803.6
638.167	15511.9
642.09	14669.8
646.012	12360.1
649.931	9512.4
653.849	7245.75
657.765	5455.36
661.679	4216.07
665.592	3195.73
669.502	2296.68
673.411	1872.26
677.318	1426.49
681.223	1479.06
685.126	1222.29
689.028	1174.8
692.927	917.293
696.825	942.752
700.721	861.615
704.616	504.303
708.508	587.01
712.399	426.176
716.288	513.02
720.175	868.35
724.06	1150.18
727.944	2139.8
731.825	3515.22
735.705	6606.44
739.584	12255.5
743.46	16872.3
747.334	13498.9
751.207	8525.32
755.078	5253.52
758.947	3690.5
762.815	2890.27
766.68	2353.83
770.544	1865.17
774.406	1436.31
778.267	960.242
782.125	810.965
785.982	430.482
789.837	395.795
793.69	414.902
797.542	552.787
801.391	525.598
805.239	396.242
809.085	591.725
812.93	712.086
816.772	638.393
820.613	646.627
824.452	476.684
828.29	57.521
832.125	16.98
835.959	188.068
839.791	81.398
843.621	422.084
847.45	450.438
851.277	223.131
855.102	10.273
858.925	190.793
862.746	416.396
866.566	555.879
870.384	849.727
874.2	1395.44
878.015	2058.99
881.828	2524.4
885.639	2287.67
889.448	1943.8
893.256	1750.8
897.061	1475.67
900.865	1450.41
904.668	980.029
908.468	981.531
912.267	681.914
916.064	640.186
919.86	655.408
923.653	676.404
927.445	527.375
931.236	688.312
935.024	544.238
938.811	1221.08
942.596	1321.84
946.379	2170.83
950.161	2561.36
953.94	2381.38
957.719	1674.46
961.495	1272.87
965.27	851.432
969.043	667.822
972.814	713.396
976.583	552.135
980.351	450.922
984.117	313.553
987.882	467.316
991.644	746.416
995.405	797.326
999.165	1577.98
1002.92	1743.21
1006.68	1746.94
1010.43	1224.15
1014.18	1139.03
1017.93	1416.41
1021.68	1885.92
1025.43	1730.85
1029.18	1759.39
1032.92	1176.54
1036.66	683.848
1040.4	456.268
1044.14	488.773
1047.88	747.35
1051.62	981.967
1055.35	1145.62
1059.08	1464.31
1062.81	1285.99
1066.54	995.645
1070.27	910.262
1073.99	698.582
1077.72	805.414
1081.44	638.199
1085.16	554.359
1088.88	127.047
1092.59	142.754
1096.31	237.654
1100.02	146.381
1103.73	453.707
1107.44	222.01
1111.15	227.82
1114.86	289.207
1118.57	212.518
1122.27	37.607
1125.97	345.412
1129.67	620.756
1133.37	733.807
1137.07	1027.81
1140.76	1106.87
1144.45	915.91
1148.15	1209.92
1151.84	1608.93
1155.53	2348.66
1159.21	2921.71
1162.9	3431.29
1166.58	3665.67
1170.26	3821.85
1173.94	3855.96
1177.62	3422.86
1181.3	3187.09
1184.97	2941
1188.65	2846.92
1192.32	2353.52
1195.99	1996.25
1199.66	1918.08
1203.33	1347.19
1206.99	1127.33
1210.65	902.305
1214.32	796.871
1217.98	638.076
1221.64	756.828
1225.29	432.418
1228.95	203.299
1232.6	200.043
1236.26	49.18
1239.91	311.873
1243.56	583.824
1247.2	879.699
1250.85	841.541
1254.49	678
1258.13	559.684
1261.78	270.316
1265.41	64.84
1269.05	204.156
1272.69	499.119
1276.32	972.918
1279.95	813.773
1283.59	874.082
1287.21	253.334
1290.84	268.777
1294.47	162.645
1298.09	363.654
1301.72	31.424
1305.34	216.256
1308.96	435.287
1312.58	598.947
1316.19	887.451
1319.81	668.238
1323.42	447.668
1327.03	41.764
1330.64	398.078
1334.25	332.072
1337.86	824.168
1341.46	1332.73
1345.07	1990.7
1348.67	2608.04
1352.27	2306.63
1355.87	1505.67
1359.46	1057.96
1363.06	344.555
1366.65	69.121
1370.25	12.633
1373.84	106.434
