Measurement: Raman, 514 nm, ccw, Raman Data Processed
Mineral: Inderite
Rruff sample: R050195
Ideal chemistry: MgB_3_O_3_(OH)_5_5H_2_O
Locality: Boron, Kern County, California, USA
Source: Dave Bunk Minerals
Description: Colorless prismatic crystal
Measured chemistry: Mg_1.00_B_3.00_O_3_(OH)_5_Â·5H_2_O ; Mg measured, only
Pin_id: L00296
Orientation: Laser parallel to c* (0 0 1). Fiducial mark perpendicular to laser is parallel to a [1 0 0]
Raman shift (cm-1)	intensity
99.644	0
103.82	4074.93
107.995	7748.62
112.168	2016.11
116.339	125.925
120.508	274.859
124.675	3522.19
128.84	7980.76
133.003	6890.77
137.164	4929.37
141.323	4330.95
145.48	3934.36
149.635	4660.3
153.788	5311.85
157.939	4330.1
162.088	4758.8
166.235	6389.06
170.38	5864.23
174.523	3033.86
178.664	1137.23
182.803	491.881
186.94	728.709
191.076	1491.02
195.209	2183.15
199.34	1727.84
203.47	322.643
207.597	157.873
211.722	161.96
215.846	438.393
219.967	282.399
224.087	209.197
228.204	3.773
232.32	95.121
236.434	186.671
240.545	21.59
244.655	466.993
248.763	875.124
252.869	1117.89
256.973	1201.97
261.075	670.572
265.175	269.613
269.273	15.17
273.369	300.479
277.463	556.305
281.556	584.051
285.646	603.91
289.734	601.387
293.821	1027.58
297.905	1696.8
301.988	2257.67
306.069	1741.32
310.147	1336.02
314.224	1562.96
318.299	2146.93
322.372	2558.84
326.443	3529.23
330.512	3869.21
334.579	2848.16
338.645	2516.32
342.708	3450.82
346.769	3861.63
350.829	3080.54
354.887	1974.66
358.942	1257.02
362.996	933.588
367.048	1226.73
371.098	1846.96
375.146	1729.61
379.192	2322.66
383.236	2574.53
387.279	2537.5
391.319	2083.52
395.358	2183.25
399.394	2174.02
403.429	2533.99
407.462	2827.96
411.493	4231.24
415.522	7270.7
419.549	11586.4
423.575	13669.2
427.598	11033.3
431.619	7966.22
435.639	6988.02
439.657	8050.22
443.673	8558.31
447.687	5577.31
451.699	3097.19
455.709	2057.96
459.717	1156.62
463.724	902.191
467.728	1252.71
471.731	1594.25
475.732	1707.88
479.731	2598.66
483.728	4643.66
487.723	9074.86
491.716	15609.2
495.708	16534.8
499.697	10256.5
503.685	5101.3
507.671	2515.24
511.655	1146.29
515.637	398.469
519.617	169.76
523.596	34.611
527.572	16.266
531.547	331.074
535.52	133.619
539.491	63.182
543.46	73.154
547.427	38.936
551.393	38.32
555.356	354.994
559.318	843.287
563.278	1170.69
567.236	1558.35
571.192	2171.7
575.147	2867.11
579.099	3442.58
583.05	3974.1
586.999	3844.67
590.946	3101.33
594.891	2354.12
598.834	1773.94
602.776	1575.81
606.715	1492.7
610.653	2259.64
614.589	3442.61
618.523	4185.61
622.456	5566.81
626.386	7794.18
630.315	9705.4
634.242	11995.8
638.167	12264.6
642.09	12021.7
646.012	10980.8
649.931	9361.28
653.849	7902.67
657.765	6171.71
661.679	4999.72
665.592	4244.69
669.502	3291.72
673.411	2816.93
677.318	2026.19
681.223	1660.13
685.126	1377.66
689.028	1304.88
692.927	983.789
696.825	774.281
700.721	492.729
704.616	320.498
708.508	491.018
712.399	376.734
716.288	217.678
720.175	76.418
724.06	486.988
727.944	897.406
731.825	1743.68
735.705	3026.85
739.584	5390.9
743.46	8345.77
747.334	7433.48
751.207	4804.01
755.078	2760.36
758.947	1499.52
762.815	914.488
766.68	761.549
770.544	740.676
774.406	486.4
778.267	222.621
782.125	61.406
785.982	99.846
789.837	59.164
793.69	77.674
797.542	122.678
801.391	231.301
805.239	33.295
809.085	390.861
812.93	683.828
816.772	722.625
820.613	499.205
824.452	181.564
828.29	107.873
832.125	333.66
835.959	128.402
839.791	18.426
843.621	178.471
847.45	247.006
851.277	147.748
855.102	432.385
858.925	754.879
862.746	530.268
866.566	811.049
870.384	1227.06
874.2	1734.13
878.015	2533.79
881.828	3009.24
885.639	2483.11
889.448	2035.03
893.256	1740.33
897.061	1280.98
900.865	1201.45
904.668	838.719
908.468	707.24
912.267	505.697
916.064	193.412
919.86	128.934
923.653	455.266
927.445	310.768
931.236	717.182
935.024	748.748
938.811	1213.11
942.596	1728.87
946.379	2788.44
950.161	3273.95
953.94	3187
957.719	2321.23
961.495	1588.02
965.27	1126.01
969.043	866.541
972.814	826.945
976.583	424.816
980.351	774.285
984.117	91.377
987.882	53.447
991.644	396.199
995.405	372.25
999.165	813.781
1002.92	1340.13
1006.68	1025.19
1010.43	800.82
1014.18	637.559
1017.93	774.436
1021.68	730.473
1025.43	814.584
1029.18	668.705
1032.92	353.854
1036.66	46.068
1040.4	60.068
1044.14	144.873
1047.88	378.836
1051.62	688.816
1055.35	692.803
1059.08	952.791
1062.81	866.773
1066.54	547.477
1070.27	145.91
1073.99	338.869
1077.72	512.471
1081.44	464.547
1085.16	395.561
1088.88	12.699
1092.59	130.025
1096.31	190.795
1100.02	218.764
1103.73	321.152
1107.44	467.043
1111.15	50.98
1114.86	137.945
1118.57	190.984
1122.27	706.121
1125.97	843.355
1129.67	1426.52
1133.37	1837.88
1137.07	2725.6
1140.76	2686.11
1144.45	2203.03
1148.15	1767.8
1151.84	1636.4
1155.53	1647.94
1159.21	1848.62
1162.9	2182.22
1166.58	2317.97
1170.26	2152.03
1173.94	2155.21
1177.62	1849.44
1181.3	1876.91
1184.97	1829.02
1188.65	2007.98
1192.32	1902.95
1195.99	1774.49
1199.66	1979.33
1203.33	2379.3
1206.99	1319.5
1210.65	1218.31
1214.32	1080.77
1217.98	950.863
1221.64	940.586
1225.29	962.129
1228.95	767.688
1232.6	610.285
1236.26	290.062
1239.91	433.793
1243.56	352.145
1247.2	1006.98
1250.85	980.969
1254.49	1046.87
1258.13	1364.08
1261.78	1264.83
1265.41	500.133
1269.05	471.637
1272.69	344.641
1276.32	624.109
1279.95	954.211
1283.59	970.277
1287.21	797.602
1290.84	655.113
1294.47	562.766
1298.09	190.301
1301.72	97.969
1305.34	111.086
1308.96	154.109
1312.58	247.898
1316.19	775.301
1319.81	571.027
1323.42	592.73
1327.03	609.148
1330.64	571.398
1334.25	363.453
1337.86	598.215
1341.46	898.727
1345.07	1717.85
1348.67	2313.42
1352.27	2941.55
1355.87	2580
1359.46	2114.69
1363.06	1458.54
1366.65	698.051
1370.25	388.16
1373.84	62.148
1377.43	393.961
1381.02	259.457
