Measurement: Raman, 514 nm, ccw, Raman Data Processed
Mineral: Inderite
Rruff sample: R050195
Ideal chemistry: MgB_3_O_3_(OH)_5_5H_2_O
Locality: Boron, Kern County, California, USA
Source: Dave Bunk Minerals
Description: Colorless prismatic crystal
Measured chemistry: Mg_1.00_B_3.00_O_3_(OH)_5_Â·5H_2_O ; Mg measured, only
Pin_id: L00373
Orientation: Laser parallel to (1 0 1). Fiducial mark perpendicular to laser is parallel to b [0 1 0]
Raman shift (cm-1)	intensity
71.747	0
75.937	15.349
80.125	634.711
84.311	303.097
88.496	779.708
92.678	5452.1
96.858	13664.9
101.036	5324.02
105.212	3988.3
109.387	5738.67
113.559	2501.99
117.729	1100.8
121.897	1694.73
126.063	3321.07
130.228	1389.89
134.39	1081.62
138.55	3051.61
142.709	5476.98
146.865	4643.98
151.019	6863.01
155.171	4736.12
159.322	4127.61
163.47	6632.51
167.617	12784.6
171.761	14309.6
175.904	8634.74
180.044	7736.49
184.183	12644.8
188.319	14016.5
192.454	10476.6
196.586	4403.88
200.717	1305.38
204.846	307.042
208.972	56.677
213.097	140.827
217.22	159.248
221.341	52.482
225.46	442.326
229.577	824.322
233.692	1793.61
237.805	3280.77
241.916	2230.86
246.025	663.714
250.132	191.951
254.237	14.268
258.34	141.528
262.442	120.26
266.541	9.699
270.639	61.07
274.734	207.051
278.828	647.056
282.919	1441.06
287.009	2165.02
291.097	3156.89
295.183	5330.68
299.266	8912.42
303.348	9396.11
307.428	6501.55
311.507	5144.79
315.583	5265.44
319.657	4013.1
323.729	2108.78
327.8	973.434
331.868	443.56
335.935	31.884
339.999	236.493
344.062	140.556
348.123	93.962
352.182	269.388
356.239	648.853
360.294	1319.36
364.347	1681.91
368.398	2086.49
372.448	2667.33
376.495	3948.17
380.54	5323.77
384.584	5510.61
388.626	4656.7
392.666	3754.31
396.704	2959.05
400.74	2125.08
404.774	1742.66
408.806	1740.79
412.836	2080.93
416.865	2645.27
420.891	3774.23
424.916	4291.21
428.939	4099.93
432.959	3528.15
436.978	3904.29
440.996	6104.43
445.011	6016.57
449.024	3263.7
453.036	1852.84
457.045	1426.97
461.053	1564.11
465.059	1892.26
469.063	2534.41
473.065	3583.59
477.065	5941.8
481.063	9952.05
485.06	17472.4
489.054	33243.7
493.047	55873.1
497.038	51186.7
501.027	30401.7
505.014	18638.2
508.999	11370.8
512.982	6314.5
516.964	3563.84
520.944	1944.59
524.921	1161.82
528.897	736.491
532.871	452.602
536.844	183.288
540.814	65.351
544.783	80.479
548.749	87.655
552.714	103.38
556.677	219.744
560.638	167.768
564.597	9.824
568.555	247.41
572.511	455.093
576.464	613.926
580.416	1274.02
584.366	1959.41
588.315	2022.12
592.261	1374.02
596.206	969.014
600.148	1088.11
604.089	1445.29
608.028	2012.57
611.965	2710.94
615.901	3684.4
619.834	5554.95
623.766	8016.59
627.696	10819.3
631.624	13296.1
635.551	15281
639.475	16670
643.398	16316.1
647.318	13236.2
651.237	10363.5
655.155	7868.83
659.07	6191.57
662.984	4888.89
666.895	3629.83
670.805	2597.81
674.713	2062.75
678.62	1814.35
682.524	1584.66
686.427	1246.74
690.328	1029.2
694.227	1036.22
698.124	1045.98
702.02	959.827
705.913	747.523
709.805	627.38
713.695	608.815
717.584	864.59
721.47	1109.15
725.355	1605.71
729.238	2327.24
733.119	4140.73
736.998	7764.18
740.876	14202.6
744.752	18843.9
748.626	14822.2
752.498	9364.46
756.368	6351.62
760.237	4638.72
764.104	3791.74
767.969	3328.69
771.832	2646.57
775.693	2140.36
779.553	1733.1
783.411	1251.79
787.267	906.419
791.122	644.019
794.974	459.574
798.825	462.124
802.674	542.685
806.522	402.207
810.367	162.652
814.211	48
818.053	92.212
821.893	38.182
825.732	0.407
829.568	110.679
833.403	179.782
837.236	125.787
841.068	75.611
844.898	38.243
848.726	29.694
852.552	17.854
856.376	63.625
860.199	418.151
864.02	823.915
867.839	1380.93
871.656	1884.16
875.472	2690.43
879.286	3443.59
883.098	3812.63
886.909	3613.55
890.717	2931.33
894.524	2226
898.33	1727.54
902.133	1342.96
905.935	1154.27
909.735	1104.45
913.533	972.522
917.33	802.475
921.124	721.314
924.918	634.04
928.709	811.316
932.499	857.84
936.286	996.038
940.073	1162.61
943.857	1406.56
947.64	1743.52
951.421	1952.52
955.2	1800.46
958.978	1459.64
962.753	1077.25
966.527	890.759
970.3	821.63
974.071	673.101
977.84	747.589
981.607	787.76
985.372	778.854
989.136	812.955
992.898	995.022
996.659	1349.9
1000.42	1925.39
1004.17	2167.98
1007.93	2179.85
1011.68	1775.92
1015.43	1632.04
1019.18	1496.26
1022.93	1669.61
1026.68	1830.03
1030.42	1726.54
1034.17	1287.11
1037.91	893.768
1041.65	568.473
1045.39	481.221
1049.12	530.01
1052.86	576.846
1056.59	629.729
1060.33	584.66
1064.06	391.635
1067.78	193.651
1071.51	81.703
1075.23	56.791
1078.96	115.897
1082.68	149.991
1086.4	63.042
1090.12	84.946
1093.83	75.019
1097.55	143.097
1101.26	27.972
1104.97	102.7
1108.68	110.21
1112.39	95.773
1116.1	61.415
1119.8	104.157
1123.5	386.099
1127.2	466.392
1130.9	701.092
1134.6	944.261
1138.3	1016.89
1141.99	1113.94
1145.69	1221.43
1149.38	1340.34
1153.07	1589.63
1156.76	2041.42
1160.44	2624.97
1164.13	3122.95
1167.81	3578.82
1171.49	3623.74
1175.17	3483.28
1178.85	3143.57
1182.52	2980.37
1186.2	2811.73
1189.87	2808.8
1193.54	2703.45
1197.21	2565.13
1200.88	2256.94
1204.55	1637.75
1208.21	1266.13
1211.88	994.098
1215.54	862.677
1219.2	772.997
1222.86	599.156
1226.51	401.406
1230.17	226.165
1233.82	171.892
1237.47	149.384
1241.12	28.733
1244.77	81.13
1248.42	115.344
1252.06	237.315
1255.71	215.229
1259.35	207.176
1262.99	92.378
1266.63	110.802
1270.26	83.41
1273.9	181.142
1277.53	306.877
1281.16	416.345
1284.8	508.576
1288.42	356.609
1292.05	293.591
1295.68	118.579
1299.3	1.432
1302.92	0.609
1306.55	27.772
1310.16	115.21
1313.78	186.196
1317.4	188.817
1321.01	137.071
1324.62	117.143
1328.24	83.406
1331.85	50.839
1335.45	128.456
1339.06	347.352
1342.66	571.644
1346.27	929.645
1349.87	1165.51
1353.47	1129.8
1357.07	981.418
1360.66	602.319
1364.26	306.363
1367.85	183.733
1371.44	39.134
1375.04	69.899
1378.62	101.931
1382.21	196.406
1385.8	261.401
