Measurement: Raman, 514 nm, ccw, Raman Data Processed
Mineral: Inderite
Rruff sample: R050195
Ideal chemistry: MgB_3_O_3_(OH)_5_5H_2_O
Locality: Boron, Kern County, California, USA
Source: Dave Bunk Minerals
Description: Colorless prismatic crystal
Measured chemistry: Mg_1.00_B_3.00_O_3_(OH)_5_Â·5H_2_O ; Mg measured, only
Pin_id: L00373
Orientation: Laser parallel to (1 0 1). Fiducial mark perpendicular to laser is parallel to b [0 1 0]
Raman shift (cm-1)	intensity
92.678	0
96.858	3019.37
101.036	634.848
105.212	4492.36
109.387	11801
113.559	3852.85
117.729	1064.35
121.897	4959.33
126.063	19172.2
130.228	31491.9
134.39	12698.7
138.55	1997.4
142.709	865.759
146.865	5093.3
151.019	11463
155.171	5476.9
159.322	1636.39
163.47	3008.95
167.617	5981.49
171.761	3806.65
175.904	718.475
180.044	53.612
184.183	294.916
188.319	2434.79
192.454	6585.11
196.586	4731.31
200.717	1536.71
204.846	417.08
208.972	201.75
213.097	109.937
217.22	579.208
221.341	1302.77
225.46	512.103
229.577	261.517
233.692	187.579
237.805	336.067
241.916	728.909
246.025	1022.63
250.132	867.107
254.237	110.691
258.34	600.988
262.442	702.403
266.541	443.384
270.639	353.32
274.734	193.141
278.828	318.06
282.919	1183.88
287.009	2365.74
291.097	3961.26
295.183	7362.15
299.266	12696.2
303.348	13283.4
307.428	8832.74
311.507	6418.67
315.583	5956.94
319.657	4210.26
323.729	2896.84
327.8	2973.26
331.868	3866.99
335.935	5923.6
339.999	10634.7
344.062	17966.2
348.123	19888.1
352.182	13522.1
356.239	9028.68
360.294	6803.98
364.347	5137.07
368.398	3609.66
372.448	2938.22
376.495	2960.07
380.54	3114.08
384.584	2933.51
388.626	2944.94
392.666	3372.97
396.704	3992.85
400.74	4496.93
404.774	6020.93
408.806	8761.47
412.836	14364.7
416.865	23683.5
420.891	36540.8
424.916	40724.2
428.939	29331.5
432.959	17716.1
436.978	14186.8
440.996	19188
445.011	19609.3
449.024	10478
453.036	4687.17
457.045	2158.75
461.053	1084.81
465.059	346.372
469.063	44.496
473.065	150.876
477.065	304.99
481.063	1376.5
485.06	3187.71
489.054	7850.66
493.047	15801.4
497.038	16015
501.027	9460.42
505.014	4564.81
508.999	2133.39
512.982	1089.07
516.964	298.86
520.944	19.775
524.921	201.112
528.897	31.803
532.871	72.36
536.844	168.823
540.814	260.795
544.783	139.579
548.749	115.819
552.714	388.655
556.677	577.534
560.638	1159.33
564.597	2668.48
568.555	4818.9
572.511	6934.61
576.464	9295.65
580.416	13456
584.366	17927.4
588.315	17590.1
592.261	12960.8
596.206	9112.11
600.148	7803.39
604.089	7725.08
608.028	8586.12
611.965	9958.53
615.901	12291.3
619.834	16138.5
623.766	22064
627.696	28832.5
631.624	34990.3
635.551	39757.5
639.475	43283.6
643.398	41975.2
647.318	37071.3
651.237	30281.8
655.155	24420.7
659.07	20726
662.984	17000.8
666.895	13978
670.805	10856.7
674.713	8831.8
678.62	7614.85
682.524	6415.86
686.427	5280.85
690.328	4139.43
694.227	3474.38
698.124	3004.03
702.02	2544.05
705.913	1704.06
709.805	1229.96
713.695	992.131
717.584	1296.55
721.47	1511.21
725.355	2095.1
729.238	3058.21
733.119	5522.53
736.998	10581.1
740.876	19398.7
744.752	26525.6
748.626	20538.5
752.498	12466.5
756.368	8004.57
760.237	5421.68
764.104	4203.82
767.969	3238.99
771.832	2378.18
775.693	1910.55
779.553	1406.74
783.411	1135.93
787.267	777.207
791.122	451.586
794.974	270.932
798.825	387.226
802.674	552.458
806.522	499.62
810.367	586.702
814.211	629.693
818.053	873.583
821.893	790.888
825.732	492.193
829.568	93.477
833.403	248.804
837.236	347.159
841.068	247.85
844.898	172.379
848.726	223.09
852.552	111.315
856.376	95.441
860.199	309.84
864.02	798.819
867.839	1081.48
871.656	1474.83
875.472	2104.86
879.286	2854.56
883.098	3439.94
886.909	4136.98
890.717	3878.7
894.524	3251.08
898.33	2659.13
902.133	2097.84
905.935	1817.21
909.735	1637.24
913.533	1115.94
917.33	662.299
921.124	392.319
924.918	279.002
928.709	493.342
932.499	404.275
936.286	827.015
940.073	1158.35
943.857	1429.34
947.64	2152
951.421	2624.33
955.2	2299.32
958.978	1715.98
962.753	931.309
966.527	590.311
970.3	313.988
974.071	119.337
977.84	208.292
981.607	197.749
985.372	84.29
989.136	269.24
992.898	358.067
996.659	224.292
1000.42	121.996
1004.17	422.575
1007.93	425.701
1011.68	449.813
1015.43	642.346
1019.18	950.88
1022.93	1469.34
1026.68	1580.25
1030.42	1772.09
1034.17	1538.47
1037.91	1522.9
1041.65	1606.44
1045.39	2119.02
1049.12	2888.58
1052.86	3795.13
1056.59	4917.69
1060.33	5092.27
1064.06	4291.87
1067.78	3137.51
1071.51	2370.19
1075.23	1975.72
1078.96	1842.48
1082.68	1375.29
1086.4	1372.15
1090.12	1062.07
1093.83	1054.05
1097.55	860.101
1101.26	1109.2
1104.97	1560.32
1108.68	1969.49
1112.39	2206.7
1116.1	2633.99
1119.8	3091.37
1123.5	4376.24
1127.2	5934.04
1130.9	7507.16
1134.6	9153.34
1138.3	10072.8
1141.99	9456.62
1145.69	8689.06
1149.38	7223.44
1153.07	6406.52
1156.76	6095.23
1160.44	6297.85
1164.13	5957.21
1167.81	5821.53
1171.49	5391.19
1175.17	4673.9
1178.85	4157.37
1182.52	3684.03
1186.2	3336.7
1189.87	2798.2
1193.54	2293.27
1197.21	1821.86
1200.88	1241
1204.55	887.7
1208.21	505.554
1211.88	636.781
1215.54	842.753
1219.2	827.035
1222.86	967.525
1226.51	749.877
1230.17	653.326
1233.82	562.978
1237.47	864.688
1241.12	942.376
1244.77	1339.94
1248.42	1432.7
1252.06	1749.92
1255.71	1780.62
1259.35	1500.9
1262.99	1183.41
1266.63	1042.53
1270.26	1044.13
1273.9	1140.13
1277.53	1218.79
1281.16	1650.89
1284.8	1366.58
1288.42	1031.49
1292.05	721.399
1295.68	344.9
1299.3	83.994
1302.92	31.319
1306.55	25.06
1310.16	424.193
1313.78	586.213
1317.4	532.238
1321.01	476.694
1324.62	186.875
1328.24	12.842
1331.85	164.737
1335.45	6.949
1339.06	103.001
1342.66	461.635
1346.27	753.601
1349.87	1026.2
1353.47	1077.75
1357.07	973.955
1360.66	573.983
1364.26	227.658
1367.85	15.202
1371.44	5.332
1375.04	276.194
1378.62	259.396
1382.21	508.507
1385.8	706.882
