Measurement: Raman, 514 nm, ccw, Raman Data Processed
Mineral: Inderite
Rruff sample: R050195
Ideal chemistry: MgB_3_O_3_(OH)_5_5H_2_O
Locality: Boron, Kern County, California, USA
Source: Dave Bunk Minerals
Description: Colorless prismatic crystal
Measured chemistry: Mg_1.00_B_3.00_O_3_(OH)_5_Â·5H_2_O ; Mg measured, only
Pin_id: L00380
Orientation: Laser parallel to -b* (0 -1 0). Fiducial mark perpendicular to laser is parallel to -c [0 0 -1]
Raman shift (cm-1)	intensity
102.428	0
106.604	541.319
110.777	4309.33
114.949	2314.64
119.119	3192.24
123.286	5194.54
127.452	14642
131.615	10816.1
135.777	3607.72
139.937	2381.17
144.094	3306.21
148.25	7207.84
152.403	6658.92
156.555	5444.84
160.705	8984.33
164.853	18776.8
168.998	23422.4
173.142	12467.7
177.284	5110.95
181.424	2953.63
185.562	1594.85
189.698	644.065
193.831	193.508
197.963	126.881
202.093	394.348
206.221	229.36
210.347	80.693
214.472	568.094
218.594	919.509
222.714	1533.91
226.832	2635.28
230.948	2621.45
235.063	1931.26
239.175	2251.81
243.286	2883.22
247.394	3063.47
251.501	2821.82
255.605	2451.27
259.708	1102.82
263.808	68.457
267.907	344.814
272.004	303.656
276.099	282.807
280.192	141.059
284.283	268.078
288.372	753.75
292.459	983.555
296.544	1676.43
300.627	2773.34
304.709	3260.61
308.788	3845.51
312.865	5529.93
316.941	5243.68
321.015	2886.39
325.086	1044.35
329.156	350.824
333.224	688.805
337.29	1480.31
341.354	2285.33
345.416	3026.88
349.476	2641.72
353.534	2439.44
357.591	2310.63
361.645	2896.31
365.698	4093.86
369.748	5772.89
373.797	7389.28
377.844	9004.87
381.889	10077.2
385.932	9432.95
389.973	8068.17
394.012	7157.65
398.049	7183.67
402.084	8616.02
406.118	9709.4
410.15	12939.4
414.179	18441.9
418.207	26316.9
422.233	29228.3
426.257	24497.2
430.279	19043.2
434.299	17380.3
438.318	18522.6
442.334	18287
446.349	12533.9
450.361	8580.5
454.372	6318.32
458.381	4485.35
462.388	3674.6
466.394	4140.07
470.397	4346.77
474.398	5413.71
478.398	7617.91
482.396	12763.4
486.391	23453.3
490.385	40090.6
494.377	40424.2
498.368	23450.1
502.356	12378.4
506.342	7162
510.327	4086.91
514.31	2350.16
518.291	1762.78
522.27	1221.12
526.247	432.664
530.222	36.578
534.196	139.475
538.167	89.977
542.137	100.102
546.105	164.471
550.071	328.602
554.035	132.93
557.998	853.512
561.958	1521.95
565.917	2033.23
569.874	3001.45
573.829	3950.7
577.782	4943.98
581.733	5527.28
585.683	5150.61
589.63	3998.09
593.576	3014.35
597.52	2531.49
601.462	1834.12
605.402	2056.9
609.341	2642.73
613.277	3844.55
617.212	5160.36
621.145	7227.16
625.076	10788.9
629.006	13745.7
632.933	15975.4
636.859	17001.1
640.783	16691.8
644.705	15120.4
648.625	13166
652.543	10356.6
656.46	7713.05
660.375	5591.49
664.288	4462.88
668.199	3278.2
672.108	2452.46
676.016	1547.64
679.921	810.748
683.825	731.752
687.727	462.635
691.628	340.488
695.526	54.627
699.423	195.16
703.318	470.543
707.211	163.848
711.102	32.062
714.992	243.598
718.879	367.527
722.765	572.566
726.649	1333.63
730.532	2909.67
734.412	5137.14
738.291	9384.89
742.168	14744.9
746.043	13299.1
749.916	8405.45
753.788	4867.77
757.658	2507.95
761.526	1761.02
765.392	1624.95
769.257	1295.77
773.119	1034.47
776.98	666.072
780.839	694.57
784.697	871.953
788.552	1025.23
792.406	1128.43
796.258	1465.45
800.108	1715.11
803.957	1972.83
807.804	2588.62
811.649	2792.44
815.492	3061.18
819.333	2685.91
823.173	2576.6
827.011	2321.17
830.847	2037.6
834.681	1404.88
838.514	1007
842.345	1194.91
846.174	1376.55
850.001	1858.33
853.827	2310
857.651	2415.58
861.473	2558.44
865.293	2576.36
869.112	3441.21
872.928	4866.16
876.744	6220.81
880.557	5964.51
884.369	5388.91
888.178	4361.5
891.987	3441.02
895.793	3126.14
899.598	2537.67
903.401	1965.18
907.202	1824.77
911.001	1536.65
914.799	1571.99
918.595	1430.65
922.389	1382.08
926.182	1400.76
929.972	1684.14
933.761	2428.05
937.549	3823.21
941.334	5428.01
945.118	7757.06
948.9	9209.14
952.681	8499.81
956.459	6753.17
960.236	5046.8
964.012	4499.92
967.785	3754.92
971.557	2518.62
975.327	1589.83
979.095	977.545
982.862	691.074
986.627	744.416
990.39	661.756
994.152	457.721
997.912	705.523
1001.67	1349.4
1005.43	766.543
1009.18	372.438
1012.93	477.412
1016.68	103.041
1020.43	317.992
1024.18	111.18
1027.93	63.559
1031.67	148.291
1035.42	216.492
1039.16	256.467
1042.9	129.57
1046.63	184.588
1050.37	251.369
1054.11	14.061
1057.84	595.104
1061.57	532.824
1065.3	740.203
1069.03	363.221
1072.75	51.861
1076.47	19.16
1080.2	69.1
1083.92	475.488
1087.64	791.832
1091.36	439.275
1095.07	136.314
1098.79	196.012
1102.5	239.852
1106.21	21.061
1109.92	219.439
1113.62	238.139
1117.33	136.67
1121.04	167.629
1124.74	170.189
1128.44	889.379
1132.14	596.271
1135.83	587.754
1139.53	815.664
1143.22	1491.9
1146.92	1271.36
1150.61	1024.78
1154.3	1171.53
1157.98	1536.25
1161.67	1851.11
1165.35	2544.33
1169.04	2746.89
1172.72	2905.98
1176.4	2689.71
1180.07	2477.71
1183.75	2264.66
1187.42	2102.75
1191.1	2692.8
1194.77	3259.5
1198.44	3126
1202.1	3067.84
1205.77	2050.4
1209.43	1097.07
1213.1	1039.49
1216.76	667.992
1220.42	801.98
1224.07	774.758
1227.73	885.273
1231.38	775.492
1235.04	1124.9
1238.69	814.809
1242.34	449.27
1245.99	245.902
1249.63	498.023
1253.28	1023.03
1256.92	1225.73
1260.56	1230.48
1264.2	1401.8
1267.84	1310.11
1271.48	896.266
1275.11	339.906
1278.74	567.852
1282.38	471.574
1286.01	495.949
1289.63	1023.64
1293.26	1009.92
1296.89	749.059
1300.51	450.203
1304.13	24.672
1307.75	62.973
1311.37	397.387
1314.99	519.457
1318.6	652.727
1322.22	1172.12
1325.83	1455.28
1329.44	1394.57
1333.05	1578.35
1336.66	1690.08
1340.26	2118.91
1343.87	2857.07
1347.47	4405.56
1351.07	4780.97
1354.67	4788.72
1358.27	3835.74
1361.86	2915.61
1365.46	2198.77
1369.05	1172.3
1372.64	340.371
1376.23	7.438
