Measurement: Raman, 514 nm, ccw, Raman Data Processed
Mineral: Inderite
Rruff sample: R050195
Ideal chemistry: MgB_3_O_3_(OH)_5_5H_2_O
Locality: Boron, Kern County, California, USA
Source: Dave Bunk Minerals
Description: Colorless prismatic crystal
Measured chemistry: Mg_1.00_B_3.00_O_3_(OH)_5_Â·5H_2_O ; Mg measured, only
Pin_id: L00296
Orientation: Laser parallel to c* (0 0 1). Fiducial mark perpendicular to laser is parallel to a [1 0 0]
Raman shift (cm-1)	intensity
103.82	0
107.995	3703.66
112.168	1684.58
116.339	62.834
120.508	1513.99
124.675	7930.15
128.84	13970.4
133.003	8620.9
137.164	2296.33
141.323	1085.02
145.48	2195.91
149.635	5006.97
153.788	3962.77
157.939	1310.64
162.088	1290.47
166.235	3200.72
170.38	2798.39
174.523	774.098
178.664	134.312
182.803	224.088
186.94	1032.68
191.076	2305.23
195.209	2350.55
199.34	1138.03
203.47	266.615
207.597	249.021
211.722	416.773
215.846	435.902
219.967	531.148
224.087	324.311
228.204	124.928
232.32	14.951
236.434	51.824
240.545	282.34
244.655	943.77
248.763	538.76
252.869	86.676
256.973	19.561
261.075	205.68
265.175	551.523
269.273	362.553
273.369	264.43
277.463	399.951
281.556	546.541
285.646	822.354
289.734	2077.91
293.821	3437.49
297.905	5402.7
301.988	6863.38
306.069	5379.25
310.147	3330.88
314.224	2777.28
318.299	2658.95
322.372	1886.28
326.443	1463.42
330.512	1694.4
334.579	2734.68
338.645	5266.63
342.708	8562.48
346.769	9920.3
350.829	7739.97
354.887	5633.68
358.942	3440.67
362.996	2445.95
367.048	2028.59
371.098	2147.64
375.146	1415.63
379.192	1008
383.236	1250.28
387.279	1575.47
391.319	1514.36
395.358	1498.93
399.394	2035.73
403.429	3065.34
407.462	4148
411.493	6350.73
415.522	10823.8
419.549	18429
423.575	22034.7
427.598	16370.9
431.619	9997.83
435.639	7791.22
439.657	9574.47
443.673	10234.2
447.687	6021.09
451.699	2773.99
455.709	1495.93
459.717	533.883
463.724	165.143
467.728	1.58
471.731	297.732
475.732	241.807
479.731	334.84
483.728	1279.97
487.723	3829.24
491.716	7200.64
495.708	8205.14
499.697	5039.74
503.685	2829.45
507.671	1604.35
511.655	451.41
515.637	64.352
519.617	39.064
523.596	266.508
527.572	102.172
531.547	544.543
535.52	20.92
539.491	250.035
543.46	239.119
547.427	6.527
551.393	23.016
555.356	537.797
559.318	1102.84
563.278	1739.17
567.236	2101.71
571.192	3229.47
575.147	5230.45
579.099	7138.8
583.05	9314.91
586.999	8791.12
590.946	7135.44
594.891	5350.59
598.834	4599.19
602.776	3931.02
606.715	3953.07
610.653	5051.35
614.589	6736.85
618.523	8690.58
622.456	10679.5
626.386	14173.3
630.315	17912.8
634.242	21696.8
638.167	22542.7
642.09	21560.9
646.012	19569.6
649.931	16762.4
653.849	14341.8
657.765	11146
661.679	9042.53
665.592	7526.27
669.502	6317.31
673.411	5401.58
677.318	4131.14
681.223	4246.98
685.126	2859.52
689.028	2631.37
692.927	2339.98
696.825	1760.2
700.721	1201.46
704.616	702.797
708.508	1025.25
712.399	1045.36
716.288	781.672
720.175	611.172
724.06	819.863
727.944	1864.74
731.825	2806.79
735.705	5025.03
739.584	8436.44
743.46	12369
747.334	11292.7
751.207	7725.53
755.078	4991.48
758.947	3253.55
762.815	2099.73
766.68	1657.02
770.544	1856.66
774.406	1318.16
778.267	989.816
782.125	1764.51
785.982	74.336
789.837	342.965
793.69	666.316
797.542	440.656
801.391	310.867
805.239	43.926
809.085	279.258
812.93	712.516
816.772	841.824
820.613	583.027
824.452	200.445
828.29	48.832
832.125	300.027
835.959	278.777
839.791	365.941
843.621	121.543
847.45	364.609
851.277	122.715
855.102	284.848
858.925	679.121
862.746	289.262
866.566	697.406
870.384	779.547
874.2	776.648
878.015	1745.71
881.828	2441.74
885.639	2321.72
889.448	1959.66
893.256	1669.56
897.061	1820.4
900.865	1843.2
904.668	1628.96
908.468	1009.67
912.267	536.336
916.064	265.957
919.86	88.531
923.653	547.086
927.445	761.602
931.236	691.09
935.024	411.434
938.811	616.953
942.596	661.141
946.379	1391.31
950.161	1936.47
953.94	1564.46
957.719	1003.2
961.495	695.289
965.27	288.371
969.043	323.449
972.814	409.496
976.583	606.469
980.351	116.77
984.117	301.094
987.882	203.844
991.644	174.762
995.405	16.625
999.165	478.137
1002.92	885.715
1006.68	463.281
1010.43	202.91
1014.18	105.207
1017.93	316.922
1021.68	1014.69
1025.43	1577.5
1029.18	1427.38
1032.92	821.328
1036.66	625.344
1040.4	588.438
1044.14	1132.62
1047.88	1696.89
1051.62	2060.27
1055.35	2477.74
1059.08	2578.34
1062.81	2135.06
1066.54	1529.92
1070.27	1515.68
1073.99	1616.83
1077.72	1265.18
1081.44	927.914
1085.16	909.984
1088.88	417.078
1092.59	355.477
1096.31	405.191
1100.02	323.094
1103.73	1081.61
1107.44	999.516
1111.15	725.836
1114.86	982.598
1118.57	1060.69
1122.27	1707.33
1125.97	3062.27
1129.67	3319.52
1133.37	4191.73
1137.07	5060.07
1140.76	4908.81
1144.45	4047.41
1148.15	3742.35
1151.84	3122.48
1155.53	3128.68
1159.21	3040.76
1162.9	3121.81
1166.58	2572.16
1170.26	2664.84
1173.94	2399.88
1177.62	1956.29
1181.3	1655.09
1184.97	1661.29
1188.65	1685.91
1192.32	1196.91
1195.99	520.395
1199.66	827.469
1203.33	303.016
1206.99	342.977
1210.65	527.379
1214.32	528.277
1217.98	782.293
1221.64	848.125
1225.29	1162.17
1228.95	671.68
1232.6	343.383
1236.26	39.84
1239.91	197.711
1243.56	514.164
1247.2	1436.38
1250.85	1602.59
1254.49	1416.07
1258.13	1760.18
1261.78	1044.14
1265.41	334.73
1269.05	154.762
1272.69	440.773
1276.32	782.758
1279.95	1078.79
1283.59	1336.53
1287.21	802.242
1290.84	540.617
1294.47	634.152
1298.09	319.449
1301.72	5.277
