Measurement: Raman, 514 nm, ccw, Raman Data Processed
Mineral: Inderite
Rruff sample: R050195
Ideal chemistry: MgB_3_O_3_(OH)_5_5H_2_O
Locality: Boron, Kern County, California, USA
Source: Dave Bunk Minerals
Description: Colorless prismatic crystal
Measured chemistry: Mg_1.00_B_3.00_O_3_(OH)_5_Â·5H_2_O ; Mg measured, only
Pin_id: L00296
Orientation: Laser parallel to c* (0 0 1). Fiducial mark perpendicular to laser is parallel to a [1 0 0]
Raman shift (cm-1)	intensity
107.995	0
112.168	552.562
116.339	644.79
120.508	384.861
124.675	2879.34
128.84	8380.72
133.003	5871.73
137.164	2292.73
141.323	1062.31
145.48	2239.17
149.635	4331.59
153.788	3534.25
157.939	2438.99
162.088	3918.02
166.235	7669.76
170.38	8394.08
174.523	4372.11
178.664	1769.78
182.803	659.378
186.94	61.169
191.076	131.225
195.209	39.698
199.34	52.93
203.47	142.468
207.597	6.658
211.722	206.282
215.846	267.138
219.967	531.571
224.087	1109.51
228.204	1602.94
232.32	1588.86
236.434	1071.78
240.545	994.428
244.655	1156.62
248.763	1304.01
252.869	1405.07
256.973	1250.32
261.075	536.109
265.175	13.41
269.273	130.783
273.369	46.673
277.463	116.924
281.556	100.176
285.646	173.785
289.734	296.253
293.821	603.877
297.905	1112.38
301.988	1500.35
306.069	1399.9
310.147	1560.2
314.224	2300.35
318.299	2261.62
322.372	1192.51
326.443	485.239
330.512	328.174
334.579	756.375
338.645	804.851
342.708	1445.61
346.769	1727.65
350.829	1900.98
354.887	1423.8
358.942	1282.86
362.996	1973.6
367.048	2833.12
371.098	3592.56
375.146	4653.44
379.192	5988.34
383.236	6454.16
387.279	5664.9
391.319	4608.27
395.358	4403.49
399.394	4624.93
403.429	4983.42
407.462	5641.28
411.493	7612.44
415.522	11007.9
419.549	15107.6
423.575	16704.6
427.598	14129.8
431.619	11707.3
435.639	10724.8
439.657	12107.7
443.673	12384.4
447.687	8485.37
451.699	5384.82
455.709	3815.42
459.717	2879.17
463.724	2479.08
467.728	2777.16
471.731	2962.41
475.732	3572.84
479.731	5323.45
483.728	9144.27
487.723	16801.3
491.716	27322.6
495.708	26874.2
499.697	15582.9
503.685	8079.93
507.671	4495.15
511.655	2645.61
515.637	1608.29
519.617	1069.24
523.596	736.67
527.572	275.75
531.547	62.352
535.52	218.404
539.491	14.518
543.46	213.443
547.427	239.779
551.393	151.572
555.356	309.188
559.318	603.559
563.278	814.604
567.236	937.822
571.192	1737.16
575.147	2260.6
579.099	2681.16
583.05	2676.83
586.999	2528.61
590.946	1986.65
594.891	1311.22
598.834	916.348
602.776	815.725
606.715	1043.29
610.653	1517.97
614.589	2114.75
618.523	3075.65
622.456	4371.65
626.386	6519.76
630.315	8249.97
634.242	9894.28
638.167	10242.7
642.09	10075.2
646.012	9122.84
649.931	7708.56
653.849	6190.38
657.765	4323.29
661.679	3403.3
665.592	2982.42
669.502	2017.62
673.411	1459.92
677.318	871.303
681.223	515.775
685.126	544.322
689.028	445.943
692.927	50.5
696.825	113.676
700.721	162.268
704.616	386.998
708.508	54.607
712.399	39.002
716.288	226.562
720.175	44.031
724.06	249.801
727.944	984.791
731.825	1790.1
735.705	3092.78
739.584	6065.73
743.46	9095
747.334	7914.57
751.207	4901.39
755.078	2823.31
758.947	1616.32
762.815	930.422
766.68	1043.61
770.544	782.879
774.406	460.268
778.267	193.746
782.125	428.34
785.982	291.113
789.837	355.031
793.69	663.043
797.542	588.887
801.391	485.693
805.239	797.236
809.085	1057.94
812.93	1482.76
816.772	1214.79
820.613	1071
824.452	1027.32
828.29	680.734
832.125	520.217
835.959	258.773
839.791	448.4
843.621	133.098
847.45	293.066
851.277	697.48
855.102	920.518
858.925	1047.6
862.746	1008.41
866.566	1371.15
870.384	1825.78
874.2	2554.22
878.015	3437.43
881.828	3962.6
885.639	3183.33
889.448	2646.89
893.256	2139.62
897.061	1591.26
900.865	1219.84
904.668	1070.87
908.468	859.744
912.267	1068.71
916.064	726.764
919.86	730.902
923.653	837.152
927.445	891.549
931.236	1254.98
935.024	1345.56
938.811	2381.57
942.596	3346.15
946.379	5012.72
950.161	5697.89
953.94	5284.24
957.719	4117.65
961.495	3056.46
965.27	2410.97
969.043	1908.68
972.814	1585.32
976.583	1027.2
980.351	701.799
984.117	537.938
987.882	421.803
991.644	407.664
995.405	357.568
999.165	939.562
1002.92	979.619
1006.68	709.176
1010.43	433.324
1014.18	172.092
1017.93	89.41
1021.68	260.33
1025.43	445.34
1029.18	77.113
1032.92	10.342
1036.66	150.381
1040.4	194.928
1044.14	25.98
1047.88	375.516
1051.62	320.592
1055.35	407.381
1059.08	394.088
1062.81	320.709
1066.54	128.252
1070.27	156.703
1073.99	180.047
1077.72	358.248
1081.44	392.35
1085.16	391.186
1088.88	396.713
1092.59	35.053
1096.31	128.779
1100.02	57.746
1103.73	344.074
1107.44	368.199
1111.15	121.078
1114.86	81.633
1118.57	6.783
1122.27	21.711
1125.97	224.34
1129.67	588.818
1133.37	716.154
1137.07	1172.62
1140.76	1135.78
1144.45	695.727
1148.15	864.039
1151.84	853.037
1155.53	1140.36
1159.21	1552.31
1162.9	1854.16
1166.58	1799.34
1170.26	1959.62
1173.94	1886.19
1177.62	1479.66
1181.3	1444.23
1184.97	1990.75
1188.65	2078.82
1192.32	2215.12
1195.99	2338.8
1199.66	2459.55
1203.33	1700.36
1206.99	1417.1
1210.65	1266.79
1214.32	1235.44
1217.98	1177.95
1221.64	1297.16
1225.29	1034.37
1228.95	876.795
1232.6	465.594
1236.26	232.674
1239.91	272.068
1243.56	428.395
1247.2	1088.08
1250.85	1163.83
1254.49	1259.69
1258.13	1126.68
1261.78	795.83
1265.41	165.742
1269.05	224.77
1272.69	312.875
1276.32	698.494
1279.95	883.99
1283.59	1136.75
1287.21	702.617
1290.84	465.139
1294.47	476.002
1298.09	342.279
1301.72	290.465
1305.34	177.201
1308.96	110.041
1312.58	252.082
1316.19	815.832
1319.81	968.121
1323.42	478.35
1327.03	398.438
1330.64	552.484
1334.25	383.65
1337.86	880.305
1341.46	1599.26
1345.07	2713.26
1348.67	3765
1352.27	4225.77
1355.87	3644.39
1359.46	2761.06
1363.06	1744.5
1366.65	821.449
1370.25	355.805
1373.84	162.805
1377.43	420.102
1381.02	921.344
1384.6	1433.69
1388.18	1384.44
1391.77	2075.41
1395.35	1535.67
1398.93	1469.86
1402.51	861.777
1406.08	488.582
1409.66	442.238
1413.23	263.84
1416.8	354.621
1420.37	846.43
1423.94	1296.64
1427.51	1170.52
1431.08	1211.72
