Measurement: Raman, 514 nm, ccw, Raman Data Processed
Mineral: Inderite
Rruff sample: R050195
Ideal chemistry: MgB_3_O_3_(OH)_5_5H_2_O
Locality: Boron, Kern County, California, USA
Source: Dave Bunk Minerals
Description: Colorless prismatic crystal
Measured chemistry: Mg_1.00_B_3.00_O_3_(OH)_5_Â·5H_2_O ; Mg measured, only
Pin_id: L00373
Orientation: Laser parallel to (1 0 1). Fiducial mark perpendicular to laser is parallel to b [0 1 0]
Raman shift (cm-1)	intensity
88.496	0
92.678	3512.82
96.858	8204.86
101.036	3202.33
105.212	9349.56
109.387	11476.6
113.559	4699.97
117.729	267.897
121.897	1156.31
126.063	6757.88
130.228	10730.2
134.39	4181.05
138.55	1760.81
142.709	2910.27
146.865	3695.57
151.019	7466.36
155.171	6086.35
159.322	4748.75
163.47	5559.03
167.617	9277.41
171.761	8545.56
175.904	4388.51
180.044	4254.16
184.183	8744.82
188.319	13255.5
192.454	17013.2
196.586	11934
200.717	4491.14
204.846	1311.89
208.972	132.365
213.097	171.407
217.22	73.228
221.341	61.229
225.46	200.241
229.577	123.222
233.692	493.486
237.805	1714.51
241.916	1390.33
246.025	1499.65
250.132	1870.71
254.237	848.097
258.34	49.722
262.442	296.851
266.541	365.086
270.639	595.353
274.734	617.216
278.828	187.782
282.919	562.895
287.009	1434.44
291.097	2547.37
295.183	5304.94
299.266	9443.23
303.348	9728.66
307.428	6563.23
311.507	5018.32
315.583	4988.25
319.657	4068.82
323.729	2952.96
327.8	3318.47
331.868	3365.98
335.935	3042.57
339.999	4402.15
344.062	7370.64
348.123	8893.57
352.182	7295.8
356.239	6444.72
360.294	6120.31
364.347	4990.52
368.398	4098.35
372.448	4007.74
376.495	4822.3
380.54	5576.94
384.584	5828.77
388.626	5611.26
392.666	5710.58
396.704	5385.22
400.74	4299.33
404.774	4277.24
408.806	5094.94
412.836	7502.42
416.865	11132.7
420.891	16966
424.916	19075.6
428.939	14564.6
432.959	10155.5
436.978	9346.36
440.996	12394
445.011	12296.6
449.024	6956.24
453.036	3729.24
457.045	2368.6
461.053	1911.36
465.059	1801.55
469.063	2128.22
473.065	2762.4
477.065	4616.13
481.063	7699.48
485.06	13415.5
489.054	24966.3
493.047	42483
497.038	40268.4
501.027	24466.6
505.014	14344.7
508.999	8121.81
512.982	4305.02
516.964	2180.49
520.944	1151.45
524.921	497.178
528.897	96.778
532.871	41.401
536.844	80.587
540.814	289.238
544.783	84.384
548.749	225.629
552.714	206.752
556.677	258.437
560.638	122.431
564.597	891.381
568.555	2030.43
572.511	3060.6
576.464	4073.86
580.416	6111.33
584.366	8289.7
588.315	8504.48
592.261	6768.37
596.206	5214.6
600.148	4471.7
604.089	4364.69
608.028	4811.91
611.965	5440.29
615.901	7044.83
619.834	9744.55
623.766	13503.4
627.696	18054.5
631.624	21930.7
635.551	25207.2
639.475	27586.8
643.398	26635.5
647.318	23010.6
651.237	18624.8
655.155	14633.1
659.07	12053.6
662.984	9577.44
666.895	7586.06
670.805	5764.72
674.713	4503.03
678.62	3873.08
682.524	3294.99
686.427	2571.36
690.328	1967.18
694.227	1796.41
698.124	1614.06
702.02	1490.64
705.913	950.308
709.805	659.114
713.695	567.922
717.584	942.345
721.47	1081.97
725.355	1536.47
729.238	2597.83
733.119	4813.05
736.998	9354.12
740.876	17280
744.752	23484.8
748.626	18506.3
752.498	11875.5
756.368	7652.53
760.237	5540.23
764.104	4275.61
767.969	4021.68
771.832	2874.42
775.693	2405.84
779.553	1901.93
783.411	1520.68
787.267	1138.11
791.122	770.235
794.974	650.037
798.825	555.513
802.674	638.661
806.522	794.474
810.367	454.907
814.211	207.957
818.053	326.59
821.893	240.783
825.732	142.401
829.568	81.321
833.403	323.406
837.236	351.057
841.068	357.847
844.898	258.054
848.726	204.578
852.552	201.93
856.376	37.587
860.199	494.662
864.02	1051.93
867.839	1536.2
871.656	2045.26
875.472	2905.94
879.286	3702.25
883.098	4164.18
886.909	4208.76
890.717	3682.99
894.524	2818.86
898.33	2259.39
902.133	1898.59
905.935	1503.45
909.735	1425.99
913.533	1189.22
917.33	867.14
921.124	824.761
924.918	591.091
928.709	767.138
932.499	828.909
936.286	1132.19
940.073	1215.47
943.857	1666.65
947.64	2347.33
951.421	2663.46
955.2	2041.47
958.978	1576.52
962.753	934.352
966.527	593.034
970.3	586.852
974.071	300.954
977.84	296.501
981.607	235.886
985.372	135.558
989.136	108.957
992.898	154.29
996.659	472.118
1000.42	1070.01
1004.17	1493.42
1007.93	1342.8
1011.68	1229.34
1015.43	1100.73
1019.18	1349.5
1022.93	1485.59
1026.68	1715.04
1030.42	1656.82
1034.17	1349.97
1037.91	1044.43
1041.65	954.187
1045.39	1145.21
1049.12	1735.5
1052.86	2136.06
1056.59	2616.91
1060.33	2409.05
1064.06	1847.47
1067.78	1111.19
1071.51	796.176
1075.23	591.442
1078.96	812.99
1082.68	268.815
1086.4	122.881
1090.12	196.783
1093.83	50.696
1097.55	145.572
1101.26	30.328
1104.97	208.466
1108.68	565.921
1112.39	675.747
1116.1	937.966
1119.8	1272.6
1123.5	2287.69
1127.2	3323.35
1130.9	4297.7
1134.6	5465.11
1138.3	5867.84
1141.99	5535.96
1145.69	5411.57
1149.38	5010.44
1153.07	4978.99
1156.76	4520.3
1160.44	4967.1
1164.13	5002.36
1167.81	5482.63
1171.49	5251.72
1175.17	5049.84
1178.85	4610.76
1182.52	4423.43
1186.2	3961.2
1189.87	3557.13
1193.54	3373.49
1197.21	2910.4
1200.88	2229.88
1204.55	1579.73
1208.21	1182.34
1211.88	1030.26
1215.54	833.187
1219.2	899.601
1222.86	679.848
1226.51	483.016
1230.17	279.576
1233.82	256.958
1237.47	434.116
1241.12	452.248
1244.77	545.962
1248.42	742.121
1252.06	899.185
1255.71	952.066
1259.35	817.885
1262.99	573.761
1266.63	469.629
1270.26	663.372
1273.9	707.884
1277.53	761.928
1281.16	1043.97
1284.8	936.809
1288.42	781.368
1292.05	485.054
1295.68	271.086
1299.3	10.483
1302.92	100.717
1306.55	4.661
1310.16	329.761
1313.78	297.791
1317.4	495.117
1321.01	308.044
1324.62	82.271
1328.24	169.436
1331.85	13.448
1335.45	301.244
1339.06	469.904
1342.66	866.663
1346.27	1347.42
1349.87	1669.6
1353.47	1576.04
1357.07	1260.48
1360.66	777.922
1364.26	375.371
1367.85	111.702
1371.44	121.503
1375.04	85.711
1378.62	199.305
1382.21	274.01
1385.8	537.491
1389.38	561.537
