Measurement: Raman, 514 nm, ccw, Raman Data Processed
Mineral: Inderite
Rruff sample: R050195
Ideal chemistry: MgB_3_O_3_(OH)_5_5H_2_O
Locality: Boron, Kern County, California, USA
Source: Dave Bunk Minerals
Description: Colorless prismatic crystal
Measured chemistry: Mg_1.00_B_3.00_O_3_(OH)_5_Â·5H_2_O ; Mg measured, only
Pin_id: L00380
Orientation: Laser parallel to -b* (0 -1 0). Fiducial mark perpendicular to laser is parallel to -c [0 0 -1]
Raman shift (cm-1)	intensity
89.89	0
94.071	2270.48
98.251	9118.85
102.428	7967.55
106.604	1491.89
110.777	462.338
114.949	190.417
119.119	2300.62
123.286	9220.11
127.452	13291
131.615	4763.19
135.777	910.735
139.937	1455.37
144.094	2253.53
148.25	5267.75
152.403	7860.01
156.555	5551.74
160.705	5549.92
164.853	9684.97
168.998	16693.6
173.142	12165
177.284	5666.5
181.424	4315.07
185.562	7025.07
189.698	7521.31
193.831	4920.4
197.963	1391.94
202.093	11.622
206.221	525.132
210.347	384.914
214.472	271.03
218.594	218.354
222.714	144.74
226.832	172.021
230.948	1194.19
235.063	3662.22
239.175	5583.94
243.286	4326.67
247.394	3586.19
251.501	2537.06
255.605	1492.6
259.708	1417.81
263.808	1247.59
267.907	876.225
272.004	609.906
276.099	1138.97
280.192	1804.52
284.283	2369.11
288.372	3584.85
292.459	6224.09
296.544	11024.1
300.627	15334
304.709	13937.1
308.788	9637.48
312.865	6992.86
316.941	5604.38
321.015	3596.35
325.086	1884.62
329.156	812.906
333.224	83.199
337.29	158.804
341.354	44.477
345.416	71.053
349.476	52.933
353.534	626.443
357.591	1316.88
361.645	1997.23
365.698	2643.87
369.748	3121.87
373.797	3853.15
377.844	4946.59
381.889	5783.58
385.932	5963.15
389.973	5591.22
394.012	4811.96
398.049	3998.06
402.084	3602.33
406.118	3695.42
410.15	3709.7
414.179	3380.15
418.207	3359.79
422.233	3625.62
426.257	2774.42
430.279	1452.08
434.299	731.536
438.318	906.774
442.334	1615.78
446.349	1454.56
450.361	1055.11
454.372	903.452
458.381	1258.61
462.388	1368.6
466.394	1721.44
470.397	2582.14
474.398	3657.72
478.398	5269.24
482.396	7860.78
486.391	13787.4
490.385	27032
494.377	37003.2
498.368	30873.7
502.356	20672.4
506.342	15045.9
510.327	8601.83
514.31	4181.24
518.291	1776.15
522.27	865.478
526.247	553.397
530.222	336.675
534.196	116.059
538.167	135.329
542.137	189.412
546.105	242.858
550.071	126.247
554.035	33.889
557.998	17.477
561.958	327.104
565.917	800.885
569.874	1016.87
573.829	2133.04
577.782	3605.41
581.733	5568.97
585.683	6612.7
589.63	5130.63
593.576	3546.74
597.52	2794.04
601.462	2614.52
605.402	2887.2
609.341	3420.07
613.277	4600.12
617.212	6353.38
621.145	8712.83
625.076	11183.5
629.006	14045.3
632.933	16957.3
636.859	19512.6
640.783	18728
644.705	16004.6
648.625	12756.9
652.543	9837.32
656.46	7601.73
660.375	5376.81
664.288	3880.05
668.199	2899.35
672.108	2142.52
676.016	1890.22
679.921	1496.51
683.825	1308.61
687.727	1081.27
691.628	1275.06
695.526	1123.92
699.423	1024.65
703.318	928.542
707.211	625.263
711.102	684.736
714.992	648.549
718.879	547.297
722.765	1033.96
726.649	1599.55
730.532	2970.04
734.412	5399.44
738.291	10171.7
742.168	17541.9
746.043	19812
749.916	14566.9
753.788	9205.76
757.658	5722.46
761.526	3815.02
765.392	3040.43
769.257	2663.69
773.119	2237.8
776.98	1602.76
780.839	1102.54
784.697	812.158
788.552	559.598
792.406	335.854
796.258	401.923
800.108	283.816
803.957	141.54
807.804	124.039
811.649	172.855
815.492	167.892
819.333	4.623
823.173	250.627
827.011	5.234
830.847	152.407
834.681	38.486
838.514	176.131
842.345	234.176
846.174	301.727
850.001	173.733
853.827	170.168
857.651	247.696
861.473	361.1
865.293	418.408
869.112	625.489
872.928	905.307
876.744	1449.86
880.557	1992.14
884.369	2475.15
888.178	2235.89
891.987	2115.38
895.793	2040.6
899.598	2037.57
903.401	1941.28
907.202	1616.73
911.001	1351.93
914.799	1375.87
918.595	1332.56
922.389	1048.99
926.182	1036.19
929.972	741.141
933.761	792.859
937.549	580.342
941.334	558.6
945.118	637.633
948.9	750.451
952.681	621.721
956.459	299.234
960.236	286.059
964.012	444.91
967.785	436.6
971.557	410.373
975.327	420.562
979.095	300.578
982.862	208.906
986.627	477.178
990.39	873.051
994.152	1398.82
997.912	1707.74
1001.67	2531.49
1005.43	2268.74
1009.18	1931.06
1012.93	2005.55
1016.68	2306.36
1020.43	2791.17
1024.18	2933.99
1027.93	2606.84
1031.67	2279.72
1035.42	1621.65
1039.16	1270.64
1042.9	1090.69
1046.63	1158.82
1050.37	1023.98
1054.11	1246.12
1057.84	1323.99
1061.57	1698.75
1065.3	1791.61
1069.03	1590.58
1072.75	1237.67
1076.47	744.895
1080.2	516.252
1083.92	312.762
1087.64	370.441
1091.36	344.281
1095.07	456.305
1098.79	223.521
1102.5	79.936
1106.21	89.619
1109.92	261.369
1113.62	190.605
1117.33	112.248
1121.04	353.104
1124.74	541.047
1128.44	415.303
1132.14	309.512
1135.83	319.67
1139.53	775.342
1143.22	1332.37
1146.92	1485.73
1150.61	2160.07
1154.3	2595.95
1157.98	2972.12
1161.67	3602.61
1165.35	4132.44
1169.04	4280.62
1172.72	4959.19
1176.4	4976.19
1180.07	4485.68
1183.75	3825.68
1187.42	3309.23
1191.1	2373.37
1194.77	1923.13
1198.44	1400.15
1202.1	1686.4
1205.77	1451.81
1209.43	1334.47
1213.1	1090.46
1216.76	751.713
1220.42	276.609
1224.07	221.043
1227.73	40.998
1231.38	491.475
1235.04	635.467
1238.69	778.93
1242.34	841.771
1245.99	579.234
1249.63	774.01
1253.28	242.795
1256.92	170.58
1260.56	376.811
1264.2	635.184
1267.84	638.99
1271.48	747.957
1275.11	761.203
1278.74	681.449
1282.38	261.613
1286.01	32.723
