Measurement: Raman, 514 nm, ccw, Raman Data Processed
Mineral: Inyoite
Rruff sample: R040161
Ideal chemistry: CaB_3_O_3_(OH)_5_4H_2_O
Locality: Kramer deposit, Boron, Kern County, California, USA
Source: University of Arizona Mineral Museum
Description: Group of colorless indistinct rounded crystals
Measured chemistry: Ca_1.00_B_3.00_O_3_(OH)_5_Â·4H_2_O
Pin_id: L00339
Orientation: Laser parallel to a* (1 0 0). Fiducial mark perpendicular to laser is parallel to b [0 1 0]
Raman shift (cm-1)	intensity
94.393	0
99.344	113.497
104.293	608.972
109.239	917.144
114.182	1681.79
119.123	1997.6
124.061	1916.7
128.997	1215.72
133.93	1013.58
138.86	2024.26
143.788	4074.65
148.713	8859.43
153.636	9315.64
158.556	5996.7
163.473	5296.72
168.388	8853.45
173.3	16739.2
178.21	23320.6
183.117	21683.7
188.021	11732.1
192.923	7935.13
197.822	5314.7
202.718	3075.17
207.612	2044.63
212.504	1405.93
217.392	743.93
222.279	416.187
227.162	405.887
232.043	283.531
236.921	243.045
241.797	461.342
246.67	1124.86
251.54	2116.47
256.408	3808.24
261.274	4113.82
266.136	3147.55
270.996	2226.28
275.854	1506.89
280.709	780.613
285.561	349.127
290.41	74.5293
295.257	135.326
300.102	217.711
304.944	533.721
309.783	1023.27
314.619	2041.11
319.453	3113.19
324.285	4856.51
329.113	4835.06
333.939	2862.76
338.763	1133.54
343.584	196.99
348.402	135.361
353.218	261.084
358.031	252.637
362.841	144.228
367.649	6.33398
372.454	546.549
377.257	1229.01
382.057	2548.11
386.854	3922.57
391.649	4600.17
396.441	4186.65
401.231	4475.84
406.018	5502.79
410.802	4290.43
415.584	1831.25
420.363	580.033
425.139	65.3789
429.913	113.877
434.684	11.3359
439.453	43.4004
444.219	207.074
448.982	932.795
453.743	1997.84
458.501	4833.18
463.257	8777.8
468.01	7483.66
472.76	2974.75
477.508	1011.05
482.253	301.533
486.996	349.19
491.736	358.031
496.473	608.666
501.207	1162.06
505.94	985.385
510.669	779.25
515.396	248.43
520.12	245.195
524.842	258.232
529.561	204.394
534.277	248.617
538.991	75.8945
543.702	113.986
548.41	66.7891
553.116	19.5195
557.819	358.346
562.52	307.672
567.218	518.945
571.913	700.443
576.606	906.754
581.296	1576.56
585.984	1799.84
590.669	2579.19
595.351	3835.51
600.031	6123.8
604.708	10503
609.383	19237.2
614.055	30006.4
618.724	24800.8
623.391	10854.9
628.055	4396.11
632.716	2159.02
637.375	1179.41
642.031	816.336
646.685	660.252
651.335	472.453
655.984	357.422
660.63	669.449
665.273	410.668
669.913	399.076
674.551	266.348
679.186	519.732
683.819	483.582
688.449	350.742
693.076	544.648
697.701	678.375
702.323	523.471
706.943	854.916
711.56	939.051
716.174	1524.34
720.786	2237.9
725.395	4746.53
730.001	7303.92
734.605	5769.03
739.206	2453.88
743.805	1006.46
748.401	445.756
752.995	231.775
757.585	269.504
762.173	395.031
766.759	74.3223
771.342	252.379
775.922	43.0605
780.5	154.584
785.075	29.0371
789.648	10.0586
794.217	34.0176
798.785	191.967
803.349	375.469
807.911	150.592
812.471	194.402
817.027	76.8008
821.582	21.8125
826.133	43.2852
830.682	73.4473
835.228	78.3457
839.772	161.555
844.313	107.047
848.852	287.109
853.387	328.834
857.921	384.252
862.451	463.353
866.979	374.137
871.505	453.627
876.028	630.832
880.548	560.74
885.065	572.359
889.58	319.697
894.093	840.912
898.602	927.625
903.109	1006.53
907.614	1371.57
912.116	1515.85
916.615	1695.74
921.112	2092.38
925.606	2328.77
930.097	2673.01
934.586	2460.21
939.072	1898.81
943.556	1766.42
948.037	1372.13
952.515	1260.41
956.991	1256.71
961.464	865.246
965.934	801.465
970.402	723.408
974.867	561.297
979.33	447.141
983.79	420.018
988.248	344.398
992.702	382.297
997.155	174.223
1001.6	323.688
1006.05	496.459
1010.5	166.022
1014.94	374.644
1019.38	228.34
1023.81	332.113
1028.25	2.75391
1032.68	17.1953
1037.11	126.996
1041.53	235.82
1045.96	279.85
1050.38	241.188
1054.8	196.707
1059.21	67.4141
1063.62	149.981
1068.04	309.449
1072.44	185.051
1076.85	258.82
1081.25	172.949
1085.65	156.144
1090.05	530.707
1094.44	306.602
1098.84	512.781
1103.22	295.598
1107.61	374.879
1112	520.398
1116.38	397.16
1120.76	427.106
1125.13	409.234
1129.51	150.543
1133.88	139.043
1138.25	330.691
1142.61	214.516
1146.98	258.531
1151.34	276.734
1155.7	42.875
1160.05	221.211
1164.4	255.742
1168.76	319.348
1173.1	487.613
1177.45	181.93
1181.79	92.0078
1186.13	344.379
1190.47	365.516
1194.8	335.754
1199.14	160.379
1203.46	129.555
1207.79	202.562
1212.12	400.644
1216.44	413.809
1220.76	377.094
1225.08	406.488
1229.39	351.988
1233.7	371.594
1238.01	594.293
1242.32	816.082
1246.62	755.965
1250.92	393.93
1255.22	889.977
1259.51	544.106
1263.81	485.441
1268.1	258.348
1272.38	233.731
1276.67	232.191
1280.95	235.742
1285.23	116.551
1289.51	102.672
1293.79	120.348
1298.06	38.2969
1302.33	14.2383
1306.6	99.1719
1310.86	469.066
1315.12	235.106
1319.38	286.273
1323.64	36.6484
1327.89	538.223
1332.14	639.898
1336.39	277.629
1340.64	168.231
1344.88	347.078
1349.12	276.984
1353.36	272.945
1357.6	179.969
1361.83	190.047
1366.06	305.531
1370.29	121.723
1374.52	286.988
1378.74	428.371
1382.96	325.883
1387.18	304.527
1391.39	218.988
1395.61	123.266
1399.82	505.387
1404.02	150.203
1408.23	452.703
1412.43	403.434
1416.63	580.711
1420.83	548.711
1425.02	551.508
1429.21	606.555
1433.4	626.383
1437.59	603.141
1441.77	504.648
1445.95	571.055
1450.13	671.488
1454.31	528.91
1458.48	535.488
1462.65	456.176
1466.82	487.965
1470.99	331.824
1475.15	255.762
1479.31	484.777
1483.47	483.848
1487.63	282.934
1491.78	126.984
1495.93	409.324
1500.08	99.5273
1504.22	419.906
1508.37	204.406
1512.51	294.281
1516.64	216.844
1520.78	366.207
1524.91	280.535
1529.04	605.078
1533.17	214.09
1537.29	370.867
1541.41	348.301
1545.53	139.902
1549.65	262.242
1553.77	374.535
1557.88	149.055
1561.99	372.012
1566.09	238.629
1570.2	0
