Measurement: Raman, 514 nm, ccw, Raman Data Processed
Mineral: Inyoite
Rruff sample: R040161
Ideal chemistry: CaB_3_O_3_(OH)_5_4H_2_O
Locality: Kramer deposit, Boron, Kern County, California, USA
Source: University of Arizona Mineral Museum
Description: Group of colorless indistinct rounded crystals
Measured chemistry: Ca_1.00_B_3.00_O_3_(OH)_5_Â·4H_2_O
Pin_id: L00078
Orientation: Laser parallel to -c* (0 0 -1). Fiducial mark perpendicular to laser is parallel to a [1 0 0]
Raman shift (cm-1)	intensity
93.155	0
98.106	173.419
103.056	1283.87
108.002	953.461
112.946	400.051
117.888	504.493
122.827	1133.37
127.763	2336.7
132.697	4773.69
137.628	3013.41
142.556	3063.14
147.482	6013.12
152.405	7318.38
157.326	2775.55
162.244	2094.79
167.159	2862.47
172.072	4388.4
176.982	5170.67
181.89	6368.26
186.795	9857.59
191.697	15030.8
196.597	13462.4
201.494	6689.07
206.389	3403.95
211.281	1976.7
216.17	1080.93
221.057	768.387
225.941	553.787
230.823	378.986
235.702	381.975
240.578	259.835
245.452	153.339
250.323	92.1719
255.192	275.913
260.058	558.026
264.921	730.619
269.782	1125.13
274.64	1124.12
279.495	824.283
284.348	627.431
289.198	265.435
294.046	68.1572
298.891	176.846
303.733	135.158
308.573	188.939
313.41	168.165
318.245	46.5772
323.077	3.97363
327.906	246.546
332.733	80.6562
337.557	228.154
342.379	339.791
347.198	369.101
352.014	702.037
356.828	755.658
361.639	1147.79
366.447	2640.45
371.253	4036.64
376.056	4747.35
380.857	4547.58
385.655	5063.44
390.451	5324.38
395.243	4233.41
400.034	3245.24
404.821	3623.73
409.606	3528.79
414.389	2426.35
419.168	1483.38
423.945	891.865
428.72	640.809
433.492	592.198
438.261	381.865
443.028	195.823
447.792	212.176
452.553	216.899
457.312	229.28
462.068	205.19
466.822	31.7969
471.573	137.935
476.321	190.823
481.067	144.275
485.81	181.286
490.551	222.876
495.289	332.076
500.024	439.904
504.757	247.389
509.487	69.6016
514.214	86.5098
518.939	268.166
523.661	497.522
528.381	584.312
533.098	704.463
537.812	740.205
542.524	597.537
547.233	622.204
551.94	848.409
556.644	873.317
561.345	746.876
566.044	1050.08
570.74	1492.97
575.433	1779.45
580.124	2371.37
584.812	2715.95
589.498	3395.59
594.181	4549.43
598.861	6921.35
603.539	12374.1
608.214	23174.6
612.887	38458.8
617.557	39250.1
622.224	18960.7
626.889	7798.65
631.551	3547.82
636.21	1880.24
640.867	1126.71
645.521	674.352
650.173	426.991
654.822	205.876
659.468	228.456
664.112	103.768
668.753	104.81
673.392	44.0898
678.028	1.74707
682.661	2.54394
687.292	215.121
691.92	275.56
696.545	113.827
701.168	267.899
705.788	502.188
710.406	847.389
715.021	1324.98
719.633	2264.49
724.243	4199.16
728.85	6918.65
733.455	6120.93
738.056	2757.93
742.656	1425.63
747.252	856
751.846	575.046
756.438	560.555
761.027	386.091
765.613	467.052
770.196	328.058
774.777	232.228
779.356	164.046
783.932	8.02246
788.505	206.535
793.075	59.4961
797.643	114.723
802.208	91.9453
806.771	211.609
811.331	104.49
815.888	115.623
820.443	80.0781
824.995	131.699
829.545	37.7852
834.092	11.1758
838.636	1.61914
843.178	122.5
847.717	69.9883
852.254	275.006
856.788	250.352
861.319	300.799
865.848	375.059
870.374	344.85
874.897	415.728
879.418	325.852
883.936	398.236
888.452	132.199
892.965	189.731
897.475	360.885
901.983	228.756
906.488	325.275
910.99	164.4
915.49	187.318
919.988	364.572
924.482	316.301
928.974	392.719
933.464	666.756
937.951	400.264
942.435	352.258
946.917	529.785
951.396	797.656
955.872	627.75
960.346	459.941
964.817	455.637
969.285	270.367
973.751	175.988
978.215	41.1562
982.675	79.2871
987.134	69.832
991.589	37.8828
996.042	156.127
1000.49	233.16
1004.94	256.512
1009.38	226.625
1013.83	358.022
1018.27	407.68
1022.7	29.998
1027.14	90.459
1031.57	9.24805
1036	229.545
1040.43	310.119
1044.85	93.0859
1049.27	225.109
1053.69	418.496
1058.11	625.674
1062.52	762.949
1066.93	791.363
1071.34	517.951
1075.75	302.744
1080.15	256.66
1084.55	144.664
1088.95	184.762
1093.35	123.973
1097.74	279.379
1102.13	311.023
1106.52	252.897
1110.9	233.045
1115.28	90.0293
1119.66	394.4
1124.04	436.019
1128.41	99.6602
1132.79	136.115
1137.16	11.4102
1141.52	80.2481
1145.89	7.91797
1150.25	18.6504
1154.61	109.467
1158.96	17.6875
1163.32	63.7441
1167.67	214.863
1172.02	141.127
1176.36	154.832
1180.71	266.59
1185.05	319.42
1189.38	210.059
1193.72	248.254
1198.05	380.256
1202.38	453.309
1206.71	520.416
1211.04	588.564
1215.36	541.766
1219.68	732.016
1224	681.307
1228.31	486.658
1232.62	463.041
1236.93	638.459
1241.24	315.916
1245.54	498.408
1249.84	676.959
1254.14	764.592
1258.44	608.293
1262.73	571.225
1267.03	428.373
1271.31	137.435
1275.6	124.818
1279.88	125.912
1284.16	240.084
1288.44	139.256
1292.72	11.7129
1296.99	27.1973
1301.26	176.94
1305.53	99.0703
1309.79	262.244
1314.06	207.443
1318.32	475.67
1322.57	398.906
1326.83	230.178
1331.08	557.494
1335.33	428.859
1339.58	297.264
1343.82	218.721
1348.06	166.227
1352.3	320.777
1356.54	281.381
1360.77	396.029
1365.01	343.721
1369.23	227.455
1373.46	220.315
1377.68	283.272
1381.9	251.777
1386.12	94.7617
1390.34	309.848
1394.55	85.1191
1398.76	315.549
1402.97	177.647
1407.18	238.348
1411.38	170.959
1415.58	271.092
1419.78	424.041
1423.97	252.879
1428.17	176.078
1432.36	78.6953
1436.54	132.596
1440.73	251.391
1444.91	155.305
1449.09	250.662
1453.27	194.66
1457.44	83.7559
1461.61	307.953
1465.78	113.234
1469.95	119.637
1474.11	201.143
1478.27	192.752
1482.43	84.0137
1486.59	301.315
1490.74	450.607
1494.89	219.559
1499.04	182.762
1503.19	454.1
1507.33	144.769
1511.47	105.934
1515.61	169.512
1519.75	360.519
1523.88	42.6758
1528.01	341.174
1532.14	293.176
1536.26	95.9941
1540.38	343.051
1544.51	228.246
1548.62	260.719
1552.74	77.3965
1556.85	101.894
1560.96	224.539
1565.07	38.127
1569.17	29.541
