Measurement: Raman, 514 nm, ccw, Raman Data Processed
Mineral: Inyoite
Rruff sample: R040161
Ideal chemistry: CaB_3_O_3_(OH)_5_4H_2_O
Locality: Kramer deposit, Boron, Kern County, California, USA
Source: University of Arizona Mineral Museum
Description: Group of colorless indistinct rounded crystals
Measured chemistry: Ca_1.00_B_3.00_O_3_(OH)_5_Â·4H_2_O
Pin_id: L00078
Orientation: Laser parallel to -c* (0 0 -1). Fiducial mark perpendicular to laser is parallel to a [1 0 0]
Raman shift (cm-1)	intensity
100.581	0
105.529	2044.48
110.475	1361.63
115.417	70.5644
120.358	354.069
125.295	1624.45
130.23	1841.9
135.163	1561.74
140.092	1618.99
145.019	3475.14
149.944	6661.05
154.866	5094.15
159.785	4903.92
164.702	4893.27
169.616	7165.89
174.528	10618.7
179.437	11623.8
184.343	9853.82
189.247	8457.27
194.148	7884.49
199.046	5117.24
203.942	3469.25
208.835	2394.12
213.726	1477.08
218.614	451.723
223.5	175.869
228.382	188.672
233.263	67.2998
238.14	210.401
243.015	8.99414
247.888	26.8223
252.758	47.3887
257.625	395.972
262.49	577.245
267.352	469.558
272.211	538.519
277.068	732.433
281.922	598.976
286.773	251.886
291.622	131.92
296.469	116.013
301.312	76.5088
306.154	179.602
310.992	114.866
315.828	366.688
320.661	999.633
325.492	1484.2
330.32	1499.79
335.145	1063.49
339.968	1273.28
344.789	2192
349.606	3535.56
354.421	4006.32
359.234	3214.45
364.043	2705.76
368.851	2867.26
373.655	3278.95
378.457	3244.83
383.256	3636.92
388.053	4247.24
392.847	3306.69
397.639	1959.17
402.428	1723.37
407.214	2129.81
411.998	2360.5
416.779	2145.39
421.557	1334.45
426.333	557.695
431.106	334.113
435.877	165.719
440.645	128.74
445.41	46.6973
450.173	2.34375
454.933	41.8145
459.691	27.5195
464.446	653.586
469.198	882.996
473.948	415.762
478.695	168.912
483.439	101.461
488.181	52.5684
492.92	26.6973
497.657	138.139
502.391	386.111
507.122	692.707
511.851	760.324
516.577	724.68
521.301	810.859
526.022	882.6
530.74	1098.82
535.456	1020.76
540.169	772.668
544.879	250.144
549.587	233.19
554.292	314.809
558.995	809.498
563.695	759.061
568.392	930.109
573.087	1294.91
577.779	1593.15
582.469	1882.96
587.156	2541.81
591.84	3215.24
596.522	4538.25
601.201	7508.43
605.877	14415.1
610.551	28084.1
615.222	40538.5
619.891	30025.8
624.557	12986
629.22	5892.22
633.881	3062.5
638.539	1896.02
643.195	1180.22
647.848	898.402
652.498	1008.42
657.145	653.135
661.791	374.74
666.433	397.025
671.073	351.75
675.71	534.5
680.345	401.508
684.977	522.348
689.606	376.002
694.233	346.221
698.857	363.9
703.478	418.82
708.097	519.166
712.714	647.975
717.327	1256.91
721.938	1993.72
726.547	4042.05
731.153	5648.12
735.756	3830.16
740.356	1763.89
744.954	761.234
749.55	337.174
754.142	5.30859
758.733	168.713
763.32	57.2129
767.905	201.174
772.487	21.6973
777.067	92.709
781.644	46.8379
786.218	61.832
790.79	20.7344
795.359	122.43
799.926	141.527
804.49	468.834
809.051	694.576
813.61	211.746
818.166	166.318
822.72	5.83203
827.271	10.8828
831.819	204.008
836.365	88.7344
840.908	42.3145
845.448	53.9297
849.986	30.3828
854.521	274.123
859.054	551.248
863.584	773.527
868.111	783.357
872.636	721.803
877.158	706.678
881.677	340.998
886.194	462.9
890.709	426.107
895.22	541.943
899.729	597.664
904.236	1337.17
908.74	1472.3
913.241	1934.42
917.739	2037.11
922.235	2503.2
926.729	3168.97
931.219	3118.32
935.708	2523.22
940.193	1847.36
944.676	1601.32
949.156	1389.7
953.634	1334.49
958.109	1652.69
962.582	1309.9
967.051	1030.4
971.519	1020.18
975.983	849.607
980.445	597.307
984.905	313.285
989.362	484.75
993.816	96.6484
998.267	235.076
1002.72	302.875
1007.16	305.252
1011.61	401.254
1016.05	299.992
1020.49	117.963
1024.92	160.391
1029.36	139.326
1033.79	184.412
1038.21	302.799
1042.64	473.818
1047.06	690.029
1051.48	720.406
1055.9	1175.2
1060.32	1316.45
1064.73	1382.99
1069.14	1332.88
1073.55	923.799
1077.95	780.732
1082.35	678.695
1086.75	705.703
1091.15	577.854
1095.54	287.193
1099.93	329.945
1104.32	318.51
1108.71	132.295
1113.09	395.406
1117.47	151.775
1121.85	303.258
1126.23	101.188
1130.6	341.559
1134.97	344.262
1139.34	138.797
1143.7	57.3984
1148.07	55.9609
1152.43	181.156
1156.79	35.9023
1161.14	148.891
1165.49	48.3555
1169.84	290.254
1174.19	193.785
1178.54	165.746
1182.88	412.703
1187.22	430.723
1191.55	452.766
1195.89	418.828
1200.22	590.898
1204.55	599.977
1208.87	923.062
1213.2	649.156
1217.52	575.254
1221.84	699.356
1226.15	670.461
1230.47	847.562
1234.78	672.496
1239.09	644.559
1243.39	938.598
1247.69	1031.6
1251.99	899.57
1256.29	1269.93
1260.59	1199.85
1264.88	847.852
1269.17	595.602
1273.46	634.055
1277.74	293.668
1282.02	312.957
1286.3	34.9453
1290.58	34.9297
1294.86	206.176
1299.13	23.2148
1303.39	29.9102
1307.66	5.05469
1311.93	317.043
1316.19	436.211
1320.45	349.414
1324.7	701.621
1328.96	798.828
1333.21	300.035
1337.45	452.246
1341.7	262.438
1345.94	201.629
1350.18	425.824
1354.42	155.031
1358.66	20.7656
1362.89	179.402
1367.12	188.586
1371.35	398.781
1375.57	257.016
1379.8	495.316
1384.02	156.723
1388.23	141.285
1392.45	224.938
1396.66	284.769
1400.87	280.652
1405.08	256.754
1409.28	413.297
1413.48	268.211
1417.68	177.383
1421.88	98.5117
1426.07	191.715
1430.26	380.973
1434.45	417.965
1438.64	92.3906
1442.82	393.25
1447	261.559
1451.18	212.16
1455.35	381.832
1459.53	256.578
1463.7	341.418
1467.87	303.769
1472.03	503.758
1476.19	188.852
1480.35	270.066
1484.51	244.141
1488.67	192.394
1492.82	567.652
1496.97	243.234
1501.12	291.391
1505.26	261.144
1509.4	183.898
1513.54	110.066
1517.68	407.809
1521.81	484.406
1525.94	287.894
1530.07	348.668
1534.2	341.977
1538.32	215.898
1542.44	289.562
1546.56	146.144
1550.68	175.051
1554.79	242.848
1558.9	39.3477
1563.01	382.07
1567.12	319.981
