Measurement: Raman, 514 nm, ccw, Raman Data Processed
Mineral: Inyoite
Rruff sample: R040161
Ideal chemistry: CaB_3_O_3_(OH)_5_4H_2_O
Locality: Kramer deposit, Boron, Kern County, California, USA
Source: University of Arizona Mineral Museum
Description: Group of colorless indistinct rounded crystals
Measured chemistry: Ca_1.00_B_3.00_O_3_(OH)_5_Â·4H_2_O
Pin_id: L00113
Orientation: Laser parallel to b* (0 1 0). Fiducial mark perpendicular to laser is parallel to c [0 0 1]
Raman shift (cm-1)	intensity
99.344	0
104.293	207.078
109.239	738.684
114.182	950.863
119.123	1975.21
124.061	2698.75
128.997	2040.68
133.93	975.481
138.86	1163.34
143.788	2143.92
148.713	4721.22
153.636	6112.49
158.556	6032.97
163.473	3980.77
168.388	4884.62
173.3	8260.12
178.21	9580.58
183.117	8852.84
188.021	6480
192.923	4771.84
197.822	3122.06
202.718	1580.2
207.612	729.777
212.504	560.623
217.392	139.475
222.279	8.58203
227.162	100.772
232.043	73.1328
236.921	5.2168
241.797	145.342
246.67	107.606
251.54	291.449
256.408	760.188
261.274	808.805
266.136	606.416
270.996	374.629
275.854	143.791
280.709	153.072
285.561	189.494
290.41	159.846
295.257	169.594
300.102	123.918
304.944	199.772
309.783	305.381
314.619	646.012
319.453	867.822
324.285	1133.87
329.113	2654.91
333.939	1286.79
338.763	1567.42
343.584	2358.19
348.402	3425.38
353.218	3958.38
358.031	3003.72
362.841	1744.37
367.649	1385.31
372.454	1197.92
377.257	1570.74
382.057	2217.5
386.854	3298.4
391.649	3110.3
396.441	2262.02
401.231	1794.17
406.018	1960.56
410.802	1495.19
415.584	852.797
420.363	473.227
425.139	270.029
429.913	253.125
434.684	11.7812
439.453	284.883
444.219	586.664
448.982	714.822
453.743	1501.2
458.501	3817.36
463.257	7505.52
468.01	7403.68
472.76	3601.84
477.508	1805.01
482.253	975.178
486.996	502.365
491.736	384.603
496.473	511.91
501.207	763.314
505.94	926.793
510.669	769.334
515.396	726.938
520.12	495.623
524.842	893.391
529.561	1268.18
534.277	1275.97
538.991	1094.76
543.702	326.531
548.41	10.2754
553.116	196.457
557.819	229.08
562.52	65.5371
567.218	100.617
571.913	491.062
576.606	685.117
581.296	884.957
585.984	1479.29
590.669	1805.71
595.351	2524.31
600.031	4150.91
604.708	7499.11
609.383	14996.4
614.055	25736.2
618.724	23629.2
623.391	11263.2
628.055	5182.03
632.716	2377.78
637.375	1675.75
642.031	1258.62
646.685	1099.11
651.335	716.271
655.984	924.32
660.63	547.582
665.273	596.195
669.913	671.606
674.551	843.807
679.186	651.787
683.819	520.582
688.449	668.539
693.076	542.356
697.701	492.15
702.323	538.24
706.943	674.182
711.56	674.057
716.174	1168.67
720.786	1424.51
725.395	3261.5
730.001	5649.33
734.605	4517.93
739.206	2224.85
743.805	998.824
748.401	519.314
752.995	473.193
757.585	197.047
762.173	440.348
766.759	370.967
771.342	340.137
775.922	276.82
780.5	151.978
785.075	286.607
789.648	214.748
794.217	48.4219
798.785	355.574
803.349	587.262
807.911	653.475
812.471	635.223
817.027	349.498
821.582	35.7129
826.133	71.4609
830.682	98.2812
835.228	111.328
839.772	137.734
844.313	1.9375
848.852	204.965
853.387	29.168
857.921	402.891
862.451	49.9297
866.979	332.469
871.505	261.457
876.028	39.4414
880.548	7.08984
885.065	62.1523
889.58	42.0039
894.093	211.34
898.602	733.285
903.109	1050.86
907.614	1557.1
912.116	1860.66
916.615	1691.59
921.112	1634.07
925.606	1566.16
930.097	1814.45
934.586	1533.04
939.072	1154.38
943.556	918.519
948.037	1313.45
952.515	1136.19
956.991	1230.88
961.464	1173.12
965.934	870.918
970.402	726.184
974.867	472.668
979.33	435.598
983.79	277.715
988.248	411.016
992.702	114.59
997.155	314.34
1001.6	740.984
1006.05	438.543
1010.5	237.906
1014.94	470.555
1019.38	684.164
1023.81	634.246
1028.25	576.328
1032.68	413.09
1037.11	124.371
1041.53	372.906
1045.96	188.856
1050.38	570.035
1054.8	744.477
1059.21	259.133
1063.62	894.027
1068.04	710.184
1072.44	555.578
1076.85	522.219
1081.25	860.117
1085.65	846.273
1090.05	669.723
1094.44	283.191
1098.84	343.492
1103.22	426.262
1107.61	409.644
1112	580.688
1116.38	490.195
1120.76	596.125
1125.13	543.18
1129.51	357.742
1133.88	382.613
1138.25	270.828
1142.61	25.7109
1146.98	99.2695
1151.34	268.582
1155.7	338.129
1160.05	20.8281
1164.4	175.199
1168.76	150.84
1173.1	280.519
1177.45	535.266
1181.79	158.957
1186.13	622.07
1190.47	383.133
1194.8	539.285
1199.14	304.547
1203.46	536.898
1207.79	504.34
1212.12	446.934
1216.44	235.477
1220.76	235.144
1225.08	8.85938
1229.39	348.379
1233.7	274.82
1238.01	242.285
1242.32	475.785
1246.62	560.305
1250.92	839.836
1255.22	758.43
1259.51	442.031
1263.81	485.648
1268.1	516.266
1272.38	394.883
1276.67	347.488
1280.95	180.59
1285.23	121.164
1289.51	67.4141
1293.79	305.043
1298.06	97.4961
1302.33	408.398
1306.6	618.152
1310.86	984.969
1315.12	1156.85
1319.38	1822.89
1323.64	1708.05
1327.89	1269.14
1332.14	1103.17
1336.39	873.141
1340.64	873.055
1344.88	444.914
1349.12	606.711
1353.36	758.484
1357.6	878.523
1361.83	292.191
1366.06	879.82
1370.29	848.414
1374.52	1058.95
1378.74	905.91
1382.96	853.637
1387.18	869.656
1391.39	1021.06
1395.61	617.195
1399.82	514.785
1404.02	527.656
1408.23	921.914
1412.43	939.723
1416.63	702.648
1420.83	663
1425.02	1025.61
1429.21	832.441
1433.4	905.227
1437.59	1250.44
1441.77	1693.58
1445.95	1643.96
1450.13	1552.48
1454.31	1523.02
1458.48	1704.57
1462.65	1078.18
1466.82	1142.22
1470.99	1107.43
1475.15	1048.73
1479.31	1102.12
1483.47	624.57
1487.63	493.031
1491.78	256.453
1495.93	60.6758
1500.08	514.047
1504.22	279.621
1508.37	263.363
1512.51	196.379
1516.64	330.984
1520.78	269.512
1524.91	482.352
1529.04	33.1445
1533.17	201.816
1537.29	368.742
1541.41	375.914
1545.53	481.894
1549.65	192.453
1553.77	407.938
1557.88	460.844
1561.99	261.055
1566.09	372.59
1570.2	0
