Measurement: Raman, 514 nm, ccw, Raman Data Processed
Mineral: Inyoite
Rruff sample: R040161
Ideal chemistry: CaB_3_O_3_(OH)_5_4H_2_O
Locality: Kramer deposit, Boron, Kern County, California, USA
Source: University of Arizona Mineral Museum
Description: Group of colorless indistinct rounded crystals
Measured chemistry: Ca_1.00_B_3.00_O_3_(OH)_5_Â·4H_2_O
Pin_id: L00113
Orientation: Laser parallel to b* (0 1 0). Fiducial mark perpendicular to laser is parallel to c [0 0 1]
Raman shift (cm-1)	intensity
99.344	0
104.293	249.434
109.239	385.592
114.182	770.399
119.123	1306.7
124.061	2035.49
128.997	1603.17
133.93	1275.85
138.86	1565.19
143.788	3041.42
148.713	5942.89
153.636	5546.4
158.556	3749.47
163.473	3282.12
168.388	5162.69
173.3	8751.06
178.21	11373.6
183.117	9773.02
188.021	5463.76
192.923	4142.82
197.822	2846.08
202.718	1641.45
207.612	1011.53
212.504	609.816
217.392	534.182
222.279	432.777
227.162	236.445
232.043	189.414
236.921	298.863
241.797	254.113
246.67	293.348
251.54	572.701
256.408	1080.28
261.274	1087.22
266.136	875.688
270.996	364.158
275.854	192.103
280.709	148.807
285.561	72.4082
290.41	209.353
295.257	93.7481
300.102	43.2695
304.944	252.477
309.783	445.082
314.619	927.031
319.453	1408.9
324.285	2326.64
329.113	2169.24
333.939	1414.67
338.763	961.84
343.584	895.816
348.402	1337.91
353.218	1207.19
358.031	1075.12
362.841	534.031
367.649	505.365
372.454	591.07
377.257	402.103
382.057	864.438
386.854	1176.05
391.649	1181.96
396.441	937.803
401.231	775.354
406.018	911.561
410.802	797.684
415.584	492.926
420.363	106.559
425.139	166.414
429.913	39.7344
434.684	51.1875
439.453	31.9453
444.219	17.373
448.982	117.728
453.743	511.535
458.501	947.865
463.257	1585.25
468.01	1339.67
472.76	783.137
477.508	393.795
482.253	71.3125
486.996	74.1738
491.736	149.902
496.473	76.2852
501.207	543.1
505.94	458.15
510.669	471.853
515.396	381.529
520.12	413.238
524.842	589.033
529.561	617.705
534.277	636.234
538.991	377.619
543.702	119.834
548.41	136.781
553.116	58.2461
557.819	447.141
562.52	377.805
567.218	346.139
571.913	203.484
576.606	239.262
581.296	303.732
585.984	468.268
590.669	912.965
595.351	1185.71
600.031	2327.69
604.708	4702.49
609.383	9110.14
614.055	14798.9
618.724	12186.5
623.391	5599.81
628.055	2605.8
632.716	1269.87
637.375	791.807
642.031	647.799
646.685	835.057
651.335	801.803
655.984	647.648
660.63	454.369
665.273	385.447
669.913	405.199
674.551	568.646
679.186	617.301
683.819	640.057
688.449	549.871
693.076	539.801
697.701	529.5
702.323	462.402
706.943	354.857
711.56	389.26
716.174	473.477
720.786	882.727
725.395	1620
730.001	1994.14
734.605	1566.15
739.206	707.832
743.805	294.547
748.401	8.79102
752.995	159.107
757.585	113.996
762.173	188.31
766.759	109.363
771.342	156.832
775.922	341.043
780.5	123.258
785.075	2.39844
789.648	79.3398
794.217	89.832
798.785	220.539
803.349	191.648
807.911	512.406
812.471	195.82
817.027	389.856
821.582	191.527
826.133	108.602
830.682	126.332
835.228	217.797
839.772	331.742
844.313	154.246
848.852	350.316
853.387	393.16
857.921	246.504
862.451	609.277
866.979	309.156
871.505	464.356
876.028	221.508
880.548	181.496
885.065	133.633
889.58	130.117
894.093	152.828
898.602	519
903.109	335.402
907.614	706.629
912.116	1024.61
916.615	1125.03
921.112	1041.82
925.606	1827.23
930.097	1875.9
934.586	1258.75
939.072	866.945
943.556	797.984
948.037	721.727
952.515	850.797
956.991	719.094
961.464	518.863
965.934	502.059
970.402	317.723
974.867	482.16
979.33	470.191
983.79	338.289
988.248	132.18
992.702	171.176
997.155	90.3164
1001.6	270.262
1006.05	303.57
1010.5	369.723
1014.94	201.898
1019.38	435.262
1023.81	196.871
1028.25	40.2227
1032.68	15.1523
1037.11	188.75
1041.53	178.738
1045.96	133.129
1050.38	139.531
1054.8	454.449
1059.21	418.121
1063.62	777.727
1068.04	445.535
1072.44	275.285
1076.85	353.957
1081.25	462.555
1085.65	601.242
1090.05	419.731
1094.44	351.406
1098.84	336.668
1103.22	164.316
1107.61	462.004
1112	237.684
1116.38	693.387
1120.76	472.887
1125.13	480.481
1129.51	166.438
1133.88	389.527
1138.25	400.113
1142.61	138.359
1146.98	82.3828
1151.34	131.68
1155.7	177.918
1160.05	200.137
1164.4	42.0273
1168.76	435.703
1173.1	175.191
1177.45	331.25
1181.79	10.4141
1186.13	483.594
1190.47	233.805
1194.8	383.055
1199.14	455.336
1203.46	380.648
1207.79	202.019
1212.12	199.414
1216.44	437.777
1220.76	435.106
1225.08	170.519
1229.39	439.547
1233.7	265.672
1238.01	335.856
1242.32	621.523
1246.62	478.379
1250.92	447.773
1255.22	571.289
1259.51	201.941
1263.81	343.231
1268.1	326.09
1272.38	533.781
1276.67	65.8555
1280.95	60.7891
1285.23	27.4844
1289.51	147.168
1293.79	108.051
1298.06	4.86719
1302.33	136.801
1306.6	454.606
1310.86	650.32
1315.12	691.488
1319.38	846.852
1323.64	542.367
1327.89	651.988
1332.14	549.738
1336.39	314.617
1340.64	453.629
1344.88	346.644
1349.12	307.922
1353.36	323.762
1357.6	38.3477
1361.83	335.082
1366.06	141.996
1370.29	27.0938
1374.52	300.367
1378.74	554.856
1382.96	211.566
1387.18	208.492
1391.39	267.644
1395.61	113.539
1399.82	301.195
1404.02	276.129
1408.23	276.758
1412.43	420.562
1416.63	467.859
1420.83	511.473
1425.02	320.711
1429.21	499.438
1433.4	290.93
1437.59	792.098
1441.77	313.207
1445.95	944.734
1450.13	1147
1454.31	914.742
1458.48	713.801
1462.65	777.289
1466.82	661.516
1470.99	434.305
1475.15	561.434
1479.31	797.59
1483.47	320.859
1487.63	270.473
1491.78	321.469
1495.93	101.254
1500.08	259.234
1504.22	341.531
1508.37	458.023
1512.51	491.977
1516.64	76.2266
1520.78	232.445
1524.91	320.285
1529.04	485.441
1533.17	178.066
1537.29	242.227
1541.41	136.227
1545.53	48.375
1549.65	127.41
1553.77	146.082
1557.88	202.309
1561.99	423.059
1566.09	368.059
1570.2	0
