Measurement: Raman, 514 nm, ccw, Raman Data Processed
Mineral: Inyoite
Rruff sample: R040161
Ideal chemistry: CaB_3_O_3_(OH)_5_4H_2_O
Locality: Kramer deposit, Boron, Kern County, California, USA
Source: University of Arizona Mineral Museum
Description: Group of colorless indistinct rounded crystals
Measured chemistry: Ca_1.00_B_3.00_O_3_(OH)_5_Â·4H_2_O
Pin_id: L00092
Orientation: Laser parallel to (1 0 1). Fiducial mark perpendicular to laser is parallel to b [0 1 0]
Raman shift (cm-1)	intensity
93.155	0
98.106	16.4131
103.056	337.831
108.002	513.606
112.946	550.035
117.888	599.697
122.827	937.14
127.763	984.83
132.697	1384.96
137.628	2170.01
142.556	4790.45
147.482	10709.2
152.405	15099.7
157.326	6001.36
162.244	3984.08
167.159	6300.71
172.072	13807.1
176.982	23979.9
181.89	29943.4
186.795	17071.1
191.697	10617.3
196.597	8000.09
201.494	4385.36
206.389	2607.31
211.281	1988.27
216.17	871.219
221.057	457.928
225.941	99.668
230.823	162.032
235.702	204.845
240.578	355.364
245.452	523.651
250.323	1002.22
255.192	2199.39
260.058	3256.34
264.921	2759.92
269.782	2003.37
274.64	1383.13
279.495	900.796
284.348	535.598
289.198	380.506
294.046	272.532
298.891	614.309
303.733	872.616
308.573	1714.37
313.41	2767.8
318.245	4482.39
323.077	6518.13
327.906	7730.96
332.733	5734.84
337.557	2938.6
342.379	1501.74
347.198	1076.88
352.014	1021.64
356.828	964.096
361.639	739.041
366.447	509.43
371.253	674.205
376.056	831.326
380.857	1056.77
385.655	1317.18
390.451	1583.41
395.243	845.291
400.034	782.041
404.821	1192.54
409.606	1363.69
414.389	549.41
419.168	87.6445
423.945	76.75
428.72	43.4883
433.492	181.053
438.261	5.96289
443.028	292.459
447.792	135.637
452.553	96.1016
457.312	342.549
462.068	1308.18
466.822	1475.97
471.573	826.906
476.321	232.982
481.067	168.178
485.81	90.7598
490.551	93.4277
495.289	294.336
500.024	901.256
504.757	1512.3
509.487	1686.42
514.214	1400.7
518.939	1473.2
523.661	1601.8
528.381	1481.55
533.098	1415.62
537.812	1250.21
542.524	900.938
547.233	789.744
551.94	755.676
556.644	1120.63
561.345	1458.67
566.044	1399.15
570.74	1135
575.433	1292.84
580.124	1460.05
584.812	1774.74
589.498	2289.17
594.181	3193.82
598.861	5191.23
603.539	9442.74
608.214	18302.3
612.887	32387
617.557	35233.9
622.224	18337.9
626.889	8338.82
631.551	4329.63
636.21	2522.12
640.867	2063.19
645.521	1661.58
650.173	1504.15
654.822	1412.67
659.468	1460.67
664.112	1448.86
668.753	1469.18
673.392	1877.02
678.028	1869.47
682.661	2274.83
687.292	1973.82
691.92	2091.86
696.545	1987.84
701.168	1709.18
705.788	1790.78
710.406	1373.32
715.021	1527.54
719.633	1551.6
724.243	2241.29
728.85	3985.74
733.455	3874.67
738.056	1982.58
742.656	656.336
747.252	576.939
751.846	389.408
756.438	257.623
761.027	10.666
765.613	88.7207
770.196	173.963
774.777	179.815
779.356	40.3125
783.932	74.5019
788.505	16.6094
793.075	34.7168
797.643	61.4141
802.208	30.9707
806.771	46.1191
811.331	322.148
815.888	45.4766
820.443	163.695
824.995	52.3828
829.545	56.4902
834.092	96.8125
838.636	120.756
843.178	68.5469
847.717	183.426
852.254	189.025
856.788	169.287
861.319	335.269
865.848	523.996
870.374	270.719
874.897	342.898
879.418	449.295
883.936	241.471
888.452	253.906
892.965	436.934
897.475	362.764
901.983	967.814
906.488	994.531
910.99	1391.45
915.49	2231.34
919.988	2959.59
924.482	3841.26
928.974	4830.48
933.464	3953.14
937.951	2947.24
942.435	1986.2
946.917	1406.14
951.396	1048.2
955.872	837.289
960.346	775.441
964.817	656.986
969.285	643.857
973.751	662.277
978.215	400.057
982.675	456.381
987.134	109.227
991.589	377.93
996.042	248.822
1000.49	289.072
1004.94	40.3945
1009.38	243.611
1013.83	293.109
1018.27	154.846
1022.7	157.066
1027.14	24.6328
1031.57	126.498
1036	70.7871
1040.43	310.547
1044.85	326.514
1049.27	282.602
1053.69	692.758
1058.11	751.016
1062.52	600.519
1066.93	1092.15
1071.34	590.176
1075.75	701.254
1080.15	489.961
1084.55	543.768
1088.95	468.914
1093.35	661.277
1097.74	441.852
1102.13	560.586
1106.52	657.596
1110.9	437.891
1115.28	270.299
1119.66	423.785
1124.04	334.352
1128.41	153.971
1132.79	283.535
1137.16	32.1758
1141.52	195.353
1145.89	123.873
1150.25	82.2285
1154.61	67.543
1158.96	29.1914
1163.32	94.6445
1167.67	192.012
1172.02	169.154
1176.36	167.613
1180.71	223.566
1185.05	382.045
1189.38	192.574
1193.72	184.045
1198.05	372.459
1202.38	340.805
1206.71	187.08
1211.04	392.279
1215.36	225.397
1219.68	459.428
1224	546.365
1228.31	429.209
1232.62	473.949
1236.93	731.59
1241.24	643.119
1245.54	852.535
1249.84	1073.84
1254.14	804.031
1258.44	992.109
1262.73	1089.72
1267.03	823.797
1271.31	750.566
1275.6	541.693
1279.88	471.027
1284.16	292.527
1288.44	155.379
1292.72	320.969
1296.99	49.2344
1301.26	108.072
1305.53	812.941
1309.79	808.846
1314.06	887.74
1318.32	891.621
1322.57	1041.47
1326.83	934.264
1331.08	445.734
1335.33	593.385
1339.58	676.971
1343.82	477.494
1348.06	343.955
1352.3	366.361
1356.54	291.365
1360.77	419.019
1365.01	232.275
1369.23	244.486
1373.46	395.69
1377.68	289.949
1381.9	481.273
1386.12	513.662
1390.34	228.193
1394.55	493.856
1398.76	96.9277
1402.97	269.926
1407.18	419.227
1411.38	550.121
1415.58	281.496
1419.78	519.391
1423.97	341.148
1428.17	496.949
1432.36	397.059
1436.54	560.707
1440.73	576.102
1444.91	521.57
1449.09	609.867
1453.27	309.988
1457.44	423.133
1461.61	682.609
1465.78	392.758
1469.95	396.801
1474.11	207.133
1478.27	342.523
1482.43	473.957
1486.59	295.406
1490.74	307.812
1494.89	134.551
1499.04	250.125
1503.19	435.316
1507.33	138.559
1511.47	183.164
1515.61	273.582
1519.75	343.016
1523.88	247.711
1528.01	62.9766
1532.14	311.293
1536.26	123.922
1540.38	315.703
1544.51	265.387
1548.62	274.332
1552.74	426.219
1556.85	201.18
1560.96	478.215
1565.07	140.941
1569.17	276.789
