Measurement: Raman, 514 nm, ccw, Raman Data Processed
Mineral: Inyoite
Rruff sample: R040161
Ideal chemistry: CaB_3_O_3_(OH)_5_4H_2_O
Locality: Kramer deposit, Boron, Kern County, California, USA
Source: University of Arizona Mineral Museum
Description: Group of colorless indistinct rounded crystals
Measured chemistry: Ca_1.00_B_3.00_O_3_(OH)_5_Â·4H_2_O
Pin_id: L00339
Orientation: Laser parallel to a* (1 0 0). Fiducial mark perpendicular to laser is parallel to b [0 1 0]
Raman shift (cm-1)	intensity
94.393	0
99.344	138.19
104.293	811.833
109.239	951.404
114.182	1165.29
119.123	1429.08
124.061	1603.17
128.997	1903.61
133.93	2751.85
138.86	2466.27
143.788	4109.59
148.713	7992.41
153.636	7768.9
158.556	4114.69
163.473	4017.6
168.388	6740.47
173.3	11848.6
178.21	15120.6
183.117	14046.9
188.021	10545.7
192.923	11078.8
197.822	8099.69
202.718	4192.78
207.612	2486.71
212.504	1432.53
217.392	706.157
222.279	358.433
227.162	49.2051
232.043	28.0605
236.921	18.0596
241.797	178.415
246.67	101.734
251.54	858.486
256.408	1590.01
261.274	1986.02
266.136	1819.22
270.996	1504.77
275.854	823.069
280.709	324.675
285.561	41.2041
290.41	249.91
295.257	30.5684
300.102	52.6328
304.944	239.027
309.783	1027.67
314.619	1533.99
319.453	2913.97
324.285	4593.99
329.113	4854.64
333.939	3148.25
338.763	1795.4
343.584	732.204
348.402	676.124
353.218	468.656
358.031	565.775
362.841	754.453
367.649	1589.66
372.454	2796.38
377.257	3369.91
382.057	3951.76
386.854	4919.43
391.649	5243.76
396.441	4028.32
401.231	3753.17
406.018	4096.34
410.802	3146.51
415.584	1469.93
420.363	499.773
425.139	50.1055
429.913	168.367
434.684	176.385
439.453	222.955
444.219	51.3906
448.982	229.67
453.743	1028.5
458.501	2402.7
463.257	4270.25
468.01	3650.13
472.76	1408.34
477.508	663.852
482.253	388.654
486.996	335.75
491.736	640.141
496.473	1113.82
501.207	1478.77
505.94	1784.04
510.669	1569.65
515.396	1254.15
520.12	1444.2
524.842	1570.12
529.561	1318.35
534.277	1123.18
538.991	625.365
543.702	279.141
548.41	210.996
553.116	142.992
557.819	424.565
562.52	548.193
567.218	677.756
571.913	960.25
576.606	1111.2
581.296	1607.28
585.984	2055.8
590.669	2711.89
595.351	4074.11
600.031	6552.38
604.708	11991.7
609.383	21955
614.055	34655.3
618.724	28972.6
623.391	12780.9
628.055	5415.15
632.716	2536.36
637.375	1435.5
642.031	879.062
646.685	540.93
651.335	421.668
655.984	139.26
660.63	190.262
665.273	126.762
669.913	171.951
674.551	73.9336
679.186	72.3086
683.819	34.7754
688.449	23.0723
693.076	158.305
697.701	233.93
702.323	401.264
706.943	544.316
711.56	844.803
716.174	1336.75
720.786	2604.2
725.395	4903.75
730.001	7465.12
734.605	5912.08
739.206	2824.58
743.805	1254.62
748.401	743.203
752.995	388.31
757.585	691.945
762.173	518.186
766.759	523.719
771.342	663.471
775.922	485.398
780.5	38.8066
785.075	143.566
789.648	136.584
794.217	18.6973
798.785	257.779
803.349	362.219
807.911	230.119
812.471	311.385
817.027	165.094
821.582	23.0625
826.133	36.1543
830.682	64.709
835.228	108.068
839.772	18.2324
844.313	92.8438
848.852	299.727
853.387	338.144
857.921	394.119
862.451	780.65
866.979	1043.81
871.505	1074.46
876.028	897.731
880.548	740.783
885.065	719.568
889.58	444.059
894.093	599.549
898.602	383.404
903.109	578.748
907.614	709.863
912.116	922.627
916.615	915.656
921.112	1111.98
925.606	1577.27
930.097	1603.33
934.586	1503.75
939.072	938.938
943.556	922.51
948.037	896.051
952.515	926.394
956.991	710.578
961.464	873.826
965.934	530.521
970.402	330.074
974.867	370.336
979.33	252.615
983.79	433.752
988.248	442.385
992.702	433.984
997.155	7.43555
1001.6	521.127
1006.05	165.69
1010.5	196.055
1014.94	407.102
1019.38	250.387
1023.81	274.158
1028.25	86.5332
1032.68	60.6465
1037.11	182.578
1041.53	65.6777
1045.96	213.078
1050.38	208.592
1054.8	376.223
1059.21	408.062
1063.62	422.193
1068.04	553.598
1072.44	340.121
1076.85	295.731
1081.25	350.422
1085.65	176.293
1090.05	250.393
1094.44	150.795
1098.84	650.816
1103.22	470.414
1107.61	436.231
1112	370.293
1116.38	451.557
1120.76	621.896
1125.13	561.311
1129.51	130.723
1133.88	76.291
1138.25	152.94
1142.61	90.4297
1146.98	140.326
1151.34	86.1973
1155.7	201.668
1160.05	23.1367
1164.4	148.418
1168.76	266.996
1173.1	330.775
1177.45	399.644
1181.79	156.535
1186.13	203.445
1190.47	590.373
1194.8	252.316
1199.14	257.266
1203.46	528.223
1207.79	762.186
1212.12	530.15
1216.44	646.115
1220.76	865.074
1225.08	651.027
1229.39	646.963
1233.7	746.871
1238.01	699.746
1242.32	784.582
1246.62	705.371
1250.92	746.16
1255.22	997.926
1259.51	810.699
1263.81	773.332
1268.1	311.184
1272.38	230.066
1276.67	231.106
1280.95	221.348
1285.23	386.586
1289.51	127.859
1293.79	146.133
1298.06	57.0469
1302.33	376.953
1306.6	143.398
1310.86	429.801
1315.12	444.219
1319.38	424.648
1323.64	480.129
1327.89	322.551
1332.14	187.977
1336.39	89.3828
1340.64	500.785
1344.88	485.164
1349.12	147.539
1353.36	232.902
1357.6	187.254
1361.83	271.594
1366.06	270.918
1370.29	302.234
1374.52	563.559
1378.74	408.191
1382.96	412.66
1387.18	523.852
1391.39	483.426
1395.61	308.094
1399.82	314.035
1404.02	415.258
1408.23	442.617
1412.43	361.312
1416.63	679.301
1420.83	667.629
1425.02	672.418
1429.21	591.535
1433.4	641.949
1437.59	527.602
1441.77	565.469
1445.95	339.598
1450.13	411.981
1454.31	604.309
1458.48	345.883
1462.65	594.188
1466.82	544.981
1470.99	320.613
1475.15	561.266
1479.31	489.797
1483.47	320.203
1487.63	327.598
1491.78	454.934
1495.93	421.856
1500.08	36.9922
1504.22	503.465
1508.37	375.172
1512.51	239.137
1516.64	153.668
1520.78	303.875
1524.91	175.922
1529.04	76.0625
1533.17	182.676
1537.29	290.914
1541.41	179.262
1545.53	128.559
1549.65	246.309
1553.77	446.035
1557.88	158.801
1561.99	387.297
1566.09	340.617
1570.2	0
