Measurement: Raman, 514 nm, ccw, Raman Data Processed
Mineral: Inyoite
Rruff sample: R040161
Ideal chemistry: CaB_3_O_3_(OH)_5_4H_2_O
Locality: Kramer deposit, Boron, Kern County, California, USA
Source: University of Arizona Mineral Museum
Description: Group of colorless indistinct rounded crystals
Measured chemistry: Ca_1.00_B_3.00_O_3_(OH)_5_Â·4H_2_O
Pin_id: L00113
Orientation: Laser parallel to b* (0 1 0). Fiducial mark perpendicular to laser is parallel to c [0 0 1]
Raman shift (cm-1)	intensity
99.344	0
104.293	65.4775
109.239	481.926
114.182	455.634
119.123	772.462
124.061	1300.26
128.997	940.518
133.93	1315.66
138.86	2082.22
143.788	4670.71
148.713	11034.8
153.636	9303.48
158.556	3822.78
163.473	3532.6
168.388	6673.63
173.3	13490.3
178.21	21938.3
183.117	20959.6
188.021	10711.7
192.923	7612.55
197.822	5118.32
202.718	2641.56
207.612	1787.62
212.504	1081.9
217.392	401.113
222.279	7.49609
227.162	37.0176
232.043	135.4
236.921	208.853
241.797	20.4492
246.67	384.328
251.54	1136.79
256.408	2087.55
261.274	2413.32
266.136	1690.18
270.996	1322.76
275.854	698.174
280.709	247.225
285.561	59.2168
290.41	11.1855
295.257	37.4668
300.102	274.973
304.944	711.672
309.783	1455.42
314.619	2449.47
319.453	3894.51
324.285	5762.46
329.113	5610.31
333.939	3625.02
338.763	1668.44
343.584	1181.13
348.402	1148.51
353.218	1068.02
358.031	958.227
362.841	596.709
367.649	595.42
372.454	497.211
377.257	769.229
382.057	1039.35
386.854	1378.54
391.649	1138.85
396.441	801.014
401.231	732.945
406.018	1242.44
410.802	901.387
415.584	430.668
420.363	120.801
425.139	89.4648
429.913	201.154
434.684	83.3262
439.453	107.225
444.219	18.9375
448.982	33.0625
453.743	176.746
458.501	672.203
463.257	1336.56
468.01	1147.78
472.76	600.854
477.508	168.783
482.253	143.477
486.996	85.7949
491.736	94.6582
496.473	275.418
501.207	788.117
505.94	1358.59
510.669	1251.02
515.396	1175.64
520.12	1217.22
524.842	1284.72
529.561	1367.01
534.277	1185.28
538.991	859.354
543.702	723.379
548.41	491.162
553.116	772.633
557.819	816.781
562.52	983.346
567.218	1074.91
571.913	955.926
576.606	898.062
581.296	1146.84
585.984	1474.15
590.669	2040.79
595.351	3055.42
600.031	4782.87
604.708	9036.18
609.383	17762.3
614.055	28665
618.724	24891
623.391	11859.3
628.055	5508.23
632.716	3032.45
637.375	1882.45
642.031	1596.31
646.685	1816.55
651.335	1762.46
655.984	1283.07
660.63	1287.34
665.273	976.516
669.913	1483.92
674.551	1359.3
679.186	1802.71
683.819	1552.81
688.449	1600.93
693.076	1542.88
697.701	1379.27
702.323	1360.05
706.943	1246.03
711.56	1143.29
716.174	1074.07
720.786	1276.38
725.395	1988.14
730.001	3350.44
734.605	2180.02
739.206	853.506
743.805	509.826
748.401	290.982
752.995	131.969
757.585	146.746
762.173	173.42
766.759	178.44
771.342	69.7539
775.922	48.8164
780.5	207.451
785.075	39.0781
789.648	111.426
794.217	29.6699
798.785	121.561
803.349	141.373
807.911	192.812
812.471	18.2637
817.027	108.238
821.582	25.168
826.133	365.857
830.682	318.394
835.228	68.7559
839.772	113.24
844.313	338.986
848.852	424.99
853.387	278.848
857.921	542.055
862.451	517.582
866.979	472.496
871.505	464.652
876.028	245.695
880.548	404.606
885.065	205.594
889.58	265.762
894.093	313.363
898.602	536.731
903.109	863.141
907.614	1156.46
912.116	1612.64
916.615	1690.74
921.112	2379.76
925.606	3322.45
930.097	3721
934.586	2915.06
939.072	1940.6
943.556	1738.7
948.037	835.066
952.515	732.32
956.991	677.434
961.464	577.961
965.934	398.68
970.402	776.621
974.867	404.922
979.33	527.992
983.79	149.894
988.248	98.8516
992.702	23.8594
997.155	79.0742
1001.6	465.961
1006.05	158.078
1010.5	282.731
1014.94	85.8906
1019.38	313.262
1023.81	413.664
1028.25	67.7188
1032.68	293.434
1037.11	319.531
1041.53	233.918
1045.96	466.594
1050.38	423.441
1054.8	518.418
1059.21	711.609
1063.62	996.91
1068.04	807.043
1072.44	555.457
1076.85	651.148
1081.25	700.09
1085.65	658.32
1090.05	861.875
1094.44	377.562
1098.84	654.883
1103.22	497.394
1107.61	559.703
1112	381.422
1116.38	366.269
1120.76	613.262
1125.13	387.867
1129.51	397.559
1133.88	331.965
1138.25	93.4922
1142.61	75.0312
1146.98	68.5469
1151.34	164.84
1155.7	92.7656
1160.05	49.4805
1164.4	90.1172
1168.76	341.043
1173.1	525.801
1177.45	206.285
1181.79	157.902
1186.13	76.3633
1190.47	165.227
1194.8	272.844
1199.14	346.519
1203.46	282.281
1207.79	251.16
1212.12	363.148
1216.44	690.25
1220.76	196.457
1225.08	239.906
1229.39	435.32
1233.7	439.856
1238.01	716.488
1242.32	830.231
1246.62	980.074
1250.92	1003.02
1255.22	745.082
1259.51	866.273
1263.81	841.613
1268.1	496.617
1272.38	553.691
1276.67	511.844
1280.95	376.695
1285.23	156.199
1289.51	207.434
1293.79	115.672
1298.06	28.7578
1302.33	412.125
1306.6	180.703
1310.86	611.481
1315.12	930.934
1319.38	1067.2
1323.64	832.328
1327.89	701.051
1332.14	243.871
1336.39	371.852
1340.64	333.981
1344.88	378.277
1349.12	184.758
1353.36	44.418
1357.6	134.242
1361.83	154.223
1366.06	326.371
1370.29	264.719
1374.52	355.293
1378.74	381.113
1382.96	282.195
1387.18	151.539
1391.39	193.141
1395.61	53.9414
1399.82	190.305
1404.02	216.106
1408.23	229.297
1412.43	243.914
1416.63	158.621
1420.83	133.238
1425.02	318.414
1429.21	521.641
1433.4	311.188
1437.59	691.519
1441.77	1012.77
1445.95	850.902
1450.13	951.074
1454.31	951.242
1458.48	920.766
1462.65	868.348
1466.82	648.555
1470.99	868.148
1475.15	272.144
1479.31	590.551
1483.47	431.363
1487.63	175.398
1491.78	186.766
1495.93	467.852
1500.08	233.106
1504.22	296.949
1508.37	18.7969
1512.51	351.152
1516.64	519.441
1520.78	202.887
1524.91	185.516
1529.04	451.641
1533.17	475.812
1537.29	25.1094
1541.41	207.141
1545.53	419.289
1549.65	257.617
1553.77	197.016
1557.88	233.711
1561.99	321.004
1566.09	257.008
1570.2	0
