Measurement: Raman, 514 nm, ccw, Raman Data Processed
Mineral: Inyoite
Rruff sample: R040161
Ideal chemistry: CaB_3_O_3_(OH)_5_4H_2_O
Locality: Kramer deposit, Boron, Kern County, California, USA
Source: University of Arizona Mineral Museum
Description: Group of colorless indistinct rounded crystals
Measured chemistry: Ca_1.00_B_3.00_O_3_(OH)_5_Â·4H_2_O
Pin_id: L00092
Orientation: Laser parallel to (1 0 1). Fiducial mark perpendicular to laser is parallel to b [0 1 0]
Raman shift (cm-1)	intensity
93.155	0
98.106	278.994
103.056	1217.88
108.002	719.985
112.946	220.944
117.888	502.662
122.827	873.57
127.763	2025.64
132.697	4468.5
137.628	2705.41
142.556	2810.27
147.482	5510.21
152.405	6926
157.326	2282.39
162.244	1681.69
167.159	2442.41
172.072	4039.61
176.982	4767.37
181.89	5897.97
186.795	9274.73
191.697	14513.8
196.597	13140.1
201.494	6528.03
206.389	3248.75
211.281	1790.38
216.17	997.352
221.057	535.639
225.941	386.389
230.823	261.473
235.702	264.902
240.578	317.296
245.452	55.8945
250.323	1.2168
255.192	77.9375
260.058	297.937
264.921	577.554
269.782	1034.38
274.64	1070.08
279.495	904.428
284.348	360.297
289.198	178.596
294.046	48.7734
298.891	41.2852
303.733	120.26
308.573	103.814
313.41	203.095
318.245	82.0615
323.077	67.2031
327.906	251.901
332.733	195.746
337.557	401.738
342.379	208.44
347.198	415.289
352.014	566.259
356.828	786.663
361.639	1417.4
366.447	2406.48
371.253	4033.91
376.056	4734.68
380.857	4407.83
385.655	5136.48
390.451	5570.74
395.243	4209.77
400.034	3346.14
404.821	3612.9
409.606	3606.09
414.389	2388.71
419.168	1427.64
423.945	1039.87
428.72	783.396
433.492	673.231
438.261	591.158
443.028	585.534
447.792	403.347
452.553	239.781
457.312	219.504
462.068	141.5
466.822	149.798
471.573	245.669
476.321	136.013
481.067	209.833
485.81	201.135
490.551	253.94
495.289	331.282
500.024	371.187
504.757	375.657
509.487	262.716
514.214	248.406
518.939	313.784
523.661	510.82
528.381	571.194
533.098	900.554
537.812	814.437
542.524	811.315
547.233	745.09
551.94	712.852
556.644	591.785
561.345	919.22
566.044	1164.39
570.74	1542.18
575.433	1880.49
580.124	2196.29
584.812	2645.81
589.498	3222.26
594.181	4194.78
598.861	6553.53
603.539	11800.4
608.214	22196.4
612.887	37675.5
617.557	39116
622.224	19096.8
626.889	7774.95
631.551	3726.45
636.21	1931.28
640.867	1070.42
645.521	768.844
650.173	376.981
654.822	348.91
659.468	42.2315
664.112	53.0107
668.753	32.6094
673.392	45.919
678.028	114.482
682.661	11.666
687.292	97.6367
691.92	133.807
696.545	275.382
701.168	306.756
705.788	494.758
710.406	837.773
715.021	1202.86
719.633	2126.61
724.243	3881.26
728.85	6619.88
733.455	6144.37
738.056	3052.7
742.656	1284.85
747.252	678.804
751.846	518.529
756.438	431.021
761.027	348.261
765.613	300.244
770.196	255.96
774.777	278.443
779.356	137.666
783.932	289.567
788.505	136.06
793.075	46.8965
797.643	141.498
802.208	38.1875
806.771	59.9199
811.331	79.2441
815.888	134.768
820.443	6.05078
824.995	234.978
829.545	56.0488
834.092	59.0547
838.636	30.4785
843.178	28.0918
847.717	9.32812
852.254	134.35
856.788	312.709
861.319	243.522
865.848	517.57
870.374	446.094
874.897	477.869
879.418	500.297
883.936	498.375
888.452	345.19
892.965	283.74
897.475	354.99
901.983	321.016
906.488	229.662
910.99	143.684
915.49	335.658
919.988	316.328
924.482	386.268
928.974	646.096
933.464	509.065
937.951	322.81
942.435	453.596
946.917	402.131
951.396	471.482
955.872	670.051
960.346	582.863
964.817	337.566
969.285	376.633
973.751	314.982
978.215	54.4648
982.675	70.7227
987.134	142.783
991.589	64.8281
996.042	75.7617
1000.49	239.51
1004.94	242.209
1009.38	258.113
1013.83	440.738
1018.27	311.125
1022.7	317.334
1027.14	143.121
1031.57	155.35
1036	238.506
1040.43	73.0938
1044.85	367.172
1049.27	282.469
1053.69	345.795
1058.11	774.225
1062.52	865.777
1066.93	526.51
1071.34	502.434
1075.75	459.6
1080.15	302.178
1084.55	281.012
1088.95	243.016
1093.35	384.332
1097.74	353.783
1102.13	258.348
1106.52	311.135
1110.9	343.879
1115.28	298.385
1119.66	271.326
1124.04	396.697
1128.41	244.359
1132.79	180.119
1137.16	59.0059
1141.52	166.902
1145.89	136.926
1150.25	80.0176
1154.61	85.9199
1158.96	57.4551
1163.32	78.7461
1167.67	153.574
1172.02	329.254
1176.36	232.654
1180.71	341.098
1185.05	316.039
1189.38	284.248
1193.72	254.953
1198.05	489.746
1202.38	587.619
1206.71	390.574
1211.04	673.604
1215.36	709.65
1219.68	630.867
1224	847.098
1228.31	564.387
1232.62	478.795
1236.93	556.344
1241.24	517.943
1245.54	631.697
1249.84	778.602
1254.14	561.561
1258.44	666.607
1262.73	609.742
1267.03	465.676
1271.31	644.9
1275.6	373.168
1279.88	180.693
1284.16	60.2363
1288.44	141.43
1292.72	85.0625
1296.99	7.02734
1301.26	407.902
1305.53	36.5664
1309.79	264.635
1314.06	273.762
1318.32	356.941
1322.57	281.176
1326.83	138.455
1331.08	470.769
1335.33	159.127
1339.58	299.523
1343.82	258.957
1348.06	319.424
1352.3	214.922
1356.54	345.455
1360.77	353.328
1365.01	260.92
1369.23	317.543
1373.46	485.211
1377.68	119.922
1381.9	463.391
1386.12	314.514
1390.34	104.424
1394.55	85.4277
1398.76	261.559
1402.97	333.793
1407.18	121.051
1411.38	257.185
1415.58	239.859
1419.78	85.6035
1423.97	228.898
1428.17	283.607
1432.36	240.773
1436.54	26.9316
1440.73	122.125
1444.91	232.084
1449.09	181.981
1453.27	177.6
1457.44	229.285
1461.61	241.033
1465.78	244.109
1469.95	317.348
1474.11	93.9121
1478.27	159.512
1482.43	124.133
1486.59	36.7578
1490.74	354.367
1494.89	65.3633
1499.04	254.404
1503.19	242.967
1507.33	235.027
1511.47	119.369
1515.61	243.559
1519.75	260.193
1523.88	125.408
1528.01	280.445
1532.14	290.82
1536.26	180.707
1540.38	88.0957
1544.51	197.625
1548.62	79.0137
1552.74	6.28711
1556.85	206.051
1560.96	190.463
1565.07	176.693
1569.17	215.791
