Measurement: Raman, 514 nm, ccw, Raman Data Processed
Mineral: Inyoite
Rruff sample: R040161
Ideal chemistry: CaB_3_O_3_(OH)_5_4H_2_O
Locality: Kramer deposit, Boron, Kern County, California, USA
Source: University of Arizona Mineral Museum
Description: Group of colorless indistinct rounded crystals
Measured chemistry: Ca_1.00_B_3.00_O_3_(OH)_5_Â·4H_2_O
Pin_id: L00078
Orientation: Laser parallel to -c* (0 0 -1). Fiducial mark perpendicular to laser is parallel to a [1 0 0]
Raman shift (cm-1)	intensity
105.529	0
110.475	11.3887
115.417	323.353
120.358	1248.97
125.295	2922.93
130.23	1345.85
135.163	477.55
140.092	1450.29
145.019	3459.05
149.944	6518.88
154.866	4314.58
159.785	3828.84
164.702	5411.26
169.616	10092.5
174.528	15810.4
179.437	17648.1
184.343	12289.2
189.247	4908.46
194.148	2265.72
199.046	1255.69
203.942	1152.4
208.835	1118.65
213.726	724.111
218.614	267.172
223.5	245.781
228.382	191.891
233.263	320.478
238.14	534.42
243.015	226.704
247.888	230.681
252.758	94.5703
257.625	340.071
262.49	439.32
267.352	487.183
272.211	455.234
277.068	331.228
281.922	215.069
286.773	22.6777
291.622	32.084
296.469	170.358
301.312	60.1611
306.154	375.676
310.992	707.616
315.828	1674.62
320.661	2506.89
325.492	3375.01
330.32	3274.24
335.145	2177.75
339.968	2562.52
344.789	4017.28
349.606	6110.21
354.421	6654.84
359.234	4789.99
364.043	3262.3
368.851	2503.76
373.655	2450.38
378.457	2239.17
383.256	2574.11
388.053	2810.2
392.847	1910.7
397.639	878.45
402.428	421.812
407.214	155.101
411.998	169.695
416.779	144.546
421.557	98.6348
426.333	84.0781
431.106	71.1699
435.877	176.556
440.645	16.1543
445.41	144.802
450.173	126.884
454.933	96.6543
459.691	557.309
464.446	1216.16
469.198	1456.21
473.948	900.457
478.695	625.917
483.439	347.659
488.181	74.7012
492.92	34.7539
497.657	369.374
502.391	941.914
507.122	1412
511.851	1810.57
516.577	1736.78
521.301	2032.47
526.022	1954.39
530.74	2366.53
535.456	1982.95
540.169	1204.79
544.879	833.887
549.587	449.281
554.292	847.586
558.995	1228.87
563.695	1251.53
568.392	1056.81
573.087	1040.4
577.779	1172.71
582.469	1405.61
587.156	1662.14
591.84	2344.63
596.522	4065.13
601.201	7180.1
605.877	14136.3
610.551	29008.8
615.222	44310.4
619.891	33320.6
624.557	15410.4
629.22	7648.4
633.881	4198.73
638.539	2979.07
643.195	2255.21
647.848	1744.26
652.498	1637.95
657.145	1518.52
661.791	1480.84
666.433	1232.91
671.073	1428.6
675.71	1457.24
680.345	1438.93
684.977	1455.7
689.606	1172.76
694.233	1139.18
698.857	1002.68
703.478	1049.81
708.097	631.381
712.714	720.519
717.327	863.506
721.938	1259.32
726.547	2436.07
731.153	3467.16
735.756	2444.83
740.356	1216.2
744.954	489.228
749.55	492.356
754.142	98.6992
758.733	44.3438
763.32	1.05078
767.905	111.787
772.487	232.484
777.067	62.0332
781.644	48.1426
786.218	33.5371
790.79	119.664
795.359	50.4434
799.926	98.4238
804.49	305.66
809.051	423.461
813.61	80.8281
818.166	200.713
822.72	75.0019
827.271	73.6719
831.819	104.568
836.365	83.9141
840.908	6.86133
845.448	95.8106
849.986	314.037
854.521	241.422
859.054	187.156
863.584	471.438
868.111	494.293
872.636	343.818
877.158	337.172
881.677	88.1406
886.194	318.693
890.709	422.109
895.22	491.647
899.729	983.221
904.236	1386.84
908.74	1956.28
913.241	2649.57
917.739	2980
922.235	3907.6
926.729	4706.85
931.219	4449.35
935.708	3433.57
940.193	2462.75
944.676	2221.75
949.156	1591.06
953.634	1657.16
958.109	1581.83
962.582	1107.56
967.051	1008.55
971.519	1271.74
975.983	1021.97
980.445	952.736
984.905	644.137
989.362	528.613
993.816	248.16
998.267	318.592
1002.72	496.82
1007.16	498.287
1011.61	479.309
1016.05	429.197
1020.49	352.231
1024.92	184.152
1029.36	300.961
1033.79	297.986
1038.21	230.705
1042.64	557.66
1047.06	620.127
1051.48	1018.84
1055.9	1635.02
1060.32	1605.56
1064.73	1832.68
1069.14	1790.96
1073.55	932.359
1077.95	996.867
1082.35	875.492
1086.75	640.256
1091.15	491.24
1095.54	261.418
1099.93	232.051
1104.32	438.062
1108.71	146.381
1113.09	246.99
1117.47	193.801
1121.85	82.9844
1126.23	135.315
1130.6	175.734
1134.97	148.787
1139.34	179.352
1143.7	215.215
1148.07	34.0703
1152.43	32.1055
1156.79	2.47266
1161.14	79.7578
1165.49	102.875
1169.84	312.815
1174.19	187.924
1178.54	325.422
1182.88	502.973
1187.22	449.523
1191.55	665.043
1195.89	649.523
1200.22	373.951
1204.55	1084.33
1208.87	707.65
1213.2	661.914
1217.52	790.117
1221.84	363.252
1226.15	421.316
1230.47	559.305
1234.78	712.203
1239.09	567.525
1243.39	1004.23
1247.69	1044.83
1251.99	1100.32
1256.29	1130.69
1260.59	1059.18
1264.88	940.203
1269.17	461.607
1273.46	586.828
1277.74	517.779
1282.02	272.361
1286.3	416.777
1290.58	198.867
1294.86	183.777
1299.13	199.682
1303.39	293.914
1307.66	387.023
1311.93	384.805
1316.19	476.865
1320.45	531.893
1324.7	482.846
1328.96	558.711
1333.21	486.494
1337.45	364.188
1341.7	641.801
1345.94	467.334
1350.18	403.787
1354.42	292.158
1358.66	155.434
1362.89	193.617
1367.12	457.746
1371.35	630.82
1375.57	348.848
1379.8	400.793
1384.02	300.758
1388.23	323.652
1392.45	7.61523
1396.66	441.852
1400.87	367.76
1405.08	266.297
1409.28	432.035
1413.48	277.99
1417.68	344.119
1421.88	384.137
1426.07	352.746
1430.26	524.359
1434.45	113.76
1438.64	327.19
1442.82	487.019
1447	244.947
1451.18	358.584
1455.35	350.172
1459.53	292.709
1463.7	246.207
1467.87	412.672
1472.03	374.113
1476.19	207.516
1480.35	396.891
1484.51	372.859
1488.67	378.016
1492.82	237.023
1496.97	373.43
1501.12	428.785
1505.26	10.7539
1509.4	189.727
1513.54	587.496
1517.68	36.7617
1521.81	29.3594
1525.94	363.297
1530.07	311.129
1534.2	338.418
1538.32	11.1367
1542.44	219.57
1546.56	273.785
1550.68	277.949
1554.79	54.8203
1558.9	215.598
1563.01	226.981
1567.12	11.1719
