Measurement: Raman, 514 nm, ccw, Raman Data Processed
Mineral: Inyoite
Rruff sample: R040161
Ideal chemistry: CaB_3_O_3_(OH)_5_4H_2_O
Locality: Kramer deposit, Boron, Kern County, California, USA
Source: University of Arizona Mineral Museum
Description: Group of colorless indistinct rounded crystals
Measured chemistry: Ca_1.00_B_3.00_O_3_(OH)_5_Â·4H_2_O
Pin_id: L00092
Orientation: Laser parallel to (1 0 1). Fiducial mark perpendicular to laser is parallel to b [0 1 0]
Raman shift (cm-1)	intensity
93.155	0
98.106	268.769
103.056	1928.88
108.002	3466.16
112.946	1219.27
117.888	780.818
122.827	1043.62
127.763	1289.18
132.697	2313.78
137.628	1926.41
142.556	3114.28
147.482	6755.69
152.405	9351.36
157.326	4001.55
162.244	3203.38
167.159	4371.16
172.072	7840.25
176.982	12268.8
181.89	14197.1
186.795	10836.5
191.697	10285.1
196.597	8426.43
201.494	4253.84
206.389	2183.2
211.281	1294.75
216.17	805.594
221.057	232.721
225.941	32.206
230.823	89.6445
235.702	185.888
240.578	107.148
245.452	68.8496
250.323	286.409
255.192	837.168
260.058	1077.08
264.921	1123.95
269.782	1099.02
274.64	926.761
279.495	627.732
284.348	496.022
289.198	203.794
294.046	87.6621
298.891	39.3877
303.733	224.859
308.573	410.421
313.41	1198.03
318.245	1992.7
323.077	3429.6
327.906	4167.53
332.733	3153.9
337.557	1612.18
342.379	922.039
347.198	464.09
352.014	589.086
356.828	764.744
361.639	747.957
366.447	1301.68
371.253	1961.48
376.056	2437.55
380.857	2487.39
385.655	3263.15
390.451	3526.65
395.243	2861.1
400.034	1789.53
404.821	2024.71
409.606	2073.58
414.389	1451.06
419.168	1022.1
423.945	492.672
428.72	169.697
433.492	71.041
438.261	158.75
443.028	42.207
447.792	102.174
452.553	110.631
457.312	138.553
462.068	269.787
466.822	436.346
471.573	315.217
476.321	52.6719
481.067	156.228
485.81	12.2148
490.551	40.332
495.289	306.092
500.024	417.728
504.757	888.619
509.487	666.957
514.214	612.828
518.939	861.223
523.661	897.293
528.381	1135.16
533.098	767.656
537.812	796.598
542.524	700.096
547.233	570.041
551.94	695.289
556.644	919.799
561.345	1122.48
566.044	1254.26
570.74	1463.69
575.433	1418.29
580.124	1821.43
584.812	2025.45
589.498	2674.52
594.181	3372.46
598.861	5142.6
603.539	9148.62
608.214	16676.7
612.887	29107.2
617.557	31005
622.224	16021.7
626.889	7028.99
631.551	3354.82
636.21	2259.83
640.867	1445.31
645.521	1280.16
650.173	871.764
654.822	1015.16
659.468	903.949
664.112	828.768
668.753	649.66
673.392	678.644
678.028	770.916
682.661	886.504
687.292	960.441
691.92	894.789
696.545	1095.68
701.168	999.65
705.788	937.076
710.406	954.432
715.021	1344.36
719.633	1588.34
724.243	2905.76
728.85	5070.34
733.455	5131.17
738.056	2767.07
742.656	1149.01
747.252	601.893
751.846	438.438
756.438	444.463
761.027	394.447
765.613	109.455
770.196	261.797
774.777	307.16
779.356	189.158
783.932	54.6465
788.505	6.35938
793.075	26.002
797.643	47.1035
802.208	152.375
806.771	27.1895
811.331	82.0391
815.888	90.2578
820.443	95.6738
824.995	100.934
829.545	97.7305
834.092	195.879
838.636	157.475
843.178	198.615
847.717	264.332
852.254	399.647
856.788	636.561
861.319	780.363
865.848	1017.66
870.374	1087.04
874.897	929.508
879.418	870.561
883.936	964.225
888.452	912.598
892.965	820.602
897.475	906.561
901.983	736.396
906.488	1082.94
910.99	1151.28
915.49	1367.85
919.988	1662.89
924.482	2121.78
928.974	2618.89
933.464	2371.17
937.951	1638.12
942.435	1190.6
946.917	1222.38
951.396	849.908
955.872	895.949
960.346	792.445
964.817	486.275
969.285	561.971
973.751	427.215
978.215	554.1
982.675	433.549
987.134	194.148
991.589	141.473
996.042	248.742
1000.49	8.25195
1004.94	93.8125
1009.38	308.559
1013.83	431.197
1018.27	215.926
1022.7	242.154
1027.14	59.2969
1031.57	148.428
1036	147.685
1040.43	186.828
1044.85	371.492
1049.27	148.06
1053.69	334.709
1058.11	641.481
1062.52	755.576
1066.93	643.781
1071.34	648.809
1075.75	530.277
1080.15	408.307
1084.55	201.652
1088.95	388.356
1093.35	322.25
1097.74	321.359
1102.13	147.57
1106.52	528.826
1110.9	120.084
1115.28	223.334
1119.66	167.57
1124.04	202.861
1128.41	94.9102
1132.79	47.543
1137.16	73.7129
1141.52	7.70117
1145.89	43.6289
1150.25	63.5371
1154.61	91.7754
1158.96	229.488
1163.32	97.2539
1167.67	194.992
1172.02	74.9746
1176.36	77.4219
1180.71	240.744
1185.05	399.941
1189.38	325.129
1193.72	641.311
1198.05	329.477
1202.38	397.644
1206.71	493.803
1211.04	701.934
1215.36	724.035
1219.68	572.096
1224	841.113
1228.31	597.281
1232.62	574.193
1236.93	638.051
1241.24	831.848
1245.54	897.584
1249.84	967.148
1254.14	941.445
1258.44	1165.9
1262.73	1001.9
1267.03	933.055
1271.31	620.481
1275.6	510.828
1279.88	292.777
1284.16	372.875
1288.44	141.348
1292.72	54.293
1296.99	93.3789
1301.26	292.297
1305.53	435.449
1309.79	582.68
1314.06	344.914
1318.32	724.164
1322.57	402.41
1326.83	403.652
1331.08	481.574
1335.33	231.793
1339.58	170.996
1343.82	240.152
1348.06	267.309
1352.3	113.359
1356.54	78.2539
1360.77	259.055
1365.01	106.723
1369.23	290.027
1373.46	327.894
1377.68	81.4883
1381.9	196.055
1386.12	50.3984
1390.34	291.09
1394.55	286.602
1398.76	109.254
1402.97	237.965
1407.18	115.883
1411.38	128.949
1415.58	263.43
1419.78	245.367
1423.97	190.703
1428.17	125.891
1432.36	358.34
1436.54	398.844
1440.73	343.285
1444.91	572.824
1449.09	506.113
1453.27	32.7695
1457.44	231.371
1461.61	464.566
1465.78	580.242
1469.95	409.496
1474.11	378.871
1478.27	467.117
1482.43	424.422
1486.59	542.242
1490.74	354.965
1494.89	261.633
1499.04	98.3047
1503.19	425.211
1507.33	382.91
1511.47	304.637
1515.61	280.738
1519.75	339.586
1523.88	361.887
1528.01	408.68
1532.14	85.4883
1536.26	389.777
1540.38	236.34
1544.51	395.223
1548.62	324.324
1552.74	226.441
1556.85	55.0234
1560.96	452.887
1565.07	171.328
1569.17	0.515625
