Measurement: Raman, 514 nm, ccw, Raman Data Processed
Mineral: Inyoite
Rruff sample: R040161
Ideal chemistry: CaB_3_O_3_(OH)_5_4H_2_O
Locality: Kramer deposit, Boron, Kern County, California, USA
Source: University of Arizona Mineral Museum
Description: Group of colorless indistinct rounded crystals
Measured chemistry: Ca_1.00_B_3.00_O_3_(OH)_5_Â·4H_2_O
Pin_id: L00339
Orientation: Laser parallel to a* (1 0 0). Fiducial mark perpendicular to laser is parallel to b [0 1 0]
Raman shift (cm-1)	intensity
94.393	0
99.344	248.4
104.293	1240.82
109.239	221.319
114.182	176.06
119.123	520.714
124.061	969.6
128.997	2805.76
133.93	5237.44
138.86	2707.32
143.788	3798.32
148.713	7767.36
153.636	6515.45
158.556	2024.46
163.473	2008.53
168.388	3302.62
173.3	5435.08
178.21	5896.96
183.117	7516.72
188.021	12465.1
192.923	18334.7
197.822	13641.3
202.718	6392.46
207.612	3224.31
212.504	1752.31
217.392	896.6
222.279	415.078
227.162	221.505
232.043	139.879
236.921	83.2495
241.797	10.7808
246.67	36.3188
251.54	8.01611
256.408	93.3926
261.274	328.194
266.136	818.434
270.996	1302.11
275.854	1012
280.709	829.966
285.561	308.898
290.41	117.218
295.257	137.745
300.102	224.22
304.944	163.933
309.783	87.8525
314.619	54.4155
319.453	203.97
324.285	472.266
329.113	641.543
333.939	650.814
338.763	455.035
343.584	575.201
348.402	627.509
353.218	853.983
358.031	1075.16
362.841	1892.61
367.649	3497.34
372.454	5273.37
377.257	5835.7
382.057	5396.35
386.854	6431.81
391.649	6429.1
396.441	4761.35
401.231	3949.07
406.018	4457.41
410.802	4049
415.584	2262.83
420.363	1379.92
425.139	977.268
429.913	689.895
434.684	590.725
439.453	434.718
444.219	411.765
448.982	299.28
453.743	247.939
458.501	232.06
463.257	164.373
468.01	210.195
472.76	383.408
477.508	269.4
482.253	319.798
486.996	410.744
491.736	591.279
496.473	665.439
501.207	745.231
505.94	625.653
510.669	548.712
515.396	612.423
520.12	838.769
524.842	936.594
529.561	1156.6
534.277	1070.44
538.991	1010.6
543.702	947.303
548.41	725.722
553.116	794.799
557.819	967.867
562.52	1067.82
567.218	1328.47
571.913	1795.68
576.606	2139.47
581.296	2695.09
585.984	3374.85
590.669	4039.05
595.351	5612.63
600.031	8989.15
604.708	16371.2
609.383	30833.6
614.055	49788.5
618.724	42058.7
623.391	18753.4
628.055	7725.38
632.716	3729.74
637.375	1752.43
642.031	1190.44
646.685	681.745
651.335	519.302
655.984	254.562
660.63	174.112
665.273	17.0527
669.913	145.709
674.551	0.606445
679.186	119.121
683.819	69.1953
688.449	91.5703
693.076	179.982
697.701	265.413
702.323	509.612
706.943	643.988
711.56	842.299
716.174	1671.82
720.786	2916.85
725.395	5619.72
730.001	8511.41
734.605	6407.88
739.206	2825.1
743.805	1365.05
748.401	941.73
752.995	763.117
757.585	641.2
762.173	619.968
766.759	493.413
771.342	503.782
775.922	315.541
780.5	300.641
785.075	242.097
789.648	114.038
794.217	162.227
798.785	90.9863
803.349	121.388
807.911	127.55
812.471	106.575
817.027	75.3076
821.582	40.7315
826.133	104.624
830.682	0.368164
835.228	62.2588
839.772	58.1553
844.313	73.4004
848.852	118.152
853.387	185.485
857.921	355.424
862.451	340.973
866.979	531.138
871.505	471.921
876.028	516.352
880.548	348.464
885.065	422.344
889.58	320.889
894.093	291.197
898.602	226.365
903.109	99.3047
907.614	196.892
912.116	237.144
916.615	348.065
921.112	328.66
925.606	271.552
930.097	589.508
934.586	363.601
939.072	352.908
943.556	419.516
948.037	558.264
952.515	683.87
956.991	744.928
961.464	533.38
965.934	482.284
970.402	267.647
974.867	28.1631
979.33	52.9824
983.79	36.2559
988.248	146.855
992.702	100.557
997.155	149.209
1001.6	259.812
1006.05	295.875
1010.5	397.448
1014.94	332.312
1019.38	409.343
1023.81	159.258
1028.25	193.732
1032.68	11.4229
1037.11	187.724
1041.53	213.298
1045.96	325.865
1050.38	325.396
1054.8	573.626
1059.21	829.274
1063.62	857.956
1068.04	1019.69
1072.44	598.55
1076.85	562.481
1081.25	324.499
1085.65	348.789
1090.05	381.56
1094.44	314.752
1098.84	252.326
1103.22	347.37
1107.61	239.731
1112	282.241
1116.38	372.859
1120.76	402.552
1125.13	219.312
1129.51	109.145
1133.88	89.0527
1138.25	28.9746
1142.61	51.0088
1146.98	83.9043
1151.34	109.654
1155.7	10.3887
1160.05	77.0215
1164.4	119.277
1168.76	112.904
1173.1	81.1143
1177.45	190.201
1181.79	356.576
1186.13	233.039
1190.47	216.338
1194.8	357.221
1199.14	373.94
1203.46	612.745
1207.79	332.635
1212.12	615.618
1216.44	708.691
1220.76	625.844
1225.08	813.067
1229.39	652.357
1233.7	592.438
1238.01	449.845
1242.32	509.308
1246.62	585.841
1250.92	594.902
1255.22	614.511
1259.51	568.238
1263.81	424.198
1268.1	462.449
1272.38	133.743
1276.67	308.517
1280.95	98.3359
1285.23	150.984
1289.51	176.983
1293.79	21.6465
1298.06	126.509
1302.33	244.725
1306.6	57
1310.86	111.309
1315.12	160.697
1319.38	292.569
1323.64	227.732
1327.89	43.3818
1332.14	46.1201
1336.39	91.9482
1340.64	137.705
1344.88	174.682
1349.12	132.75
1353.36	203.926
1357.6	38.8252
1361.83	129.481
1366.06	215.881
1370.29	315.729
1374.52	106.752
1378.74	171.46
1382.96	87.6016
1387.18	307.025
1391.39	178.073
1395.61	60.2324
1399.82	204.542
1404.02	123.105
1408.23	160.898
1412.43	159.7
1416.63	181.196
1420.83	120.879
1425.02	283.023
1429.21	231.751
1433.4	76.666
1437.59	284.454
1441.77	255.391
1445.95	221.022
1450.13	118.231
1454.31	217.881
1458.48	239.684
1462.65	211.662
1466.82	199.772
1470.99	195.044
1475.15	142.338
1479.31	178.435
1483.47	137.634
1487.63	131.98
1491.78	75.4482
1495.93	115.166
1500.08	148.574
1504.22	16.6562
1508.37	17.541
1512.51	129.053
1516.64	51.585
1520.78	141.68
1524.91	137.111
1529.04	88.0947
1533.17	109.262
1537.29	87.3193
1541.41	91.9307
1545.53	203.632
1549.65	165.094
1553.77	132.384
1557.88	103.117
1561.99	123.264
1566.09	43.0088
1570.2	0
