Measurement: Raman, 514 nm, ccw, Raman Data Processed
Mineral: Jadeite
Rruff sample: R050220
Ideal chemistry: NaAlSi_2_O_6_
Locality: Clear Creek, San Benito County, California, USA
Source: Hatt Yoder
Description: Aggregate of colorless bladed crystals
Measured chemistry: Na_1.00_Al_1.00_(Si_0.99_Al_0.01_)_2_O_6_
Pin_id: L01047
Orientation: Laser parallel to b* (0 1 0). Fiducial mark perpendicular to laser is parallel to c [0 0 1]
Raman shift (cm-1)	intensity
105.529	0
110.475	112.087
115.417	206.912
120.358	11.4653
125.295	1.80322
130.23	299.195
135.163	638.234
140.092	2074.15
145.019	7760.71
149.944	1690.91
154.866	464.248
159.785	155.671
164.702	436.981
169.616	400.656
174.528	187.94
179.437	313.19
184.343	421.987
189.247	1029.51
194.148	3204.95
199.046	8135.38
203.942	35411.2
208.835	7771.37
213.726	1321.98
218.614	979.403
223.5	1859.35
228.382	650.589
233.263	88.9111
238.14	61.5498
243.015	137.252
247.888	385.949
252.758	1837.34
257.625	4232.11
262.49	376.179
267.352	200.812
272.211	57.6494
277.068	10.7783
281.922	567.567
286.773	1529.19
291.622	3844.95
296.469	3062.7
301.312	1267.36
306.154	949.848
310.992	1387.13
315.828	818.94
320.661	328.368
325.492	930.464
330.32	1595.79
335.145	439.069
339.968	25.499
344.789	18.6543
349.606	208.805
354.421	531.532
359.234	1006.06
364.043	3403.13
368.851	9560.56
373.655	25562.3
378.457	19677.4
383.256	6997.72
388.053	4027.33
392.847	1938.61
397.639	770.248
402.428	614.775
407.214	610.595
411.998	971.264
416.779	1754.7
421.557	2204.73
426.333	3042.37
431.106	5803.38
435.877	6396.74
440.645	3059.44
445.41	1279.44
450.173	482.734
454.933	110.298
459.691	60.5928
464.446	38.2109
469.198	34.624
473.948	52.3135
478.695	112.51
483.439	174.515
488.181	43.8223
492.92	16.6191
497.657	12.2617
502.391	34.3486
507.122	137.467
511.851	351.527
516.577	1188.55
521.301	2773.75
526.022	4000.85
530.74	1464.71
535.456	266.366
540.169	97.7656
544.879	77.1025
549.587	50.3711
554.292	432.59
558.995	698.923
563.695	1180.19
568.392	2679.33
573.087	7704.33
577.779	9048.19
582.469	2594.88
587.156	1199.4
591.84	660.749
596.522	286.902
601.201	68.0586
605.877	53.9668
610.551	91.4492
615.222	38.2568
619.891	0.920898
624.557	10.5947
629.22	16.2754
633.881	63.4004
638.539	63.3633
643.195	48.1475
647.848	162.137
652.498	251.88
657.145	241.395
661.791	500.44
666.433	475.243
671.073	870.132
675.71	1290.89
680.345	1890.24
684.977	3448.22
689.606	7122.38
694.233	17736.1
698.857	40838.6
703.478	34717.9
708.097	12319.7
712.714	5182.18
717.327	2667.43
721.938	1753.43
726.547	1073.17
731.153	818.669
735.756	598.919
740.356	602.806
744.954	576.414
749.55	522.999
754.142	410.524
758.733	394.366
763.32	351.184
767.905	311.332
772.487	335.502
777.067	554.131
781.644	561.139
786.218	381.979
790.79	184.669
795.359	19.3438
799.926	32.4072
804.49	85.1875
809.051	28.0654
813.61	53.4883
818.166	35.706
822.72	6.84961
827.271	158.902
831.819	198.836
836.365	0.5625
840.908	218.408
845.448	259.184
849.986	107.986
854.521	164.773
859.054	195.613
863.584	389.471
868.111	269.363
872.636	304.887
877.158	373.264
881.677	428.359
886.194	746.617
890.709	676.994
895.22	489.641
899.729	178.582
904.236	116.728
908.74	61.1191
913.241	24.2227
917.739	14.3594
922.235	62.6426
926.729	107.693
931.219	86.4688
935.708	31.2578
940.193	121.512
944.676	197.178
949.156	310.141
953.634	276.141
958.109	426.848
962.582	619.834
967.051	893.08
971.519	1334.18
975.983	2386.29
980.445	5159.51
984.905	12152.3
989.362	14711.3
993.816	13235.5
998.267	5947.5
1002.72	2359.16
1007.16	1291.94
1011.61	878.723
1016.05	661.775
1020.49	683.195
1024.92	1064.54
1029.36	1953.07
1033.79	4712.21
1038.21	10558.5
1042.64	10589.5
1047.06	4046.22
1051.48	1748.85
1055.9	759.92
1060.32	577.129
1064.73	536.189
1069.14	418.732
1073.55	331.859
1077.95	598.217
1082.35	790.035
1086.75	227.92
1091.15	184.842
1095.54	78.0352
1099.93	101.481
1104.32	19.4121
1108.71	138.777
1113.09	56.7148
1117.47	122.443
1121.85	66.3106
1126.23	111.252
1130.6	113.068
1134.97	44.5859
1139.34	116.693
1143.7	62.0098
1148.07	130.963
1152.43	166.106
1156.79	80.8223
1161.14	183.193
1165.49	369.32
1169.84	191.219
1174.19	130.158
1178.54	23.8984
1182.88	97.6699
1187.22	170.357
1191.55	142.088
1195.89	140.912
1200.22	238.481
1204.55	180.736
1208.87	88.8887
1213.2	497.926
1217.52	85.8398
1221.84	131.627
1226.15	64.2481
1230.47	274.969
1234.78	2.65234
1239.09	171.818
1243.39	129.406
1247.69	228.035
1251.99	224.881
1256.29	155.285
1260.59	168.225
1264.88	158.289
1269.17	105.674
1273.46	59.1816
1277.74	120.123
1282.02	348.894
1286.3	4.16797
1290.58	65.0879
1294.86	274.731
1299.13	230.467
1303.39	77.0371
1307.66	65.3106
1311.93	287.732
1316.19	295.031
1320.45	535.342
1324.7	27.0312
1328.96	199.273
1333.21	231.113
1337.45	374.397
1341.7	208.19
1345.94	130.664
1350.18	101.029
1354.42	289.943
1358.66	162.764
1362.89	113.174
1367.12	166.656
1371.35	256.08
1375.57	206.674
1379.8	279.5
1384.02	30.1367
1388.23	82.8144
1392.45	224.055
1396.66	73.8906
1400.87	269.707
1405.08	298.988
1409.28	346.969
1413.48	292.412
1417.68	115.014
1421.88	160.647
1426.07	252.932
1430.26	167.279
1434.45	121.957
1438.64	333.137
1442.82	146.531
1447	121.342
1451.18	229.457
1455.35	209.043
1459.53	476.522
1463.7	5.95312
1467.87	169.857
1472.03	134.381
1476.19	499.394
1480.35	429.865
1484.51	16.1094
1488.67	27.3496
1492.82	61.1484
1496.97	73.4844
1501.12	225.988
1505.26	141.565
1509.4	183.106
1513.54	49.9141
1517.68	206.318
1521.81	124.885
1525.94	166.066
1530.07	264.894
1534.2	236.514
1538.32	267.207
1542.44	26.0508
1546.56	197.35
1550.68	98.8066
1554.79	164.984
1558.9	72.082
1563.01	73.2344
1567.12	314.705
