Measurement: Raman, 514 nm, ccw, Raman Data Processed
Mineral: Jadeite
Rruff sample: R050220
Ideal chemistry: NaAlSi_2_O_6_
Locality: Clear Creek, San Benito County, California, USA
Source: Hatt Yoder
Description: Aggregate of colorless bladed crystals
Measured chemistry: Na_1.00_Al_1.00_(Si_0.99_Al_0.01_)_2_O_6_
Pin_id: L00822
Orientation: Laser parallel to (1 0 1). Fiducial mark perpendicular to laser is parallel to -b [0 -1 0]
Raman shift (cm-1)	intensity
112.946	0
117.888	14.916
122.827	166.823
127.763	483.788
132.697	562.102
137.628	956.337
142.556	2123.59
147.482	2091.3
152.405	884.899
157.326	622.121
162.244	243.606
167.159	579.039
172.072	592.656
176.982	391.193
181.89	395.982
186.795	579.786
191.697	1709.73
196.597	1920.33
201.494	4686.8
206.389	7125.66
211.281	1131.96
216.17	145.787
221.057	361.447
225.941	380.307
230.823	129.732
235.702	87.7129
240.578	53.4863
245.452	190.412
250.323	979.197
255.192	3934.01
260.058	1605.67
264.921	180.19
269.782	24.0332
274.64	46.7441
279.495	160.318
284.348	88.6074
289.198	733.488
294.046	1358.73
298.891	1250.14
303.733	2269.59
308.573	5914.97
313.41	5379.1
318.245	2081.11
323.077	2453.48
327.906	5813.22
332.733	3553.29
337.557	901.691
342.379	500.35
347.198	483.1
352.014	377.598
356.828	776.947
361.639	2129.1
366.447	5432.35
371.253	12625.9
376.056	21540.6
380.857	11719.5
385.655	9544.68
390.451	6529.9
395.243	2239.22
400.034	936.594
404.821	706.043
409.606	413.848
414.389	566.824
419.168	1116.06
423.945	1089.68
428.72	2524.47
433.492	3416.39
438.261	2488.4
443.028	1090.28
447.792	412.59
452.553	54.7148
457.312	14.7754
462.068	11.9023
466.822	46.2988
471.573	77.9512
476.321	6.31445
481.067	122.254
485.81	17.877
490.551	19.5977
495.289	104.004
500.024	105.644
504.757	412.051
509.487	355.709
514.214	833.809
518.939	1674.56
523.661	3591.72
528.381	2194.51
533.098	674.609
537.812	511.125
542.524	244.424
547.233	308.504
551.94	412.315
556.644	541.969
561.345	777.332
566.044	772.398
570.74	1007.18
575.433	1470.48
580.124	892.729
584.812	518.471
589.498	466.852
594.181	398.871
598.861	146.594
603.539	291.346
608.214	194.758
612.887	30.998
617.557	136.94
622.224	142.918
626.889	182.988
631.551	154.812
636.21	205.84
640.867	165.022
645.521	301.025
650.173	155.916
654.822	114.613
659.468	173.805
664.112	205.637
668.753	14.4941
673.392	159.955
678.028	171.662
682.661	974.314
687.292	1892.21
691.92	4183.5
696.545	10944.8
701.168	16360.2
705.788	7295.25
710.406	2838.4
715.021	1344.4
719.633	862.887
724.243	686.039
728.85	402.857
733.455	185.35
738.056	141.424
742.656	135.293
747.252	307.232
751.846	90.2422
756.438	199.391
761.027	51.5508
765.613	341.82
770.196	249.539
774.777	923.414
779.356	2752.89
783.932	1124.81
788.505	373.9
793.075	220.1
797.643	13.6113
802.208	298.373
806.771	100.356
811.331	15.6484
815.888	113.264
820.443	64.5684
824.995	288.457
829.545	92.5898
834.092	158.256
838.636	383.471
843.178	294.33
847.717	519.949
852.254	687.389
856.788	347.566
861.319	581.486
865.848	477.156
870.374	430.582
874.897	270.635
879.418	462.898
883.936	329.531
888.452	422.695
892.965	386.617
897.475	95.9609
901.983	172.07
906.488	129.223
910.99	232.141
915.49	99.7773
919.988	170.164
924.482	209.227
928.974	250.836
933.464	292.449
937.951	106.512
942.435	136.41
946.917	137.394
951.396	95.9102
955.872	239.512
960.346	193.184
964.817	193.141
969.285	342.086
973.751	620.707
978.215	1027.78
982.675	2326.32
987.134	3020.73
991.589	1612.06
996.042	801.09
1000.49	472.305
1004.94	429.867
1009.38	474.945
1013.83	616.566
1018.27	1034.29
1022.7	945.629
1027.14	2139.89
1031.57	4033.13
1036	8719.43
1040.43	13418
1044.85	6809.68
1049.27	2539.87
1053.69	1642.82
1058.11	900.5
1062.52	821.883
1066.93	745.039
1071.34	384.731
1075.75	468.773
1080.15	652.859
1084.55	620.684
1088.95	278.328
1093.35	144.734
1097.74	36.0547
1102.13	201.301
1106.52	276.723
1110.9	280.09
1115.28	52.1797
1119.66	521.008
1124.04	274.734
1128.41	38.8047
1132.79	224.852
1137.16	32.2422
1141.52	44.2812
1145.89	299.41
1150.25	152.258
1154.61	155.973
1158.96	85.8281
1163.32	198.453
1167.67	124.059
1172.02	244.461
1176.36	18.6602
1180.71	107.75
1185.05	152.785
1189.38	310.766
1193.72	28.2422
1198.05	7.69141
1202.38	217.769
1206.71	43.957
1211.04	116.137
1215.36	82.2266
1219.68	20.6992
1224	140.141
1228.31	72.8086
1232.62	138.191
1236.93	105.363
1241.24	410.684
1245.54	147.731
1249.84	128.863
1254.14	70.8867
1258.44	108.281
1262.73	77.5273
1267.03	425.332
1271.31	76.7734
1275.6	344.734
1279.88	408.012
1284.16	375.336
1288.44	419.269
1292.72	273.746
1296.99	270.664
1301.26	182.379
1305.53	443.934
1309.79	447.734
1314.06	494.07
1318.32	549.356
1322.57	360.387
1326.83	342.504
1331.08	434.625
1335.33	300.91
1339.58	241.938
1343.82	465.578
1348.06	77.707
1352.3	366.547
1356.54	205.727
1360.77	295.777
1365.01	363.941
1369.23	416.035
1373.46	336.484
1377.68	327.949
1381.9	213.539
1386.12	381.309
1390.34	596.328
1394.55	223.352
1398.76	5.77734
1402.97	218.762
1407.18	40.8672
1411.38	239.031
1415.58	127.531
1419.78	637.738
1423.97	175.199
1428.17	448.441
1432.36	466.644
1436.54	234.531
1440.73	468.633
1444.91	563.332
1449.09	800.75
1453.27	778.797
1457.44	934.059
1461.61	633.559
1465.78	562.824
1469.95	542.379
1474.11	447.199
1478.27	203.379
1482.43	637.285
1486.59	373.57
1490.74	479.934
1494.89	328.879
1499.04	250.805
1503.19	147.953
1507.33	215.383
1511.47	155.293
1515.61	313.75
1519.75	361.715
1523.88	76.1445
1528.01	686.008
1532.14	219.668
1536.26	342.402
1540.38	225.641
1544.51	529.59
1548.62	337.875
1552.74	455.137
1556.85	141.445
1560.96	142.894
1565.07	333.168
1569.17	4.42578
