Measurement: Raman, 514 nm, ccw, Raman Data Processed
Mineral: Jadeite
Rruff sample: R050220
Ideal chemistry: NaAlSi_2_O_6_
Locality: Clear Creek, San Benito County, California, USA
Source: Hatt Yoder
Description: Aggregate of colorless bladed crystals
Measured chemistry: Na_1.00_Al_1.00_(Si_0.99_Al_0.01_)_2_O_6_
Pin_id: L01047
Orientation: Laser parallel to b* (0 1 0). Fiducial mark perpendicular to laser is parallel to c [0 0 1]
Raman shift (cm-1)	intensity
105.529	0
110.475	1006.1
115.417	1283.01
120.358	343.735
125.295	64.2607
130.23	130.754
135.163	395.403
140.092	701.657
145.019	1702.93
149.944	765.219
154.866	337.97
159.785	360.565
164.702	508.782
169.616	345.454
174.528	528.151
179.437	389.124
184.343	629.31
189.247	1025.69
194.148	2645.7
199.046	5197.24
203.942	16840.4
208.835	6452.25
213.726	1115.87
218.614	967.124
223.5	2583.4
228.382	589.155
233.263	24.3926
238.14	73.1289
243.015	89.2519
247.888	290.614
252.758	886.898
257.625	1455.46
262.49	93.2588
267.352	74.9668
272.211	167.426
277.068	235.303
281.922	717.642
286.773	1828.16
291.622	3857.06
296.469	3143.21
301.312	2026.54
306.154	2765.98
310.992	4659.46
315.828	2017.93
320.661	1419.24
325.492	2626.83
330.32	4228.83
335.145	996.109
339.968	448.822
344.789	285.764
349.606	308.741
354.421	329.671
359.234	886.824
364.043	3005.25
368.851	6586.33
373.655	14980
378.457	12093.3
383.256	8377.99
388.053	6932.82
392.847	2174.65
397.639	561.996
402.428	326.076
407.214	364.285
411.998	564.908
416.779	1032.43
421.557	1588.22
426.333	2240.58
431.106	3989.47
435.877	4697.85
440.645	2184.71
445.41	880.01
450.173	233.734
454.933	12.1465
459.691	133.728
464.446	131.326
469.198	13.668
473.948	36.5664
478.695	198.262
483.439	197.91
488.181	237.324
492.92	368.035
497.657	279.469
502.391	274.012
507.122	560.18
511.851	893.104
516.577	2286.38
521.301	5540.73
526.022	7679.16
530.74	2451.7
535.456	729.254
540.169	254.793
544.879	179.303
549.587	120.732
554.292	319.975
558.995	273.129
563.695	472.252
568.392	840.258
573.087	1848.13
577.779	1698.87
582.469	680.441
587.156	848.848
591.84	807.074
596.522	200.805
601.201	74.9356
605.877	149.842
610.551	57.4336
615.222	93.2539
619.891	58.3066
624.557	49.1191
629.22	0.054688
633.881	88.5293
638.539	98.4492
643.195	11.2676
647.848	81.1602
652.498	196.582
657.145	305.924
661.791	602.533
666.433	671.617
671.073	714.559
675.71	1357.1
680.345	2041.4
684.977	3682.46
689.606	7998.86
694.233	19224
698.857	41404
703.478	31951.2
708.097	11351
712.714	4939.66
717.327	2782.08
721.938	1619.28
726.547	1031.25
731.153	897.019
735.756	754.58
740.356	611.467
744.954	585.508
749.55	605.717
754.142	547.547
758.733	660.561
763.32	480.264
767.905	673.576
772.487	953.604
777.067	1689.1
781.644	1809.16
786.218	545.193
790.79	263.963
795.359	259.389
799.926	45.9082
804.49	83.5449
809.051	65.2539
813.61	223.141
818.166	186.652
822.72	214.443
827.271	138.641
831.819	232.201
836.365	240.727
840.908	221.172
845.448	145.641
849.986	168.248
854.521	206.982
859.054	261.783
863.584	402.625
868.111	491.522
872.636	514.553
877.158	166.664
881.677	578.959
886.194	826.66
890.709	670.818
895.22	292.369
899.729	227.307
904.236	84.6914
908.74	49.3906
913.241	77.7109
917.739	11.0293
922.235	141.168
926.729	51.8691
931.219	17.3105
935.708	82.0625
940.193	78.1836
944.676	375.252
949.156	284.578
953.634	258.016
958.109	327.547
962.582	564.172
967.051	630.885
971.519	1007.04
975.983	1689.39
980.445	3279.42
984.905	7232.91
989.362	11758.3
993.816	11357.1
998.267	4940.22
1002.72	2062.76
1007.16	1062.18
1011.61	805.828
1016.05	819.578
1020.49	990.057
1024.92	1689.58
1029.36	3097.21
1033.79	6255.85
1038.21	13186.6
1042.64	12292.5
1047.06	4477.49
1051.48	1802.83
1055.9	892.846
1060.32	606.51
1064.73	496.266
1069.14	308.465
1073.55	383.467
1077.95	557.174
1082.35	641.34
1086.75	322.369
1091.15	162.397
1095.54	163.414
1099.93	724.432
1104.32	2.46875
1108.71	47.4766
1113.09	62.5195
1117.47	8.10547
1121.85	257.955
1126.23	121.619
1130.6	46.9219
1134.97	252.121
1139.34	177.158
1143.7	25.4277
1148.07	310.426
1152.43	115.42
1156.79	250.926
1161.14	216.315
1165.49	423.185
1169.84	184.744
1174.19	228.959
1178.54	95.4805
1182.88	184.932
1187.22	395.047
1191.55	257.102
1195.89	269.086
1200.22	322.953
1204.55	366.709
1208.87	281.393
1213.2	222.918
1217.52	155.295
1221.84	208.545
1226.15	502.668
1230.47	259.66
1234.78	198.486
1239.09	390.799
1243.39	0.345703
1247.69	200.69
1251.99	20.9531
1256.29	119.686
1260.59	167.496
1264.88	408.699
1269.17	105.859
1273.46	230.512
1277.74	206.961
1282.02	105.959
1286.3	319.799
1290.58	154.592
1294.86	365.129
1299.13	88.7227
1303.39	94.9356
1307.66	141.986
1311.93	179.717
1316.19	175.666
1320.45	327.539
1324.7	232.438
1328.96	279.09
1333.21	341.656
1337.45	235.963
1341.7	208.211
1345.94	311.516
1350.18	458.744
1354.42	223.894
1358.66	482.965
1362.89	306.984
1367.12	269.943
1371.35	295.002
1375.57	99.6875
1379.8	193.133
1384.02	85.0059
1388.23	36.6953
1392.45	134.894
1396.66	240.106
1400.87	129.117
1405.08	36.9746
1409.28	474.592
1413.48	243.312
1417.68	266.728
1421.88	132.449
1426.07	204.293
1430.26	428.469
1434.45	15.7695
1438.64	89.4824
1442.82	302.371
1447	33.6387
1451.18	420.727
1455.35	209.781
1459.53	286.832
1463.7	264.734
1467.87	258.367
1472.03	216.812
1476.19	203.512
1480.35	339.449
1484.51	231.465
1488.67	300.809
1492.82	282.965
1496.97	205.117
1501.12	305.75
1505.26	189.387
1509.4	476.195
1513.54	189.57
1517.68	347.363
1521.81	375.695
1525.94	299.68
1530.07	247.469
1534.2	352.246
1538.32	4.27734
1542.44	126.406
1546.56	79.5391
1550.68	139.402
1554.79	231.684
1558.9	184.738
1563.01	119.988
1567.12	206.047
