Measurement: Raman, 514 nm, ccw, Raman Data Processed
Mineral: Jadeite
Rruff sample: R050220
Ideal chemistry: NaAlSi_2_O_6_
Locality: Clear Creek, San Benito County, California, USA
Source: Hatt Yoder
Description: Aggregate of colorless bladed crystals
Measured chemistry: Na_1.00_Al_1.00_(Si_0.99_Al_0.01_)_2_O_6_
Pin_id: L00826
Orientation: Laser parallel to c* (0 0 1). Fiducial mark perpendicular to laser is parallel to a [1 0 0]
Raman shift (cm-1)	intensity
112.946	0
117.888	248.681
122.827	399.232
127.763	717.269
132.697	2021.11
137.628	5672.86
142.556	11158.9
147.482	6827
152.405	1891.04
157.326	557.686
162.244	195.684
167.159	132.629
172.072	64.2481
176.982	12.6118
181.89	159.918
186.795	456.082
191.697	2624.47
196.597	5967.77
201.494	16957.7
206.389	15164.9
211.281	3302.21
216.17	2044.79
221.057	7271.83
225.941	6120.91
230.823	442.767
235.702	76.6758
240.578	20.5737
245.452	1017.5
250.323	4273.84
255.192	12463.5
260.058	5668.7
264.921	166.837
269.782	212.039
274.64	115.484
279.495	385.861
284.348	1267.98
289.198	3168.73
294.046	4749.47
298.891	2765.61
303.733	2238.12
308.573	3536.94
313.41	3455.95
318.245	2713.43
323.077	5956.6
327.906	12620.2
332.733	8157.31
337.557	1591.67
342.379	584.984
347.198	272.64
352.014	602.74
356.828	1349.27
361.639	3765.2
366.447	11737.5
371.253	28691.2
376.056	38892.2
380.857	24680.6
385.655	20144.6
390.451	11287.6
395.243	4646.97
400.034	2749.66
404.821	2336.87
409.606	3121.63
414.389	5007.95
419.168	6087.41
423.945	4568.38
428.72	5491.15
433.492	6864.22
438.261	4582.58
443.028	1732.24
447.792	643.188
452.553	72.4092
457.312	14.6396
462.068	47.0449
466.822	22.9346
471.573	213.524
476.321	448.614
481.067	842.431
485.81	543.412
490.551	371.584
495.289	142.928
500.024	224.432
504.757	411.089
509.487	809.886
514.214	1686.82
518.939	3267.97
523.661	5513.43
528.381	3366.52
533.098	743.135
537.812	324.948
542.524	138.971
547.233	38.7246
551.94	123.353
556.644	472.757
561.345	741.898
566.044	1186.33
570.74	3050.8
575.433	5097.27
580.124	2840.71
584.812	1307.12
589.498	1510.48
594.181	804.79
598.861	15.7656
603.539	38.6211
608.214	24.0889
612.887	72.5625
617.557	31.8945
622.224	176.593
626.889	224.417
631.551	638.489
636.21	827.439
640.867	928.317
645.521	651.114
650.173	527.768
654.822	413.765
659.468	466.438
664.112	521.136
668.753	694.792
673.392	1191.85
678.028	1696.21
682.661	2789.27
687.292	5786.5
691.92	14418.7
696.545	33403.3
701.168	41735
705.788	19661
710.406	7376.27
715.021	3508.36
719.633	1885.12
724.243	1360.53
728.85	1083.6
733.455	698.318
738.056	513.725
742.656	385.302
747.252	253.811
751.846	210.491
756.438	102.065
761.027	181.885
765.613	171.866
770.196	268.556
774.777	781.97
779.356	1300.31
783.932	792.173
788.505	200.758
793.075	55.0645
797.643	126.81
802.208	85.875
806.771	37.165
811.331	64.376
815.888	62.1748
820.443	172.306
824.995	30.2627
829.545	17.1621
834.092	25.5195
838.636	10.8486
843.178	23.8232
847.717	161.543
852.254	133.072
856.788	238.424
861.319	96.6074
865.848	155.636
870.374	390.524
874.897	628.286
879.418	1008.98
883.936	2288.05
888.452	2714.55
892.965	1655.03
897.475	537.681
901.983	358.621
906.488	131.128
910.99	132.565
915.49	83.8066
919.988	139.939
924.482	168.062
928.974	246.14
933.464	160.5
937.951	46.1387
942.435	240.185
946.917	317.69
951.396	407.329
955.872	370.386
960.346	435.941
964.817	749.086
969.285	1204.61
973.751	1981.96
978.215	4094.47
982.675	9978.28
987.134	15891
991.589	14389.7
996.042	8464.75
1000.49	3838.24
1004.94	2129
1009.38	1760.97
1013.83	1787.33
1018.27	2186.8
1022.7	3482.64
1027.14	6528.36
1031.57	13500.2
1036	31914.7
1040.43	46357.8
1044.85	24252.8
1049.27	8721.03
1053.69	3929.63
1058.11	2413.26
1062.52	1713.63
1066.93	1301.2
1071.34	1095.61
1075.75	1489.42
1080.15	3337.83
1084.55	2804.51
1088.95	1433.77
1093.35	277.093
1097.74	391.677
1102.13	117.548
1106.52	27.2744
1110.9	122.778
1115.28	22.1934
1119.66	277.663
1124.04	197.542
1128.41	137.414
1132.79	50.2178
1137.16	50.9473
1141.52	26.001
1145.89	76.2324
1150.25	49.3652
1154.61	4.69727
1158.96	67.959
1163.32	91.6514
1167.67	33.459
1172.02	170.327
1176.36	133.093
1180.71	48.5088
1185.05	45.1562
1189.38	43.9902
1193.72	30.0273
1198.05	87.3672
1202.38	104.96
1206.71	17.8438
1211.04	66.2256
1215.36	93.8506
1219.68	62.4736
1224	128.936
1228.31	66.2363
1232.62	66.3242
1236.93	62.4795
1241.24	223.159
1245.54	16.3457
1249.84	136.641
1254.14	1.54004
1258.44	83.2148
1262.73	57.2647
1267.03	106.379
1271.31	29.4238
1275.6	156.555
1279.88	112.735
1284.16	60.3818
1288.44	101.161
1292.72	162.858
1296.99	80.1406
1301.26	179.156
1305.53	234.531
1309.79	225.41
1314.06	200.201
1318.32	259.672
1322.57	125.703
1326.83	248.408
1331.08	213.094
1335.33	329.346
1339.58	181.711
1343.82	297.018
1348.06	116.918
1352.3	337.121
1356.54	315.891
1360.77	44.6875
1365.01	147.984
1369.23	310.562
1373.46	96.416
1377.68	121.139
1381.9	155.154
1386.12	58.2422
1390.34	144.451
1394.55	190.166
1398.76	106.082
1402.97	220.934
1407.18	267.584
1411.38	79.0488
1415.58	140.865
1419.78	213.428
1423.97	184.053
1428.17	146.684
1432.36	286.971
1436.54	195.705
1440.73	418.787
1444.91	369.207
1449.09	328.822
1453.27	384.389
1457.44	333.975
1461.61	417.418
1465.78	298.719
1469.95	231.121
1474.11	42.0957
1478.27	216.42
1482.43	48.8926
1486.59	145.734
1490.74	219.867
1494.89	143.654
1499.04	99.8691
1503.19	54.666
1507.33	182.717
1511.47	270.44
1515.61	246.469
1519.75	185.857
1523.88	52.4023
1528.01	394.475
1532.14	190.377
1536.26	67.2754
1540.38	132.609
1544.51	156.072
1548.62	215.551
1552.74	481.359
1556.85	76.084
1560.96	140.416
1565.07	253.522
1569.17	114.178
