Measurement: Raman, 514 nm, ccw, Raman Data Processed
Mineral: Jadeite
Rruff sample: R050220
Ideal chemistry: NaAlSi_2_O_6_
Locality: Clear Creek, San Benito County, California, USA
Source: Hatt Yoder
Description: Aggregate of colorless bladed crystals
Measured chemistry: Na_1.00_Al_1.00_(Si_0.99_Al_0.01_)_2_O_6_
Pin_id: L00896
Orientation: Laser parallel to a* (1 0 0). Fiducial mark perpendicular to laser is parallel to b [0 1 0]
Raman shift (cm-1)	intensity
112.946	0
117.888	105.815
122.827	151.155
127.763	300.139
132.697	216.084
137.628	208.152
142.556	559.942
147.482	530.841
152.405	185.201
157.326	55.021
162.244	66.168
167.159	122.522
172.072	86.1733
176.982	75.9927
181.89	207.957
186.795	396.512
191.697	1613.1
196.597	3005.16
201.494	7377.38
206.389	9049.36
211.281	1974.11
216.17	430.61
221.057	788.151
225.941	651.062
230.823	95.8135
235.702	71.5181
240.578	7.9917
245.452	396.105
250.323	1428.62
255.192	3575.51
260.058	1553.9
264.921	137.472
269.782	10.8931
274.64	33.2788
279.495	320.47
284.348	874.517
289.198	2296.29
294.046	3283.7
298.891	2819.68
303.733	3215.16
308.573	5409.76
313.41	4994.14
318.245	4816.09
323.077	9107.1
327.906	18017.4
332.733	10285
337.557	2565.2
342.379	1193.41
347.198	770.93
352.014	1154.62
356.828	1959.81
361.639	5612.42
366.447	16031.1
371.253	35514.1
376.056	46612.3
380.857	29795.3
385.655	24332.5
390.451	11750.6
395.243	3943.55
400.034	1999.82
404.821	1270.47
409.606	1246.54
414.389	1483.79
419.168	1869.2
423.945	2965.01
428.72	4667.86
433.492	6079.28
438.261	4123.23
443.028	1704.15
447.792	737.2
452.553	321.382
457.312	219.014
462.068	75.4316
466.822	93.0156
471.573	21.6914
476.321	17.416
481.067	25.085
485.81	68.8398
490.551	12.4121
495.289	18.1992
500.024	54.8086
504.757	128.888
509.487	389.471
514.214	1104.15
518.939	3002.22
523.661	5045.26
528.381	3107.35
533.098	853.521
537.812	345.761
542.524	74.9658
547.233	10.919
551.94	123.024
556.644	354.885
561.345	400.78
566.044	447.697
570.74	352.499
575.433	623.169
580.124	354.697
584.812	267.076
589.498	284.304
594.181	199.221
598.861	48.7295
603.539	42.5039
608.214	63.3525
612.887	24.2275
617.557	97.3584
622.224	232.072
626.889	272.739
631.551	156.928
636.21	94.7197
640.867	27.8809
645.521	267.888
650.173	126.123
654.822	167.23
659.468	282.519
664.112	171.136
668.753	378.3
673.392	619.663
678.028	935.762
682.661	1864.69
687.292	3877.93
691.92	9625.94
696.545	21706.5
701.168	26548
705.788	11975.2
710.406	4530.23
715.021	2132.07
719.633	1253.72
724.243	762.184
728.85	699.475
733.455	313.591
738.056	260.81
742.656	321.244
747.252	252.341
751.846	148.513
756.438	123.339
761.027	89.5459
765.613	249.185
770.196	473.748
774.777	1154.76
779.356	1986.28
783.932	998.059
788.505	395.979
793.075	57.3711
797.643	215.68
802.208	40.1074
806.771	98.8711
811.331	7.55273
815.888	41.9053
820.443	4.15625
824.995	26.6582
829.545	9.56055
834.092	3.47363
838.636	44.7422
843.178	77.8369
847.717	136.395
852.254	106.939
856.788	269.476
861.319	329.01
865.848	319.549
870.374	295.097
874.897	183.372
879.418	260.746
883.936	350.049
888.452	326.658
892.965	281.538
897.475	154.494
901.983	271.516
906.488	77.5781
910.99	123.676
915.49	65.2217
919.988	94.46
924.482	74.0644
928.974	21.7559
933.464	122.218
937.951	227.123
942.435	79.8809
946.917	204.876
951.396	122.558
955.872	305.656
960.346	334.796
964.817	579.445
969.285	858.075
973.751	1261.88
978.215	2491.86
982.675	5575.96
987.134	6993.2
991.589	3135.19
996.042	1730.17
1000.49	1434.9
1004.94	1068.78
1009.38	1386.02
1013.83	1763.78
1018.27	2522.96
1022.7	3973.42
1027.14	7062.06
1031.57	15198.8
1036	35174.7
1040.43	46966.7
1044.85	23958.3
1049.27	9107.53
1053.69	4231.25
1058.11	2565.55
1062.52	1704.15
1066.93	1372.44
1071.34	895.333
1075.75	742.775
1080.15	1182.09
1084.55	958.645
1088.95	427.049
1093.35	293.825
1097.74	112.731
1102.13	119.79
1106.52	117.103
1110.9	100.551
1115.28	201.092
1119.66	377.721
1124.04	210.799
1128.41	233.596
1132.79	215.317
1137.16	171.433
1141.52	18.5928
1145.89	115.924
1150.25	98.9609
1154.61	201.967
1158.96	48.126
1163.32	148.898
1167.67	35.9707
1172.02	185.34
1176.36	12.6426
1180.71	10.9307
1185.05	60.7207
1189.38	34.3105
1193.72	57.2158
1198.05	105.129
1202.38	1.63867
1206.71	147.557
1211.04	164.773
1215.36	122.005
1219.68	9.75391
1224	28.4365
1228.31	113.587
1232.62	35.6904
1236.93	161.798
1241.24	29.8994
1245.54	119.997
1249.84	206.087
1254.14	88.1143
1258.44	107.969
1262.73	150.85
1267.03	215.31
1271.31	324.219
1275.6	181.086
1279.88	115.008
1284.16	104.658
1288.44	273.25
1292.72	7.14453
1296.99	301.421
1301.26	163.985
1305.53	174.537
1309.79	235.417
1314.06	292.915
1318.32	231.825
1322.57	269.018
1326.83	278.539
1331.08	70.5859
1335.33	118.023
1339.58	21.4629
1343.82	351.91
1348.06	118.643
1352.3	208.107
1356.54	316.488
1360.77	195.996
1365.01	74.2832
1369.23	143.49
1373.46	96.7266
1377.68	149.961
1381.9	120.846
1386.12	174.369
1390.34	158.555
1394.55	11.1582
1398.76	197.193
1402.97	72.0938
1407.18	454.481
1411.38	234.131
1415.58	215.078
1419.78	93.168
1423.97	91.9453
1428.17	196.357
1432.36	347.785
1436.54	525.791
1440.73	501.647
1444.91	488.629
1449.09	487.315
1453.27	628.441
1457.44	562.641
1461.61	586.9
1465.78	303.518
1469.95	539.842
1474.11	297.44
1478.27	215.272
1482.43	245.867
1486.59	274.287
1490.74	119.394
1494.89	215.035
1499.04	112.647
1503.19	221.332
1507.33	94.1523
1511.47	155.166
1515.61	178.275
1519.75	201.43
1523.88	41.5918
1528.01	181.981
1532.14	222.648
1536.26	48.0762
1540.38	151.102
1544.51	11.5352
1548.62	153.34
1552.74	190.471
1556.85	70.8906
1560.96	227.447
1565.07	35.8516
1569.17	15.8691
