Measurement: Raman, 514 nm, ccw, Raman Data Processed
Mineral: Jadeite
Rruff sample: R050220
Ideal chemistry: NaAlSi_2_O_6_
Locality: Clear Creek, San Benito County, California, USA
Source: Hatt Yoder
Description: Aggregate of colorless bladed crystals
Measured chemistry: Na_1.00_Al_1.00_(Si_0.99_Al_0.01_)_2_O_6_
Pin_id: L01047
Orientation: Laser parallel to b* (0 1 0). Fiducial mark perpendicular to laser is parallel to c [0 0 1]
Raman shift (cm-1)	intensity
105.529	0
110.475	62.5322
115.417	309.026
120.358	5.54492
125.295	71.7915
130.23	318.294
135.163	617.321
140.092	1436.22
145.019	6131.1
149.944	2148.94
154.866	419.848
159.785	237.728
164.702	450.38
169.616	205.747
174.528	412.968
179.437	285.752
184.343	505.157
189.247	822.372
194.148	2913.29
199.046	5822.54
203.942	28796.2
208.835	13197.1
213.726	1714.33
218.614	719.311
223.5	1379.18
228.382	363.613
233.263	34.6748
238.14	0.0625
243.015	137.075
247.888	190.977
252.758	1108.3
257.625	2002.97
262.49	96.9658
267.352	96.082
272.211	82.0703
277.068	109.519
281.922	474.508
286.773	1345.69
291.622	3653.91
296.469	3125.05
301.312	1466.99
306.154	1187.7
310.992	1846.11
315.828	1017.27
320.661	635.967
325.492	1470.14
330.32	3037.98
335.145	835.157
339.968	236.662
344.789	83.5723
349.606	200.856
354.421	306.188
359.234	904.523
364.043	2849.16
368.851	7204.36
373.655	19570.9
378.457	18266.7
383.256	6964.15
388.053	4031.61
392.847	1701.12
397.639	748.857
402.428	502.062
407.214	372.707
411.998	587.218
416.779	1049.93
421.557	1412.58
426.333	2301.49
431.106	4694.64
435.877	6036
440.645	3098.56
445.41	1267.29
450.173	404.178
454.933	257.199
459.691	140.957
464.446	49.1719
469.198	55.1934
473.948	61.374
478.695	72.2715
483.439	0.489258
488.181	44.2178
492.92	12.0879
497.657	33.9658
502.391	141.568
507.122	137.872
511.851	555.938
516.577	1168.79
521.301	2786.54
526.022	4909.17
530.74	1953.82
535.456	407.427
540.169	407.99
544.879	132.448
549.587	160.765
554.292	342.988
558.995	541.298
563.695	819.468
568.392	2140.43
573.087	5813.16
577.779	7895.67
582.469	2696.93
587.156	1114.95
591.84	625.72
596.522	269.227
601.201	71.6494
605.877	199.013
610.551	222.66
615.222	166.674
619.891	86.2666
624.557	26.6826
629.22	2.50391
633.881	55.3877
638.539	1.86621
643.195	73.8906
647.848	135.338
652.498	199.299
657.145	174.888
661.791	492.383
666.433	450.518
671.073	879.052
675.71	1139.05
680.345	1775.56
684.977	3279.35
689.606	6688.88
694.233	16182.5
698.857	37624.1
703.478	36215.3
708.097	13327.4
712.714	5454.13
717.327	2909.66
721.938	1737.94
726.547	1236.98
731.153	910.8
735.756	762.384
740.356	652.034
744.954	427.661
749.55	400.473
754.142	334.18
758.733	405.492
763.32	421.262
767.905	445.898
772.487	423.493
777.067	675.56
781.644	652.002
786.218	414.769
790.79	207.05
795.359	175.47
799.926	85.2539
804.49	97.0615
809.051	8.22461
813.61	6.08984
818.166	12.2559
822.72	169.213
827.271	1.63086
831.819	107.809
836.365	185.801
840.908	125.812
845.448	46.8096
849.986	185.796
854.521	249.842
859.054	145.877
863.584	398.911
868.111	172.951
872.636	158
877.158	330.081
881.677	366.272
886.194	387.519
890.709	453.94
895.22	120.552
899.729	267.309
904.236	179.93
908.74	112.524
913.241	0.130859
917.739	19.9189
922.235	95.7129
926.729	5.20117
931.219	91.8975
935.708	91.5225
940.193	244.347
944.676	291.259
949.156	139.278
953.634	416.162
958.109	437.823
962.582	532.21
967.051	903.85
971.519	1391.65
975.983	2325.38
980.445	4980.87
984.905	11539
989.362	16257.8
993.816	16295.7
998.267	7836.89
1002.72	3301.18
1007.16	1638.54
1011.61	913.479
1016.05	838.883
1020.49	764.379
1024.92	1126.14
1029.36	1815.93
1033.79	4151.96
1038.21	9448.93
1042.64	9649.97
1047.06	3815.02
1051.48	1824.77
1055.9	662.652
1060.32	529.945
1064.73	285.424
1069.14	381.943
1073.55	278.088
1077.95	348.973
1082.35	363.988
1086.75	251.812
1091.15	145.639
1095.54	15.5391
1099.93	53.707
1104.32	48.0078
1108.71	90.4785
1113.09	320.053
1117.47	229.242
1121.85	68.2051
1126.23	165.898
1130.6	88.0996
1134.97	228.369
1139.34	124.869
1143.7	108.811
1148.07	6.18945
1152.43	32.2266
1156.79	176.326
1161.14	121.07
1165.49	48.3887
1169.84	53.1562
1174.19	109.465
1178.54	75.1914
1182.88	228.873
1187.22	213.518
1191.55	101.189
1195.89	272.582
1200.22	185.799
1204.55	142.94
1208.87	106.867
1213.2	92.6582
1217.52	46.293
1221.84	63.8418
1226.15	76.0723
1230.47	186.846
1234.78	235.065
1239.09	19.8828
1243.39	152.17
1247.69	199.512
1251.99	31.9023
1256.29	197.66
1260.59	155.891
1264.88	63.9824
1269.17	126.08
1273.46	42.3184
1277.74	251.137
1282.02	125.211
1286.3	103.826
1290.58	1.59766
1294.86	212.676
1299.13	210.022
1303.39	110.311
1307.66	55.5098
1311.93	147.688
1316.19	105.828
1320.45	177.227
1324.7	229.258
1328.96	188.764
1333.21	224.531
1337.45	214.012
1341.7	265.502
1345.94	318.154
1350.18	297.998
1354.42	124.672
1358.66	246.731
1362.89	180.609
1367.12	312.721
1371.35	229.842
1375.57	185.324
1379.8	256.834
1384.02	12.5371
1388.23	62.9844
1392.45	6.39453
1396.66	408.619
1400.87	245.283
1405.08	264.031
1409.28	200.883
1413.48	242.606
1417.68	275.815
1421.88	270.336
1426.07	255.287
1430.26	282.389
1434.45	258.752
1438.64	306.412
1442.82	315.094
1447	256.545
1451.18	339.019
1455.35	252.668
1459.53	94.5566
1463.7	216.555
1467.87	33.6309
1472.03	462.025
1476.19	305.766
1480.35	295.445
1484.51	338.498
1488.67	208.994
1492.82	292.713
1496.97	415.691
1501.12	225.023
1505.26	171.357
1509.4	346.471
1513.54	273.871
1517.68	169.785
1521.81	339.25
1525.94	59.4062
1530.07	303.31
1534.2	395.049
1538.32	113.289
1542.44	304.357
1546.56	133.94
1550.68	383.391
1554.79	208.004
1558.9	304.281
1563.01	132.26
1567.12	117.609
