Measurement: Raman, 514 nm, ccw, Raman Data Processed
Mineral: Jadeite
Rruff sample: R050220
Ideal chemistry: NaAlSi_2_O_6_
Locality: Clear Creek, San Benito County, California, USA
Source: Hatt Yoder
Description: Aggregate of colorless bladed crystals
Measured chemistry: Na_1.00_Al_1.00_(Si_0.99_Al_0.01_)_2_O_6_
Pin_id: L00896
Orientation: Laser parallel to a* (1 0 0). Fiducial mark perpendicular to laser is parallel to b [0 1 0]
Raman shift (cm-1)	intensity
112.946	0
117.888	218.285
122.827	53.2095
127.763	243.209
132.697	464.482
137.628	707.151
142.556	2235.35
147.482	1808.51
152.405	324.797
157.326	5.21436
162.244	122.535
167.159	15.1074
172.072	82.3994
176.982	104.861
181.89	171.468
186.795	522.725
191.697	2350.24
196.597	4702.41
201.494	13087.2
206.389	12915.8
211.281	2532.9
216.17	417.534
221.057	381.81
225.941	248.225
230.823	55.4902
235.702	63.2432
240.578	72.5215
245.452	274.06
250.323	691.776
255.192	2106.38
260.058	1132.11
264.921	39.2725
269.782	77.9463
274.64	156.873
279.495	379.59
284.348	784.362
289.198	1736.37
294.046	2551.68
298.891	2318.47
303.733	2920.76
308.573	6363.11
313.41	6123.16
318.245	3118.39
323.077	3784.77
327.906	6983.85
332.733	4474.02
337.557	1237.96
342.379	625.754
347.198	409.679
352.014	837.931
356.828	1718.24
361.639	4753.1
366.447	13241
371.253	29200.2
376.056	37370.4
380.857	19425.2
385.655	11804
390.451	6961.52
395.243	2741.35
400.034	1250.32
404.821	947.421
409.606	845.214
414.389	995.419
419.168	1753.46
423.945	3246.17
428.72	6212.02
433.492	8602.98
438.261	6193.07
443.028	2517.27
447.792	1159.59
452.553	379.042
457.312	178.612
462.068	40.9092
466.822	60.7969
471.573	84.6152
476.321	88.876
481.067	27.5508
485.81	111.683
490.551	25.8652
495.289	155.61
500.024	3.69336
504.757	358.406
509.487	628.532
514.214	2122.69
518.939	5194.87
523.661	9838.13
528.381	5949.49
533.098	1685.06
537.812	598.653
542.524	165.301
547.233	42.9785
551.94	268.651
556.644	395.452
561.345	519.452
566.044	1077.69
570.74	2055.93
575.433	3231.16
580.124	1717.38
584.812	553.084
589.498	802.776
594.181	248.951
598.861	87.1025
603.539	38.1406
608.214	13.7207
612.887	56.9453
617.557	124.598
622.224	30.7236
626.889	285.94
631.551	1.71387
636.21	140.616
640.867	77.8955
645.521	317.999
650.173	334.133
654.822	242.463
659.468	362.888
664.112	540.322
668.753	777.858
673.392	827.047
678.028	1428.59
682.661	2740.94
687.292	6072.47
691.92	14842.3
696.545	33951.8
701.168	43160.8
705.788	20267.2
710.406	7639.62
715.021	3601.99
719.633	1964.33
724.243	1214.63
728.85	1084.9
733.455	608.128
738.056	635.32
742.656	494.781
747.252	389.359
751.846	321.33
756.438	298.477
761.027	371.703
765.613	279.285
770.196	775.264
774.777	1528.19
779.356	2699.29
783.932	1692.55
788.505	471.498
793.075	153.143
797.643	39.9492
802.208	124.514
806.771	12.6982
811.331	107.344
815.888	41.8721
820.443	38.6123
824.995	23.2148
829.545	72.6641
834.092	256.092
838.636	126.41
843.178	188.601
847.717	152.218
852.254	382.072
856.788	326.273
861.319	401.452
865.848	246.609
870.374	188.772
874.897	129.94
879.418	123.215
883.936	229.606
888.452	180.442
892.965	6.60059
897.475	154.429
901.983	78.6084
906.488	209.019
910.99	26.502
915.49	51.0371
919.988	17.5859
924.482	30.0137
928.974	85.9531
933.464	55.8174
937.951	47.2998
942.435	121.73
946.917	25.5791
951.396	59.418
955.872	166.734
960.346	142.197
964.817	142.605
969.285	217.974
973.751	512.477
978.215	1254.97
982.675	3102.25
987.134	3618.51
991.589	1587.73
996.042	774.931
1000.49	799.237
1004.94	558.381
1009.38	307.179
1013.83	334.368
1018.27	565.325
1022.7	885.09
1027.14	1481.36
1031.57	2593.22
1036	5705.89
1040.43	8371.2
1044.85	4763.74
1049.27	1708.58
1053.69	675.951
1058.11	788.047
1062.52	468.219
1066.93	381.873
1071.34	458.99
1075.75	243.805
1080.15	558.221
1084.55	364.19
1088.95	389.785
1093.35	61.2109
1097.74	334.76
1102.13	99.291
1106.52	75.8652
1110.9	204.34
1115.28	188.32
1119.66	489.654
1124.04	588.977
1128.41	312.523
1132.79	148.815
1137.16	112.016
1141.52	23.1562
1145.89	49.2285
1150.25	142.252
1154.61	94.5137
1158.96	52.9141
1163.32	64.8164
1167.67	66.7539
1172.02	62.8555
1176.36	210
1180.71	128.158
1185.05	70.3223
1189.38	13.5469
1193.72	180.953
1198.05	46.2656
1202.38	117.397
1206.71	136.531
1211.04	177.67
1215.36	61.8457
1219.68	165.027
1224	175.285
1228.31	244.58
1232.62	181.309
1236.93	428.65
1241.24	19.8809
1245.54	161.318
1249.84	143.797
1254.14	75.3379
1258.44	83.8242
1262.73	331.234
1267.03	142.029
1271.31	106.223
1275.6	422.062
1279.88	14.8223
1284.16	131.525
1288.44	160.572
1292.72	194.658
1296.99	261.883
1301.26	84.2012
1305.53	347.613
1309.79	292.115
1314.06	422.559
1318.32	405.326
1322.57	211.133
1326.83	200.043
1331.08	197.035
1335.33	420.934
1339.58	62.1465
1343.82	119.1
1348.06	419.555
1352.3	331.141
1356.54	200.863
1360.77	118.725
1365.01	105.731
1369.23	308.973
1373.46	165.756
1377.68	234.328
1381.9	136.065
1386.12	65.7285
1390.34	228.387
1394.55	149.853
1398.76	17.4043
1402.97	179.174
1407.18	142.828
1411.38	133.166
1415.58	224.238
1419.78	112.777
1423.97	122.686
1428.17	254.668
1432.36	195.643
1436.54	369.893
1440.73	703.939
1444.91	820.541
1449.09	870.396
1453.27	775.965
1457.44	730.875
1461.61	791.096
1465.78	399.588
1469.95	530.356
1474.11	119.459
1478.27	409.9
1482.43	386.719
1486.59	59.4492
1490.74	212.449
1494.89	78.8008
1499.04	66.4883
1503.19	102.555
1507.33	197.486
1511.47	27.8945
1515.61	20.4414
1519.75	142.588
1523.88	172.377
1528.01	230.852
1532.14	195.144
1536.26	450.397
1540.38	120.781
1544.51	246.572
1548.62	158.086
1552.74	150.731
1556.85	244.43
1560.96	9.62305
1565.07	153.883
1569.17	0.291016
