Measurement: Raman, 514 nm, ccw, Raman Data Processed
Mineral: Jadeite
Rruff sample: R050220
Ideal chemistry: NaAlSi_2_O_6_
Locality: Clear Creek, San Benito County, California, USA
Source: Hatt Yoder
Description: Aggregate of colorless bladed crystals
Measured chemistry: Na_1.00_Al_1.00_(Si_0.99_Al_0.01_)_2_O_6_
Pin_id: L00896
Orientation: Laser parallel to a* (1 0 0). Fiducial mark perpendicular to laser is parallel to b [0 1 0]
Raman shift (cm-1)	intensity
112.946	0
117.888	108.119
122.827	284.045
127.763	723.685
132.697	480.027
137.628	549.014
142.556	1741.96
147.482	1853.13
152.405	310.821
157.326	82.0049
162.244	109.009
167.159	54.8906
172.072	152.244
176.982	129.351
181.89	382.337
186.795	967.84
191.697	3606.36
196.597	5065.41
201.494	11496.4
206.389	13527.2
211.281	2745.72
216.17	571.675
221.057	887.652
225.941	623.846
230.823	91.9473
235.702	113.821
240.578	32.9463
245.452	628.302
250.323	2323.37
255.192	5716.66
260.058	2472.67
264.921	87.1553
269.782	95.0596
274.64	98.4512
279.495	291.614
284.348	1045.76
289.198	2233.99
294.046	3447.57
298.891	4124.51
303.733	8026.77
308.573	15726.3
313.41	13072
318.245	6232.14
323.077	7361.78
327.906	11561.7
332.733	7002.64
337.557	1998.78
342.379	942.435
347.198	886.72
352.014	1157.42
356.828	2595.15
361.639	6763.31
366.447	17067.7
371.253	32654.3
376.056	44435.8
380.857	26365.5
385.655	20280.5
390.451	12568.7
395.243	4515.95
400.034	1886.37
404.821	1184.91
409.606	1028.64
414.389	1215.46
419.168	1736.79
423.945	3391.19
428.72	6059.42
433.492	8301.77
438.261	5834.23
443.028	2425.78
447.792	1023.43
452.553	339.222
457.312	199.15
462.068	68.1309
466.822	56.8203
471.573	17.0371
476.321	31.3438
481.067	81.3887
485.81	77.792
490.551	26.5186
495.289	132.296
500.024	267.027
504.757	437.706
509.487	924.102
514.214	2451.45
518.939	5437.75
523.661	9694.04
528.381	6239.52
533.098	1948
537.812	640.476
542.524	311.935
547.233	392.343
551.94	569.771
556.644	1145.32
561.345	1604.05
566.044	1261.8
570.74	1746.46
575.433	3121.01
580.124	2010.45
584.812	1183.76
589.498	1300.95
594.181	499.015
598.861	9.05957
603.539	92.5527
608.214	79.4336
612.887	19.6318
617.557	43.6416
622.224	95.2481
626.889	302.06
631.551	119.481
636.21	48.2451
640.867	114.519
645.521	223.772
650.173	241.994
654.822	180.212
659.468	204.421
664.112	392.565
668.753	596.959
673.392	844.452
678.028	1388.74
682.661	2667.78
687.292	5593.51
691.92	14087.8
696.545	32219.1
701.168	41748.4
705.788	19990.6
710.406	7438.52
715.021	3553.28
719.633	2022.88
724.243	1139.34
728.85	1012.64
733.455	675.788
738.056	655.003
742.656	319.631
747.252	496.335
751.846	321.229
756.438	408.312
761.027	542.344
765.613	754.415
770.196	1336.69
774.777	3499.39
779.356	6431.32
783.932	3286.16
788.505	927.043
793.075	222.037
797.643	64.1768
802.208	121.198
806.771	10.9268
811.331	1.30859
815.888	11.3935
820.443	121.796
824.995	0.613281
829.545	22.8516
834.092	31.2412
838.636	157.421
843.178	142.394
847.717	127.561
852.254	199.772
856.788	267.368
861.319	422.837
865.848	317.603
870.374	234.334
874.897	213.049
879.418	264.817
883.936	306.072
888.452	181.967
892.965	283.367
897.475	168.071
901.983	68.1553
906.488	38.5254
910.99	244.143
915.49	19.0957
919.988	33.3477
924.482	16.2656
928.974	29.5977
933.464	115.853
937.951	107.043
942.435	154.758
946.917	104.301
951.396	178.691
955.872	178.844
960.346	467
964.817	577.236
969.285	459.482
973.751	905.881
978.215	1930.18
982.675	4562.65
987.134	5792.13
991.589	2677.64
996.042	1352.18
1000.49	1329.04
1004.94	899.295
1009.38	1068.94
1013.83	1239.65
1018.27	1610.26
1022.7	2823.66
1027.14	4450.12
1031.57	9507.72
1036	20591.1
1040.43	27320.6
1044.85	14008.1
1049.27	5539.04
1053.69	2795.66
1058.11	1689.18
1062.52	1148.82
1066.93	858.211
1071.34	841.279
1075.75	703.4
1080.15	983.377
1084.55	800.309
1088.95	401.893
1093.35	334.535
1097.74	398.279
1102.13	102.098
1106.52	253.984
1110.9	192.822
1115.28	183.635
1119.66	655.424
1124.04	706.293
1128.41	404.824
1132.79	142.547
1137.16	253.254
1141.52	34.9277
1145.89	218.559
1150.25	70.1777
1154.61	32.2246
1158.96	86.8769
1163.32	40.8594
1167.67	108.943
1172.02	174.803
1176.36	60.7637
1180.71	136.408
1185.05	227.285
1189.38	110.205
1193.72	69.7344
1198.05	59.1406
1202.38	169.887
1206.71	148.352
1211.04	204.379
1215.36	161.303
1219.68	62.6484
1224	33.7988
1228.31	71.1602
1232.62	72.1504
1236.93	243.139
1241.24	188.133
1245.54	71.166
1249.84	109.773
1254.14	141.348
1258.44	41.4746
1262.73	272.643
1267.03	195.869
1271.31	17.0859
1275.6	205.529
1279.88	75.0664
1284.16	233.113
1288.44	116.768
1292.72	278.527
1296.99	128.137
1301.26	333.164
1305.53	248.41
1309.79	439.522
1314.06	347.844
1318.32	443.262
1322.57	368.668
1326.83	276.545
1331.08	106.201
1335.33	151.397
1339.58	197.18
1343.82	331.959
1348.06	272.191
1352.3	188.582
1356.54	158.133
1360.77	167.856
1365.01	163.691
1369.23	136.732
1373.46	236.816
1377.68	236.221
1381.9	299.981
1386.12	211.777
1390.34	81.0684
1394.55	96.3008
1398.76	98.7773
1402.97	149.637
1407.18	34.6074
1411.38	167.807
1415.58	89.5273
1419.78	279.522
1423.97	254.199
1428.17	204.947
1432.36	411.949
1436.54	639.713
1440.73	581.242
1444.91	848.631
1449.09	739.117
1453.27	1176.52
1457.44	934.455
1461.61	865.613
1465.78	570.115
1469.95	242.01
1474.11	286.258
1478.27	491.891
1482.43	174.93
1486.59	134.643
1490.74	106.984
1494.89	215.635
1499.04	211.5
1503.19	14.7344
1507.33	419.434
1511.47	83.7188
1515.61	163.715
1519.75	289.365
1523.88	255.69
1528.01	134.723
1532.14	216.717
1536.26	152.103
1540.38	235.238
1544.51	298.408
1548.62	166.654
1552.74	263.246
1556.85	299.228
1560.96	231.344
1565.07	61.1641
1569.17	142.861
