Measurement: Raman, 514 nm, ccw, Raman Data Processed
Mineral: Jadeite
Rruff sample: R050220
Ideal chemistry: NaAlSi_2_O_6_
Locality: Clear Creek, San Benito County, California, USA
Source: Hatt Yoder
Description: Aggregate of colorless bladed crystals
Measured chemistry: Na_1.00_Al_1.00_(Si_0.99_Al_0.01_)_2_O_6_
Pin_id: L00822
Orientation: Laser parallel to (1 0 1). Fiducial mark perpendicular to laser is parallel to -b [0 -1 0]
Raman shift (cm-1)	intensity
112.946	0
117.888	45.8838
122.827	40.3828
127.763	409.769
132.697	620.765
137.628	1058.57
142.556	3224.26
147.482	3782.86
152.405	908.02
157.326	386.619
162.244	408.958
167.159	342.172
172.072	522.021
176.982	518.469
181.89	246.178
186.795	449.643
191.697	1287.95
196.597	2108.47
201.494	7683.75
206.389	11445.4
211.281	1800.38
216.17	488.787
221.057	326.137
225.941	319.856
230.823	186.232
235.702	95.9199
240.578	27.9102
245.452	134.582
250.323	444.889
255.192	1919.79
260.058	975.441
264.921	89.1953
269.782	38.0332
274.64	48.8203
279.495	72.0547
284.348	186.861
289.198	866.287
294.046	1511.99
298.891	956.215
303.733	1302.46
308.573	2915.22
313.41	2572.64
318.245	1283.86
323.077	1505.1
327.906	3899.68
332.733	2140.96
337.557	657.756
342.379	345.977
347.198	413.871
352.014	448.428
356.828	829.633
361.639	1966.25
366.447	5373.13
371.253	15301.2
376.056	26334.6
380.857	11910
385.655	6752.75
390.451	3835.55
395.243	1621.42
400.034	923.338
404.821	446.5
409.606	452.719
414.389	490.717
419.168	845.848
423.945	1795.03
428.72	3345.23
433.492	5286.55
438.261	3684.94
443.028	1762.84
447.792	745.865
452.553	206.344
457.312	212.918
462.068	65.5957
466.822	64.3828
471.573	123.131
476.321	91.8633
481.067	148.978
485.81	139.352
490.551	61.5
495.289	72.4141
500.024	173.088
504.757	167.969
509.487	438.803
514.214	1036.5
518.939	2190.7
523.661	5084
528.381	3131.33
533.098	1090.59
537.812	398.631
542.524	259.418
547.233	160.002
551.94	176.338
556.644	461.381
561.345	701.191
566.044	892.779
570.74	1660.11
575.433	3874.12
580.124	1979.8
584.812	728.131
589.498	447.117
594.181	238.744
598.861	101.986
603.539	242.74
608.214	91.1758
612.887	115.971
617.557	353.531
622.224	110.307
626.889	153.908
631.551	89.3887
636.21	114.652
640.867	111.875
645.521	153.299
650.173	65.2383
654.822	278.076
659.468	153.473
664.112	215.279
668.753	332.762
673.392	487.191
678.028	866.367
682.661	1524.38
687.292	2934.85
691.92	6413.25
696.545	17239.1
701.168	25468.1
705.788	11323.2
710.406	4398.11
715.021	2305.89
719.633	1298.18
724.243	793.121
728.85	490.719
733.455	538.967
738.056	463.647
742.656	237.088
747.252	420.691
751.846	95.2754
756.438	276.41
761.027	152.254
765.613	253.291
770.196	516.234
774.777	826.916
779.356	1520.11
783.932	617.586
788.505	151.285
793.075	48.6094
797.643	141.9
802.208	71.4551
806.771	22.5742
811.331	140.031
815.888	221.606
820.443	6.22266
824.995	169.019
829.545	207.68
834.092	238.961
838.636	44.2891
843.178	198.019
847.717	479.719
852.254	561.059
856.788	310.062
861.319	406.711
865.848	609.019
870.374	334.981
874.897	334.309
879.418	357.152
883.936	96.0547
888.452	70.8203
892.965	191.191
897.475	165.309
901.983	442.766
906.488	418.941
910.99	55.7383
915.49	200.141
919.988	98.2383
924.482	10.207
928.974	166.414
933.464	92.1641
937.951	49.7891
942.435	66.082
946.917	390.941
951.396	114.172
955.872	65.8516
960.346	244.469
964.817	109.379
969.285	499.805
973.751	602.574
978.215	1136.43
982.675	2638.18
987.134	3516.87
991.589	1561.11
996.042	778.781
1000.49	318.109
1004.94	142.356
1009.38	296.125
1013.83	375.566
1018.27	245.051
1022.7	578.277
1027.14	630.527
1031.57	1303.96
1036	3071.7
1040.43	4438.97
1044.85	2513.59
1049.27	974.82
1053.69	720.023
1058.11	404.312
1062.52	489.746
1066.93	185.809
1071.34	178.918
1075.75	523.215
1080.15	612.043
1084.55	504.535
1088.95	271.836
1093.35	477.894
1097.74	174.062
1102.13	176.672
1106.52	419.93
1110.9	291.906
1115.28	284.527
1119.66	150.203
1124.04	488.535
1128.41	456.191
1132.79	418.418
1137.16	308.633
1141.52	166.172
1145.89	318.902
1150.25	356.039
1154.61	292.992
1158.96	162.508
1163.32	2.41016
1167.67	279.453
1172.02	119.199
1176.36	427.731
1180.71	139.426
1185.05	52.5977
1189.38	71.2266
1193.72	260.742
1198.05	224.582
1202.38	24.8164
1206.71	71.9414
1211.04	170.699
1215.36	227.371
1219.68	297.902
1224	248.305
1228.31	192.242
1232.62	18.0469
1236.93	39.2773
1241.24	166.848
1245.54	60.707
1249.84	440.785
1254.14	59.8672
1258.44	115.777
1262.73	41.6172
1267.03	220.148
1271.31	71.7422
1275.6	506.769
1279.88	286.398
1284.16	38.5234
1288.44	226.582
1292.72	309.879
1296.99	505.219
1301.26	410.465
1305.53	602.688
1309.79	609.289
1314.06	293.586
1318.32	227.93
1322.57	474.258
1326.83	511.852
1331.08	361.969
1335.33	470.277
1339.58	586.801
1343.82	266.269
1348.06	168.953
1352.3	533.957
1356.54	188.102
1360.77	350.328
1365.01	477.641
1369.23	320.406
1373.46	181.84
1377.68	574.266
1381.9	150.082
1386.12	303.82
1390.34	185.434
1394.55	192.922
1398.76	179.769
1402.97	287.117
1407.18	154.199
1411.38	35.793
1415.58	253.719
1419.78	165.562
1423.97	379.84
1428.17	474.004
1432.36	283.769
1436.54	578.676
1440.73	379.562
1444.91	933.523
1449.09	433.629
1453.27	655.016
1457.44	879.094
1461.61	740.414
1465.78	718.715
1469.95	521.629
1474.11	649.137
1478.27	443.219
1482.43	222.949
1486.59	435.562
1490.74	577.602
1494.89	229.82
1499.04	206.617
1503.19	307.606
1507.33	343.195
1511.47	364.484
1515.61	454.844
1519.75	307.125
1523.88	19.7461
1528.01	414.711
1532.14	485.898
1536.26	438.344
1540.38	173.84
1544.51	214.164
1548.62	288.285
1552.74	528.637
1556.85	218.941
1560.96	326.387
1565.07	303.324
1569.17	60.4492
