Measurement: Raman, 514 nm, ccw, Raman Data Processed
Mineral: Jadeite
Rruff sample: R050220
Ideal chemistry: NaAlSi_2_O_6_
Locality: Clear Creek, San Benito County, California, USA
Source: Hatt Yoder
Description: Aggregate of colorless bladed crystals
Measured chemistry: Na_1.00_Al_1.00_(Si_0.99_Al_0.01_)_2_O_6_
Pin_id: L00826
Orientation: Laser parallel to c* (0 0 1). Fiducial mark perpendicular to laser is parallel to a [1 0 0]
Raman shift (cm-1)	intensity
112.946	0
117.888	9.69287
122.827	319.56
127.763	786.433
132.697	2500.24
137.628	7357.73
142.556	15452.9
147.482	8984.36
152.405	2147.17
157.326	722.013
162.244	399.669
167.159	140.547
172.072	74.6397
176.982	193.792
181.89	196.112
186.795	520.006
191.697	2482.89
196.597	7383.91
201.494	24655.9
206.389	23405.8
211.281	3658.29
216.17	905.395
221.057	1018.04
225.941	778.372
230.823	42.5356
235.702	92.2817
240.578	77.897
245.452	167.683
250.323	500.345
255.192	1263.84
260.058	836.35
264.921	74.1977
269.782	3.27637
274.64	208.023
279.495	620.97
284.348	1798.84
289.198	3603.54
294.046	4548.78
298.891	2142.72
303.733	858.417
308.573	637.932
313.41	373.324
318.245	136.09
323.077	298.901
327.906	624.719
332.733	544.743
337.557	93.5508
342.379	42.5996
347.198	82.8291
352.014	291.525
356.828	799.349
361.639	2209.29
366.447	6639.35
371.253	16121.5
376.056	20050.3
380.857	9028.09
385.655	3761.89
390.451	2259.98
395.243	1244.41
400.034	765.907
404.821	699.635
409.606	665.477
414.389	1029.02
419.168	1575.25
423.945	2477.57
428.72	5216.98
433.492	6727.46
438.261	4656.02
443.028	1910.68
447.792	708.423
452.553	307.269
457.312	43.2192
462.068	140.159
466.822	87.4551
471.573	277.69
476.321	430.009
481.067	561.097
485.81	481.753
490.551	317.732
495.289	128.643
500.024	83.707
504.757	256.924
509.487	407.297
514.214	1028.91
518.939	2208.86
523.661	4038.44
528.381	2613.75
533.098	526.758
537.812	66.0332
542.524	42.4863
547.233	51.9414
551.94	45.3643
556.644	291.121
561.345	837.173
566.044	2276.37
570.74	6101.69
575.433	10875.1
580.124	5856.73
584.812	1659.44
589.498	762.251
594.181	344.15
598.861	172.136
603.539	18.6543
608.214	80.2192
612.887	67.3481
617.557	105.891
622.224	236.501
626.889	525.291
631.551	769.436
636.21	1061.64
640.867	1061.92
645.521	868.234
650.173	644.283
654.822	415.917
659.468	521.69
664.112	740.737
668.753	775.631
673.392	1293.51
678.028	1961.74
682.661	3356.22
687.292	6379.4
691.92	15932.6
696.545	37515.8
701.168	49612.5
705.788	23709.7
710.406	8942.32
715.021	4219.87
719.633	2292.38
724.243	1471.54
728.85	999.458
733.455	829.358
738.056	607.964
742.656	392.52
747.252	378.278
751.846	270.764
756.438	174.8
761.027	212.681
765.613	115.401
770.196	75.6382
774.777	216.025
779.356	174.294
783.932	57.3135
788.505	7.76123
793.075	17.8716
797.643	70.0396
802.208	70.1904
806.771	36.9375
811.331	0.478516
815.888	83.5762
820.443	54.3662
824.995	87.938
829.545	71.2554
834.092	11.8023
838.636	27.7319
843.178	72.0557
847.717	73.2012
852.254	152.13
856.788	35.7881
861.319	89.2847
865.848	166.631
870.374	218.867
874.897	109.976
879.418	184.97
883.936	395.024
888.452	538.177
892.965	316.227
897.475	155.165
901.983	210.051
906.488	38.294
910.99	22.7939
915.49	34.6016
919.988	36.1348
924.482	112.573
928.974	135.824
933.464	137.29
937.951	238.48
942.435	207.509
946.917	178.367
951.396	304.724
955.872	540.791
960.346	504.773
964.817	898.813
969.285	1417.03
973.751	2203.87
978.215	4605.67
982.675	10337.9
987.134	18027.2
991.589	20846.3
996.042	13996.8
1000.49	5377.56
1004.94	2486.13
1009.38	1381.13
1013.83	790.377
1018.27	870.643
1022.7	1026.52
1027.14	1557.79
1031.57	3476.53
1036	7930.51
1040.43	12401.8
1044.85	6830.86
1049.27	2583.94
1053.69	1168.69
1058.11	837.787
1062.52	655.475
1066.93	350.824
1071.34	423.545
1075.75	600.965
1080.15	953.55
1084.55	2014.24
1088.95	808.155
1093.35	250.353
1097.74	97.6357
1102.13	125.124
1106.52	75.0361
1110.9	130.276
1115.28	122.907
1119.66	430.065
1124.04	458.248
1128.41	195.534
1132.79	75.5293
1137.16	66.5908
1141.52	119.126
1145.89	19.3545
1150.25	28.7979
1154.61	80.3721
1158.96	49.7168
1163.32	77.6758
1167.67	238.407
1172.02	53.5977
1176.36	37.9902
1180.71	62.1084
1185.05	48.1289
1189.38	67.9932
1193.72	15.918
1198.05	111.499
1202.38	205.98
1206.71	169.287
1211.04	9.52832
1215.36	124.645
1219.68	104.664
1224	120.6
1228.31	127.466
1232.62	64.8535
1236.93	125.235
1241.24	52.8037
1245.54	110.247
1249.84	129.628
1254.14	47.9551
1258.44	34.0283
1262.73	24.1445
1267.03	79.249
1271.31	87.5
1275.6	84.5654
1279.88	29.1045
1284.16	174.833
1288.44	84.9883
1292.72	75.8174
1296.99	64.6016
1301.26	100.258
1305.53	8.7334
1309.79	91.9316
1314.06	109.906
1318.32	258.146
1322.57	271.831
1326.83	64.1221
1331.08	208.127
1335.33	106.5
1339.58	220.615
1343.82	240.977
1348.06	141.956
1352.3	279.013
1356.54	232.736
1360.77	6.64062
1365.01	97.8574
1369.23	250.671
1373.46	252.989
1377.68	258.146
1381.9	212.95
1386.12	233.507
1390.34	110.287
1394.55	115.784
1398.76	259.492
1402.97	90.4356
1407.18	104.918
1411.38	218.023
1415.58	261.306
1419.78	180.321
1423.97	188.921
1428.17	359.34
1432.36	197.435
1436.54	303.363
1440.73	297.116
1444.91	330.75
1449.09	213.672
1453.27	234.127
1457.44	283.555
1461.61	172.883
1465.78	210.022
1469.95	78.3574
1474.11	103.106
1478.27	172.501
1482.43	139.373
1486.59	88.3496
1490.74	186.128
1494.89	6.75
1499.04	48.4893
1503.19	165.395
1507.33	60.6133
1511.47	152.984
1515.61	189.454
1519.75	40.0938
1523.88	24.6445
1528.01	141.759
1532.14	13.9473
1536.26	215.144
1540.38	113.685
1544.51	65.4414
1548.62	90.1914
1552.74	136.707
1556.85	116.098
1560.96	47.0645
1565.07	2.40723
1569.17	62.375
