Measurement: Raman, 514 nm, ccw, Raman Data Processed
Mineral: Jadeite
Rruff sample: R050220
Ideal chemistry: NaAlSi_2_O_6_
Locality: Clear Creek, San Benito County, California, USA
Source: Hatt Yoder
Description: Aggregate of colorless bladed crystals
Measured chemistry: Na_1.00_Al_1.00_(Si_0.99_Al_0.01_)_2_O_6_
Pin_id: L00826
Orientation: Laser parallel to c* (0 0 1). Fiducial mark perpendicular to laser is parallel to a [1 0 0]
Raman shift (cm-1)	intensity
112.946	0
117.888	26.6084
122.827	168.416
127.763	430.321
132.697	1160.97
137.628	3251.87
142.556	4484.32
147.482	2228.33
152.405	704.56
157.326	194.297
162.244	89.5466
167.159	42.7661
172.072	4.11157
176.982	10.9463
181.89	111.686
186.795	262.172
191.697	867.296
196.597	2203.59
201.494	6168.14
206.389	8368.45
211.281	2361.39
216.17	714.865
221.057	1409.63
225.941	928.727
230.823	37.1233
235.702	71.2007
240.578	69.2349
245.452	148.028
250.323	458.113
255.192	1192.45
260.058	505.518
264.921	38.2685
269.782	97.8047
274.64	11.0586
279.495	285.113
284.348	819.239
289.198	2002.37
294.046	3142.18
298.891	2499.82
303.733	1940.31
308.573	2386.69
313.41	2604.06
318.245	3697.43
323.077	7992.67
327.906	17635.8
332.733	12174.6
337.557	2577.28
342.379	858.457
347.198	674.887
352.014	857.555
356.828	1701.45
361.639	4242.57
366.447	12343.9
371.253	30379.4
376.056	44454.2
380.857	29346.9
385.655	24489.9
390.451	11412.7
395.243	3972.27
400.034	2083.07
404.821	1473.9
409.606	1252.17
414.389	1514.16
419.168	2025.28
423.945	2397.94
428.72	4048.41
433.492	5415.35
438.261	3882.43
443.028	1604.66
447.792	677.046
452.553	314.582
457.312	268.619
462.068	127.217
466.822	134.852
471.573	276.373
476.321	384.837
481.067	476.348
485.81	429.923
490.551	249.628
495.289	161.457
500.024	217.404
504.757	275.463
509.487	534.629
514.214	1038.9
518.939	2434.27
523.661	4504.87
528.381	2967.04
533.098	777.751
537.812	200.591
542.524	3.53516
547.233	11.4282
551.94	100.384
556.644	20.2004
561.345	28.314
566.044	28.1182
570.74	200.431
575.433	313.007
580.124	218.685
584.812	300.393
589.498	340.095
594.181	162.785
598.861	35.6089
603.539	52.4194
608.214	68.7183
612.887	49.4634
617.557	23.3838
622.224	173.15
626.889	232.859
631.551	397.505
636.21	546.082
640.867	475.587
645.521	410.013
650.173	284.356
654.822	251.671
659.468	320.46
664.112	373.546
668.753	448.088
673.392	678.416
678.028	892.645
682.661	1591.38
687.292	3242.39
691.92	8099.9
696.545	18588.8
701.168	24219.8
705.788	11378.8
710.406	4204.09
715.021	2119.02
719.633	1146.31
724.243	802.214
728.85	562.922
733.455	458.429
738.056	282.473
742.656	239.669
747.252	230.883
751.846	159.487
756.438	140.876
761.027	214.333
765.613	101.637
770.196	181.792
774.777	327.799
779.356	726.004
783.932	383.383
788.505	101.252
793.075	111.487
797.643	25.25
802.208	3.33301
806.771	27.8071
811.331	57.3701
815.888	13.3687
820.443	46.1685
824.995	53.2139
829.545	73.8149
834.092	51.7822
838.636	52.9243
843.178	23.478
847.717	94.9946
852.254	29.3442
856.788	37.4673
861.319	80.4898
865.848	98.459
870.374	58.3833
874.897	180.333
879.418	326.475
883.936	479.834
888.452	675.399
892.965	391.036
897.475	182.701
901.983	118.389
906.488	59.1069
910.99	96.8638
915.49	149.707
919.988	47.6406
924.482	42.6504
928.974	65.7095
933.464	131.622
937.951	125.723
942.435	208.498
946.917	208.192
951.396	182.106
955.872	196.845
960.346	365.958
964.817	491.401
969.285	643.732
973.751	1037.8
978.215	2216.43
982.675	5165.7
987.134	7135.63
991.589	3538.14
996.042	2052.98
1000.49	1432.96
1004.94	1171.09
1009.38	1356.36
1013.83	1659.2
1018.27	2253.81
1022.7	3618.55
1027.14	6477.42
1031.57	14155.8
1036	33832.9
1040.43	49974.6
1044.85	25806.1
1049.27	9139.31
1053.69	4446.91
1058.11	2519.76
1062.52	1777.36
1066.93	1262.63
1071.34	1067.72
1075.75	992.26
1080.15	1261.38
1084.55	1098.29
1088.95	747.249
1093.35	404.498
1097.74	247.765
1102.13	136.306
1106.52	187.687
1110.9	225.868
1115.28	273.098
1119.66	323.109
1124.04	422.885
1128.41	183.337
1132.79	121.387
1137.16	118.562
1141.52	88.8027
1145.89	26.2725
1150.25	26.5718
1154.61	61.8935
1158.96	11.6318
1163.32	14.0859
1167.67	102.274
1172.02	26.1689
1176.36	12.0508
1180.71	36.9966
1185.05	26.6699
1189.38	20.8008
1193.72	24.5415
1198.05	80.8306
1202.38	4.08008
1206.71	32.8813
1211.04	7.73682
1215.36	15.3345
1219.68	8.8457
1224	46.3091
1228.31	83.7188
1232.62	0.950684
1236.93	17.2539
1241.24	119.37
1245.54	49.3975
1249.84	14.3301
1254.14	48.1777
1258.44	95.9155
1262.73	90.5713
1267.03	166.985
1271.31	27.6216
1275.6	35.9067
1279.88	121.654
1284.16	72.7114
1288.44	119.383
1292.72	75.187
1296.99	22.8926
1301.26	78.7554
1305.53	73.4043
1309.79	161.144
1314.06	149.484
1318.32	163.219
1322.57	59.9228
1326.83	226.904
1331.08	94.728
1335.33	97.2627
1339.58	94.9131
1343.82	103.564
1348.06	118.155
1352.3	166.01
1356.54	222.601
1360.77	167.729
1365.01	113.15
1369.23	117.314
1373.46	152.399
1377.68	71.6445
1381.9	102.853
1386.12	33.7583
1390.34	195.513
1394.55	70.7383
1398.76	129.004
1402.97	139.07
1407.18	158.276
1411.38	111.894
1415.58	91.9609
1419.78	60.9605
1423.97	197.4
1428.17	122.534
1432.36	220.208
1436.54	176.332
1440.73	195.623
1444.91	351.04
1449.09	138.648
1453.27	199.971
1457.44	175.723
1461.61	245.474
1465.78	159.152
1469.95	33.1089
1474.11	91.6621
1478.27	186.452
1482.43	44.2246
1486.59	71.041
1490.74	71.0732
1494.89	124.186
1499.04	96.4829
1503.19	47.0679
1507.33	121.782
1511.47	27.7515
1515.61	68.9551
1519.75	81.3545
1523.88	54.2705
1528.01	142.282
1532.14	171.923
1536.26	104.272
1540.38	63.8071
1544.51	177.168
1548.62	83.4136
1552.74	188.274
1556.85	21.3091
1560.96	135.208
1565.07	25.9351
1569.17	79.4746
