Measurement: Raman, 514 nm, ccw, Raman Data Processed
Mineral: Jadeite
Rruff sample: R050220
Ideal chemistry: NaAlSi_2_O_6_
Locality: Clear Creek, San Benito County, California, USA
Source: Hatt Yoder
Description: Aggregate of colorless bladed crystals
Measured chemistry: Na_1.00_Al_1.00_(Si_0.99_Al_0.01_)_2_O_6_
Pin_id: L00822
Orientation: Laser parallel to (1 0 1). Fiducial mark perpendicular to laser is parallel to -b [0 -1 0]
Raman shift (cm-1)	intensity
112.946	0
117.888	176.38
122.827	198.859
127.763	449.669
132.697	727.507
137.628	1100.37
142.556	2146.09
147.482	1663.22
152.405	791.559
157.326	492.461
162.244	429.085
167.159	500.691
172.072	476.932
176.982	627.383
181.89	296.382
186.795	526.199
191.697	1105.06
196.597	1170.37
201.494	3161.61
206.389	6164.22
211.281	940.254
216.17	407.846
221.057	521.162
225.941	472.262
230.823	214.772
235.702	7.26758
240.578	31.9297
245.452	218.285
250.323	520.332
255.192	1981.15
260.058	679.551
264.921	100.754
269.782	16.3301
274.64	132.266
279.495	23.0371
284.348	345.182
289.198	999.871
294.046	1761.89
298.891	1285.08
303.733	1456.3
308.573	2842.47
313.41	2774.88
318.245	1810.71
323.077	3250.56
327.906	9409.39
332.733	5334.92
337.557	1309.6
342.379	548.744
347.198	346.246
352.014	459.465
356.828	802.625
361.639	1817.48
366.447	4854.38
371.253	13779.6
376.056	23696.2
380.857	13969.9
385.655	13685.7
390.451	6225.88
395.243	1941.24
400.034	941.748
404.821	600.17
409.606	595.768
414.389	493.861
419.168	661.434
423.945	1154.35
428.72	2060.58
433.492	2817.01
438.261	2097.58
443.028	849.277
447.792	221.596
452.553	279.451
457.312	17.3242
462.068	114.438
466.822	58.3066
471.573	163.26
476.321	32.8516
481.067	30.9277
485.81	50.4316
490.551	16.2949
495.289	108.162
500.024	0.333984
504.757	256.518
509.487	415.586
514.214	726.893
518.939	1154.98
523.661	2616.44
528.381	1782.25
533.098	653.633
537.812	132.736
542.524	13.5898
547.233	220
551.94	91.8555
556.644	186.463
561.345	339.816
566.044	265.902
570.74	381.662
575.433	543.076
580.124	215.137
584.812	357.83
589.498	330.137
594.181	50.0547
598.861	14.5762
603.539	118.543
608.214	255.676
612.887	17.1152
617.557	360.406
622.224	215.924
626.889	454.144
631.551	330.514
636.21	341.397
640.867	176.398
645.521	444.139
650.173	283.082
654.822	351.924
659.468	147.074
664.112	306.603
668.753	294.41
673.392	339.928
678.028	476.182
682.661	785.18
687.292	1717.56
691.92	3637.05
696.545	8863.94
701.168	13039
705.788	5395.15
710.406	2391.67
715.021	1139.46
719.633	615.875
724.243	370.912
728.85	230.047
733.455	183.41
738.056	193.809
742.656	148.932
747.252	262.365
751.846	121.018
756.438	212.977
761.027	369.957
765.613	271.529
770.196	296.682
774.777	665.215
779.356	1110.09
783.932	745.318
788.505	3.81055
793.075	207.701
797.643	55.3047
802.208	161.834
806.771	273.17
811.331	40.6465
815.888	293.059
820.443	211.816
824.995	257.316
829.545	218.609
834.092	6.50586
838.636	127.051
843.178	95.3203
847.717	259.338
852.254	267.129
856.788	475.695
861.319	463.047
865.848	326.201
870.374	447.098
874.897	527.516
879.418	176.685
883.936	240.492
888.452	173.328
892.965	120.367
897.475	230.66
901.983	188.863
906.488	232.898
910.99	37.75
915.49	177.363
919.988	128.766
924.482	74.7227
928.974	24.6211
933.464	89.957
937.951	12.25
942.435	185.266
946.917	186.707
951.396	223.32
955.872	264.891
960.346	108.981
964.817	400.18
969.285	373.785
973.751	563.801
978.215	1230.88
982.675	2560.55
987.134	3333.16
991.589	1730.69
996.042	1014.19
1000.49	921.801
1004.94	854.641
1009.38	946.262
1013.83	946.742
1018.27	1411.49
1022.7	2118.74
1027.14	3547.85
1031.57	6966.47
1036	15392.4
1040.43	22999.4
1044.85	11783
1049.27	4614.01
1053.69	2711.57
1058.11	1788.84
1062.52	1033.76
1066.93	896.016
1071.34	866.016
1075.75	774.953
1080.15	806.707
1084.55	707.648
1088.95	507.746
1093.35	372.66
1097.74	445.559
1102.13	277.5
1106.52	411.414
1110.9	193.051
1115.28	315.894
1119.66	794.762
1124.04	932.586
1128.41	204.781
1132.79	195.996
1137.16	76.5234
1141.52	318.879
1145.89	357.117
1150.25	199.695
1154.61	298.953
1158.96	284.539
1163.32	21.418
1167.67	65.0977
1172.02	57.2266
1176.36	54.2617
1180.71	384.266
1185.05	79.2578
1189.38	39.4336
1193.72	166.648
1198.05	267.742
1202.38	24.8438
1206.71	183.949
1211.04	11.0352
1215.36	53.1719
1219.68	85.1211
1224	72.9805
1228.31	27.8203
1232.62	85.4961
1236.93	53.6992
1241.24	92.957
1245.54	270.047
1249.84	356.688
1254.14	44.3281
1258.44	19.7656
1262.73	237.949
1267.03	339.594
1271.31	245.699
1275.6	291.172
1279.88	236.207
1284.16	67.5508
1288.44	389.199
1292.72	333.152
1296.99	320.863
1301.26	67.7617
1305.53	273.734
1309.79	180.652
1314.06	376.644
1318.32	608.711
1322.57	336.578
1326.83	111.644
1331.08	370.117
1335.33	163.543
1339.58	152.797
1343.82	340.297
1348.06	163.852
1352.3	441.613
1356.54	69.5156
1360.77	255.445
1365.01	40.7617
1369.23	219.981
1373.46	14.332
1377.68	258.785
1381.9	296.394
1386.12	18.7461
1390.34	279.16
1394.55	324.441
1398.76	14.3789
1402.97	8.82812
1407.18	108
1411.38	329.676
1415.58	23.7812
1419.78	73.6875
1423.97	8.14844
1428.17	469.562
1432.36	336.441
1436.54	459.356
1440.73	510.883
1444.91	558.344
1449.09	663.227
1453.27	846.555
1457.44	733.188
1461.61	598.422
1465.78	295.09
1469.95	211.195
1474.11	612.141
1478.27	179.043
1482.43	219.93
1486.59	386.664
1490.74	326.293
1494.89	202.324
1499.04	223.688
1503.19	254.363
1507.33	258.965
1511.47	55.0469
1515.61	293.926
1519.75	434.652
1523.88	210.617
1528.01	256.832
1532.14	474.129
1536.26	152.211
1540.38	349.723
1544.51	254.594
1548.62	279.289
1552.74	649.641
1556.85	268.852
1560.96	322.5
1565.07	277.453
1569.17	2.58203
