Measurement: Raman, 514 nm, ccw, Raman Data Processed
Mineral: Kanoite
Rruff sample: R061134
Ideal chemistry: Mn^2+^MgSi_2_O_6_
Locality: Balmat, St. Lawrence County, New York, USA
Source: Michael Scott
Description: Yellowish brown granular aggregate
Measured chemistry: (Mn^2+^_0.88_Ca_0.12_)_Σ=1_(Mg_0.98_Fe^3+^_0.02_)_Σ=1_(Si_0.98_Al_0.02_)_Σ=2_O_6_
Pin_id: M00188
Orientation: Laser parallel to b* (0 1 0). Fiducial mark perpendicular to laser is parallel to c [0 0 1]
Raman shift (cm-1)	intensity
97.862	0
102.825	507.525
107.785	1458.82
112.742	1448.18
117.697	796.99
122.648	278.527
127.596	441.528
132.542	728.437
137.485	517.823
142.425	297.47
147.362	303.382
152.296	246.838
157.228	100.451
162.156	9.89453
167.082	46.6431
172.005	17.0796
176.925	33.9004
181.842	211.562
186.757	582.786
191.668	747.682
196.577	544.828
201.483	304.137
206.386	299.116
211.286	535.843
216.183	530.31
221.078	487.062
225.969	431.383
230.858	313.308
235.744	222.417
240.628	146.672
245.508	282.75
250.386	202.774
255.26	75.5962
260.132	68.4092
265.001	21.4145
269.868	7.42041
274.731	25.3218
279.592	89.5249
284.45	50.3857
289.305	116.926
294.157	261.545
299.007	483.422
303.854	729.218
308.698	1012.15
313.539	1388.56
318.377	2116.8
323.213	2483.16
328.046	2140.54
332.876	1339.2
337.703	820.671
342.527	572.867
347.349	482.446
352.168	545.637
356.984	514.885
361.797	513.235
366.608	527.087
371.415	581.026
376.22	552
381.023	708.023
385.822	1218.1
390.619	1569.21
395.413	1228.31
400.204	467.307
404.992	257.123
409.778	201.992
414.561	63.2388
419.341	84.3682
424.118	94.6294
428.893	110.258
433.665	218.155
438.434	337.753
443.201	994.73
447.964	2427.12
452.725	3711.34
457.483	3751.83
462.239	4603.37
466.991	1688.1
471.741	394.936
476.489	128.797
481.233	91.7481
485.975	9.29639
490.714	14.4219
495.45	26.2432
500.184	13.2368
504.915	28.2231
509.643	16.688
514.368	57.3276
519.091	225.895
523.811	208.832
528.528	138.621
533.243	78.4009
537.955	111.175
542.664	197.918
547.37	155.639
552.074	242.421
556.775	224.386
561.473	156.494
566.169	80.6519
570.862	24.8364
575.552	34.0273
580.24	17.8242
584.925	19.0064
589.607	69.6558
594.286	39.3052
598.963	44.919
603.637	176.654
608.309	516.974
612.977	1256.86
617.643	2269.86
622.307	1470.06
626.967	1384.21
631.625	1756.45
636.281	1499.58
640.933	2122.62
645.583	3933.78
650.231	4707.6
654.875	5201.33
659.517	6685.81
664.157	8112.15
668.793	7580.15
673.427	4661.98
678.059	2417.63
682.687	1350.62
687.313	855.796
691.937	542.543
696.557	434.286
701.175	388.365
705.791	271.673
710.403	258.965
715.014	159.956
719.621	287.171
724.226	227.095
728.828	169.167
733.428	121.087
738.025	11.8511
742.619	16.6138
747.21	50.1475
751.799	137.445
756.386	31.5205
760.969	74.1138
765.551	135.526
770.129	53.6704
774.705	28.6206
779.278	130.026
783.849	108.866
788.417	54.0171
792.982	35.6953
797.545	105.944
802.105	63.936
806.663	13.6484
811.217	12.853
815.77	28.4077
820.319	100.506
824.867	5.37061
829.411	17.0469
833.953	76.3379
838.492	48.5845
843.029	36.3423
847.563	104.419
852.094	40.0376
856.623	128.31
861.15	5.70117
865.673	108.022
870.194	148.128
874.713	125.996
879.229	245.902
883.742	81.5283
888.253	246.967
892.761	379.336
897.267	255.449
901.77	303.802
906.27	231.903
910.768	167.022
915.263	201.46
919.756	384.449
924.246	382.806
928.734	444.973
933.219	318.631
937.701	380.947
942.181	468.653
946.658	261.44
951.133	282.178
955.605	176.087
960.075	269.412
964.542	433.064
969.006	734.413
973.468	1301.88
977.928	2774.69
982.385	12232.9
986.839	50321.8
991.291	27004.9
995.74	10447.4
1000.19	11405.2
1004.63	9568.12
1009.07	6369.32
1013.51	3869.85
1017.95	2263.61
1022.38	1481.6
1026.81	949.872
1031.24	555.423
1035.67	533.206
1040.09	412.297
1044.51	397.666
1048.93	197.315
1053.35	201.206
1057.76	16.5889
1062.17	22.4004
1066.58	3.18945
1070.99	134.531
1075.39	153.711
1079.79	236.334
1084.19	331.443
1088.59	143.465
1092.98	193.73
1097.37	352.951
1101.76	654.7
1106.15	492.692
1110.53	191.265
1114.91	193.762
1119.29	292.53
1123.67	450.512
1128.04	590.239
1132.41	1468.59
1136.78	3458.12
1141.15	4136.15
1145.51	3332.94
1149.87	1774.89
1154.23	995.96
1158.59	799.131
1162.94	1257.4
1167.29	1798.78
1171.64	998.236
1175.98	444.058
1180.33	82.3594
1184.67	163.076
1189.01	138.18
1193.34	60.1123
1197.68	110.349
1202.01	67.0566
1206.34	21.9893
1210.66	61.0234
1214.99	72.0098
1219.31	82.0127
1223.63	89.0303
1227.94	70.9961
1232.26	47.5449
1236.57	25.3535
1240.88	157.185
1245.19	92.7627
1249.49	148.378
1253.79	15.9297
1258.09	67.915
1262.39	98.6641
1266.68	58.3682
1270.97	58.6553
1275.26	40.3154
1279.55	51.2451
1283.84	135.654
1288.12	101.915
1292.4	92.9111
1296.67	129.069
1300.95	211.087
1305.22	90.8574
1309.49	55.9297
1313.76	79.3545
1318.03	52.6543
1322.29	87.6543
1326.55	200.312
1330.81	158.775
1335.06	60.5332
1339.31	176.438
1343.56	193.647
1347.81	113.269
1352.06	127.427
1356.3	112.676
1360.54	134.398
1364.78	172.907
1369.02	38.0938
1373.25	187.717
1377.48	7.12305
1381.71	126.738
1385.94	122.07
1390.16	146.606
1394.38	28
1398.6	112.845
1402.82	8.15234
1407.03	95.7051
1411.24	122.464
1415.45	73.1279
1419.66	17.7002
1423.87	81.1836
1428.07	104.638
1432.27	3.79883
1436.46	230.52
1440.66	200.034
1444.85	7.9209
1449.04	154.793
1453.23	202.426
1457.42	217.207
1461.6	175.786
1465.78	145.996
1469.96	118.213
1474.14	132.11
1478.31	57.3877
1482.48	121.291
1486.65	147.103
1490.82	29.3701
1494.98	37.5879
1499.14	9.13574
1503.3	134.135
1507.46	88.9863
1511.61	188.039
1515.77	109.457
1519.92	170.371
1524.06	132.796
1528.21	39.2119
1532.35	100.045
1536.49	90.9678
1540.63	148.402
1544.77	33.0664
1548.9	240.098
1553.03	150.839
1557.16	37.4639
1561.29	176.369
1565.41	51.791
1569.53	125.978
