Measurement: Raman, 514 nm, ccw, Raman Data Processed
Mineral: Kanoite
Rruff sample: R061134
Ideal chemistry: Mn^2+^MgSi_2_O_6_
Locality: Balmat, St. Lawrence County, New York, USA
Source: Michael Scott
Description: Yellowish brown granular aggregate
Measured chemistry: (Mn^2+^_0.88_Ca_0.12_)_Σ=1_(Mg_0.98_Fe^3+^_0.02_)_Σ=1_(Si_0.98_Al_0.02_)_Σ=2_O_6_
Pin_id: M00188
Orientation: Laser parallel to b* (0 1 0). Fiducial mark perpendicular to laser is parallel to c [0 0 1]
Raman shift (cm-1)	intensity
109.025	0
113.981	25.334
118.935	58.958
123.885	224.571
128.833	376.363
133.778	422.538
138.72	390.023
143.66	448.31
148.596	487.996
153.53	388.505
158.46	203.455
163.388	131.737
168.313	30.4043
173.235	51.4902
178.155	59.0059
183.071	10.9355
187.985	249.158
192.896	256.039
197.803	114.429
202.709	204.054
207.611	477.11
212.51	520.584
217.407	487.416
222.301	520.598
227.192	485.591
232.08	172.037
236.965	80.2481
241.848	80.7471
246.728	174.526
251.604	45.5752
256.479	126.53
261.35	38.2324
266.218	63.5254
271.084	8.45605
275.947	114.322
280.807	4.01856
285.664	110.386
290.518	183.069
295.37	300.009
300.219	316.183
305.065	665.579
309.908	890.181
314.749	1395.05
319.586	1684.09
324.421	1776.46
329.253	1477.83
334.083	883.292
338.909	555.452
343.733	403.269
348.554	431.717
353.372	417.328
358.187	245.242
363	379.157
367.81	333.218
372.617	315.416
377.421	438.75
382.223	377.214
387.022	638.804
391.818	696.518
396.611	491.448
401.401	334.397
406.189	88.624
410.974	101.662
415.756	105.682
420.536	156.467
425.312	122.751
430.086	137.15
434.858	81.583
439.626	269.58
444.392	947.88
449.155	2208.45
453.915	3540.76
458.672	4325.84
463.427	3905
468.179	1099.27
472.928	308.629
477.675	173.097
482.419	67.6436
487.16	19.2734
491.898	44.9209
496.634	5.66016
501.367	228.44
506.097	234.269
510.825	137.23
515.549	148.293
520.271	289.404
524.991	152.704
529.707	161.088
534.421	174.511
539.132	255.954
543.841	155.321
548.547	33.2139
553.25	262.093
557.95	294.529
562.648	198.039
567.343	50.75
572.035	126.996
576.724	99.2422
581.411	29.1875
586.095	0.09082
590.777	7.20801
595.456	21.3057
600.132	263.602
604.805	323.079
609.476	987.664
614.144	1935.78
618.809	2247.23
623.472	1269.6
628.132	859.181
632.789	685.02
637.444	648.931
642.096	1036.18
646.745	1702.8
651.392	2447.93
656.036	3380.63
660.677	4675.68
665.316	5220.3
669.952	4512
674.585	2456.27
679.216	1382.53
683.844	795.871
688.469	405.89
693.092	265.55
697.712	292.934
702.329	305.744
706.944	235.444
711.556	174.171
716.166	225.523
720.773	187.994
725.377	142.314
729.978	121.418
734.577	220.856
739.173	72.5234
743.767	22.0801
748.358	160.885
752.946	304.268
757.532	341.26
762.115	63.8789
766.695	139.578
771.273	140.615
775.848	102.981
780.421	103.201
784.991	273.051
789.558	19.6289
794.123	9.25781
798.685	79.2383
803.245	187.58
807.802	132.012
812.356	8.91406
816.907	24.8086
821.456	19.6387
826.003	75.4981
830.547	50.9414
835.088	150.461
839.627	197.768
844.163	106.564
848.696	123.566
853.227	185.201
857.755	308.033
862.281	164.217
866.804	342.435
871.324	149.572
875.842	5.75195
880.357	283.025
884.87	208.215
889.38	322.555
893.888	396.293
898.393	11.5215
902.895	15.3379
907.395	146.879
911.892	106.742
916.387	72.0195
920.879	122.541
925.368	215.994
929.855	223.41
934.339	219.269
938.821	63.2363
943.301	47.5332
947.777	293.246
952.251	97.7383
956.723	196.945
961.192	233.397
965.658	306.162
970.122	576.9
974.583	1149.43
979.042	3353.53
983.498	15193
987.952	35891.5
992.403	11563.3
996.852	7434.26
1001.3	7836.13
1005.74	6420.4
1010.18	4165
1014.62	2692.35
1019.06	1562.76
1023.49	1030.34
1027.92	510.031
1032.35	579.426
1036.78	301.228
1041.2	288.285
1045.62	314.631
1050.04	137.092
1054.45	133.35
1058.87	220.291
1063.28	42.5547
1067.68	62.3691
1072.09	35.0391
1076.49	394.391
1080.89	552.842
1085.29	495.434
1089.69	102.916
1094.08	116.65
1098.47	175.428
1102.86	459.191
1107.24	73.2754
1111.63	160.973
1116.01	131.422
1120.38	219.467
1124.76	231.555
1129.13	357.572
1133.5	577.633
1137.87	604.648
1142.24	696.613
1146.6	405.75
1150.96	356.713
1155.32	330.664
1159.67	58.6582
1164.03	329.574
1168.38	259.484
1172.72	159.377
1177.07	102.262
1181.41	12.0312
1185.75	33.5762
1190.09	52.9961
1194.43	201.197
1198.76	62.7988
1203.09	99.8457
1207.42	76.1602
1211.75	35.8965
1216.07	47.8672
1220.39	182.664
1224.71	146.201
1229.02	52.791
1233.34	334.227
1237.65	234.717
1241.96	149.609
1246.26	376.852
1250.57	149.883
1254.87	90.9785
1259.17	32.1641
1263.46	360.422
1267.76	246.141
1272.05	47.7598
1276.34	153.238
1280.62	152.637
1284.91	67.9531
1289.19	173.195
1293.47	211.357
1297.74	240.578
1302.02	233.598
1306.29	192.533
1310.56	241.035
1314.83	130.027
1319.09	321.049
1323.35	181.59
1327.61	285.242
1331.87	220.139
1336.12	93.6406
1340.38	276.867
1344.63	259.25
1348.87	222.74
1353.12	305.568
1357.36	333.768
1361.6	300.113
1365.84	61.2148
1370.08	283.49
1374.31	328.953
1378.54	203.154
1382.77	14.0234
1386.99	202.717
1391.22	143.865
1395.44	223.982
1399.66	254.994
1403.87	197.08
1408.09	107.086
1412.3	63.3477
1416.51	77.6211
1420.71	16.7129
1424.92	237.773
1429.12	185.385
1433.32	295.043
1437.51	115.496
1441.71	337.981
1445.9	374.176
1450.09	402.232
1454.28	293.404
1458.46	346.82
1462.65	466.357
1466.83	419.668
1471	350.137
1475.18	181.656
1479.35	106.232
1483.52	87.8516
1487.69	64.6367
1491.86	207.025
1496.02	367.807
1500.18	190.731
1504.34	186.695
1508.5	176.9
1512.65	121.816
1516.8	149.029
1520.95	167.045
1525.1	210.769
1529.24	102.236
1533.39	94.5098
1537.53	39.248
1541.66	182.83
1545.8	197.709
1549.93	191.533
1554.06	119.408
1558.19	229.018
1562.32	283.219
1566.44	230.541
1570.56	0
