Measurement: Raman, 514 nm, ccw, Raman Data Processed
Mineral: Kanoite
Rruff sample: R061134
Ideal chemistry: Mn^2+^MgSi_2_O_6_
Locality: Balmat, St. Lawrence County, New York, USA
Source: Michael Scott
Description: Yellowish brown granular aggregate
Measured chemistry: (Mn^2+^_0.88_Ca_0.12_)_Σ=1_(Mg_0.98_Fe^3+^_0.02_)_Σ=1_(Si_0.98_Al_0.02_)_Σ=2_O_6_
Pin_id: L00480
Orientation: Laser parallel to -c* (0 0 -1). Fiducial mark perpendicular to laser is parallel to a [1 0 0]
Raman shift (cm-1)	intensity
111.503	0
116.458	21.0801
121.41	15.9082
126.36	100.162
131.306	814.979
136.25	1298.4
141.19	1336.41
146.128	1210.53
151.063	794.807
155.995	128.66
160.925	170.459
165.851	178.732
170.775	335.779
175.695	190.971
180.613	212.777
185.528	515.699
190.44	692.375
195.35	773.363
200.256	502.053
205.16	577.01
210.061	851.744
214.959	1589.04
219.854	1476.86
224.747	1459.02
229.636	1355.65
234.523	1228.53
239.407	871.492
244.288	792.492
249.166	782.471
254.042	535.359
258.915	464.066
263.784	333.246
268.651	210.049
273.516	317.688
278.377	359.094
283.236	354.711
288.092	577.17
292.945	950.957
297.795	1239.7
302.642	2065.95
307.487	2733.4
312.329	4361.14
317.168	6714.17
322.004	8073.43
326.838	7396.56
331.668	5038.4
336.496	3212.35
341.321	1857.82
346.144	1726.96
350.963	1439.23
355.78	1349.84
360.594	1111.86
365.405	1115.25
370.214	1220.01
375.019	1038.08
379.822	864.455
384.622	1289.25
389.42	1350.1
394.215	1230.13
399.006	783.469
403.795	570.033
408.582	833.139
413.365	882.754
418.146	470.461
422.924	412.867
427.7	82.5879
432.472	151.168
437.242	0.498047
442.009	141.397
446.774	26.1895
451.535	48.9355
456.294	42.6367
461.05	267.512
465.804	411.783
470.554	350.582
475.302	122.67
480.047	66.7715
484.79	130.676
489.529	218.602
494.266	185.518
499.001	1050.33
503.732	1088.09
508.461	856.756
513.187	1306.38
517.911	1308.89
522.631	1069.26
527.349	802.459
532.065	750.543
536.777	817.496
541.487	767.391
546.194	1189.22
550.898	1660.79
555.6	1785.05
560.299	1042.2
564.995	447.143
569.689	592.797
574.38	18.4727
579.068	371.584
583.754	180.418
588.437	203.184
593.117	162.666
597.794	237.715
602.469	344.264
607.141	76.25
611.81	304.986
616.477	163.408
621.141	561.441
625.802	641.727
630.461	867.863
635.117	1259.26
639.77	1782.09
644.421	2961.05
649.069	5450.09
653.714	9453.42
658.357	14498.5
662.997	19563.1
667.634	21060.1
672.269	14475.8
676.901	7974.36
681.53	4256.03
686.157	2511.22
690.781	1627.7
695.402	1353.93
700.021	1079.71
704.637	869.121
709.251	660.115
713.861	507.766
718.469	421.32
723.075	375.727
727.678	271.078
732.278	283.852
736.876	318.725
741.47	252.102
746.063	129.154
750.652	80.4277
755.239	34.2637
759.824	99.4141
764.406	219.961
768.985	173.746
773.561	285.932
778.135	102.633
782.706	42.7148
787.275	113.26
791.841	295.166
796.404	2.43164
800.965	212.494
805.523	137.902
810.079	168.75
814.632	25.9473
819.182	83.4258
823.73	127.439
828.275	23.0156
832.818	45.7578
837.358	25.2266
841.895	81.8125
846.43	16.5332
850.962	98.0117
855.491	38.3477
860.018	153.547
864.543	6.76172
869.064	261.012
873.583	371.076
878.1	312.963
882.614	232.918
887.125	2.31641
891.634	189.877
896.14	319.99
900.644	334.154
905.145	188.26
909.644	290.254
914.14	608.066
918.633	426.129
923.124	520.258
927.612	540.172
932.098	769.74
936.581	1184.48
941.061	1006.39
945.539	892.223
950.015	784.189
954.487	517.004
958.958	540.439
963.425	797.85
967.89	1261.92
972.353	1570.27
976.813	2062.52
981.271	3107.35
985.726	5372.04
990.178	10271.6
994.628	20324.6
999.075	31253.2
1003.52	32409.1
1007.96	24137.3
1012.4	14858.9
1016.84	9101.15
1021.27	6023.65
1025.71	3856.45
1030.13	2452.36
1034.56	1892.45
1038.99	1326.11
1043.41	1005.96
1047.83	1097
1052.24	855.609
1056.66	659.414
1061.07	541.773
1065.48	360.318
1069.89	425.176
1074.29	401.453
1078.69	395.486
1083.09	792.537
1087.49	525.133
1091.88	378.082
1096.28	343.293
1100.66	376.836
1105.05	432.83
1109.43	64.1816
1113.82	358.793
1118.2	587.531
1122.57	551.805
1126.95	177.494
1131.32	235.416
1135.69	200.119
1140.05	1.98438
1144.42	255.066
1148.78	103.264
1153.14	33.3789
1157.5	45.5156
1161.85	93.457
1166.2	45.3496
1170.55	0.578125
1174.9	79.5781
1179.24	105.215
1183.58	84.6953
1187.92	212.088
1192.26	280.305
1196.6	92.5
1200.93	160.773
1205.26	6.74023
1209.58	79.0684
1213.91	248.422
1218.23	424.631
1222.55	28.7949
1226.87	55.9609
1231.18	156.144
1235.49	233.359
1239.8	264.562
1244.11	334.627
1248.41	216.9
1252.72	1.02344
1257.02	11.3398
1261.32	395.768
1265.61	225.844
1269.9	202.818
1274.19	136.863
1278.48	325.684
1282.77	84.5703
1287.05	321.594
1291.33	48.1836
1295.61	216.09
1299.88	65.2227
1304.15	178.703
1308.42	133.188
1312.69	414.414
1316.96	375.781
1321.22	295.941
1325.48	687.941
1329.74	22.8242
1334	368.988
1338.25	475.16
1342.5	464.32
1346.75	351.621
1351	513.602
1355.24	235.75
1359.48	174.434
1363.72	383.617
1367.96	445.012
1372.19	333.238
1376.42	238.492
1380.65	380.336
1384.88	205.492
1389.11	186.594
1393.33	167.266
1397.55	360.801
1401.76	289.723
1405.98	241.691
1410.19	511.68
1414.4	107.621
1418.61	388.082
1422.82	267.316
1427.02	150.731
1431.22	402.973
1435.42	293.457
1439.61	305.766
1443.81	310.398
1448	447.508
1452.18	370.324
1456.37	123.844
1460.56	251.566
1464.74	495.449
1468.92	203.266
1473.09	357.137
1477.27	393.141
1481.44	3.61719
1485.61	114.863
1489.78	29.0547
1493.94	229.371
1498.1	263.109
1502.26	504.449
1506.42	289.082
1510.58	315.332
1514.73	150.441
1518.88	288.606
1523.03	222.363
1527.17	197.566
1531.32	166.375
1535.46	271.008
1539.6	264.242
1543.73	252.621
1547.87	54.168
1552	419.09
1556.13	333.594
1560.26	239.887
1564.38	73.7695
1568.5	143.906
