Measurement: Raman, 514 nm, ccw, Raman Data Processed
Mineral: Kanoite
Rruff sample: R061134
Ideal chemistry: Mn^2+^MgSi_2_O_6_
Locality: Balmat, St. Lawrence County, New York, USA
Source: Michael Scott
Description: Yellowish brown granular aggregate
Measured chemistry: (Mn^2+^_0.88_Ca_0.12_)_Σ=1_(Mg_0.98_Fe^3+^_0.02_)_Σ=1_(Si_0.98_Al_0.02_)_Σ=2_O_6_
Pin_id: M00188
Orientation: Laser parallel to b* (0 1 0). Fiducial mark perpendicular to laser is parallel to c [0 0 1]
Raman shift (cm-1)	intensity
97.862	0
102.825	746.356
107.785	1729.29
112.742	1851.51
117.697	1289.01
122.648	560.466
127.596	620.344
132.542	1054.91
137.485	660.572
142.425	406.81
147.362	279.456
152.296	275.445
157.228	28.439
162.156	104.68
167.082	32.7183
172.005	80.4561
176.925	81.4668
181.842	94.5923
186.757	536.755
191.668	494.188
196.577	369.626
201.483	301.332
206.386	294.308
211.286	566.805
216.183	677.882
221.078	542.385
225.969	419.367
230.858	323.175
235.744	334.506
240.628	238.123
245.508	303.336
250.386	254.118
255.26	77.2031
260.132	27.5176
265.001	49.1895
269.868	60.4302
274.731	5.84229
279.592	63.6289
284.45	103.346
289.305	137.061
294.157	424.912
299.007	496.885
303.854	682.106
308.698	1043.81
313.539	1594.62
318.377	2339.91
323.213	2715.88
328.046	2248.74
332.876	1578.05
337.703	1061.11
342.527	748.276
347.349	531.552
352.168	755.37
356.984	673.062
361.797	669.188
366.608	643.01
371.415	810.971
376.22	863.058
381.023	1158.26
385.822	1818.57
390.619	2172.98
395.413	1738.42
400.204	831.763
404.992	344.251
409.778	68.0249
414.561	32.4727
419.341	122.171
424.118	154.154
428.893	119.352
433.665	130.481
438.434	438.697
443.201	1172.75
447.964	2652.27
452.725	5384.48
457.483	7946.57
462.239	10727.2
466.991	4174.05
471.741	1245.21
476.489	483.451
481.233	166.755
485.975	128.23
490.714	106.86
495.45	49.5752
500.184	24.1309
504.915	109.151
509.643	53.5215
514.368	245.977
519.091	82.4404
523.811	122
528.528	125.612
533.243	89.2676
537.955	313.149
542.664	208.131
547.37	284.118
552.074	257.162
556.775	190.518
561.473	192.027
566.169	222.724
570.862	53.4365
575.552	136.629
580.24	100.809
584.925	41.6855
589.607	37.4844
594.286	0.524414
598.963	41.2754
603.637	48.6611
608.309	331.026
612.977	793.819
617.643	1506.33
622.307	1067.09
626.967	1000.28
631.625	1128.12
636.281	1101.78
640.933	1401.55
645.583	2677.74
650.231	3985.75
654.875	5453.59
659.517	7431.01
664.157	8955.85
668.793	8315.91
673.427	5229.51
678.059	2670.28
682.687	1555.24
687.313	834.968
691.937	637.999
696.557	454.924
701.175	453.596
705.791	215.836
710.403	133.852
715.014	382.945
719.621	150.554
724.226	113.106
728.828	244.216
733.428	142.036
738.025	28.877
742.619	187.243
747.21	147.111
751.799	66.7148
756.386	109.022
760.969	38.956
765.551	83.4932
770.129	45.5557
774.705	146.358
779.278	156.884
783.849	68.7519
788.417	100.024
792.982	118.673
797.545	60.206
802.105	47.6182
806.663	107.172
811.217	81.5859
815.77	119.921
820.319	26.1377
824.867	40.1621
829.411	54.9766
833.953	5.59766
838.492	18.9639
843.029	63.165
847.563	48.0928
852.094	66.8838
856.623	137.522
861.15	168.095
865.673	24.2256
870.194	213.838
874.713	176.8
879.229	112.297
883.742	395.729
888.253	314.365
892.761	304.492
897.267	418.681
901.77	268.856
906.27	332.785
910.768	196.57
915.263	283.741
919.756	410.502
924.246	508.878
928.734	518.516
933.219	533.379
937.701	423.875
942.181	374.35
946.658	229.793
951.133	129.384
955.605	354.408
960.075	149.861
964.542	518.926
969.006	714.81
973.468	1151.9
977.928	2693.97
982.385	11687.8
986.839	43320.4
991.291	27320.3
995.74	10043.5
1000.19	10846.9
1004.63	9272.02
1009.07	5893.77
1013.51	3636.76
1017.95	2202.97
1022.38	1330.41
1026.81	885.076
1031.24	738.971
1035.67	441.228
1040.09	289.579
1044.51	249.509
1048.93	61.5273
1053.35	143.768
1057.76	19.3291
1062.17	129.147
1066.58	59.4883
1070.99	144.469
1075.39	53.5947
1079.79	92.5166
1084.19	261.443
1088.59	154.831
1092.98	132.171
1097.37	144.061
1101.76	343.923
1106.15	236.93
1110.53	296.882
1114.91	136.269
1119.29	317.851
1123.67	381.392
1128.04	416.054
1132.41	689.329
1136.78	1953.3
1141.15	2796.35
1145.51	2302.2
1149.87	1320.82
1154.23	569.046
1158.59	330.357
1162.94	521.792
1167.29	775.329
1171.64	430.748
1175.98	84.3311
1180.33	131.067
1184.67	141.489
1189.01	199.586
1193.34	121.542
1197.68	28.6211
1202.01	46.1152
1206.34	7.8916
1210.66	126.214
1214.99	228.24
1219.31	50.8193
1223.63	62.2715
1227.94	13.8203
1232.26	102.502
1236.57	13.3486
1240.88	219.273
1245.19	20.2061
1249.49	175.235
1253.79	167.002
1258.09	50.667
1262.39	150.5
1266.68	228.901
1270.97	204.194
1275.26	3.35254
1279.55	101.387
1283.84	175.231
1288.12	227.331
1292.4	248.049
1296.67	173.533
1300.95	165.266
1305.22	372.56
1309.49	269.722
1313.76	233.79
1318.03	200.751
1322.29	183.525
1326.55	220.079
1330.81	84.7129
1335.06	123.456
1339.31	159.576
1343.56	362.961
1347.81	8.81055
1352.06	92.4072
1356.3	158.323
1360.54	163.56
1364.78	236.524
1369.02	95.5156
1373.25	50.6406
1377.48	57.6758
1381.71	201.856
1385.94	33.0625
1390.16	68.8369
1394.38	212.748
1398.6	187.618
1402.82	74.2578
1407.03	181.252
1411.24	122.419
1415.45	64.5791
1419.66	80.1191
1423.87	73.6348
1428.07	152.289
1432.27	276.554
1436.46	191.69
1440.66	135.279
1444.85	179.125
1449.04	210.708
1453.23	211.946
1457.42	92.1445
1461.6	285.902
1465.78	205.969
1469.96	108.633
1474.14	52.3047
1478.31	193.906
1482.48	165.769
1486.65	269.154
1490.82	9.65234
1494.98	232.201
1499.14	40.8398
1503.3	253.685
1507.46	280.902
1511.61	66.2637
1515.77	337.898
1519.92	175.631
1524.06	114.775
1528.21	330.356
1532.35	27.7461
1536.49	4.7793
1540.63	192.594
1544.77	188.406
1548.9	363.346
1553.03	181.402
1557.16	159.504
1561.29	112.856
1565.41	150.256
1569.53	0.642578
