Measurement: Raman, 514 nm, ccw, Raman Data Processed
Mineral: Kanoite
Rruff sample: R061134
Ideal chemistry: Mn^2+^MgSi_2_O_6_
Locality: Balmat, St. Lawrence County, New York, USA
Source: Michael Scott
Description: Yellowish brown granular aggregate
Measured chemistry: (Mn^2+^_0.88_Ca_0.12_)_Σ=1_(Mg_0.98_Fe^3+^_0.02_)_Σ=1_(Si_0.98_Al_0.02_)_Σ=2_O_6_
Pin_id: M00204
Orientation: Laser parallel to (-1 0 -1). Fiducial mark perpendicular to laser is parallel to -b [0 -1 0]
Raman shift (cm-1)	intensity
111.503	0
116.458	10.291
121.41	211.501
126.36	535.798
131.306	1572.24
136.25	2504.68
141.19	2538.53
146.128	1865.03
151.063	1378.6
155.995	314.729
160.925	35.8691
165.851	38.4121
170.775	125.228
175.695	352.195
180.613	18.0264
185.528	144.277
190.44	205.541
195.35	284.682
200.256	411.272
205.16	731.753
210.061	1428.17
214.959	2564.64
219.854	2763.68
224.747	2119.27
229.636	1851.41
234.523	1382.14
239.407	1004.3
244.288	818.828
249.166	676.668
254.042	695.766
258.915	432.304
263.784	256.128
268.651	314.727
273.516	257.026
278.377	548.165
283.236	631.648
288.092	728.076
292.945	1072.24
297.795	1787.2
302.642	2716.28
307.487	3950.23
312.329	6135.85
317.168	9980.7
322.004	13340.6
326.838	12631.5
331.668	9346.48
336.496	6360.3
341.321	4364.97
346.144	3767.28
350.963	3899.73
355.78	3989.72
360.594	3630.38
365.405	3475.07
370.214	3976.57
375.019	4175.06
379.822	3665.1
384.622	4590.68
389.42	6354.75
394.215	6131.31
399.006	3489.32
403.795	1960.8
408.582	1660.06
413.365	1776.1
418.146	1569.84
422.924	742.211
427.7	486.17
432.472	118.812
437.242	76.6816
442.009	117.911
446.774	171.768
451.535	71.0264
456.294	70.332
461.05	260.49
465.804	688.921
470.554	646.107
475.302	285.367
480.047	77.7168
484.79	79.9062
489.529	21.7402
494.266	509.891
499.001	964.324
503.732	1664.04
508.461	1950
513.187	2292.07
517.911	2613.32
522.631	2295.66
527.349	1901
532.065	1605.35
536.777	2010.69
541.487	2422.01
546.194	2391.51
550.898	3151.12
555.6	4072.74
560.299	2542.3
564.995	1290.48
569.689	738.168
574.38	562.301
579.068	259.174
583.754	206.853
588.437	99.2832
593.117	113.252
597.794	15.0176
602.469	36.1182
607.141	62.835
611.81	90.0908
616.477	344.028
621.141	95.251
625.802	421.419
630.461	700.276
635.117	1108
639.77	1788.39
644.421	2933.83
649.069	5424.84
653.714	9968.39
658.357	15234.2
662.997	20617.3
667.634	24202.6
672.269	17579.4
676.901	9800.98
681.53	5756.51
686.157	3886.47
690.781	2700.22
695.402	1945.82
700.021	1316.32
704.637	1099.15
709.251	932.68
713.861	805.161
718.469	780.753
723.075	642.779
727.678	577.965
732.278	456.824
736.876	276.826
741.47	203.622
746.063	88.8887
750.652	59.0498
755.239	256.822
759.824	90.9375
764.406	81.9629
768.985	3.78711
773.561	84.4053
778.135	0.177734
782.706	123.351
787.275	10.1133
791.841	44.71
796.404	54.6758
800.965	6.42871
805.523	74.9736
810.079	40.7031
814.632	143.433
819.182	173.578
823.73	1.43848
828.275	121.732
832.818	18.4902
837.358	42.7715
841.895	2.50586
846.43	17.9229
850.962	80.1162
855.491	283.116
860.018	200.946
864.543	208.649
869.064	79.4541
873.583	168.358
878.1	339.51
882.614	544.797
887.125	398.801
891.634	539.368
896.14	653.261
900.644	577.384
905.145	473.867
909.644	493.484
914.14	718.208
918.633	918.332
923.124	1152.62
927.612	1618.42
932.098	1853.19
936.581	1996.02
941.061	1841.33
945.539	1248.15
950.015	1148.44
954.487	904.928
958.958	962.875
963.425	1445.83
967.89	1707.23
972.353	2319.28
976.813	2959.7
981.271	4194.3
985.726	6953.85
990.178	13159.9
994.628	26137.2
999.075	42751.9
1003.52	47045.9
1007.96	36090.3
1012.4	23185.5
1016.84	15072.6
1021.27	9656.09
1025.71	6392.18
1030.13	4165.64
1034.56	2966.38
1038.99	2103.98
1043.41	1846.12
1047.83	1427.73
1052.24	1244.13
1056.66	1033.63
1061.07	766.99
1065.48	839.176
1069.89	819.735
1074.29	701.99
1078.69	714.301
1083.09	918.154
1087.49	883.044
1091.88	707.495
1096.28	644.286
1100.66	531.479
1105.05	381.659
1109.43	421.893
1113.82	596.841
1118.2	772.71
1122.57	707.331
1126.95	559.888
1131.32	250.343
1135.69	341.856
1140.05	58.5703
1144.42	24.2314
1148.78	116.011
1153.14	58.8135
1157.5	31.585
1161.85	108.394
1166.2	91.2812
1170.55	74.542
1174.9	10.8105
1179.24	19.917
1183.58	16.8008
1187.92	23.0977
1192.26	149.673
1196.6	43.1963
1200.93	37.3438
1205.26	90.6123
1209.58	12.4463
1213.91	53.1562
1218.23	123.39
1222.55	87.7295
1226.87	96.2246
1231.18	0.987305
1235.49	4.56836
1239.8	173.886
1244.11	96.0176
1248.41	45.9639
1252.72	110.666
1257.02	183.166
1261.32	161.461
1265.61	171.045
1269.9	116.008
1274.19	273.322
1278.48	189.881
1282.77	124.158
1287.05	231.025
1291.33	66.7227
1295.61	51.2754
1299.88	34.332
1304.15	134.719
1308.42	102.84
1312.69	291.027
1316.96	227.389
1321.22	279.156
1325.48	285.201
1329.74	129.332
1334	244.762
1338.25	328.508
1342.5	145.414
1346.75	316.787
1351	303.647
1355.24	247.769
1359.48	296.762
1363.72	288.178
1367.96	207.969
1372.19	205.691
1376.42	209.451
1380.65	172.016
1384.88	89.3887
1389.11	63.9316
1393.33	173.945
1397.55	62.3984
1401.76	178.076
1405.98	188.549
1410.19	232.033
1414.4	154.623
1418.61	111.107
1422.82	157.215
1427.02	309.703
1431.22	187.127
1435.42	206.074
1439.61	140.242
1443.81	185.228
1448	154.068
1452.18	264.269
1456.37	146.801
1460.56	115.713
1464.74	126.484
1468.92	168.525
1473.09	329.705
1477.27	32.0117
1481.44	25.5527
1485.61	167.197
1489.78	245.672
1493.94	362.33
1498.1	151.449
1502.26	27.9785
1506.42	169.035
1510.58	181.299
1514.73	77.8731
1518.88	215.494
1523.03	75.2773
1527.17	109.225
1531.32	122.779
1535.46	175.098
1539.6	169.295
1543.73	182.322
1547.87	188.752
1552	250.844
1556.13	411.818
1560.26	265.025
1564.38	9.76953
1568.5	191.752
