Measurement: Raman, 514 nm, ccw, Raman Data Processed
Mineral: Kanoite
Rruff sample: R061134
Ideal chemistry: Mn^2+^MgSi_2_O_6_
Locality: Balmat, St. Lawrence County, New York, USA
Source: Michael Scott
Description: Yellowish brown granular aggregate
Measured chemistry: (Mn^2+^_0.88_Ca_0.12_)_Σ=1_(Mg_0.98_Fe^3+^_0.02_)_Σ=1_(Si_0.98_Al_0.02_)_Σ=2_O_6_
Pin_id: M00204
Orientation: Laser parallel to (-1 0 -1). Fiducial mark perpendicular to laser is parallel to -b [0 -1 0]
Raman shift (cm-1)	intensity
111.503	0
116.458	152.929
121.41	520.741
126.36	1703.64
131.306	3764.89
136.25	5166.53
141.19	4857.78
146.128	3192.74
151.063	1950.8
155.995	535.799
160.925	159.893
165.851	140.469
170.775	9.80176
175.695	112.659
180.613	128.276
185.528	12.5859
190.44	222.905
195.35	360.634
200.256	669.124
205.16	1214.45
210.061	2017.7
214.959	3508.93
219.854	3277.57
224.747	2463.26
229.636	2190.74
234.523	1547.97
239.407	988.895
244.288	588.457
249.166	614.6
254.042	682.262
258.915	860.264
263.784	686.157
268.651	479.692
273.516	732.466
278.377	1065.5
283.236	1192.27
288.092	1370.69
292.945	1517.94
297.795	2402.17
302.642	3824.59
307.487	6049.49
312.329	10428.9
317.168	17534.1
322.004	23956.2
326.838	22441.2
331.668	16726.5
336.496	11897
341.321	8395.56
346.144	7207.02
350.963	7027.39
355.78	6414.63
360.594	6147.69
365.405	6049.54
370.214	7235.16
375.019	7621.53
379.822	7919.62
384.622	10424.4
389.42	14529.8
394.215	14226.9
399.006	7320.6
403.795	3119.91
408.582	1756.09
413.365	1192.12
418.146	788.604
422.924	748.428
427.7	524.622
432.472	289.464
437.242	58.9238
442.009	99.0478
446.774	136.743
451.535	100.652
456.294	19.3984
461.05	157.27
465.804	174.468
470.554	273.539
475.302	282.833
480.047	90.0322
484.79	86.5723
489.529	289.45
494.266	733.618
499.001	1453.16
503.732	1888.98
508.461	1457.08
513.187	1771.43
517.911	2362.14
522.631	2269
527.349	2096
532.065	2752.16
536.777	4222.45
541.487	4116.81
546.194	2969.19
550.898	2547.76
555.6	2508.28
560.299	1749.66
564.995	1002.89
569.689	648.961
574.38	510.84
579.068	402.457
583.754	275.425
588.437	34.5977
593.117	45.8184
597.794	120.215
602.469	61.3603
607.141	88.583
611.81	51.0498
616.477	166.798
621.141	195.677
625.802	414.46
630.461	639.481
635.117	1034.62
639.77	1774.47
644.421	2911.96
649.069	5779.8
653.714	10275.9
658.357	14897.2
662.997	18886.9
667.634	20990.7
672.269	14683.9
676.901	8444.86
681.53	5556.24
686.157	3989.73
690.781	2979.19
695.402	2458.53
700.021	1552.61
704.637	1384.52
709.251	1295.07
713.861	1001.53
718.469	1066.29
723.075	1050.42
727.678	1020.46
732.278	780.4
736.876	408.767
741.47	195.073
746.063	312.51
750.652	212.674
755.239	48.7266
759.824	20.5527
764.406	128.398
768.985	142.806
773.561	74.6602
778.135	53.918
782.706	70.7822
787.275	76.8496
791.841	59.0938
796.404	79.4062
800.965	14.1035
805.523	160.796
810.079	37.5078
814.632	4.22168
819.182	7.36231
823.73	36.0361
828.275	56.7148
832.818	43.8603
837.358	24.2363
841.895	139.068
846.43	147.6
850.962	64.8916
855.491	180.038
860.018	240.06
864.543	279.006
869.064	380.112
873.583	449.568
878.1	614.367
882.614	532.643
887.125	822.245
891.634	814.532
896.14	725.104
900.644	734.193
905.145	498.122
909.644	878.845
914.14	1041.69
918.633	1433.26
923.124	2296.17
927.612	2790.52
932.098	2478.91
936.581	2304.94
941.061	2032.18
945.539	1562.75
950.015	1111.49
954.487	1003.64
958.958	1080
963.425	1311.35
967.89	1767.23
972.353	2288.41
976.813	2750.99
981.271	4157.67
985.726	6951.18
990.178	13268.1
994.628	26112.5
999.075	43043.4
1003.52	47824.8
1007.96	38908.7
1012.4	25903
1016.84	17042.6
1021.27	10730
1025.71	7146.35
1030.13	4747.15
1034.56	3211.03
1038.99	2512.95
1043.41	2192.03
1047.83	1799.8
1052.24	1441.77
1056.66	1174.98
1061.07	1052.39
1065.48	1026.6
1069.89	648.24
1074.29	730.898
1078.69	833.643
1083.09	1278.94
1087.49	1004.91
1091.88	830.91
1096.28	554.426
1100.66	599.363
1105.05	310.584
1109.43	502.457
1113.82	591.352
1118.2	732.375
1122.57	826.539
1126.95	605.836
1131.32	288.547
1135.69	264.055
1140.05	225.133
1144.42	58.3066
1148.78	89.0039
1153.14	50.2832
1157.5	1.64453
1161.85	1.07031
1166.2	99.4648
1170.55	79.2148
1174.9	28.9316
1179.24	310.141
1183.58	37.7871
1187.92	54.9023
1192.26	92.5352
1196.6	103.26
1200.93	17.5645
1205.26	64.3008
1209.58	98.7617
1213.91	36.0254
1218.23	4.76562
1222.55	112.277
1226.87	58.5488
1231.18	23.5371
1235.49	62.9902
1239.8	96.1465
1244.11	228.07
1248.41	233.762
1252.72	253.225
1257.02	6.54102
1261.32	318.303
1265.61	159.891
1269.9	358.225
1274.19	264.109
1278.48	229.92
1282.77	346.535
1287.05	80.6172
1291.33	195.394
1295.61	290.084
1299.88	129.836
1304.15	153.772
1308.42	35.3262
1312.69	156.957
1316.96	274.736
1321.22	198.289
1325.48	172.551
1329.74	277.379
1334	223.816
1338.25	172.894
1342.5	304.865
1346.75	299.32
1351	254.613
1355.24	148.754
1359.48	103.695
1363.72	142.342
1367.96	225.736
1372.19	209.025
1376.42	221.289
1380.65	85.3789
1384.88	251.287
1389.11	310.398
1393.33	199.512
1397.55	172.676
1401.76	244.248
1405.98	174.289
1410.19	132.717
1414.4	227.644
1418.61	25.8906
1422.82	184.328
1427.02	250.848
1431.22	112.215
1435.42	82.1269
1439.61	298.213
1443.81	34.8027
1448	87.1348
1452.18	121.461
1456.37	274.559
1460.56	189.244
1464.74	376.383
1468.92	179.9
1473.09	251.607
1477.27	56.3633
1481.44	68.3457
1485.61	123.559
1489.78	183.272
1493.94	99.1406
1498.1	202.424
1502.26	126.004
1506.42	114.07
1510.58	217.359
1514.73	113.158
1518.88	12.7344
1523.03	67.5332
1527.17	105.291
1531.32	28.1855
1535.46	97.4121
1539.6	186.717
1543.73	67.5977
1547.87	85.4297
1552	323.606
1556.13	205.201
1560.26	276.281
1564.38	8.27539
1568.5	94.8086
