Measurement: Raman, 514 nm, ccw, Raman Data Processed
Mineral: Kanoite
Rruff sample: R061134
Ideal chemistry: Mn^2+^MgSi_2_O_6_
Locality: Balmat, St. Lawrence County, New York, USA
Source: Michael Scott
Description: Yellowish brown granular aggregate
Measured chemistry: (Mn^2+^_0.88_Ca_0.12_)_Σ=1_(Mg_0.98_Fe^3+^_0.02_)_Σ=1_(Si_0.98_Al_0.02_)_Σ=2_O_6_
Pin_id: M00204
Orientation: Laser parallel to (-1 0 -1). Fiducial mark perpendicular to laser is parallel to -b [0 -1 0]
Raman shift (cm-1)	intensity
111.503	0
116.458	115.685
121.41	275.253
126.36	627.043
131.306	1462.23
136.25	2114.35
141.19	1930.33
146.128	1547.52
151.063	1082.26
155.995	442.143
160.925	121.033
165.851	437.125
170.775	352.588
175.695	641.805
180.613	279.185
185.528	390.131
190.44	836.406
195.35	454.787
200.256	651.106
205.16	792.865
210.061	1448.02
214.959	2155.07
219.854	1903.76
224.747	1767.6
229.636	1778.08
234.523	1442.17
239.407	996.141
244.288	888.596
249.166	950.422
254.042	627.586
258.915	688.299
263.784	345.596
268.651	274.674
273.516	315.935
278.377	483.074
283.236	560.375
288.092	834.363
292.945	923.717
297.795	1321.67
302.642	2327.71
307.487	3205.45
312.329	5131.68
317.168	8148.58
322.004	9998.01
326.838	8686.88
331.668	6264.95
336.496	3920.36
341.321	3123.85
346.144	2452.65
350.963	2639.74
355.78	2722.21
360.594	2182.58
365.405	2202.79
370.214	2684.83
375.019	2487.64
379.822	2493.16
384.622	3078.37
389.42	4029.23
394.215	3514.71
399.006	1892.78
403.795	1328.45
408.582	1255.15
413.365	1384.89
418.146	1144.53
422.924	478.006
427.7	138.236
432.472	119.168
437.242	47.7031
442.009	112.877
446.774	163.9
451.535	44.043
456.294	97.0273
461.05	256.174
465.804	235.275
470.554	343.033
475.302	157.1
480.047	51.3125
484.79	25.3125
489.529	23.0938
494.266	351.85
499.001	767.994
503.732	1264.47
508.461	1601.06
513.187	1630.76
517.911	1917.59
522.631	1547.51
527.349	1104.48
532.065	1003.51
536.777	1497.61
541.487	1665.83
546.194	1550.07
550.898	2484.41
555.6	2551.73
560.299	1538.88
564.995	807.877
569.689	413.736
574.38	219.4
579.068	176.234
583.754	80.8398
588.437	19.1133
593.117	105.33
597.794	52.3125
602.469	17.7461
607.141	53.9785
611.81	87.3223
616.477	8.75391
621.141	443.012
625.802	433.531
630.461	618.41
635.117	1064.29
639.77	1581.97
644.421	2786.81
649.069	5221.59
653.714	8734.34
658.357	13177.2
662.997	17967.9
667.634	19235.7
672.269	13002.5
676.901	7156.53
681.53	3777.88
686.157	2633.09
690.781	1761.7
695.402	1334.18
700.021	999.836
704.637	683.422
709.251	569.004
713.861	749.637
718.469	685.613
723.075	573.049
727.678	537.85
732.278	543.045
736.876	168.785
741.47	288.377
746.063	93.209
750.652	76.5488
755.239	41.0156
759.824	164.164
764.406	38.8691
768.985	126.127
773.561	38.666
778.135	99.1484
782.706	158.785
787.275	73.8574
791.841	143.281
796.404	147.055
800.965	125.207
805.523	38.2598
810.079	32.6348
814.632	106.748
819.182	247.143
823.73	67.1973
828.275	78.6484
832.818	102.912
837.358	61.2207
841.895	97.1367
846.43	139.006
850.962	168.393
855.491	183.361
860.018	287.426
864.543	36.1484
869.064	148.902
873.583	114.861
878.1	343.609
882.614	347.139
887.125	321.82
891.634	387.295
896.14	559.002
900.644	439.647
905.145	392.488
909.644	409.713
914.14	386.949
918.633	592.01
923.124	807.504
927.612	1252.79
932.098	1325.86
936.581	1500.51
941.061	1349.04
945.539	872.932
950.015	762.736
954.487	587.211
958.958	684.891
963.425	1156.47
967.89	1243.67
972.353	1553.76
976.813	2228.33
981.271	3648.82
985.726	6232.55
990.178	11626.7
994.628	22493.2
999.075	34081.2
1003.52	35198.7
1007.96	26122
1012.4	16761.1
1016.84	10533.6
1021.27	6829.61
1025.71	4347.55
1030.13	3208.12
1034.56	2146.27
1038.99	1586.12
1043.41	1276.22
1047.83	1039.68
1052.24	894.818
1056.66	583.232
1061.07	609.027
1065.48	437.092
1069.89	398.949
1074.29	624.344
1078.69	545.348
1083.09	615.857
1087.49	563.623
1091.88	608.285
1096.28	373.803
1100.66	347.699
1105.05	426.736
1109.43	441.053
1113.82	308.977
1118.2	858.504
1122.57	850.449
1126.95	392.332
1131.32	419.178
1135.69	338.443
1140.05	135.801
1144.42	297.244
1148.78	208.932
1153.14	17.0996
1157.5	205.049
1161.85	72.9062
1166.2	274.764
1170.55	210.139
1174.9	24.0137
1179.24	83.6035
1183.58	139.15
1187.92	132.658
1192.26	162.113
1196.6	174.514
1200.93	70.8164
1205.26	133.826
1209.58	250.656
1213.91	349.4
1218.23	422.045
1222.55	19.5684
1226.87	304.43
1231.18	27.2637
1235.49	223.848
1239.8	292.268
1244.11	38.6133
1248.41	175.133
1252.72	133.731
1257.02	327.994
1261.32	216.516
1265.61	306.807
1269.9	223.236
1274.19	210.32
1278.48	294.627
1282.77	266.477
1287.05	235.234
1291.33	118.428
1295.61	19.7891
1299.88	139.865
1304.15	74.4824
1308.42	160.15
1312.69	192.891
1316.96	270.522
1321.22	320.994
1325.48	252.375
1329.74	368.16
1334	245.125
1338.25	359.184
1342.5	520.1
1346.75	326.59
1351	346.994
1355.24	223.762
1359.48	180.127
1363.72	338.338
1367.96	55.8281
1372.19	253.205
1376.42	219.647
1380.65	252.164
1384.88	265.705
1389.11	19.498
1393.33	439.469
1397.55	485.125
1401.76	176.662
1405.98	89.5273
1410.19	136.894
1414.4	254.328
1418.61	320.609
1422.82	243.803
1427.02	425.225
1431.22	402.732
1435.42	184.738
1439.61	376.812
1443.81	42.2598
1448	186.58
1452.18	325.459
1456.37	125.523
1460.56	162.565
1464.74	255.018
1468.92	189.68
1473.09	233.652
1477.27	215.969
1481.44	94.3398
1485.61	223.578
1489.78	450.684
1493.94	282.152
1498.1	116.891
1502.26	154.938
1506.42	260.246
1510.58	124.871
1514.73	189.836
1518.88	155.422
1523.03	126.875
1527.17	97.1758
1531.32	265.656
1535.46	200.539
1539.6	222.488
1543.73	222.414
1547.87	98.5
1552	319.457
1556.13	411.566
1560.26	104.406
1564.38	102.863
1568.5	197.66
