Measurement: Raman, 514 nm, ccw, Raman Data Processed
Mineral: Kanoite
Rruff sample: R061134
Ideal chemistry: Mn^2+^MgSi_2_O_6_
Locality: Balmat, St. Lawrence County, New York, USA
Source: Michael Scott
Description: Yellowish brown granular aggregate
Measured chemistry: (Mn^2+^_0.88_Ca_0.12_)_Σ=1_(Mg_0.98_Fe^3+^_0.02_)_Σ=1_(Si_0.98_Al_0.02_)_Σ=2_O_6_
Pin_id: M00160
Orientation: Laser parallel to c* (0 0 1). Fiducial mark perpendicular to laser is parallel to a [1 0 0]
Raman shift (cm-1)	intensity
109.025	0
113.981	100.435
118.935	105.736
123.885	463.135
128.833	853.805
133.778	1325.19
138.72	1638.05
143.66	1362.23
148.596	892.727
153.53	436.555
158.46	185.594
163.388	59.2891
168.313	80.9199
173.235	251.894
178.155	298.779
183.071	270.143
187.985	418.494
192.896	840.231
197.803	1105.19
202.709	1514.28
207.611	1708.33
212.51	2244.65
217.407	2899.6
222.301	2126.18
227.192	1676.35
232.08	1209.17
236.965	796.562
241.848	651.387
246.728	604.59
251.604	659.113
256.479	415.785
261.35	427.602
266.218	328.117
271.084	65.4922
275.947	81.8457
280.807	505.18
285.664	529.117
290.518	478.09
295.37	811.666
300.219	1120.11
305.065	1815.24
309.908	2684.02
314.749	4407.36
319.586	6554.93
324.421	7566.67
329.253	6143.47
334.083	4365.23
338.909	2897.73
343.733	2169.15
348.554	2497.38
353.372	2686.3
358.187	2930.99
363	2514.35
367.81	2148.37
372.617	2957.01
377.421	2617.26
382.223	2312.07
387.022	3059.44
391.818	3862.33
396.611	2830.73
401.401	1271.64
406.189	757.408
410.974	447.004
415.756	423.35
420.536	16.9121
425.312	29.7324
430.086	100.039
434.858	151.539
439.626	117.033
444.392	136.002
449.155	34.6875
453.915	312.381
458.672	1317.06
463.427	3215.1
468.179	2567.45
472.928	1042.91
477.675	449.881
482.419	240.188
487.16	202.791
491.898	36.3613
496.634	344.516
501.367	688.656
506.097	788.072
510.825	1012.71
515.549	1195.59
520.271	1545.74
524.991	1380.14
529.707	949.865
534.421	1215.63
539.132	1736.49
543.841	1618.47
548.547	1620.41
553.25	2386.36
557.95	1946.31
562.648	1141.63
567.343	426.353
572.035	276.908
576.724	433.478
581.411	27.5137
586.095	189.738
590.777	33.5254
595.456	15.0234
600.132	275.492
604.805	184.807
609.476	94.0508
614.144	180.94
618.809	380.312
623.472	288.568
628.132	322.297
632.789	563.32
637.444	895.984
642.096	1531.21
646.745	2371.65
651.392	4365.21
656.036	7053.78
660.677	9741.05
665.316	12432.2
669.952	11537.5
674.585	6861.33
679.216	4075.44
683.844	1973.77
688.469	1224.21
693.092	923.09
697.712	872.762
702.329	502.078
706.944	458.678
711.556	444.662
716.166	271.451
720.773	630.365
725.377	606.924
729.978	552.682
734.577	321.848
739.173	416.357
743.767	94.9453
748.358	256.514
752.946	138.682
757.532	38.6016
762.115	141.844
766.695	262.459
771.273	54.6055
775.848	329.35
780.421	34.3262
784.991	11.6602
789.558	84.3691
794.123	29.6387
798.685	39.5391
803.245	159.9
807.802	281.463
812.356	96.3281
816.907	43.248
821.456	159.328
826.003	3.10938
830.547	226.367
835.088	58.2246
839.627	128.801
844.163	127.174
848.696	128.359
853.227	463.262
857.755	41.9199
862.281	311.994
866.804	78.3965
871.324	23.2324
875.842	189.336
880.357	368.285
884.87	408.502
889.38	466.623
893.888	403.51
898.393	352.44
902.895	216.973
907.395	256.828
911.892	686.738
916.387	482.488
920.879	578.729
925.368	982.621
929.855	1141.42
934.339	930.924
938.821	978.984
943.301	958.801
947.777	580.664
952.251	458.873
956.723	530.168
961.192	752.727
965.658	597.578
970.122	1093.25
974.583	1457.17
979.042	1857.55
983.498	2738.17
987.952	4991.9
992.403	9432.65
996.852	18158.2
1001.3	24694.9
1005.74	22234
1010.18	15147.8
1014.62	9914.94
1019.06	6236.46
1023.49	4047.35
1027.92	2916.66
1032.35	1914.73
1036.78	1212.15
1041.2	1052.05
1045.62	1049.2
1050.04	575.848
1054.45	552.324
1058.87	517.32
1063.28	470.152
1067.68	637.66
1072.09	464.078
1076.49	483.441
1080.89	446.348
1085.29	411.566
1089.69	368.453
1094.08	622.934
1098.47	144.797
1102.86	83.5
1107.24	290.809
1111.63	219.375
1116.01	455.848
1120.38	836.273
1124.76	656.766
1129.13	279.57
1133.5	277.223
1137.87	120.258
1142.24	225.742
1146.6	237.769
1150.96	203.469
1155.32	61.6992
1159.67	28.6523
1164.03	176.758
1168.38	125.836
1172.72	234.258
1177.07	102.176
1181.41	113.106
1185.75	34.9844
1190.09	140.25
1194.43	308.141
1198.76	85.2266
1203.09	72.1523
1207.42	285.887
1211.75	57.4219
1216.07	301.844
1220.39	172.086
1224.71	251.066
1229.02	261.848
1233.34	40.4805
1237.65	243.945
1241.96	130.289
1246.26	273.481
1250.57	53.457
1254.87	66.2227
1259.17	204.746
1263.46	440.004
1267.76	30.543
1272.05	312.367
1276.34	73.2461
1280.62	17.9062
1284.91	0.675781
1289.19	353.445
1293.47	168.109
1297.74	339.336
1302.02	120.367
1306.29	205.484
1310.56	346.891
1314.83	293.312
1319.09	173.734
1323.35	312.348
1327.61	334.129
1331.87	490.363
1336.12	540.102
1340.38	215.664
1344.63	426.668
1348.87	307.152
1353.12	298.125
1357.36	393.133
1361.6	472.246
1365.84	341.625
1370.08	106.488
1374.31	434.699
1378.54	187.375
1382.77	51.9883
1386.99	288.719
1391.22	361.164
1395.44	297.555
1399.66	484.148
1403.87	511.207
1408.09	385.168
1412.3	145.293
1416.51	314.207
1420.71	286.168
1424.92	128.801
1429.12	149.707
1433.32	421.086
1437.51	378.098
1441.71	377.344
1445.9	235.977
1450.09	514.856
1454.28	137.481
1458.46	548.234
1462.65	77.1445
1466.83	569.246
1471	261.297
1475.18	249.445
1479.35	368.906
1483.52	142.734
1487.69	0.945313
1491.86	96.0586
1496.02	137.356
1500.18	231.531
1504.34	316.512
1508.5	344.941
1512.65	398.828
1516.8	381.707
1520.95	203.312
1525.1	204.547
1529.24	353.269
1533.39	355.613
1537.53	391.891
1541.66	392.656
1545.8	305.66
1549.93	395.391
1554.06	553.172
1558.19	457.418
1562.32	558.906
1566.44	481.203
1570.56	0
