Measurement: Raman, 514 nm, ccw, Raman Data Processed
Mineral: Kanoite
Rruff sample: R061134
Ideal chemistry: Mn^2+^MgSi_2_O_6_
Locality: Balmat, St. Lawrence County, New York, USA
Source: Michael Scott
Description: Yellowish brown granular aggregate
Measured chemistry: (Mn^2+^_0.88_Ca_0.12_)_Σ=1_(Mg_0.98_Fe^3+^_0.02_)_Σ=1_(Si_0.98_Al_0.02_)_Σ=2_O_6_
Pin_id: L00480
Orientation: Laser parallel to -c* (0 0 -1). Fiducial mark perpendicular to laser is parallel to a [1 0 0]
Raman shift (cm-1)	intensity
111.503	0
116.458	193.584
121.41	178.179
126.36	730.488
131.306	1680.07
136.25	2412.55
141.19	2419.62
146.128	1693.51
151.063	947.739
155.995	348.552
160.925	10.1331
165.851	1.00769
170.775	63.9516
175.695	145.97
180.613	117.338
185.528	130.406
190.44	197.411
195.35	283.741
200.256	283.663
205.16	691.997
210.061	1170.13
214.959	2116.07
219.854	2250.27
224.747	1873.34
229.636	1877.24
234.523	1401.12
239.407	868.743
244.288	800.058
249.166	587.991
254.042	484.473
258.915	471.722
263.784	403.429
268.651	41.9515
273.516	83.8043
278.377	579.253
283.236	425.58
288.092	630.37
292.945	986.056
297.795	1736.46
302.642	2607.85
307.487	3777.88
312.329	6325.72
317.168	10454.2
322.004	14016.3
326.838	13044.3
331.668	9225.48
336.496	6176.94
341.321	4133.06
346.144	3491.14
350.963	3249.18
355.78	3229.13
360.594	2998.88
365.405	2775.41
370.214	3293.69
375.019	3512.66
379.822	3231.29
384.622	4242.56
389.42	5938.41
394.215	5790.82
399.006	2912.78
403.795	1423.28
408.582	1139.74
413.365	882.386
418.146	867.352
422.924	512.357
427.7	290.056
432.472	21.3484
437.242	55.4556
442.009	42.6916
446.774	38.3127
451.535	54.3732
456.294	3.79793
461.05	23.0186
465.804	177.807
470.554	76.8993
475.302	8.70719
480.047	115.279
484.79	19.8619
489.529	116.558
494.266	202.54
499.001	881.787
503.732	1246.53
508.461	1267.59
513.187	1441.93
517.911	1597.53
522.631	1436.29
527.349	1208.02
532.065	1482.85
536.777	1939.64
541.487	2145.52
546.194	1787.56
550.898	1930.6
555.6	2500.57
560.299	1494.47
564.995	605.366
569.689	509.152
574.38	470.717
579.068	327.094
583.754	252.101
588.437	13.1774
593.117	2.5957
597.794	1.4258
602.469	57.8141
607.141	107.225
611.81	77.8222
616.477	83.5828
621.141	317.44
625.802	485.038
630.461	523.431
635.117	1066.11
639.77	1752.19
644.421	3238.24
649.069	5635.52
653.714	10290.5
658.357	15916.7
662.997	21308
667.634	24194.8
672.269	16970.5
676.901	9122.22
681.53	5209.19
686.157	3161.87
690.781	2202.8
695.402	1503.4
700.021	1263.82
704.637	1104.12
709.251	694.805
713.861	663.89
718.469	743.296
723.075	536.607
727.678	493.438
732.278	333.432
736.876	327.136
741.47	367.977
746.063	169.258
750.652	198.852
755.239	146.543
759.824	99.3447
764.406	25.567
768.985	82.9615
773.561	17.4215
778.135	53.4148
782.706	21.46
787.275	37.08
791.841	62.1558
796.404	37.8052
800.965	91.6489
805.523	132.02
810.079	40.7114
814.632	11.4504
819.182	11.3465
823.73	16.0623
828.275	43.2498
832.818	37.012
837.358	23.5747
841.895	23.8411
846.43	19.4903
850.962	68.131
855.491	29.0563
860.018	26.8148
864.543	87.6046
869.064	129.528
873.583	202.878
878.1	238.238
882.614	336.807
887.125	304.849
891.634	280.769
896.14	303.015
900.644	312.145
905.145	315.186
909.644	476.207
914.14	555.23
918.633	717.596
923.124	1096.9
927.612	1334.58
932.098	1313.37
936.581	1560.79
941.061	1570.53
945.539	1168.14
950.015	687.53
954.487	633.692
958.958	612.577
963.425	1058.57
967.89	1442.53
972.353	1841.66
976.813	2568.58
981.271	3683.99
985.726	6578.96
990.178	12441
994.628	24854.8
999.075	40070.8
1003.52	43159.7
1007.96	32983
1012.4	21049.8
1016.84	13076.6
1021.27	8264.08
1025.71	5343.66
1030.13	3628.98
1034.56	2354.75
1038.99	1889.38
1043.41	1450.36
1047.83	1158.18
1052.24	1099.79
1056.66	750.417
1061.07	551.244
1065.48	529.686
1069.89	362.263
1074.29	475.93
1078.69	672.221
1083.09	805.952
1087.49	639.447
1091.88	522.269
1096.28	419.826
1100.66	187.752
1105.05	209.167
1109.43	193.646
1113.82	431.303
1118.2	593.483
1122.57	636.907
1126.95	532.544
1131.32	207.009
1135.69	60.9768
1140.05	63.9776
1144.42	27.1096
1148.78	57.9696
1153.14	49.357
1157.5	159.48
1161.85	25.0505
1166.2	19.5831
1170.55	9.28119
1174.9	204.607
1179.24	87.4856
1183.58	18.7757
1187.92	43.905
1192.26	5.85555
1196.6	159.292
1200.93	30.4441
1205.26	145.989
1209.58	62.6185
1213.91	174.893
1218.23	126.006
1222.55	192.956
1226.87	100.626
1231.18	16.9178
1235.49	62.9993
1239.8	160.714
1244.11	154.529
1248.41	157.643
1252.72	261.516
1257.02	352.292
1261.32	158.666
1265.61	356.669
1269.9	273.556
1274.19	387.168
1278.48	67.0249
1282.77	168.809
1287.05	180.852
1291.33	198.388
1295.61	108.015
1299.88	180.524
1304.15	131.264
1308.42	145.728
1312.69	286.168
1316.96	26.9464
1321.22	155.709
1325.48	110.786
1329.74	116.686
1334	227.572
1338.25	251.372
1342.5	255.414
1346.75	390.11
1351	203.418
1355.24	72.4095
1359.48	9.7356
1363.72	274.299
1367.96	183.613
1372.19	84.0474
1376.42	115.261
1380.65	207.41
1384.88	123.569
1389.11	120.999
1393.33	131.075
1397.55	51.7823
1401.76	133.525
1405.98	36.2186
1410.19	79.7558
1414.4	267.187
1418.61	228.758
1422.82	200.391
1427.02	160.15
1431.22	169.556
1435.42	10.3706
1439.61	133.022
1443.81	5.80697
1448	31.7935
1452.18	271.996
1456.37	229.762
1460.56	47.7891
1464.74	95.94
1468.92	138.798
1473.09	22.3163
1477.27	8.83172
1481.44	142.514
1485.61	87.246
1489.78	64.6191
1493.94	208.031
1498.1	364.768
1502.26	71.1468
1506.42	228.265
1510.58	98.1657
1514.73	139.39
1518.88	225.777
1523.03	197.485
1527.17	124.12
1531.32	127.573
1535.46	217.539
1539.6	79.198
1543.73	170.693
1547.87	188.753
1552	36.5146
1556.13	238.995
1560.26	90.737
1564.38	202.712
1568.5	147.133
