Measurement: Raman, 514 nm, ccw, Raman Data Processed
Mineral: Kanoite
Rruff sample: R061134
Ideal chemistry: Mn^2+^MgSi_2_O_6_
Locality: Balmat, St. Lawrence County, New York, USA
Source: Michael Scott
Description: Yellowish brown granular aggregate
Measured chemistry: (Mn^2+^_0.88_Ca_0.12_)_Σ=1_(Mg_0.98_Fe^3+^_0.02_)_Σ=1_(Si_0.98_Al_0.02_)_Σ=2_O_6_
Pin_id: M00160
Orientation: Laser parallel to c* (0 0 1). Fiducial mark perpendicular to laser is parallel to a [1 0 0]
Raman shift (cm-1)	intensity
109.025	0
113.981	363.519
118.935	148.136
123.885	365.479
128.833	960.47
133.778	942.209
138.72	1144.91
143.66	843.047
148.596	681.868
153.53	405.764
158.46	108.079
163.388	172.001
168.313	409.415
173.235	430.762
178.155	436.731
183.071	704.048
187.985	1370.17
192.896	2485.95
197.803	2890.94
202.709	2545.55
207.611	2432
212.51	2527.27
217.407	2793.52
222.301	2148.82
227.192	1821.14
232.08	1486.48
236.965	1072.81
241.848	960.078
246.728	1079.27
251.604	1086.35
256.479	613.5
261.35	497.31
266.218	131.656
271.084	95.1074
275.947	218.453
280.807	426.246
285.664	461.203
290.518	617.244
295.37	1012.91
300.219	1672.03
305.065	2280.87
309.908	2591.03
314.749	4267.39
319.586	6087.59
324.421	6722.55
329.253	5240.17
334.083	3342.47
338.909	2116.39
343.733	1951.88
348.554	1907.93
353.372	2439.49
358.187	2365.52
363	2153.03
367.81	2175.98
372.617	2470.37
377.421	1814.18
382.223	1708.38
387.022	2226.98
391.818	2416.08
396.611	1708.24
401.401	924.898
406.189	260.103
410.974	322.859
415.756	428.113
420.536	76.8262
425.312	158.031
430.086	60.2305
434.858	70.5879
439.626	151.768
444.392	67.6953
449.155	89.0352
453.915	496.682
458.672	1416.29
463.427	3816.7
468.179	2834.72
472.928	1078.4
477.675	485.914
482.419	399.32
487.16	76.1445
491.898	194.201
496.634	370.566
501.367	554.084
506.097	362.742
510.825	752.537
515.549	1129.73
520.271	1336.02
524.991	950.346
529.707	838.646
534.421	818.908
539.132	987.119
543.841	1240.28
548.547	1352.49
553.25	1696.66
557.95	1581.79
562.648	730.832
567.343	578.562
572.035	290.426
576.724	212.647
581.411	126.906
586.095	19.5234
590.777	70.6191
595.456	182.467
600.132	50.123
604.805	166.935
609.476	251.434
614.144	14.8613
618.809	328.66
623.472	303.289
628.132	784.436
632.789	687.572
637.444	1229.34
642.096	2006.06
646.745	3370.36
651.392	6378.73
656.036	10308.8
660.677	14425.7
665.316	18327
669.952	17453.7
674.585	11231.2
679.216	5793.56
683.844	3031.91
688.469	1905.85
693.092	1263.93
697.712	1006.62
702.329	663.91
706.944	560.66
711.556	253.902
716.166	466.248
720.773	576.92
725.377	451.695
729.978	618.945
734.577	368.613
739.173	41.3633
743.767	45.6055
748.358	177.572
752.946	85.0762
757.532	1.71289
762.115	68.8848
766.695	179.707
771.273	15.7871
775.848	290.977
780.421	11.0977
784.991	34.6621
789.558	174.478
794.123	143.232
798.685	90.4902
803.245	165.32
807.802	138.795
812.356	159.916
816.907	182.693
821.456	4.92773
826.003	184.9
830.547	50.7207
835.088	156.195
839.627	273.781
844.163	101.055
848.696	57.1387
853.227	8.26758
857.755	133.408
862.281	212.418
866.804	78.6231
871.324	176.387
875.842	331.658
880.357	317.713
884.87	315.07
889.38	407.955
893.888	350.523
898.393	415.066
902.895	460.211
907.395	322.94
911.892	530.039
916.387	611.689
920.879	776.965
925.368	1137.05
929.855	1182.18
934.339	1082.12
938.821	1317.86
943.301	956.777
947.777	828.521
952.251	630.184
956.723	542.641
961.192	804.062
965.658	903.854
970.122	1198.33
974.583	1423.77
979.042	2202.54
983.498	3422.84
987.952	6209.39
992.403	12723.5
996.852	23114.1
1001.3	29604.7
1005.74	24467.8
1010.18	15922.2
1014.62	9907.05
1019.06	6195.81
1023.49	4198.04
1027.92	2911.6
1032.35	2118.31
1036.78	1400.84
1041.2	2223.82
1045.62	1814.87
1050.04	1403.23
1054.45	1009.45
1058.87	657.668
1063.28	570.887
1067.68	544.379
1072.09	460.877
1076.49	165.856
1080.89	347.863
1085.29	372.137
1089.69	303.559
1094.08	308.502
1098.47	179.035
1102.86	404.795
1107.24	233.648
1111.63	386.318
1116.01	502.312
1120.38	596.4
1124.76	439.062
1129.13	105.49
1133.5	209.801
1137.87	87.0664
1142.24	209.275
1146.6	36.0879
1150.96	6.30273
1155.32	51.5723
1159.67	245.205
1164.03	170.053
1168.38	184.822
1172.72	59.4668
1177.07	101.678
1181.41	57.293
1185.75	22.916
1190.09	59.6191
1194.43	122.988
1198.76	37.6035
1203.09	71.9356
1207.42	92.1445
1211.75	225.898
1216.07	76.8203
1220.39	22.9961
1224.71	48.8945
1229.02	230.512
1233.34	190.078
1237.65	350.613
1241.96	247.492
1246.26	190.486
1250.57	110.519
1254.87	43.293
1259.17	9.37109
1263.46	150.773
1267.76	178.723
1272.05	99.3906
1276.34	187.332
1280.62	92.8359
1284.91	244.816
1289.19	275.984
1293.47	258.109
1297.74	272.375
1302.02	398.129
1306.29	304.5
1310.56	193.703
1314.83	426.844
1319.09	542.141
1323.35	217.238
1327.61	398.414
1331.87	507.816
1336.12	545.508
1340.38	1.07812
1344.63	480.223
1348.87	784.621
1353.12	262.992
1357.36	387.848
1361.6	391.457
1365.84	403.195
1370.08	377.406
1374.31	167.473
1378.54	418.019
1382.77	64.293
1386.99	236.582
1391.22	264.023
1395.44	128.562
1399.66	444.051
1403.87	94.0664
1408.09	127.93
1412.3	15.2227
1416.51	244.824
1420.71	86.6836
1424.92	241.508
1429.12	298.977
1433.32	172.309
1437.51	298.66
1441.71	324.727
1445.9	316.477
1450.09	269.453
1454.28	118.113
1458.46	127.293
1462.65	340.332
1466.83	107.004
1471	217.898
1475.18	334.262
1479.35	519.012
1483.52	305.062
1487.69	53.1992
1491.86	187.023
1496.02	153.695
1500.18	297.336
1504.34	181.051
1508.5	184.672
1512.65	94.9844
1516.8	457.668
1520.95	159.688
1525.1	259.144
1529.24	97.4766
1533.39	208.254
1537.53	439.668
1541.66	308.75
1545.8	616.941
1549.93	429.617
1554.06	273.859
1558.19	81.7148
1562.32	278.984
1566.44	122.094
1570.56	0
