Measurement: Raman, 514 nm, ccw, Raman Data Processed
Mineral: Kanoite
Rruff sample: R061134
Ideal chemistry: Mn^2+^MgSi_2_O_6_
Locality: Balmat, St. Lawrence County, New York, USA
Source: Michael Scott
Description: Yellowish brown granular aggregate
Measured chemistry: (Mn^2+^_0.88_Ca_0.12_)_Σ=1_(Mg_0.98_Fe^3+^_0.02_)_Σ=1_(Si_0.98_Al_0.02_)_Σ=2_O_6_
Pin_id: L00480
Orientation: Laser parallel to -c* (0 0 -1). Fiducial mark perpendicular to laser is parallel to a [1 0 0]
Raman shift (cm-1)	intensity
111.503	0
116.458	344.05
121.41	9.53027
126.36	240.585
131.306	951.629
136.25	1554.17
141.19	1738.47
146.128	1538.98
151.063	914.765
155.995	336.828
160.925	132.39
165.851	0.959961
170.775	127.545
175.695	350.122
180.613	425.47
185.528	712.388
190.44	1024.98
195.35	817.923
200.256	627.517
205.16	734.764
210.061	1319.81
214.959	1954.76
219.854	1984.46
224.747	1925.81
229.636	1632.96
234.523	1277.91
239.407	932.441
244.288	1000.54
249.166	879.18
254.042	689.338
258.915	505.275
263.784	74.4795
268.651	36.5303
273.516	333.289
278.377	565.604
283.236	809.376
288.092	1035.45
292.945	1246.59
297.795	2032.79
302.642	2673.99
307.487	3789.07
312.329	5978.53
317.168	8765.68
322.004	10819.3
326.838	9646.47
331.668	6600.07
336.496	4249.04
341.321	3026.3
346.144	2482.7
350.963	2535.7
355.78	2210.99
360.594	2125.55
365.405	1847.36
370.214	2076.42
375.019	2006.72
379.822	1774.22
384.622	2104.93
389.42	2526.82
394.215	2195.9
399.006	1368.14
403.795	1155.54
408.582	1216.21
413.365	1462.17
418.146	1104.41
422.924	577.877
427.7	198.557
432.472	54.4102
437.242	150.852
442.009	35.2568
446.774	2.62988
451.535	31.252
456.294	64.3144
461.05	365.991
465.804	323.032
470.554	310.485
475.302	87.6631
480.047	158.516
484.79	40.8154
489.529	82.5439
494.266	444.991
499.001	1108.63
503.732	1459.35
508.461	1326.17
513.187	1466.94
517.911	1509.66
522.631	1418.42
527.349	899.021
532.065	903.724
536.777	1079.34
541.487	1191.79
546.194	1418.14
550.898	1856.37
555.6	2093.46
560.299	1316.39
564.995	666.126
569.689	274.606
574.38	247.829
579.068	155.431
583.754	59.4424
588.437	82.9375
593.117	106.103
597.794	0.171875
602.469	74.0019
607.141	95.0166
611.81	178.031
616.477	197.602
621.141	364.694
625.802	705.883
630.461	945.184
635.117	1209.65
639.77	2208.61
644.421	3554.66
649.069	6715.69
653.714	11314
658.357	17433.6
662.997	23445.1
667.634	24765.1
672.269	17073.6
676.901	9460.26
681.53	4873.06
686.157	2836.73
690.781	1932.03
695.402	1280.91
700.021	990.245
704.637	783.673
709.251	629.77
713.861	611.955
718.469	726.028
723.075	667.25
727.678	616.619
732.278	520.886
736.876	381.982
741.47	176.195
746.063	57.459
750.652	129.006
755.239	276.127
759.824	0.34375
764.406	2.46484
768.985	70.2959
773.561	70.4053
778.135	138.579
782.706	92.9014
787.275	143.82
791.841	51.0996
796.404	13.9062
800.965	15.1973
805.523	149.688
810.079	27.6074
814.632	110.121
819.182	87.6816
823.73	82
828.275	10.2402
832.818	42.125
837.358	18.5879
841.895	43.7598
846.43	94.6797
850.962	100.285
855.491	193.658
860.018	225.752
864.543	132.783
869.064	227.06
873.583	276.44
878.1	426.045
882.614	424.283
887.125	375.676
891.634	459.664
896.14	278.586
900.644	452.012
905.145	314.643
909.644	430.199
914.14	540.215
918.633	552.769
923.124	714.594
927.612	755.668
932.098	1074.22
936.581	1257.04
941.061	1400.91
945.539	956.926
950.015	739.227
954.487	949.059
958.958	859.391
963.425	1085.86
967.89	1378.89
972.353	1790.98
976.813	2367.92
981.271	3979.89
985.726	6887.42
990.178	13282
994.628	25602.1
999.075	38562.5
1003.52	39390.3
1007.96	29465.1
1012.4	18660.6
1016.84	11679.9
1021.27	7438.11
1025.71	4726.7
1030.13	2929.34
1034.56	2359.92
1038.99	1687.17
1043.41	1370.56
1047.83	1220.52
1052.24	1023.39
1056.66	773.166
1061.07	618.275
1065.48	560.797
1069.89	528.25
1074.29	667.287
1078.69	1079.81
1083.09	2397.83
1087.49	2326.6
1091.88	1239.05
1096.28	681.287
1100.66	416.709
1105.05	479.84
1109.43	161.484
1113.82	263.379
1118.2	512.373
1122.57	164.207
1126.95	183.019
1131.32	166.644
1135.69	81.9434
1140.05	0.828125
1144.42	41.4668
1148.78	54.3359
1153.14	73.7559
1157.5	72.1641
1161.85	46.7539
1166.2	131.414
1170.55	54.5566
1174.9	140.877
1179.24	49.832
1183.58	58.8145
1187.92	8.47266
1192.26	85.1894
1196.6	45.4492
1200.93	85.6934
1205.26	24.625
1209.58	46.7227
1213.91	131.537
1218.23	57.9805
1222.55	76.9961
1226.87	182.754
1231.18	33.3281
1235.49	34.709
1239.8	88.9824
1244.11	120.055
1248.41	225.992
1252.72	44.6172
1257.02	100.205
1261.32	12.6504
1265.61	185.07
1269.9	266.83
1274.19	263.547
1278.48	199.762
1282.77	274.56
1287.05	90.582
1291.33	285.283
1295.61	107.293
1299.88	179.84
1304.15	93.3731
1308.42	362.58
1312.69	245.045
1316.96	223.748
1321.22	336.342
1325.48	358.498
1329.74	322.648
1334	266.938
1338.25	282.748
1342.5	252.139
1346.75	112.633
1351	283.01
1355.24	209.441
1359.48	292.324
1363.72	365.475
1367.96	196.615
1372.19	74.6621
1376.42	269.496
1380.65	104.438
1384.88	203.908
1389.11	126.654
1393.33	253.602
1397.55	38.5
1401.76	191.256
1405.98	350.775
1410.19	206.943
1414.4	420.959
1418.61	191.877
1422.82	57.8906
1427.02	68.5606
1431.22	124.711
1435.42	202.213
1439.61	298.426
1443.81	284.773
1448	282.033
1452.18	51.6758
1456.37	323.652
1460.56	230.943
1464.74	199.547
1468.92	218.045
1473.09	39.2617
1477.27	319.123
1481.44	256.352
1485.61	100.699
1489.78	37.3516
1493.94	334.107
1498.1	132.244
1502.26	127.686
1506.42	144.648
1510.58	215.832
1514.73	96.2148
1518.88	73.084
1523.03	185.818
1527.17	286.668
1531.32	226.795
1535.46	192.305
1539.6	87.7148
1543.73	235.889
1547.87	186.67
1552	357.727
1556.13	319.59
1560.26	234.897
1564.38	269.066
1568.5	216.881
