Measurement: Raman, 514 nm, ccw, Raman Data Processed
Mineral: Kanoite
Rruff sample: R061134
Ideal chemistry: Mn^2+^MgSi_2_O_6_
Locality: Balmat, St. Lawrence County, New York, USA
Source: Michael Scott
Description: Yellowish brown granular aggregate
Measured chemistry: (Mn^2+^_0.88_Ca_0.12_)_Σ=1_(Mg_0.98_Fe^3+^_0.02_)_Σ=1_(Si_0.98_Al_0.02_)_Σ=2_O_6_
Pin_id: M00160
Orientation: Laser parallel to c* (0 0 1). Fiducial mark perpendicular to laser is parallel to a [1 0 0]
Raman shift (cm-1)	intensity
109.025	0
113.981	198.973
118.935	373.164
123.885	594.547
128.833	1284.72
133.778	1832.72
138.72	2751.65
143.66	1850.91
148.596	1512.28
153.53	743.951
158.46	398.234
163.388	217.975
168.313	130.221
173.235	386.236
178.155	168.432
183.071	251.223
187.985	617.322
192.896	590.541
197.803	978.748
202.709	1199.98
207.611	1190.06
212.51	1838.47
217.407	2380.97
222.301	1670.57
227.192	1375.41
232.08	914.564
236.965	733.656
241.848	605.609
246.728	581.356
251.604	395.816
256.479	312.932
261.35	518.371
266.218	364.664
271.084	358.078
275.947	353.434
280.807	574.018
285.664	229.072
290.518	401.731
295.37	676.863
300.219	1193.06
305.065	1834.6
309.908	2854.05
314.749	4919.08
319.586	7868.62
324.421	9423.73
329.253	7687.24
334.083	5424.02
338.909	3656.52
343.733	3000.55
348.554	2718.76
353.372	3164.17
358.187	2750.51
363	2433.74
367.81	2514.83
372.617	3178.74
377.421	2816.43
382.223	2955.88
387.022	4233.04
391.818	5727.89
396.611	4526.4
401.401	1876.57
406.189	773.856
410.974	423.246
415.756	166.621
420.536	186.9
425.312	178.018
430.086	65.8906
434.858	123.57
439.626	155.606
444.392	31.6523
449.155	111.445
453.915	182.178
458.672	585.457
463.427	1595.1
468.179	1656.3
472.928	688.781
477.675	332.256
482.419	69.6016
487.16	7.8418
491.898	146.492
496.634	519.42
501.367	772.656
506.097	727.162
510.825	683.023
515.549	1083.31
520.271	1182.81
524.991	1179.52
529.707	1143.37
534.421	1387.32
539.132	1949.47
543.841	1736.88
548.547	1262.43
553.25	1612.98
557.95	1579.51
562.648	793.102
567.343	245.848
572.035	332.807
576.724	219.824
581.411	247.287
586.095	1.36133
590.777	201.574
595.456	123.086
600.132	82.8418
604.805	172.713
609.476	1.9082
614.144	30.9492
618.809	337.957
623.472	131.494
628.132	215.162
632.789	511.394
637.444	592.443
642.096	835.322
646.745	1779.78
651.392	3479.73
656.036	5344.12
660.677	7256.57
665.316	8781.48
669.952	8560.81
674.585	5450.46
679.216	2880.7
683.844	1939.06
688.469	1605.78
693.092	779.33
697.712	578.139
702.329	608.701
706.944	685.781
711.556	336.547
716.166	338.916
720.773	377.818
725.377	787.17
729.978	268.576
734.577	81.0586
739.173	449.32
743.767	63.3594
748.358	222.211
752.946	232.115
757.532	100.279
762.115	82.9062
766.695	76.1523
771.273	71.7617
775.848	137.102
780.421	145.914
784.991	136.24
789.558	85.8477
794.123	46.207
798.685	10.2344
803.245	33.2715
807.802	177.988
812.356	97.6231
816.907	44.832
821.456	28.6621
826.003	155.09
830.547	73.6191
835.088	45.9277
839.627	158.644
844.163	88.8516
848.696	188.838
853.227	115.666
857.755	281.371
862.281	324.992
866.804	5.56641
871.324	440.887
875.842	166.734
880.357	247.531
884.87	268.09
889.38	242.816
893.888	396.547
898.393	415.57
902.895	423.492
907.395	404.957
911.892	331.301
916.387	506.508
920.879	863.871
925.368	1007.28
929.855	980.57
934.339	799.816
938.821	886.383
943.301	961.383
947.777	378.848
952.251	697.352
956.723	417.402
961.192	503.16
965.658	679.34
970.122	670.984
974.583	847.793
979.042	1356.04
983.498	2113.01
987.952	3796.6
992.403	7753.51
996.852	14401.8
1001.3	20703.5
1005.74	20227.4
1010.18	14558.6
1014.62	9685.97
1019.06	6428.16
1023.49	3974.78
1027.92	2655.23
1032.35	1984.15
1036.78	1541.8
1041.2	1159.69
1045.62	855.027
1050.04	742.644
1054.45	768.598
1058.87	416.879
1063.28	379.648
1067.68	314.773
1072.09	209.203
1076.49	376.051
1080.89	348.918
1085.29	528.117
1089.69	485.57
1094.08	985.426
1098.47	362.457
1102.86	278.664
1107.24	185.309
1111.63	95.7852
1116.01	282.922
1120.38	736.934
1124.76	600.758
1129.13	147.969
1133.5	314.574
1137.87	440.219
1142.24	127.277
1146.6	113.84
1150.96	17.6328
1155.32	10.1836
1159.67	194.891
1164.03	79.2383
1168.38	146.527
1172.72	388.062
1177.07	218.586
1181.41	232.109
1185.75	365.621
1190.09	112.098
1194.43	143.715
1198.76	242.109
1203.09	86.4492
1207.42	107.746
1211.75	252.965
1216.07	29.0312
1220.39	296.578
1224.71	258.109
1229.02	188.562
1233.34	294.93
1237.65	230.18
1241.96	221.324
1246.26	72.6641
1250.57	289.938
1254.87	120.438
1259.17	58.6055
1263.46	403.231
1267.76	161.141
1272.05	246.734
1276.34	21.3398
1280.62	234.844
1284.91	304.633
1289.19	235.375
1293.47	436.535
1297.74	304.297
1302.02	333.902
1306.29	175.266
1310.56	427.535
1314.83	431.715
1319.09	469.973
1323.35	330.977
1327.61	403.852
1331.87	251.695
1336.12	282.238
1340.38	408.051
1344.63	314.035
1348.87	317.426
1353.12	413.941
1357.36	474.879
1361.6	204.871
1365.84	265.305
1370.08	187.453
1374.31	359.527
1378.54	190.766
1382.77	395.285
1386.99	268.375
1391.22	21.0664
1395.44	235.519
1399.66	97.5195
1403.87	99.6367
1408.09	143.301
1412.3	86.9141
1416.51	54.3281
1420.71	189.133
1424.92	191.352
1429.12	186.906
1433.32	265.285
1437.51	435.453
1441.71	223.262
1445.9	152.004
1450.09	277.332
1454.28	357.164
1458.46	299.062
1462.65	29.4141
1466.83	333.789
1471	229.234
1475.18	317.016
1479.35	249.809
1483.52	179.367
1487.69	345.023
1491.86	19.0625
1496.02	225.82
1500.18	267.332
1504.34	224.34
1508.5	227.68
1512.65	321.543
1516.8	185.602
1520.95	202.199
1525.1	323.231
1529.24	270.953
1533.39	288.691
1537.53	356.644
1541.66	370.078
1545.8	1.28906
1549.93	175.246
1554.06	454.598
1558.19	113.969
1562.32	213.352
1566.44	273.391
1570.56	0
