Measurement: Raman, 532 nm, ccw, Raman Data Processed
Mineral: Kazanskyite
Rruff sample: R130020
Ideal chemistry: BaNa_3_Ti_2_Nb(Si_2_O_7_)_2_O_2_(OH)_2_4H_2_O
Locality: Kirovskii mine, Mount Kukisvumchorr, Khibiny alkaline massif, Kola Peninsula, Russia
Source: Fernando Camara
Description: Colourless to very pale tan flakes, associated with natrolite, barytolamprophyllite, nechelyustovite, hydroxylapatite, belovite-(La), belovite-(Ce), gaidonnayite, nenadkevichite, epididymite, apophyllite-(KF) and sphalerite. Data from Camara et al (2012)
Measured chemistry: K_0.21_(Ba_0.70_Sr_0.28_Ca_0.03_)(Na_2.55_Mn_0.31_Ca_0.11_Fe^2+^_ 0.03_)_Σ=3_(Ti_2.09_Nb_0.63_Mn_0.26_Al_0.02_)_Σ=3_(Si_2.025_O_7_)_2_O_2_[(OH)_1.41_F_0.59_]_Σ=2_·4.02H_2_O
Raman shift (cm-1)	intensity
100	594.546
103.238	587.864
106.476	711.171
109.714	598.078
112.951	564.593
116.189	573.621
119.427	563.481
122.665	629.435
125.903	431.926
129.141	502.839
132.379	460.155
135.616	471.157
138.854	623.124
142.092	719.627
145.33	844.995
148.568	983.767
151.806	1009.6
155.044	882.425
158.281	718.002
161.519	439.489
164.757	306.855
167.995	178.602
171.233	150.674
174.471	39.7085
177.709	53.8205
180.946	0.354226
184.184	6.3842
187.422	5.68871
190.66	25.258
193.898	112.672
197.136	98.0306
200.374	139.499
203.611	217.874
206.849	220.809
210.087	294.727
213.325	304.517
216.563	310.249
219.801	206.215
223.039	230.378
226.276	249.496
229.514	266.541
232.752	350.321
235.99	534.041
239.228	714.545
242.466	925.571
245.704	986.691
248.941	1068.28
252.179	1085.92
255.417	1070.2
258.655	1071.02
261.893	1087.63
265.131	1056.71
268.369	1085.52
271.606	1158.41
274.844	1066.26
278.082	1105.81
281.32	1115.04
284.558	1152.07
287.796	1186.27
291.034	1137.88
294.271	1079.51
297.509	1086.09
300.747	1071.59
303.985	1129.06
307.223	1131.63
310.461	1239.92
313.699	1260.48
316.936	1314.15
320.174	1217.44
323.412	1185.17
326.65	1099.93
329.888	1039.14
333.126	1070.5
336.364	1141
339.602	1038.54
342.839	1039.62
346.077	1069.71
349.315	1026.7
352.553	1034.22
355.791	899.013
359.029	848.538
362.267	851.393
365.504	889.416
368.742	931.872
371.98	967.003
375.218	890.141
378.456	801.976
381.694	819.439
384.932	874.778
388.169	987.898
391.407	1129.31
394.645	1116.45
397.883	1226.78
401.121	1225.05
404.359	1358.74
407.597	1429.56
410.834	1429.7
414.072	1380.53
417.31	1246.43
420.548	1054.54
423.786	744.306
427.024	475.316
430.262	292.198
433.499	223.679
436.737	173.397
439.975	266.698
443.213	329.319
446.451	466.882
449.689	598.781
452.927	772.576
456.164	660.708
459.402	572.691
462.64	439.688
465.878	360.635
469.116	245.378
472.354	157.535
475.592	131.169
478.829	125.198
482.067	151.974
485.305	198.597
488.543	132.31
491.781	177.464
495.019	147.737
498.257	159.059
501.494	188.833
504.732	129.963
507.97	127.069
511.208	176.215
514.446	190.119
517.684	172.835
520.922	221.042
524.159	206.402
527.397	181.161
530.635	127.928
533.873	91.5642
537.111	55.6523
540.349	2.32178
543.587	112.391
546.824	136.706
550.062	206.953
553.3	220.493
556.538	386.895
559.776	668.819
563.014	968.409
566.252	1503.07
569.489	2293.74
572.727	3274.41
575.965	3879.88
579.203	3709.41
582.441	3177.28
585.679	2640.82
588.917	2157.96
592.154	1819.63
595.392	1430.67
598.63	1094.28
601.868	939.756
605.106	721.338
608.344	603.821
611.582	449.089
614.819	324.243
618.057	285.695
621.295	189.103
624.533	97.9646
627.771	71.0214
631.009	42.3033
634.247	29.9492
637.484	40.2786
640.722	32.2063
643.96	25.9909
647.198	14.15
650.436	14.2969
653.674	106.809
656.912	158.406
660.149	246.055
663.387	461.95
666.625	701.218
669.863	965.955
673.101	1343.26
676.339	1818.15
679.577	2206.28
682.814	2181.78
686.052	1775.63
689.29	1237.77
692.528	797.339
695.766	596.582
699.004	468.674
702.242	403.397
705.479	420.569
708.717	425.062
711.955	533.008
715.193	519.78
718.431	557.954
721.669	577.08
724.907	562.375
728.144	541.916
731.382	493.607
734.62	446.581
737.858	479.914
741.096	522.369
744.334	552.311
747.572	623.726
750.809	718.415
754.047	881.134
757.285	1051.56
760.523	1220.22
763.761	1409.82
766.999	1616.52
770.237	1826.39
773.474	2027.85
776.712	2378.55
779.95	2552.11
783.188	2869.13
786.426	3146.4
789.664	3402.15
792.902	3723.71
796.139	3967.5
799.377	4163.59
802.615	4489.42
805.853	4738.27
809.091	4903.59
812.329	5109.38
815.567	5409.7
818.805	5538.9
822.042	5672.52
825.28	5749.08
828.518	5577.2
831.756	5517.53
834.994	5472.82
838.232	5551.51
841.469	5656.02
844.707	5619.58
847.945	5606.83
851.183	5638.32
854.421	5678.28
857.659	5751.25
860.897	5885.64
864.135	6207.71
867.372	6646.66
870.61	7247.54
873.848	7783.91
877.086	8236.6
880.324	8643.34
883.562	8840.49
886.799	8705.62
890.037	8385.96
893.275	8018.62
896.513	7681.13
899.751	7316.57
902.989	7022.47
906.227	6684.93
909.465	6341.95
912.702	6086.8
915.94	5907.89
919.178	5614.8
922.416	5495.67
925.654	5617.25
928.892	5703.44
932.13	5842.96
935.367	5666.05
938.605	5068.29
941.843	4226.81
945.081	3433.75
948.319	2910.55
951.557	2510.36
954.794	2193.5
958.032	1847.57
961.27	1530.95
964.508	1213.77
967.746	989.641
970.984	823.779
974.222	690.041
977.46	615.952
980.697	606.282
983.935	582.119
987.173	596.112
990.411	574.429
993.649	568.38
996.887	578.407
1000.12	580.038
1003.36	517.482
1006.6	527.177
1009.84	530.904
1013.08	436.16
1016.31	405.94
1019.55	357.407
1022.79	342.849
1026.03	338.033
1029.27	274.069
1032.5	266.054
1035.74	294.678
1038.98	241.75
1042.22	243.012
1045.45	238.79
1048.69	271.562
1051.93	225.645
1055.17	250.966
1058.41	265.906
1061.64	310.619
1064.88	358.524
1068.12	341.998
1071.36	332.423
1074.6	335.499
1077.83	300.4
1081.07	249.009
1084.31	156.552
1087.55	177.315
1090.78	147.936
1094.02	128.591
1097.26	147.019
1100.5	156.58
1103.74	111.306
1106.97	66.6398
1110.21	96.2417
1113.45	74.1909
1116.69	60.5164
1119.93	84.0555
1123.16	79.4302
1126.4	57.5252
1129.64	68.9319
1132.88	57.4807
1136.11	62.4076
1139.35	81.1924
1142.59	48.9428
1145.83	50.8011
1149.07	36.2093
1152.3	34.087
1155.54	56.677
1158.78	32.8317
1162.02	33.7826
1165.26	31.7989
1168.49	58.0187
1171.73	20.0546
1174.97	45.8018
1178.21	37.7198
1181.44	23.9285
1184.68	11.6986
1187.92	47.2781
1191.16	23.5955
1194.4	34.5001
1197.63	53.5157
