Measurement: Raman, 514 nm, ccw, Raman Data Processed
Mineral: Kornerupine
Rruff sample: R050214
Ideal chemistry: (Mg,Fe^2+^)_4_Al_6_(Si,Al,B)_5_O_21_(OH)
Locality: Sri Lanka
Source: Jibamitra Ganguly
Description: Water-worn single crystal fragment
Measured chemistry: (Mg_3.63_[box]_0.21_Fe^2+^_0.14_Na_0.02_)_4_Al_6.00_(Si_2.44_Al_1.97_B_0.59_)_5_O_21_(OH) ;   B and Li not measured; B estimated by charge balance
Pin_id: L00479
Orientation: Laser parallel to b* (0 1 0). Fiducial mark perpendicular to laser is parallel to c [0 0 1]
Raman shift (cm-1)	intensity
107.3	0
111.473	84.033
115.644	1411.17
119.813	723.551
123.981	369.45
128.146	66.876
132.309	29.085
136.47	151.704
140.63	75.333
144.787	172.775
148.942	131.863
153.096	856.418
157.247	1579.59
161.396	2141.65
165.544	1488.54
169.689	1004.04
173.833	1121.02
177.974	1347.8
182.114	1470.49
186.251	1493.05
190.387	948.46
194.52	522.905
198.652	108.444
202.782	116.897
206.909	96.805
211.035	671.871
215.159	1740.4
219.281	2822.37
223.4	4549.21
227.518	5833.12
231.634	7183.28
235.748	7174.98
239.86	6913.47
243.97	7996.84
248.079	10454.6
252.185	14152.7
256.289	17597
260.391	15986.5
264.492	12062.2
268.59	9335.07
272.687	7265.41
276.781	5339.87
280.874	4373.43
284.964	5292.27
289.053	8332.45
293.14	11856.2
297.225	12105.1
301.308	10374.6
305.389	9172.96
309.468	8874.72
313.545	9652.66
317.62	11242.6
321.693	13330.4
325.765	14731
329.834	14588.3
333.902	12642.8
337.967	9259.48
342.031	6522.19
346.093	4907.33
350.153	4279.89
354.21	4497.48
358.267	5588.73
362.321	7259.51
366.373	7945.82
370.423	8447.8
374.471	8992.87
378.518	8858.66
382.563	8973
386.605	9282.11
390.646	9624.16
394.685	10327.6
398.722	10546.4
402.757	9194.44
406.79	6612.58
410.821	4742.79
414.851	3594.09
418.878	2712.46
422.904	2482.89
426.927	2358.39
430.949	2181.94
434.969	2426.62
438.987	2462.77
443.003	2472.37
447.018	2432.34
451.03	2361.64
455.041	2725.23
459.049	3075.06
463.056	3709.14
467.061	3835.39
471.064	3353.78
475.065	3035.25
479.064	2376.8
483.062	1791.38
487.057	1211.99
491.051	728.595
495.043	146.107
499.032	30.903
503.02	269.104
507.007	303.915
510.991	341.383
514.973	411.686
518.954	446.406
522.933	258.045
526.91	217.84
530.885	165
534.858	57.854
538.829	396.591
542.799	544.815
546.766	819.816
550.732	1053.68
554.696	1055.43
558.658	1681.07
562.618	2197.61
566.576	2776.07
570.533	3381.45
574.488	3196.77
578.44	3108.03
582.391	3302.25
586.341	3299.45
590.288	3255.64
594.233	3448.82
598.177	3519.03
602.119	3658.25
606.059	3862.51
609.997	3699.81
613.933	3496.18
617.868	2787.61
621.801	2066.14
625.731	1330.78
629.66	936.545
633.588	822.451
637.513	642.523
641.437	955.783
645.358	1062.25
649.278	1402.52
653.196	1871.6
657.113	2222.39
661.027	2347.68
664.94	2408.43
668.851	3002.52
672.76	3269.81
676.667	3858.03
680.572	4600.95
684.476	6135.19
688.378	8693.08
692.278	11726.7
696.176	16988.7
700.072	21242.4
703.967	23141.5
707.86	20157.2
711.751	14945.8
715.64	9333.28
719.527	5919.7
723.413	3518.09
727.297	2233.48
731.179	2586.9
735.059	4009.38
738.937	6777.95
742.814	10116.7
746.689	13595.5
750.562	16848.6
754.433	16619.9
758.303	13568.5
762.17	10088.4
766.036	6398.64
769.901	3627.29
773.763	2013.38
777.624	1864.95
781.482	1642.02
785.339	1992.66
789.195	2538.88
793.048	3193.73
796.9	3275.24
800.75	2392.45
804.598	1047.39
808.445	353.188
812.289	112.945
816.132	540.104
819.973	655.215
823.813	705.473
827.65	716.883
831.486	589.605
835.32	362.881
839.152	81.93
842.983	109.9
846.812	696.58
850.639	1577.72
854.464	2539.11
858.288	3422.67
862.11	4969.39
865.93	7048.29
869.748	9286.4
873.564	12125.7
877.379	14484.3
881.192	14756.1
885.004	13231.3
888.813	10153.7
892.621	7404.48
896.427	5091.81
900.232	3873.85
904.034	2832.7
907.835	2602.25
911.634	2453.5
915.432	2367.64
919.227	2549.85
923.021	3033.98
926.813	3430.16
930.604	4200.26
934.393	5029.27
938.18	6608.27
941.965	7810.97
945.749	10809.5
949.53	14429.7
953.311	18773.6
957.089	23883
960.866	27401.5
964.641	28419.7
968.414	26961.7
972.185	25074
975.955	21774.1
979.723	18471.1
983.49	15240.4
987.254	13406.1
991.017	12242.8
994.779	11844.1
998.538	10788.9
1002.3	11134.3
1006.05	10799.1
1009.81	10717.4
1013.56	10961.2
1017.31	11346.4
1021.06	11706
1024.81	11469
1028.55	11280.5
1032.3	11167
1036.04	10514.9
1039.78	10425.7
1043.52	9639.85
1047.26	8889.57
1050.99	8808.04
1054.73	8262.82
1058.46	8123.34
1062.19	7974.02
1065.92	7655.84
1069.65	7223.91
1073.37	6571.16
1077.1	6179.17
1080.82	5840.81
1084.54	5232.1
1088.26	4836.62
1091.97	4652.05
1095.69	4784.23
1099.4	5388.66
1103.12	6565.28
1106.83	7013.88
1110.54	7782.9
1114.24	8345.66
1117.95	8621.28
1121.65	8196.48
1125.35	7391.13
1129.06	7321.22
1132.75	6097.65
1136.45	5193.69
1140.15	4313.25
1143.84	3576.66
1147.53	2959.73
1151.22	2511.01
1154.91	2198.93
1158.6	1966.4
1162.28	1712.5
1165.97	1551.46
1169.65	1370.97
1173.33	1185.25
1177.01	573.977
1180.69	432.564
1184.36	103.074
1188.04	86.791
1191.71	145.883
1195.38	224.043
1199.05	178.879
1202.71	105.482
1206.38	135.551
1210.04	126.545
1213.71	298.014
1217.37	75.275
1221.03	276.297
1224.68	36.506
1228.34	131.48
1231.99	92.592
1235.65	61.975
1239.3	60.336
1242.95	63.268
1246.59	129.906
1250.24	176.682
1253.88	41.781
1257.53	12.223
1261.17	172.656
1264.81	71.277
1268.45	360.123
1272.08	188.291
1275.72	282.871
1279.35	298.668
1282.98	171.914
1286.61	226.297
1290.24	415.443
1293.87	220.361
1297.49	388.172
1301.11	333.4
1304.73	452.008
1308.36	581.939
1311.97	549.238
1315.59	704.225
1319.2	780.203
1322.82	672.201
1326.43	627.799
1330.04	585.895
1333.65	310.191
1337.26	387.811
1340.86	350.465
1344.47	309.84
1348.07	498.172
1351.67	410.328
1355.27	434.865
1358.87	377.217
1362.46	570.777
1366.06	487.998
1369.65	452.336
1373.24	443.332
1376.83	480.994
1380.42	351.25
1384	505.15
1387.59	457.434
1391.17	423.773
1394.75	278.168
1398.33	273.648
1401.91	305.115
1405.49	306.105
1409.06	163.51
1412.64	151.352
1416.21	197.68
1419.78	20.449
1423.35	121.562
1426.91	160.252
1430.48	45.58
1434.05	1.094
