Measurement: Raman, 514 nm, ccw, Raman Data Processed
Mineral: Kornerupine
Rruff sample: R050214
Ideal chemistry: (Mg,Fe^2+^)_4_Al_6_(Si,Al,B)_5_O_21_(OH)
Locality: Sri Lanka
Source: Jibamitra Ganguly
Description: Water-worn single crystal fragment
Measured chemistry: (Mg_3.63_[box]_0.21_Fe^2+^_0.14_Na_0.02_)_4_Al_6.00_(Si_2.44_Al_1.97_B_0.59_)_5_O_21_(OH) ;   B and Li not measured; B estimated by charge balance
Pin_id: L00317
Orientation: Laser parallel to a* (1 0 0). Fiducial mark perpendicular to laser is parallel to b [0 1 0]
Raman shift (cm-1)	intensity
94.768	0
98.947	147.557
103.124	171.143
107.3	415.023
111.473	422.184
115.644	1213.28
119.813	1075.19
123.981	757.387
128.146	716.979
132.309	1063.73
136.47	1085.89
140.63	1399.95
144.787	1169.15
148.942	1208.74
153.096	1833.21
157.247	2383.4
161.396	2361.64
165.544	1208.63
169.689	99.988
173.833	41.6
177.974	273.729
182.114	147.346
186.251	297.543
190.387	273.525
194.52	90.723
198.652	180.203
202.782	301.979
206.909	824.168
211.035	1299.93
215.159	2042.22
219.281	2954.85
223.4	3681.58
227.518	4586.36
231.634	5384.13
235.748	6247.89
239.86	7334.56
243.97	8946.05
248.079	11479.3
252.185	15119.3
256.289	18508.8
260.391	16271.4
264.492	10366.2
268.59	6576.26
272.687	5013.22
276.781	4232.13
280.874	4481.7
284.964	5705.55
289.053	8290.55
293.14	11162.8
297.225	10830.2
301.308	8853.54
305.389	7401.4
309.468	6766.02
313.545	7192.62
317.62	8096.28
321.693	9299
325.765	10395.5
329.834	9967.34
333.902	8675.92
337.967	6584.31
342.031	4735.39
346.093	3886.37
350.153	3934.37
354.21	4899.59
358.267	7391.12
362.321	9823.95
366.373	10179.1
370.423	9413.7
374.471	8861.62
378.518	8239.45
382.563	8298.3
386.605	8793.18
390.646	9238.06
394.685	10102.9
398.722	9700.69
402.757	7725.01
406.79	5566
410.821	3953.47
414.851	3193.78
418.878	2617.92
422.904	2274.89
426.927	2388.87
430.949	1892.9
434.969	1525.88
438.987	1060.41
443.003	774.746
447.018	872.371
451.03	729.162
455.041	1098.11
459.049	1572.81
463.056	2460.25
467.061	2407.86
471.064	1803.14
475.065	1498.54
479.064	1139.46
483.062	591.619
487.057	316.266
491.051	7.572
495.043	190.074
499.032	270.461
503.02	203.072
507.007	258.717
510.991	956.873
514.973	1157.56
518.954	977.971
522.933	678.043
526.91	427.475
530.885	515.977
534.858	541.658
538.829	975.406
542.799	703.252
546.766	951.195
550.732	1125.22
554.696	1042.33
558.658	1250.51
562.618	1574.75
566.576	1748.06
570.533	1946.42
574.488	1842.83
578.44	1412.3
582.391	1365.82
586.341	1118.39
590.288	867.996
594.233	686.645
598.177	456.324
602.119	641.018
606.059	491.717
609.997	184.406
613.933	338.83
617.868	36.965
621.801	278.211
625.731	216.881
629.66	395.756
633.588	174.861
637.513	362.367
641.437	132.193
645.358	231.834
649.278	386.588
653.196	710.574
657.113	671.344
661.027	654.033
664.94	319.592
668.851	638.48
672.76	590.391
676.667	517.949
680.572	642.961
684.476	1544.1
688.378	2555.35
692.278	3694.61
696.176	6902.56
700.072	9764.94
703.967	11570.8
707.86	10138.1
711.751	8197.02
715.64	4943.44
719.527	3128.44
723.413	1842.05
727.297	1117.28
731.179	1980.18
735.059	3329.78
738.937	5875.1
742.814	8648.17
746.689	11476
750.562	14699.7
754.433	14319.1
758.303	11683.6
762.17	8846.7
766.036	5769.6
769.901	3543.43
773.763	1909.48
777.624	1830.63
781.482	1542.92
785.339	2025.45
789.195	2326.88
793.048	2850.12
796.9	3128.3
800.75	2182.19
804.598	955.57
808.445	610.242
812.289	35.496
816.132	136.707
819.973	377.074
823.813	341.281
827.65	528.453
831.486	479.953
835.32	98.465
839.152	245.703
842.983	170.801
846.812	811.844
850.639	1222.45
854.464	2377.87
858.288	3319.9
862.11	4866.98
865.93	7063.13
869.748	9032.37
873.564	11399.7
877.379	13354.2
881.192	13522.1
885.004	11736.1
888.813	9447.33
892.621	6906.36
896.427	4662.53
900.232	3505.2
904.034	2490.53
907.835	2157.22
911.634	1866.35
915.432	1506.39
919.227	1495.51
923.021	1760.67
926.813	1906.62
930.604	2643.7
934.393	3531.04
938.18	3826.97
941.965	5086.62
945.749	7017.95
949.53	10310.3
953.311	13500.6
957.089	18021.6
960.866	20138.9
964.641	21818.4
968.414	21480
972.185	20568.7
975.955	18424.7
979.723	15913.9
983.49	13249.8
987.254	11871.1
991.017	11342
994.779	11635.3
998.538	11365.1
1002.3	12810.4
1006.05	13234.9
1009.81	13136.8
1013.56	12788.1
1017.31	12606.6
1021.06	11825.4
1024.81	10940.5
1028.55	10659.8
1032.3	9202.9
1036.04	7967.45
1039.78	7227.5
1043.52	5577.53
1047.26	4024.18
1050.99	4036.47
1054.73	3207.94
1058.46	2732.88
1062.19	2637.79
1065.92	1945.67
1069.65	1743.1
1073.37	1627.32
1077.1	1458.83
1080.82	1715.61
1084.54	1258.49
1088.26	1388.31
1091.97	1041.52
1095.69	998.953
1099.4	1734.29
1103.12	1783.55
1106.83	2404.79
1110.54	2469.19
1114.24	3072.47
1117.95	3283.02
1121.65	3608.25
1125.35	3360.51
1129.06	2953.61
1132.75	1922.06
1136.45	1606.5
1140.15	1475.35
1143.84	1151.38
1147.53	1066.78
1151.22	968.836
1154.91	587.953
1158.6	375.297
1162.28	290.648
1165.97	115.793
1169.65	383.742
1173.33	4.953
1177.01	314.641
1180.69	15.949
1184.36	142.66
1188.04	21.305
1191.71	12.168
1195.38	321.723
1199.05	148.961
1202.71	235.773
1206.38	1.844
1210.04	189.348
1213.71	311.02
1217.37	7.199
1221.03	67.766
1224.68	173.863
1228.34	52.008
1231.99	199.441
1235.65	55.066
1239.3	31.328
1242.95	196.277
1246.59	349.16
1250.24	236.121
1253.88	412.273
1257.53	226.633
1261.17	99.203
1264.81	446.453
1268.45	197.223
1272.08	132.238
1275.72	310.16
1279.35	208.023
1282.98	139.875
1286.61	189.719
1290.24	561.535
1293.87	547.324
1297.49	531.238
1301.11	402.328
1304.73	42.609
1308.36	65.902
1311.97	544.277
1315.59	296.836
1319.2	703.527
1322.82	794.766
1326.43	392.055
1330.04	789.66
1333.65	676.867
1337.26	633.953
1340.86	714.59
1344.47	630.496
1348.07	857.238
1351.67	855.113
1355.27	548.598
1358.87	691.371
1362.46	1065.4
1366.06	868.086
1369.65	792.891
1373.24	903.566
1376.83	786.332
1380.42	1048.11
1384	1161.43
1387.59	1061.81
1391.17	886.844
1394.75	812.465
1398.33	1018.51
1401.91	1042.29
1405.49	1004.51
1409.06	1243.35
1412.64	1031.17
1416.21	1184.52
1419.78	972.102
1423.35	759.73
1426.91	930.488
1430.48	739.012
1434.05	869.832
1437.61	1231.91
1441.17	1267.71
1444.73	1359.55
1448.29	1230.88
1451.84	909.527
1455.4	1188.78
1458.95	1040.73
1462.5	981.777
1466.05	1355.91
1469.6	1051.21
1473.15	1069.5
1476.69	515.27
1480.24	1352.06
1483.78	821.891
1487.32	573.418
1490.86	589.973
1494.39	680.852
1497.93	850.395
1501.46	438.344
1505	710.188
1508.53	776.957
1512.06	353.785
