Measurement: Raman, 514 nm, ccw, Raman Data Processed
Mineral: Kornerupine
Rruff sample: R050214
Ideal chemistry: (Mg,Fe^2+^)_4_Al_6_(Si,Al,B)_5_O_21_(OH)
Locality: Sri Lanka
Source: Jibamitra Ganguly
Description: Water-worn single crystal fragment
Measured chemistry: (Mg_3.63_[box]_0.21_Fe^2+^_0.14_Na_0.02_)_4_Al_6.00_(Si_2.44_Al_1.97_B_0.59_)_5_O_21_(OH) ;   B and Li not measured; B estimated by charge balance
Pin_id: L00317
Orientation: Laser parallel to a* (1 0 0). Fiducial mark perpendicular to laser is parallel to b [0 1 0]
Raman shift (cm-1)	intensity
91.981	0
96.161	183.247
100.34	125.192
104.516	727.597
108.691	1182.32
112.864	1370.31
117.034	2462.72
121.203	2117.97
125.369	1617.03
129.534	1975.28
133.696	2052.25
137.857	3065.54
142.016	3101.08
146.172	3758.16
150.327	4243.73
154.48	5365.82
158.63	6919.19
162.779	6380.69
166.926	3031.6
171.07	1637.51
175.213	785.974
179.354	504.568
183.493	377.24
187.63	18.393
191.765	370.881
195.898	502.623
200.029	280.881
204.158	176.145
208.285	876.424
212.41	1522.22
216.533	2806.5
220.654	4243.51
224.773	6307.79
228.891	8392.98
233.006	10076.7
237.119	11401.5
241.231	13746.3
245.34	17580
249.448	24827.4
253.553	36172.5
257.657	42155.8
261.758	31218.1
265.858	18863
269.956	12880.6
274.052	9454.46
278.146	8449
282.237	9607.8
286.327	12487.2
290.416	17203
294.502	19807.1
298.586	18885.7
302.668	16517.6
306.749	15315.7
310.827	15126.1
314.903	16311.7
318.978	18736.6
323.051	22028
327.121	22680.8
331.19	21972.5
335.257	17632.9
339.322	13308.1
343.385	9854.03
347.446	8045.32
351.505	8965.74
355.563	12396
359.618	19062.3
363.672	23340.1
367.723	22041
371.773	18754.1
375.821	17008.8
379.866	16137.3
383.91	15740.4
387.952	16633.9
391.992	17630.9
396.031	17950.3
400.067	15709.1
404.101	12058.3
408.134	8472.84
412.165	5711.63
416.193	4368.67
420.22	3856.96
424.245	3326.82
428.268	2949.16
432.289	2758.91
436.309	2072.99
440.326	1823.36
444.342	1677.94
448.355	1538.73
452.367	2008.66
456.377	2390.89
460.385	3196.86
464.391	3420.43
468.395	3425.3
472.398	3096.28
476.398	2398.19
480.397	1778.96
484.394	1053.67
488.389	641.682
492.382	236.797
496.373	109.131
500.362	226.15
504.349	358.744
508.335	234.902
512.319	342.207
516.3	757.051
520.28	641.365
524.259	431.186
528.235	564.893
532.209	690.92
536.182	1265.12
540.152	1751.45
544.121	1810.92
548.088	1713.49
552.053	1706.16
556.017	1815.31
559.978	2369.7
563.938	3215.55
567.895	4153.44
571.851	3817.34
575.805	3410.26
579.758	2897.18
583.708	2375.08
587.657	2057.97
591.603	1480.82
595.548	1461.62
599.491	1505.36
603.432	1610.05
607.372	1834.66
611.309	1713.21
615.245	1290.68
619.179	1043.07
623.111	406.379
627.041	379.322
630.97	5.883
634.896	493.721
638.821	504.402
642.744	455.291
646.665	258.092
650.584	3.912
654.502	429.055
658.418	730.281
662.331	1059.75
666.244	1088.23
670.154	1282.94
674.062	2364.31
677.969	2418.42
681.874	3339.11
685.777	4610.7
689.678	7100.65
693.577	11169.8
697.475	15565.2
701.371	20707.8
705.265	23026.7
709.157	19563
713.047	14199.6
716.936	9333.54
720.823	6444.92
724.708	4311.75
728.591	4336.05
732.472	5199.86
736.352	7716.23
740.23	11725.2
744.106	17236.7
747.98	22261
751.853	24899.9
755.723	23896.6
759.592	19503.1
763.459	13589.4
767.325	9152.82
771.188	6040.85
775.05	4037.02
778.91	3232.03
782.768	3290.93
786.625	3560.15
790.479	4622.41
794.332	5144.07
798.183	4319.9
802.033	2930.09
805.88	1943.53
809.726	772.273
813.57	239.045
817.413	286.969
821.253	353.607
825.092	485.605
828.929	410.893
832.764	517.414
836.598	159.059
840.429	235.902
844.259	555.896
848.088	872.084
851.914	1820.49
855.739	3703.16
859.562	5081.12
863.383	7169.41
867.203	9249.06
871.02	11614.1
874.836	14166.6
878.65	15968.5
882.463	15264.9
886.274	12323.8
890.083	9111.28
893.89	6343.51
897.695	4304.73
901.499	2618.14
905.301	2015.76
909.102	1477.75
912.9	1511.03
916.697	1329.38
920.492	1837.36
924.285	2170.79
928.077	2500.71
931.867	3026.64
935.655	3721.84
939.442	5056.09
943.226	6936.19
947.009	10142.2
950.791	14444.2
954.57	19126
958.348	23127.1
962.124	26003.8
965.899	27549.7
969.671	26780.3
973.442	24694.2
977.211	21531.5
980.979	18224.4
984.745	15297.2
988.509	12992.4
992.271	11270.2
996.032	10164.1
999.791	10212.8
1003.55	9788.39
1007.3	8484.7
1011.06	7697.77
1014.81	6878.58
1018.56	6451.09
1022.31	6088.25
1026.06	6281.01
1029.8	6168.34
1033.55	5781.8
1037.29	5742.62
1041.03	5472.04
1044.77	5363.33
1048.5	5288.84
1052.24	5009.42
1055.97	5076.68
1059.7	4559.78
1063.43	4622.74
1067.16	4529.57
1070.89	4450.2
1074.61	4032.67
1078.34	3862.29
1082.06	3715.32
1085.78	3722.1
1089.5	3881.4
1093.21	4092.22
1096.93	4485.25
1100.64	4732.97
1104.35	6034.89
1108.06	6539.73
1111.77	7222.29
1115.48	7862.49
1119.18	7975.34
1122.89	7933.61
1126.59	7342.82
1130.29	6650.48
1133.99	5638.85
1137.68	4683.09
1141.38	3646.06
1145.07	3084.1
1148.76	2596.6
1152.45	2256.43
1156.14	1957.54
1159.83	1869.82
1163.51	1431.1
1167.19	1502.37
1170.88	922.365
1174.56	913.699
1178.23	510.566
1181.91	280.316
1185.59	16.67
1189.26	52.27
1192.93	302.652
1196.6	231.402
1200.27	290.645
1203.94	162.301
1207.6	276.809
1211.27	336.307
1214.93	173.146
1218.59	169.143
1222.25	375.926
1225.9	343.945
1229.56	120.184
1233.21	14.357
1236.86	51.363
1240.51	62.98
1244.16	166.029
1247.81	11.445
1251.45	168.938
1255.1	136.588
1258.74	257.467
1262.38	238.613
1266.02	232.994
1269.66	159.441
1273.29	389.984
1276.93	393.988
1280.56	460.521
1284.19	1008.48
1287.82	1195.54
1291.45	422.551
1295.07	402.553
1298.7	554.584
1302.32	562.748
1305.94	523.096
1309.56	655.611
1313.18	948.357
1316.8	699.406
1320.41	814.764
1324.02	656.412
1327.63	504.359
1331.24	814.576
1334.85	560.738
1338.46	545.477
1342.06	604.926
1345.67	662.438
1349.27	506.918
1352.87	686.156
1356.47	568.824
1360.07	770.066
1363.66	650.805
1367.25	725.949
1370.85	577.021
1374.44	566.709
1378.03	490.287
1381.61	676.428
1385.2	620.521
1388.78	712.709
1392.37	734.744
1395.95	617.953
1399.53	616.217
1403.1	649.83
1406.68	492.924
1410.26	615.145
1413.83	591.168
1417.4	652.83
1420.97	679.404
1424.54	691.428
1428.1	469.252
1431.67	565.453
1435.23	802.387
1438.8	621.344
1442.36	718.658
1445.91	720.846
1449.47	581.25
1453.03	802.227
1456.58	883.117
1460.13	979.867
1463.68	786.77
1467.23	624.146
1470.78	685.656
1474.33	422.385
1477.87	475.771
1481.42	280.918
1484.96	345.137
1488.5	272.756
1492.04	433.521
1495.57	293.002
1499.11	26.66
1502.64	121.25
1506.17	63.041
1509.71	167.182
1513.23	313.312
1516.76	190.346
1520.29	106.924
