Measurement: Raman, 514 nm, ccw, Raman Data Processed
Mineral: Kornerupine
Rruff sample: R050214
Ideal chemistry: (Mg,Fe^2+^)_4_Al_6_(Si,Al,B)_5_O_21_(OH)
Locality: Sri Lanka
Source: Jibamitra Ganguly
Description: Water-worn single crystal fragment
Measured chemistry: (Mg_3.63_[box]_0.21_Fe^2+^_0.14_Na_0.02_)_4_Al_6.00_(Si_2.44_Al_1.97_B_0.59_)_5_O_21_(OH) ;   B and Li not measured; B estimated by charge balance
Pin_id: L00479
Orientation: Laser parallel to b* (0 1 0). Fiducial mark perpendicular to laser is parallel to c [0 0 1]
Raman shift (cm-1)	intensity
93.375	0
97.554	8.258
101.732	1.405
105.908	71.01
110.082	202.193
114.254	990.735
118.424	959.025
122.592	849.943
126.758	782.604
130.922	871.726
135.083	945.089
139.243	885.769
143.401	544.582
147.557	522.178
151.711	403.656
155.863	287.391
160.013	611.007
164.161	485.01
168.308	501.133
172.452	459.546
176.594	378.451
180.734	843.144
184.872	1155.97
189.008	1216.66
193.143	1570.52
197.275	1558.71
201.405	1925.29
205.534	2818.23
209.66	3611.52
213.784	4259.19
217.907	5041.37
222.027	5212.85
226.146	5023.23
230.263	3993.44
234.377	3439.61
238.49	3736.47
242.601	3940.48
246.709	4342.08
250.816	4714.77
254.921	5357.16
259.024	5392.59
263.125	4979.61
267.224	4388.77
271.321	3557.81
275.416	2478.54
279.51	2155.95
283.601	2263.7
287.69	3637.05
291.778	5042.72
295.863	5017.46
299.947	4009.07
304.029	3253.39
308.108	3425.27
312.186	4009.59
316.262	4904.24
320.336	6039.14
324.408	6385.18
328.478	6533.29
332.546	5579.6
336.612	4277.93
340.677	2791.92
344.739	1930.48
348.799	1477.77
352.858	1481.79
356.915	1964.49
360.969	2942.86
365.022	4207.86
369.073	4894.45
373.122	5569.67
377.169	6412.39
381.215	6943.17
385.258	7985.7
389.299	10000.3
393.339	12134.3
397.376	13632.8
401.412	13142.4
405.446	10582.9
409.478	8076.81
413.508	6278.46
417.536	5235.58
421.562	4940.19
425.586	5211.73
429.609	4644.73
433.629	3778.87
437.648	2963.08
441.665	2114.29
445.68	1976.71
449.693	2208.78
453.704	1995.72
457.713	2501.48
461.721	3120.04
465.726	3397.35
469.73	3333.4
473.731	2607.14
477.731	2008.56
481.729	1221.63
485.725	462.323
489.72	43.377
493.712	138.668
497.703	51.083
501.691	343.631
505.678	1171.04
509.663	2680.72
513.646	3885.74
517.627	4025.09
521.607	2385.5
525.584	859.576
529.56	186.114
533.534	36.293
537.506	119.374
541.476	229.951
545.444	13.86
549.41	297.271
553.375	528.334
557.337	451.979
561.298	218.379
565.257	83.848
569.214	262.48
573.17	358.73
577.123	175.107
581.075	256.713
585.024	581.664
588.972	776.025
592.918	737.344
596.863	615.244
600.805	446.633
604.746	570.682
608.685	674.17
612.621	521.109
616.557	901.508
620.49	794.383
624.421	1356.74
628.351	1229.6
632.279	1449.97
636.205	1883.87
640.129	2326.09
644.051	3178.3
647.972	4079.44
651.89	5126.16
655.807	4910.11
659.722	4701.84
663.636	4098.34
667.547	2997.62
671.457	1962.6
675.365	1440.35
679.271	1140.98
683.175	1334.34
687.077	2089.21
690.978	3401.58
694.877	5721.15
698.774	9034.54
702.669	11254.9
706.562	11844.7
710.454	8893.41
714.344	5556.34
718.232	2945.28
722.118	1165.45
726.002	715.348
729.885	973.574
733.766	2236.71
737.645	4697.63
741.522	7905.15
745.397	11860.1
749.271	15253.4
753.143	17062.3
757.013	15509.6
760.881	11348.2
764.748	7257.65
768.613	4529.65
772.476	2559.27
776.337	1977.52
780.196	1847.45
784.054	2191.07
787.91	3151.43
791.764	4044.53
795.616	4177.41
799.467	3454.17
803.316	2346.8
807.163	1384.44
811.008	86.342
814.851	180.822
818.693	413.816
822.533	345.549
826.371	470.922
830.208	246.949
834.042	50.877
837.875	199.994
841.706	588.928
845.536	1123.3
849.363	2327.33
853.189	3586.88
857.013	5574.21
860.836	7779.81
864.656	10420.1
868.475	14752.9
872.292	19325.9
876.108	23228
879.922	25216
883.733	23531.7
887.544	20216
891.352	15818.9
895.159	12153.4
898.964	9941.73
902.767	8369.71
906.568	7002.28
910.368	6165.35
914.166	5881.02
917.962	5680.25
921.757	5514.95
925.55	5847.06
929.341	6455.85
933.13	7061.12
936.918	8366.81
940.703	10062.9
944.488	12619.3
948.27	16043.5
952.051	20855.1
955.83	26495.3
959.607	31537.1
963.383	35087.9
967.156	35831.3
970.928	34438.9
974.699	31971.6
978.468	28742.3
982.234	26559.8
986	24151.3
989.763	23883.2
993.525	25038.5
997.285	27478.2
1001.04	30938.1
1004.8	33575.3
1008.55	35528.9
1012.31	36472.2
1016.06	35797.9
1019.81	34330.8
1023.56	32855.6
1027.31	29605.1
1031.05	26080.1
1034.79	22113.3
1038.53	17817.5
1042.27	13614
1046.01	10241.4
1049.75	7617.52
1053.48	5627.5
1057.22	4248.2
1060.95	3211.93
1064.68	2358.21
1068.4	1827.91
1072.13	1286.43
1075.86	972.725
1079.58	843.836
1083.3	781.914
1087.02	335.156
1090.74	115.721
1094.45	96.771
1098.17	21.217
1101.88	168.041
1105.59	23.08
1109.3	251.479
1113.01	481.916
1116.71	697.041
1120.42	907.039
1124.12	778.412
1127.82	649.014
1131.52	655.986
1135.22	599.205
1138.91	279.684
1142.61	154.477
1146.3	212.156
1149.99	76.084
1153.68	34.082
1157.37	11.314
1161.06	121.264
1164.74	46.998
1168.42	64.594
1172.1	5.633
1175.78	178.031
1179.46	99.523
1183.14	109.393
1186.81	3.15
1190.48	166.752
1194.15	226.586
1197.83	169.178
1201.49	173.172
1205.16	10.354
1208.82	37.066
1212.49	15.369
1216.15	8.219
1219.81	43.213
1223.46	19.58
1227.12	24.547
1230.78	94.09
1234.43	132.008
1238.08	254.316
1241.73	333.775
1245.38	319.842
1249.03	293.725
1252.67	160.879
1256.31	120.279
1259.95	20.809
1263.6	324.24
1267.23	279.83
1270.87	309.672
1274.51	144.637
1278.14	260.943
1281.77	292.113
1285.4	203.473
1289.03	120.279
1292.66	212.639
1296.28	297.088
1299.91	286.008
1303.53	345.344
1307.15	313.33
1310.77	329.857
1314.38	427.555
1318	199.707
1321.61	203.705
1325.23	339.506
1328.84	150.654
1332.45	103.275
1336.06	273.914
1339.66	332.756
1343.27	260.438
1346.87	375.65
1350.47	408.311
1354.07	572.432
1357.67	486.941
1361.26	494.09
1364.86	551.762
1368.45	312.566
1372.04	342.682
1375.63	250.9
1379.22	286.604
1382.81	351.25
1386.39	257.74
1389.98	251.641
1393.56	259.979
1397.14	229.832
1400.72	240.131
1404.3	198.75
1407.87	220.254
1411.45	346.139
1415.02	167.502
1418.59	170.357
1422.16	153.365
1425.73	73.363
1429.29	0.891
