Measurement: Raman, 514 nm, ccw, Raman Data Processed
Mineral: Kornerupine
Rruff sample: R050214
Ideal chemistry: (Mg,Fe^2+^)_4_Al_6_(Si,Al,B)_5_O_21_(OH)
Locality: Sri Lanka
Source: Jibamitra Ganguly
Description: Water-worn single crystal fragment
Measured chemistry: (Mg_3.63_[box]_0.21_Fe^2+^_0.14_Na_0.02_)_4_Al_6.00_(Si_2.44_Al_1.97_B_0.59_)_5_O_21_(OH) ;   B and Li not measured; B estimated by charge balance
Pin_id: L00056
Orientation: Laser parallel to -c* (0 0 -1). Fiducial mark perpendicular to laser is parallel to -a [-1 0 0]
Raman shift (cm-1)	intensity
111.473	0
115.644	324.5
119.813	415.395
123.981	219.766
128.146	111.439
132.309	21.355
136.47	42.23
140.63	245.113
144.787	192.826
148.942	398.734
153.096	1106.54
157.247	2050.33
161.396	2563.21
165.544	2596.74
169.689	2844.03
173.833	3590.95
177.974	4219.47
182.114	4335.92
186.251	4646.55
190.387	3909.3
194.52	2870.22
198.652	2625.63
202.782	1865.52
206.909	1510.94
211.035	1883.4
215.159	1604.86
219.281	2091.62
223.4	2890.67
227.518	3752.63
231.634	4697.34
235.748	4515.2
239.86	4041.98
243.97	4943.52
248.079	7309.94
252.185	9996.53
256.289	12220.9
260.391	11594.6
264.492	10533.8
268.59	9710.33
272.687	8114.18
276.781	5948.53
280.874	4504.47
284.964	4831.01
289.053	7877.59
293.14	10842.9
297.225	11013.5
301.308	9114.9
305.389	8032.3
309.468	7849.45
313.545	8694.18
317.62	10190.3
321.693	11922.6
325.765	13754.9
329.834	12994.3
333.902	10845.5
337.967	7888.11
342.031	5883.14
346.093	4462.56
350.153	4049.4
354.21	4082.1
358.267	4496.47
362.321	5113.49
366.373	5995.38
370.423	7133.95
374.471	8429.07
378.518	8879.96
382.563	9050.35
386.605	9126.88
390.646	9261.23
394.685	9725.21
398.722	9625.59
402.757	8563.45
406.79	6220.68
410.821	4766.19
414.851	3410.93
418.878	2479.9
422.904	2060.57
426.927	1873.55
430.949	1990.04
434.969	2183.82
438.987	2291.83
443.003	2575.36
447.018	2596.44
451.03	2543.06
455.041	2917.23
459.049	3390.94
463.056	3667.11
467.061	3941.65
471.064	3719.5
475.065	3554.62
479.064	2929
483.062	2184.59
487.057	1671.37
491.051	1219.31
495.043	595.396
499.032	281.506
503.02	334.184
507.007	455.395
510.991	194.629
514.973	385.971
518.954	490.678
522.933	433.021
526.91	360.291
530.885	178.814
534.858	97.469
538.829	67.938
542.799	16.557
546.766	230.088
550.732	645.352
554.696	880.479
558.658	1609.56
562.618	2441.62
566.576	3031.64
570.533	3614.65
574.488	3410.65
578.44	3638.65
582.391	4293.65
586.341	4566.68
590.288	4726.73
594.233	4831.82
598.177	5310.96
602.119	5757.15
606.059	6007.42
609.997	5767.76
613.933	5141.19
617.868	4409.71
621.801	4283.33
625.731	3350.07
629.66	2763.95
633.588	2406.97
637.513	2248.15
641.437	2872.51
645.358	3168.07
649.278	3574.86
653.196	4199.25
657.113	4421.85
661.027	4686.14
664.94	4683.54
668.851	5340.79
672.76	6176.71
676.667	6926.77
680.572	8067.76
684.476	10172.8
688.378	13157.3
692.278	16970
696.176	23286.4
700.072	27608.1
703.967	28567.8
707.86	23736
711.751	17030.3
715.64	10291
719.527	6725.5
723.413	4111.89
727.297	2956.15
731.179	3476.34
735.059	5344.47
738.937	8477.57
742.814	12204.7
746.689	15690.9
750.562	18352.1
754.433	17243.5
758.303	13520.1
762.17	9964.84
766.036	6286.84
769.901	3749.13
773.763	2229.76
777.624	2216.75
781.482	1942.16
785.339	2572.02
789.195	2930.36
793.048	3181.23
796.9	3252.65
800.75	2160.66
804.598	896.301
808.445	156.607
812.289	420.426
816.132	668.732
819.973	650.826
823.813	636.832
827.65	647.555
831.486	744.643
835.32	513.779
839.152	252.207
842.983	515.844
846.812	776.912
850.639	1644.81
854.464	2699.2
858.288	3871.96
862.11	5696.95
865.93	8008.11
869.748	10745.1
873.564	13359.9
877.379	15931.6
881.192	15950.5
885.004	14070.6
888.813	11169.1
892.621	8242.07
896.427	5913.78
900.232	4626.18
904.034	3586.17
907.835	3323.88
911.634	3213.42
915.432	3329.01
919.227	3281.07
923.021	3863.33
926.813	4117.5
930.604	5102.62
934.393	6234.52
938.18	7344.28
941.965	9490.75
945.749	13087.8
949.53	17571.8
953.311	22565.6
957.089	27995.9
960.866	30807.7
964.641	31640.5
968.414	29757.9
972.185	26883.7
975.955	23161.5
979.723	19789.2
983.49	16679.2
987.254	14858.8
991.017	13949.4
994.779	13361.3
998.538	12583.2
1002.3	13841.7
1006.05	12883.8
1009.81	12933.3
1013.56	13290.5
1017.31	13977.1
1021.06	14421.2
1024.81	14344.7
1028.55	14805.6
1032.3	14190.8
1036.04	13720.4
1039.78	13348
1043.52	12640.7
1047.26	11803.1
1050.99	12326.6
1054.73	11663
1058.46	11437.3
1062.19	11319.7
1065.92	10402.5
1069.65	9708.86
1073.37	9047.2
1077.1	7985.92
1080.82	7370.38
1084.54	6252.06
1088.26	5550.08
1091.97	4972.55
1095.69	4691.24
1099.4	5676.45
1103.12	5862.65
1106.83	6572.81
1110.54	7543.82
1114.24	8686.02
1117.95	8139.75
1121.65	8382.96
1125.35	7822.39
1129.06	7581.76
1132.75	6067.82
1136.45	5269.11
1140.15	4223.57
1143.84	3605.11
1147.53	3073.31
1151.22	2562.13
1154.91	2543.41
1158.6	2031.59
1162.28	1623.74
1165.97	1357.33
1169.65	1717.9
1173.33	1271.12
1177.01	818.727
1180.69	517.908
1184.36	96.02
1188.04	430.148
1191.71	233.99
1195.38	314.449
1199.05	30.926
1202.71	367.246
1206.38	81.289
1210.04	327.346
1213.71	431.799
1217.37	152.129
1221.03	305.979
1224.68	40.945
1228.34	67.51
1231.99	143.592
1235.65	43.371
1239.3	200.535
1242.95	112.291
1246.59	161.344
1250.24	170.139
1253.88	145.289
1257.53	33.99
1261.17	76.914
1264.81	103.871
1268.45	553.764
1272.08	784.244
1275.72	468.15
1279.35	179.252
1282.98	165.578
1286.61	247.383
1290.24	557.562
1293.87	538.352
1297.49	790.666
1301.11	700.287
1304.73	454.357
1308.36	923.93
1311.97	1192.65
1315.59	917.32
1319.2	1408.17
1322.82	1359.17
1326.43	981.574
1330.04	850.309
1333.65	987.752
1337.26	549.307
1340.86	180.217
1344.47	469.191
1348.07	492.686
1351.67	664.314
1355.27	336.547
1358.87	430.221
1362.46	586.328
1366.06	427.811
1369.65	481.77
1373.24	400.953
1376.83	348.602
1380.42	437.549
1384	334.256
1387.59	367.168
1391.17	274.365
1394.75	289.307
1398.33	337.471
1401.91	238.436
1405.49	600.891
1409.06	350.283
1412.64	189.975
1416.21	136.961
1419.78	183.977
1423.35	364.918
1426.91	3.795
1430.48	0
