Measurement: Raman, 514 nm, ccw, Raman Data Processed
Mineral: Kornerupine
Rruff sample: R050214
Ideal chemistry: (Mg,Fe^2+^)_4_Al_6_(Si,Al,B)_5_O_21_(OH)
Locality: Sri Lanka
Source: Jibamitra Ganguly
Description: Water-worn single crystal fragment
Measured chemistry: (Mg_3.63_[box]_0.21_Fe^2+^_0.14_Na_0.02_)_4_Al_6.00_(Si_2.44_Al_1.97_B_0.59_)_5_O_21_(OH) ;   B and Li not measured; B estimated by charge balance
Pin_id: L00317
Orientation: Laser parallel to a* (1 0 0). Fiducial mark perpendicular to laser is parallel to b [0 1 0]
Raman shift (cm-1)	intensity
97.554	0
101.732	69.223
105.908	170.515
110.082	3.045
114.254	369.514
118.424	286.896
122.592	122.157
126.758	78.869
130.922	59.93
135.083	135.369
139.243	260.24
143.401	178.57
147.557	73.98
151.711	19.291
155.863	69.043
160.013	460.58
164.161	557.971
168.308	765.91
172.452	840.322
176.594	876.598
180.734	905.537
184.872	1171.91
189.008	1026.34
193.143	991.156
197.275	951.467
201.405	914.387
205.534	1396.98
209.66	1460.14
213.784	1377.95
217.907	1428.36
222.027	1457.31
226.146	1103.73
230.263	784.557
234.377	396.729
238.49	819.359
242.601	815.623
246.709	971.049
250.816	1489.16
254.921	1924.26
259.024	2290.67
263.125	2235.4
267.224	2230.55
271.321	1809.34
275.416	1466.84
279.51	1170.62
283.601	1355.5
287.69	2288.28
291.778	3175.86
295.863	3109.39
299.947	2408.65
304.029	2254.2
308.108	2764.91
312.186	3305.87
316.262	4053.15
320.336	5052.85
324.408	5428.4
328.478	5390.74
332.546	4926.81
336.612	3648.57
340.677	2474.95
344.739	1652.89
348.799	1294.34
352.858	1414.28
356.915	1779.71
360.969	2833.59
365.022	3881.91
369.073	4728.64
373.122	5174.63
377.169	5987.95
381.215	6625.17
385.258	7541.99
389.299	9709.52
393.339	11848.7
397.376	13497.8
401.412	12838.2
405.446	10441.4
409.478	8303.84
413.508	6684.57
417.536	5719.56
421.562	5868.81
425.586	6002.78
429.609	5556.22
433.629	4638.27
437.648	4050.25
441.665	3220.53
445.68	2988.19
449.693	3006.69
453.704	3191.36
457.713	3576.05
461.721	4158.84
465.726	4456.33
469.73	4366.5
473.731	3445.34
477.731	3104.85
481.729	2452.99
485.725	1580.74
489.72	968.082
493.712	1158.01
497.703	915.504
501.691	1394.56
505.678	2339.2
509.663	3325.67
513.646	4681.06
517.627	4551.47
521.607	2941.75
525.584	1520.8
529.56	784.354
533.534	238.389
537.506	52.652
541.476	18.771
545.444	305.625
549.41	407.5
553.375	503.422
557.337	403.734
561.298	246.328
565.257	58.818
569.214	48.549
573.17	246.705
577.123	61.02
581.075	267.445
585.024	254.318
588.972	618.729
592.918	388.711
596.863	215.271
600.805	182.369
604.746	378.98
608.685	535.184
612.621	638.992
616.557	875.504
620.49	836.65
624.421	1410.48
628.351	1356
632.279	1665.24
636.205	1845.4
640.129	2607.93
644.051	3248.43
647.972	4069.73
651.89	5307.84
655.807	4984.81
659.722	4962.92
663.636	4365.38
667.547	3117.83
671.457	2168.68
675.365	1465.61
679.271	1135.07
683.175	1390.21
687.077	1650.56
690.978	3020.12
694.877	4843.61
698.774	7777.57
702.669	9423.66
706.562	9906.44
710.454	7370.39
714.344	4890.33
718.232	2653.97
722.118	1259.34
726.002	830.357
729.885	1393.05
733.766	2311.6
737.645	4644.51
741.522	7859.39
745.397	10867.3
749.271	13697.9
753.143	15336.8
757.013	13812.2
760.881	10028.2
764.748	6488.13
768.613	4181.9
772.476	2675.55
776.337	1932.13
780.196	2091.65
784.054	2421.13
787.91	3459.59
791.764	4077.05
795.616	4216.68
799.467	3614.55
803.316	2591.92
807.163	1103.82
811.008	432.275
814.851	18.115
818.693	45.994
822.533	199.525
826.371	347.709
830.208	123.711
834.042	10.166
837.875	264.363
841.706	605.266
845.536	839.564
849.363	2105.34
853.189	2778.89
857.013	4702.51
860.836	6676.59
864.656	9471.35
868.475	13445
872.292	17523.4
876.108	20635.3
879.922	22812.3
883.733	21148
887.544	17619.1
891.352	13948.3
895.159	10750.8
898.964	8672.73
902.767	7155.05
906.568	5776.7
910.368	5031.73
914.166	5046.14
917.962	4781.87
921.757	4614.99
925.55	4971.43
929.341	5318.1
933.13	5855.03
936.918	7156.25
940.703	8575.78
944.488	10307.1
948.27	13150.7
952.051	17196.9
955.83	21786.8
959.607	26049.4
963.383	29033.9
967.156	29867.5
970.928	28771
974.699	26939.6
978.468	24164.7
982.234	22381.4
986	20549.5
989.763	20532.7
993.525	21497.1
997.285	24153
1001.04	26433.7
1004.8	29263.4
1008.55	31399.9
1012.31	32030.3
1016.06	31320.6
1019.81	30304.4
1023.56	29101.1
1027.31	26430.9
1031.05	23345.3
1034.79	19606.7
1038.53	15842.8
1042.27	12066.8
1046.01	8978.35
1049.75	6583.14
1053.48	5016.09
1057.22	3649.41
1060.95	2856.05
1064.68	2100.69
1068.4	1611.64
1072.13	958.127
1075.86	820.262
1079.58	771.691
1083.3	665.977
1087.02	393.586
1090.74	293.881
1094.45	355.488
1098.17	105.434
1101.88	155.424
1105.59	339.969
1109.3	88.881
1113.01	38.322
1116.71	14.844
1120.42	223.439
1124.12	1129.33
1127.82	90.191
1131.52	469.943
1135.22	418.977
1138.91	37.031
1142.61	8.25
1146.3	160.465
1149.99	131.539
1153.68	79.955
1157.37	102.664
1161.06	68.678
1164.74	252.254
1168.42	228.361
1172.1	207.322
1175.78	344.49
1179.46	105.725
1183.14	1105.26
1186.81	336.307
1190.48	148.959
1194.15	142.027
1197.83	125.758
1201.49	402.605
1205.16	229.516
1208.82	128.41
1212.49	243.969
1216.15	75.969
1219.81	248.602
1223.46	356.996
1227.12	138.117
1230.78	236.938
1234.43	453.582
1238.08	245.617
1241.73	382.691
1245.38	751.598
1249.03	685.465
1252.67	315.359
1256.31	52.152
1259.95	4.664
1263.6	208.184
1267.23	122.742
1270.87	358.324
1274.51	137.5
1278.14	413.242
1281.77	308.402
1285.4	204.141
1289.03	158.512
1292.66	81.5
1296.28	29.398
1299.91	133.27
1303.53	446.805
1307.15	442.91
1310.77	88.734
1314.38	625.199
1318	12.852
1321.61	149.969
1325.23	296.531
1328.84	205.953
1332.45	232.027
1336.06	70.121
1339.66	410.434
1343.27	153.652
1346.87	410.715
1350.47	531.555
1354.07	541.168
1357.67	545.051
1361.26	371.727
1364.86	405.023
1368.45	663.57
1372.04	343.52
1375.63	472.793
1379.22	626.012
1382.81	583.82
1386.39	316.801
1389.98	536.164
1393.56	597.352
1397.14	241.523
1400.72	414.68
1404.3	360.77
1407.87	474.125
1411.45	534.609
1415.02	481.746
1418.59	609.059
1422.16	229.008
1425.73	250.914
1429.29	357.266
1432.86	359.152
1436.42	820.77
1439.98	618.227
1443.54	748.637
1447.1	750.887
1450.66	910.023
1454.21	970.48
1457.77	733.941
1461.32	295.34
1464.87	273.32
1468.42	292.441
1471.96	448.312
1475.51	192.641
1479.06	84.566
1482.6	332.566
1486.14	105.09
1489.68	71.859
1493.22	294.633
1496.75	3.043
