Measurement: Raman, 514 nm, ccw, Raman Data Processed
Mineral: Kornerupine
Rruff sample: R050214
Ideal chemistry: (Mg,Fe^2+^)_4_Al_6_(Si,Al,B)_5_O_21_(OH)
Locality: Sri Lanka
Source: Jibamitra Ganguly
Description: Water-worn single crystal fragment
Measured chemistry: (Mg_3.63_[box]_0.21_Fe^2+^_0.14_Na_0.02_)_4_Al_6.00_(Si_2.44_Al_1.97_B_0.59_)_5_O_21_(OH) ;   B and Li not measured; B estimated by charge balance
Pin_id: L00056
Orientation: Laser parallel to -c* (0 0 -1). Fiducial mark perpendicular to laser is parallel to -a [-1 0 0]
Raman shift (cm-1)	intensity
105.908	0
110.082	100.687
114.254	384.26
118.424	85.133
122.592	67.354
126.758	71.07
130.922	125.657
135.083	346.133
139.243	291.843
143.401	235.299
147.557	272.936
151.711	209.273
155.863	527.609
160.013	1087.91
164.161	1086.49
168.308	734.867
172.452	751.635
176.594	772.503
180.734	879.583
184.872	921.171
189.008	1010.83
193.143	1082.74
197.275	881.477
201.405	953.514
205.534	1298.24
209.66	1711.79
213.784	1825.17
217.907	2136.39
222.027	2267.45
226.146	2095.49
230.263	1646.18
234.377	1564.45
238.49	1963.22
242.601	1968.18
246.709	2048.04
250.816	2039.9
254.921	2069.52
259.024	2363.03
263.125	2727.93
267.224	2658.34
271.321	2207.38
275.416	1833
279.51	1614.14
283.601	2137.29
287.69	3731.22
291.778	5267.99
295.863	5279.29
299.947	4281.59
304.029	3416.62
308.108	3550.21
312.186	3919.2
316.262	4812.47
320.336	6068.9
324.408	6779.38
328.478	6716.85
332.546	5612.23
336.612	4278.43
340.677	2767.22
344.739	1762.9
348.799	1459.22
352.858	1306.13
356.915	1729.57
360.969	3018.55
365.022	4213.03
369.073	5257
373.122	5752.1
377.169	6485.67
381.215	7056.94
385.258	8036.89
389.299	9938.34
393.339	11938.4
397.376	13333.3
401.412	12401.5
405.446	9664.69
409.478	7201.76
413.508	5417.13
417.536	4593.27
421.562	4540.35
425.586	4474.21
429.609	3870.55
433.629	3168.66
437.648	2539.51
441.665	2117.11
445.68	1908.44
449.693	2155.19
453.704	2266.29
457.713	2720.78
461.721	3435.69
465.726	3644.37
469.73	3437.79
473.731	2773.92
477.731	2348.76
481.729	1536.26
485.725	1091.41
489.72	176.203
493.712	132.611
497.703	31.561
501.691	480.969
505.678	1165.12
509.663	2378.25
513.646	3496.22
517.627	3265.09
521.607	2038.63
525.584	702.709
529.56	381.301
533.534	90.822
537.506	11.258
541.476	47.859
545.444	173.539
549.41	323.086
553.375	494.877
557.337	157.605
561.298	32.598
565.257	20.646
569.214	359.516
573.17	323.648
577.123	74.273
581.075	189.283
585.024	330.783
588.972	578.83
592.918	195.434
596.863	10.451
600.805	36.428
604.746	25.229
608.685	90.6
612.621	56.689
616.557	404.932
620.49	453.787
624.421	1313.29
628.351	769.453
632.279	759.299
636.205	1187.84
640.129	1505.1
644.051	2164.1
647.972	2937.87
651.89	3927.4
655.807	3467.2
659.722	3123.22
663.636	2521.54
667.547	1416.47
671.457	861.064
675.365	577.197
679.271	613.178
683.175	996.682
687.077	1932.22
690.978	3241.53
694.877	5445.51
698.774	9023.56
702.669	11080.7
706.562	11659
710.454	8464.8
714.344	5367.35
718.232	2980.17
722.118	1525.21
726.002	1138.21
729.885	1741.82
733.766	2964.9
737.645	5487.31
741.522	9022.63
745.397	12876.5
749.271	16128.6
753.143	17329.7
757.013	15094.9
760.881	11005.2
764.748	6804.25
768.613	4264.5
772.476	2642.99
776.337	1874.98
780.196	1673.51
784.054	2233.77
787.91	3057.62
791.764	3576.48
795.616	3604.58
799.467	2937.16
803.316	1865.25
807.163	700.637
811.008	18.732
814.851	140.031
818.693	162.738
822.533	123.055
826.371	304.777
830.208	21.961
834.042	221.934
837.875	349.053
841.706	737.416
845.536	1275.28
849.363	2292.81
853.189	3850.69
857.013	5098.78
860.836	7602.75
864.656	9858.97
868.475	13548.8
872.292	17043.8
876.108	20059.7
879.922	21390.4
883.733	19651.9
887.544	16680.8
891.352	13059.4
895.159	10155.8
898.964	8100.09
902.767	6729.06
906.568	5775.64
910.368	4919.07
914.166	5068.68
917.962	4638.38
921.757	4520.02
925.55	5102.29
929.341	5206.09
933.13	6040.35
936.918	7714.05
940.703	8893.15
944.488	11342.7
948.27	15170
952.051	19547.2
955.83	24634.8
959.607	28929
963.383	31473.1
967.156	31899.1
970.928	29866
974.699	27861
978.468	24482.7
982.234	22307.9
986	20160
989.763	19206.2
993.525	19813.2
997.285	21610.1
1001.04	23425
1004.8	25381.1
1008.55	26470.1
1012.31	27060
1016.06	26667.3
1019.81	25929.3
1023.56	24740.4
1027.31	22343.1
1031.05	19203.6
1034.79	15781.8
1038.53	12488.8
1042.27	9355.86
1046.01	6802.47
1049.75	4981.38
1053.48	3580.48
1057.22	2414.64
1060.95	1922.13
1064.68	1119.31
1068.4	823.082
1072.13	649.277
1075.86	503.836
1079.58	453.27
1083.3	535.812
1087.02	247.295
1090.74	62.381
1094.45	2.924
1098.17	203.199
1101.88	17.389
1105.59	262.73
1109.3	318.488
1113.01	322.898
1116.71	396.842
1120.42	464.172
1124.12	702.66
1127.82	337.182
1131.52	510.641
1135.22	640.58
1138.91	78.15
1142.61	50.09
1146.3	194.543
1149.99	19.166
1153.68	8.211
1157.37	64.918
1161.06	198.621
1164.74	339.957
1168.42	139.26
1172.1	97.037
1175.78	197.275
1179.46	36.855
1183.14	214.9
1186.81	272.475
1190.48	58.711
1194.15	100.617
1197.83	157.287
1201.49	287.912
1205.16	149.211
1208.82	136.137
1212.49	180.129
1216.15	34.18
1219.81	206.594
1223.46	160.996
1227.12	71.146
1230.78	329.188
1234.43	194.139
1238.08	147.699
1241.73	303.553
1245.38	430.346
1249.03	508.246
1252.67	453.23
1256.31	61.199
1259.95	102.047
1263.6	282.178
1267.23	510.455
1270.87	574.402
1274.51	496.408
1278.14	617.49
1281.77	492.84
1285.4	478.113
1289.03	259.383
1292.66	555.99
1296.28	272.555
1299.91	546.443
1303.53	549.822
1307.15	710.695
1310.77	615.752
1314.38	786.162
1318	494.445
1321.61	416.205
1325.23	598.234
1328.84	286.674
1332.45	74.98
1336.06	95.658
1339.66	93.594
1343.27	169.834
1346.87	439.678
1350.47	480.992
1354.07	454.383
1357.67	455.191
1361.26	213.895
1364.86	375.918
1368.45	288.148
1372.04	322.664
1375.63	433.316
1379.22	370.639
1382.81	625.029
1386.39	304.488
1389.98	549.109
1393.56	355.246
1397.14	61.412
1400.72	193.814
1404.3	116.852
1407.87	190.43
1411.45	314.271
1415.02	390.512
1418.59	508.377
1422.16	61.293
1425.73	127.684
1429.29	129.252
