Measurement: Raman, 514 nm, ccw, Raman Data Processed
Mineral: Kornerupine
Rruff sample: R050214
Ideal chemistry: (Mg,Fe^2+^)_4_Al_6_(Si,Al,B)_5_O_21_(OH)
Locality: Sri Lanka
Source: Jibamitra Ganguly
Description: Water-worn single crystal fragment
Measured chemistry: (Mg_3.63_[box]_0.21_Fe^2+^_0.14_Na_0.02_)_4_Al_6.00_(Si_2.44_Al_1.97_B_0.59_)_5_O_21_(OH) ;   B and Li not measured; B estimated by charge balance
Pin_id: L00056
Orientation: Laser parallel to -c* (0 0 -1). Fiducial mark perpendicular to laser is parallel to -a [-1 0 0]
Raman shift (cm-1)	intensity
110.082	0
114.254	61.178
118.424	175.574
122.592	40.867
126.758	79.227
130.922	225.295
135.083	281.781
139.243	104.803
143.401	85.086
147.557	32.297
151.711	35.027
155.863	173.391
160.013	398.596
164.161	416.717
168.308	314.408
172.452	488.396
176.594	486.367
180.734	898.957
184.872	1192.68
189.008	1234.94
193.143	1281.65
197.275	1502.59
201.405	1751.73
205.534	2574.36
209.66	3241.61
213.784	3914.49
217.907	4727.14
222.027	5428.85
226.146	5127.55
230.263	4254.3
234.377	3584.54
238.49	3712.64
242.601	3690.51
246.709	4149.23
250.816	4662.54
254.921	5548.01
259.024	5759.13
263.125	5501.85
267.224	5102.99
271.321	4288.51
275.416	3258.18
279.51	2483.65
283.601	2289.8
287.69	3752.95
291.778	5266.39
295.863	5599.27
299.947	4593.38
304.029	3605.57
308.108	3550.87
312.186	3661.33
316.262	4444.5
320.336	5646.74
324.408	6204.66
328.478	6549.41
332.546	5368.95
336.612	4117.51
340.677	2903.64
344.739	2277.49
348.799	1784.52
352.858	1632.42
356.915	2245.25
360.969	3099.99
365.022	4122.22
369.073	4708.94
373.122	5148.86
377.169	6142.35
381.215	6490.59
385.258	7151.38
389.299	8047.85
393.339	8936.95
397.376	9371.57
401.412	8688.52
405.446	6723.06
409.478	4984.54
413.508	3580.08
417.536	2853.96
421.562	2530.23
425.586	2354.92
429.609	1893.99
433.629	1439.45
437.648	1435.32
441.665	948.826
445.68	1012.94
449.693	924.631
453.704	1055.86
457.713	1481.61
461.721	2045.84
465.726	2237.53
469.73	2116.69
473.731	1511.29
477.731	1354.15
481.729	710.557
485.725	196.322
489.72	146.779
493.712	369.832
497.703	443.889
501.691	220.285
505.678	77.867
509.663	624.369
513.646	1240.22
517.627	1158.31
521.607	478.438
525.584	41.742
529.56	121.299
533.534	89.93
537.506	409.648
541.476	981.445
545.444	890.537
549.41	307.932
553.375	61.508
557.337	65.549
561.298	211.396
565.257	399.334
569.214	586.545
573.17	704.078
577.123	608.949
581.075	656.168
585.024	867.746
588.972	1182.69
592.918	961.018
596.863	1121.67
600.805	936.854
604.746	968.379
608.685	738.861
612.621	647.689
616.557	577.5
620.49	338.762
624.421	787.486
628.351	242.688
632.279	164.377
636.205	333.465
640.129	663.939
644.051	1102.31
647.972	1401.76
651.89	2108.65
655.807	1853.91
659.722	1670.33
663.636	1561.03
667.547	1040.06
671.457	966.625
675.365	1089.84
679.271	1323.57
683.175	2270.29
687.077	3054.62
690.978	5045.54
694.877	7511.79
698.774	10913
702.669	12480.1
706.562	12129.2
710.454	8637.37
714.344	5386.63
718.232	3101.8
722.118	1274.9
726.002	906.434
729.885	1125.42
733.766	2301.59
737.645	4221.88
741.522	7142.33
745.397	10196
749.271	12577.8
753.143	13330.9
757.013	11523.3
760.881	8111.95
764.748	4983.97
768.613	2878.36
772.476	1936.16
776.337	1050.38
780.196	1180.05
784.054	1290.21
787.91	2023.37
791.764	2469.24
795.616	2440.01
799.467	1891.39
803.316	1181.62
807.163	244.33
811.008	68.057
814.851	326.055
818.693	371.838
822.533	436.76
826.371	419.014
830.208	234.314
834.042	264.096
837.875	18.783
841.706	268.691
845.536	844.775
849.363	1733.02
853.189	2422.15
857.013	3722.18
860.836	5706.12
864.656	7307.15
868.475	10087.5
872.292	12804.1
876.108	15122.7
879.922	16451.3
883.733	14832.9
887.544	12763.6
891.352	10016.6
895.159	7736.9
898.964	6345.7
902.767	5556.19
906.568	4893.33
910.368	4199.97
914.166	4563.4
917.962	5042.57
921.757	4269.25
925.55	4717.27
929.341	5242.84
933.13	5779.85
936.918	7255.3
940.703	8523.16
944.488	10991.3
948.27	14296.7
952.051	18605.1
955.83	23513.7
959.607	27505.3
963.383	29640.6
967.156	29658.5
970.928	27907.8
974.699	25838.4
978.468	22750.2
982.234	20816.4
986	18459.5
989.763	17520.9
993.525	17608.7
997.285	18861.9
1001.04	19904.2
1004.8	21257.6
1008.55	22421.1
1012.31	22593.6
1016.06	22890.2
1019.81	22132.8
1023.56	21232.3
1027.31	19079.8
1031.05	16880.7
1034.79	14517.9
1038.53	12394.8
1042.27	10069.3
1046.01	8387.15
1049.75	7031.64
1053.48	6083.41
1057.22	5512.76
1060.95	4869.27
1064.68	4303.75
1068.4	3760.23
1072.13	3366.17
1075.86	2960.16
1079.58	2673.49
1083.3	2247.08
1087.02	2040.39
1090.74	1568.42
1094.45	1604.44
1098.17	1695.79
1101.88	1711.36
1105.59	1652.39
1109.3	2328.2
1113.01	2739.9
1116.71	2620.86
1120.42	2482.46
1124.12	2881.74
1127.82	2569.69
1131.52	2266.66
1135.22	2006.19
1138.91	1248.38
1142.61	1015.5
1146.3	991.48
1149.99	692.541
1153.68	481.998
1157.37	478.363
1161.06	281.553
1164.74	493.836
1168.42	464.361
1172.1	386.18
1175.78	302.91
1179.46	10.457
1183.14	151.471
1186.81	64.4
1190.48	119.938
1194.15	174.98
1197.83	378.201
1201.49	5.824
1205.16	192.42
1208.82	342.717
1212.49	99.797
1216.15	81.98
1219.81	56.619
1223.46	72.971
1227.12	186.477
1230.78	4.707
1234.43	168.91
1238.08	189.773
1241.73	176.996
1245.38	305.557
1249.03	478.449
1252.67	163.783
1256.31	69.818
1259.95	53.189
1263.6	361.455
1267.23	363.344
1270.87	368.547
1274.51	348.514
1278.14	551.768
1281.77	343.029
1285.4	343.229
1289.03	27.617
1292.66	248.5
1296.28	294.816
1299.91	490.66
1303.53	600.059
1307.15	718.363
1310.77	764.199
1314.38	938.48
1318	573.334
1321.61	362.939
1325.23	836.543
1328.84	278.535
1332.45	293.652
1336.06	223.408
1339.66	144.395
1343.27	210.146
1346.87	424.301
1350.47	563.639
1354.07	643.82
1357.67	443.32
1361.26	255.574
1364.86	318.287
1368.45	519.496
1372.04	270.137
1375.63	436.156
1379.22	573.547
1382.81	679.379
1386.39	287.441
1389.98	287.746
1393.56	355.988
1397.14	118.492
1400.72	303.871
1404.3	40.344
1407.87	214.707
1411.45	333.109
1415.02	161.016
1418.59	372.555
1422.16	87.117
1425.73	72.984
1429.29	48.758
1432.86	176.344
