Measurement: Raman, 514 nm, ccw, Raman Data Processed
Mineral: Kornerupine
Rruff sample: R050214
Ideal chemistry: (Mg,Fe^2+^)_4_Al_6_(Si,Al,B)_5_O_21_(OH)
Locality: Sri Lanka
Source: Jibamitra Ganguly
Description: Water-worn single crystal fragment
Measured chemistry: (Mg_3.63_[box]_0.21_Fe^2+^_0.14_Na_0.02_)_4_Al_6.00_(Si_2.44_Al_1.97_B_0.59_)_5_O_21_(OH) ;   B and Li not measured; B estimated by charge balance
Pin_id: L00479
Orientation: Laser parallel to b* (0 1 0). Fiducial mark perpendicular to laser is parallel to c [0 0 1]
Raman shift (cm-1)	intensity
100.34	0
104.516	201.61
108.691	136.802
112.864	180.148
117.034	675.213
121.203	237.617
125.369	1.42
129.534	13.742
133.696	4.938
137.857	235.826
142.016	9.463
146.172	35.056
150.327	25.155
154.48	29.226
158.63	234.461
162.779	628.086
166.926	522.729
171.07	514.509
175.213	662.167
179.354	786.734
183.493	980.829
187.63	852.553
191.765	886.341
195.898	916.542
200.029	932.273
204.158	1027.67
208.285	1222.8
212.41	1381.62
216.533	1400.15
220.654	1144.35
224.773	1040.15
228.891	636.497
233.006	473.321
237.119	287.562
241.231	643.513
245.34	932.415
249.448	1289.87
253.553	1784.33
257.657	2179.24
261.758	2109.24
265.858	1990.51
269.956	1900.95
274.052	1254.42
278.146	1064.89
282.237	1167.69
286.327	1907.74
290.416	3081.73
294.502	3046.16
298.586	2384.96
302.668	2035.54
306.749	2277.18
310.827	2971.42
314.903	3897.59
318.978	4789.14
323.051	5610.86
327.121	5637.5
331.19	5327
335.257	3976.3
339.322	2690.34
343.385	1804.06
347.446	1318.39
351.505	1400.3
355.563	1672.76
359.618	2455.78
363.672	3635.31
367.723	4497.35
371.773	4983.85
375.821	5386.79
379.866	6195.4
383.91	7054.73
387.952	8643.23
391.992	11184.8
396.031	13620.5
400.067	13847.2
404.101	12143.3
408.134	9296.88
412.165	7279.93
416.193	6101.61
420.22	6062.19
424.245	6277.15
428.268	5969.46
432.289	5375.81
436.309	4242.2
440.326	3457.56
444.342	3013.87
448.355	2986.08
452.367	3218.16
456.377	3824.09
460.385	3995.85
464.391	4236.4
468.395	4386.71
472.398	4124.76
476.398	3290.54
480.397	2536.03
484.394	1897.2
488.389	1302.05
492.382	1063.54
496.373	1067.68
500.362	1357.44
504.349	2129.86
508.335	3250.18
512.319	4535.54
516.3	5354.03
520.28	3997.55
524.259	2164.93
528.235	970.927
532.209	249.47
536.182	92.469
540.152	132.422
544.121	128.033
548.088	312.915
552.053	442.828
556.017	426.272
559.978	366.236
563.938	229.312
567.895	101.608
571.851	135.903
575.805	404.875
579.758	535.346
583.708	561.371
587.657	726.979
591.603	693.167
595.548	477.003
599.491	368.613
603.432	492.492
607.372	462.187
611.309	800.533
615.245	979.54
619.179	1262.22
623.111	1391.6
627.041	1939.67
630.97	2003.47
634.896	2013
638.821	2750.29
642.744	3528.64
646.665	4314.18
650.584	5093.84
654.502	5895.33
658.418	5725.68
662.331	4821.34
666.244	3830.9
670.154	2866.18
674.062	1943.21
677.969	1315.13
681.874	1366.64
685.777	1692.27
689.678	2629.72
693.577	4438.34
697.475	6602.45
701.371	9470.28
705.265	10870.5
709.157	8902.67
713.047	5781.37
716.936	3221.38
720.823	1745.29
724.708	788.748
728.591	974.067
732.472	1833.31
736.352	3886.63
740.23	6506.82
744.106	10398
747.98	13633.8
751.853	15713.3
755.723	15204.6
759.592	12259.6
763.459	8517.3
767.325	5044.83
771.188	3093.16
775.05	2187.32
778.91	2020.33
782.768	2143.21
786.625	2731.98
790.479	3674.66
794.332	4289.3
798.183	3775.07
802.033	2443.08
805.88	1429.45
809.726	467.254
813.57	87.08
817.413	340.453
821.253	307.923
825.092	387.259
828.929	219.635
832.764	211.667
836.598	219.952
840.429	564.678
844.259	997.571
848.088	1522.75
851.914	2623.44
855.739	4250.1
859.562	6150.02
863.383	8836.56
867.203	12330.9
871.02	17014.8
874.836	20413.3
878.65	23163.8
882.463	22559
886.274	19398.7
890.083	15488.7
893.89	12204.3
897.695	9700.58
901.499	7956.77
905.301	6412.56
909.102	5485.69
912.9	5021.2
916.697	4524.05
920.492	4651.24
924.285	5111.61
928.077	5374.16
931.867	5826.97
935.655	6459.05
939.442	7773.36
943.226	9825.31
947.009	12484.8
950.791	16471.9
954.57	21157.8
958.348	25364
962.124	29082.8
965.899	31284.5
969.671	30705.6
973.442	28878.8
977.211	25821.4
980.979	23273.2
984.745	21829.6
988.509	21564.1
992.271	22345.1
996.032	24482.5
999.791	27724.5
1003.55	30324.4
1007.3	32775.5
1011.06	33960.8
1014.81	33489.9
1018.56	32322.8
1022.31	30984.6
1026.06	28992.4
1029.8	25822.1
1033.55	22329.9
1037.29	17941.4
1041.03	13734
1044.77	10510.2
1048.5	7786.97
1052.24	5842.6
1055.97	4288.09
1059.7	2894.51
1063.43	2070.17
1067.16	1792.96
1070.89	1242.84
1074.61	946.746
1078.34	797.555
1082.06	417.645
1085.78	372.189
1089.5	152.175
1093.21	24.862
1096.93	44.156
1100.64	185.851
1104.35	144.527
1108.06	280.718
1111.77	174.242
1115.48	37.584
1119.18	47.668
1122.89	511.402
1126.59	259.274
1130.29	226.048
1133.99	226.582
1137.68	333.137
1141.38	85.835
1145.07	88.275
1148.76	95.761
1152.45	181.964
1156.14	75.474
1159.83	184.214
1163.51	224.839
1167.19	221.548
1170.88	79.568
1174.56	145.153
1178.23	124.42
1181.91	38.453
1185.59	21.675
1189.26	58.848
1192.93	42.297
1196.6	109.821
1200.27	154.519
1203.94	47.177
1207.6	47.665
1211.27	63.344
1214.93	103.964
1218.59	351.146
1222.25	257.49
1225.9	157.914
1229.56	197.321
1233.21	129.29
1236.86	158.527
1240.51	218.54
1244.16	155.804
1247.81	202.251
1251.45	170.003
1255.1	154.533
1258.74	158.718
1262.38	60.8
1266.02	156.158
1269.66	103.068
1273.29	26.407
1276.93	125.995
1280.56	153.333
1284.19	138.61
1287.82	102.189
1291.45	120.705
1295.07	127.857
1298.7	199.408
1302.32	115.528
1305.94	117.413
1309.56	375.874
1313.18	57.901
1316.8	384.161
1320.41	315.269
1324.02	263.903
1327.63	212.904
1331.24	202.861
1334.85	147.709
1338.46	179.328
1342.06	353.25
1345.67	216.083
1349.27	262.187
1352.87	419.872
1356.47	305.723
1360.07	360.768
1363.66	178.007
1367.25	337.539
1370.85	228.697
1374.44	220.323
1378.03	83.941
1381.61	224.253
1385.2	231.119
1388.78	131.892
1392.37	110.039
1395.95	230.365
1399.53	146.179
1403.1	177.862
1406.68	42.282
1410.26	16.989
1413.83	128.463
1417.4	83.705
1420.97	168.024
1424.54	159.913
1428.1	100.234
1431.67	252.206
