Measurement: Raman, 514 nm, ccw, Raman Data Processed
Mineral: Kurnakovite
Rruff sample: R050105
Ideal chemistry: MgB_3_O_3_(OH)_5_5H_2_O
Locality: Kramer deposit, Boron, Kern County, California, USA
Source: Rock Currier
Description: Tabular single crystal
Measured chemistry: MgB_3_O_3_(OH)_5_Â·5H_2_O
Pin_id: L00484
Orientation: Laser parallel to b* (0 1 0). Fiducial mark perpendicular to laser is parallel to c [0 0 1]
Raman shift (cm-1)	intensity
113.559	0
117.729	273.531
121.897	357.127
126.063	445.342
130.228	1501.41
134.39	1761.26
138.55	1487.72
142.709	2688.65
146.865	4956.52
151.019	6252.43
155.171	6211.2
159.322	5978.66
163.47	6910.93
167.617	7356.37
171.761	5192.89
175.904	2649.35
180.044	1326.31
184.183	1262.13
188.319	1859.23
192.454	1398.02
196.586	470.42
200.717	130.572
204.846	172.533
208.972	76.083
213.097	439.425
217.22	607.531
221.341	921.61
225.46	2091.35
229.577	3406.67
233.692	3125.52
237.805	1573.85
241.916	985.302
246.025	1138.46
250.132	1527.81
254.237	1862.34
258.34	1749.12
262.442	787.875
266.541	259.948
270.639	23.961
274.734	59.214
278.828	268.276
282.919	430.11
287.009	360.633
291.097	125.84
295.183	90.779
299.266	155.282
303.348	56.286
307.428	47.083
311.507	35.749
315.583	224.788
319.657	668.789
323.729	1091.71
327.8	1159.22
331.868	999.935
335.935	685.903
339.999	622.184
344.062	705.826
348.123	638.877
352.182	489.375
356.239	492.286
360.294	605.125
364.347	811.083
368.398	1161.29
372.448	1705.52
376.495	2343.24
380.54	2798.93
384.584	2419.36
388.626	1639.54
392.666	1167.49
396.704	873.223
400.74	646.761
404.774	336.12
408.806	65.685
412.836	60.899
416.865	11.664
420.891	39.19
424.916	156.245
428.939	176.819
432.959	245.384
436.978	215.844
440.996	42.519
445.011	107.717
449.024	196.583
453.036	556.88
457.045	1021.28
461.053	1761.03
465.059	2638.89
469.063	2718.12
473.065	2184.63
477.065	1513.12
481.063	1436.57
485.06	1460
489.054	1530.46
493.047	1801.94
497.038	2259.49
501.027	2937.1
505.014	4025.8
508.999	5166.61
512.982	6215.55
516.964	7302.61
520.944	8385.95
524.921	9313.79
528.897	10614.6
532.871	12003.3
536.844	12259
540.814	11938.7
544.783	11483.4
548.749	11630.2
552.714	12221.8
556.677	12085.1
560.638	10117.9
564.597	7083.09
568.555	5010.85
572.511	4277.6
576.464	4203.19
580.416	4205.65
584.366	4575.02
588.315	4863.58
592.261	5391.98
596.206	5414.32
600.148	6310.38
604.089	7205.55
608.028	9293.82
611.965	12071.6
615.901	16581.3
619.834	24142.1
623.766	33805
627.696	42314.1
631.624	39617.2
635.551	29975.1
639.475	19460.5
643.398	12210.7
647.318	7698.32
651.237	5138.52
655.155	3677.29
659.07	2526.62
662.984	2139.51
666.895	1879.95
670.805	1641.95
674.713	1670.71
678.62	1744.26
682.524	1902.17
686.427	2228.37
690.328	2419.91
694.227	3026.23
698.124	3322.66
702.02	3942.51
705.913	4206.89
709.805	4578.38
713.695	4381.11
717.584	4278.01
721.47	4225.1
725.355	3724.17
729.238	3728.47
733.119	3514.19
736.998	2918.33
740.876	2125.86
744.752	1403
748.626	1026.85
752.498	909.454
756.368	777.695
760.237	684.374
764.104	544.304
767.969	414.372
771.832	521.564
775.693	367.859
779.553	336.236
783.411	389.674
787.267	410.154
791.122	514.659
794.974	486.173
798.825	637.683
802.674	647.175
806.522	761.637
810.367	815.055
814.211	768.415
818.053	561.705
821.893	419.91
825.732	146.019
829.568	65.005
833.403	180.479
837.236	150.941
841.068	140.673
844.898	204.78
848.726	262.418
852.552	276.326
856.376	174.713
860.199	151.128
864.02	0.734
867.839	3.18
871.656	183.913
875.472	96.747
879.286	155.317
883.098	359.653
886.909	352.878
890.717	478.966
894.524	503.871
898.33	507.875
902.133	657.009
905.935	570.029
909.735	763.917
913.533	811.561
917.33	1039.9
921.124	992.949
924.918	1036.65
928.709	1193.02
932.499	1204.03
936.286	1223.69
940.073	1411
943.857	1640.96
947.64	1748.55
951.421	1995.79
955.2	2276.66
958.978	2458.17
962.753	2075.31
966.527	1896.09
970.3	1446.5
974.071	1313.55
977.84	1214.23
981.607	1040.96
985.372	1030.68
989.136	879.338
992.898	811.697
996.659	815.292
1000.42	983.698
1004.17	908.952
1007.93	886.236
1011.68	802.296
1015.43	806.369
1019.18	781.757
1022.93	729.692
1026.68	978.813
1030.42	1184.03
1034.17	1452.44
1037.91	1750.43
1041.65	2027.05
1045.39	2345.32
1049.12	2474.94
1052.86	2628.19
1056.59	2444.51
1060.33	2156.4
1064.06	1805.24
1067.78	1560.89
1071.51	1319.88
1075.23	1200.68
1078.96	1103.35
1082.68	1050.89
1086.4	1059.3
1090.12	1180.58
1093.83	1390.75
1097.55	1682.81
1101.26	1972.76
1104.97	2319.6
1108.68	2497.35
1112.39	2927
1116.1	2996.57
1119.8	2985.05
1123.5	2937.46
1127.2	2725.79
1130.9	2537.1
1134.6	2198.58
1138.3	2018.51
1141.99	1633.96
1145.69	1528.99
1149.38	1494.68
1153.07	1328.07
1156.76	1068.03
1160.44	938.759
1164.13	692.801
1167.81	438.025
1171.49	221.294
1175.17	117.557
1178.85	58.832
1182.52	117.915
1186.2	13.941
1189.87	30.337
1193.54	182.959
1197.21	134.477
1200.88	59.701
1204.55	46.252
1208.21	63.844
1211.88	13.861
1215.54	56.39
1219.2	236.679
1222.86	373.574
1226.51	343.479
1230.17	385.388
1233.82	317.331
1237.47	361.286
1241.12	178.236
1244.77	283.188
1248.42	442.144
1252.06	455.101
1255.71	527.061
1259.35	490.024
1262.99	521.989
1266.63	713.958
1270.26	943.927
1273.9	1116.9
1277.53	1425.87
1281.16	1768.83
1284.8	1840.78
1288.42	2010.71
1292.05	1910.64
1295.68	1963.57
1299.3	1879.52
1302.92	2213.47
1306.55	2514.43
1310.16	2855.38
1313.78	3117.32
1317.4	3662.26
1321.01	3772.2
1324.62	3551.83
1328.24	3689.84
1331.85	3624.74
1335.45	3395.39
1339.06	3070.66
1342.66	2477.15
1346.27	1804.53
1349.87	1519.98
1353.47	1007.56
1357.07	858.883
1360.66	704.852
1364.26	528.405
1367.85	552.91
1371.44	409.584
1375.04	399.041
1378.62	372.31
1382.21	449.095
1385.8	416.657
1389.38	433.139
1392.96	325.533
1396.54	445.832
1400.12	246.029
1403.7	326.113
1407.28	326.079
1410.85	274.914
1414.42	327.608
1417.99	170.144
1421.56	230.506
1425.13	175.478
1428.7	150.769
1432.26	162.506
1435.83	132.357
1439.39	230.351
1442.95	145.8
1446.51	139.434
1450.06	176.151
1453.62	262.903
1457.17	219.899
1460.73	419.184
1464.28	41.169
1467.83	60.06
1471.37	136.646
1474.92	12.868
1478.46	23.607
1482.01	16.974
1485.55	205.05
1489.09	95.943
1492.63	90.869
1496.16	113.928
1499.7	100.646
1503.23	37.974
1506.76	89.136
1510.29	129.194
1513.82	177.065
1517.35	7.097
1520.88	93.683
