Measurement: Raman, 514 nm, ccw, Raman Data Processed
Mineral: Kurnakovite
Rruff sample: R050105
Ideal chemistry: MgB_3_O_3_(OH)_5_5H_2_O
Locality: Kramer deposit, Boron, Kern County, California, USA
Source: Rock Currier
Description: Tabular single crystal
Measured chemistry: MgB_3_O_3_(OH)_5_Â·5H_2_O
Pin_id: L00487
Orientation: Laser parallel to (0 1 1). Fiducial mark perpendicular to laser is parallel to -a [-1 0 0]
Raman shift (cm-1)	intensity
109.387	0
113.559	985.796
117.729	6163.1
121.897	10343.4
126.063	6676.25
130.228	6230.47
134.39	4579.31
138.55	1512.78
142.709	832.377
146.865	2495.79
151.019	3643.09
155.171	2928.18
159.322	4985.55
163.47	10845.8
167.617	15092.7
171.761	14241.5
175.904	12503.3
180.044	8131.25
184.183	4194.63
188.319	4215.85
192.454	4986.27
196.586	3686.4
200.717	1323.87
204.846	374.939
208.972	716.139
213.097	1356.86
217.22	1797.16
221.341	1885.77
225.46	3209.22
229.577	5821.19
233.692	7158.3
237.805	4216.97
241.916	1514.02
246.025	400.084
250.132	1089.02
254.237	428.963
258.34	386.598
262.442	185.472
266.541	562.985
270.639	488.915
274.734	185.913
278.828	1459.15
282.919	2589.07
287.009	2077.75
291.097	790.258
295.183	112.182
299.266	388.354
303.348	165.728
307.428	51.507
311.507	175.715
315.583	296.048
319.657	126.795
323.729	646.576
327.8	813.355
331.868	1028.15
335.935	1386.19
339.999	2509.66
344.062	3637.72
348.123	3436.47
352.182	2833.85
356.239	2575.14
360.294	2117.78
364.347	1887.8
368.398	2165.92
372.448	2978.87
376.495	3428.55
380.54	3464.78
384.584	2300.81
388.626	910.7
392.666	87.463
396.704	178.146
400.74	247.519
404.774	136.66
408.806	12.271
412.836	1036
416.865	2650.93
420.891	3407.5
424.916	2258.71
428.939	1021.62
432.959	48.771
436.978	242.067
440.996	121.386
445.011	283.095
449.024	1309.51
453.036	3269.82
457.045	7283.46
461.053	15894.1
465.059	28819.3
469.063	35487.3
473.065	27236.3
477.065	16157.8
481.063	9799.92
485.06	6155.83
489.054	4287.62
493.047	3176.33
497.038	2710.34
501.027	2771.69
505.014	3425.4
508.999	4399.52
512.982	5411.08
516.964	6474.19
520.944	7266.92
524.921	7699.42
528.897	8386.09
532.871	9535.11
536.844	9614.68
540.814	8943.94
544.783	8586.08
548.749	8441.04
552.714	9380.19
556.677	9653.38
560.638	7951.06
564.597	5035.55
568.555	2901.29
572.511	2045.94
576.464	1694.74
580.416	1344.62
584.366	1477.77
588.315	1777.23
592.261	2183.52
596.206	2421.02
600.148	2990.29
604.089	3928.98
608.028	5618.83
611.965	7973.77
615.901	11556.9
619.834	18263.1
623.766	27200.7
627.696	37184.2
631.624	37419.5
635.551	30274.1
639.475	20726.7
643.398	12781.6
647.318	7974.54
651.237	5072.56
655.155	3406.65
659.07	1992.81
662.984	1384.02
666.895	1056.29
670.805	642.594
674.713	618.929
678.62	750.799
682.524	787.406
686.427	1285.08
690.328	1418.97
694.227	1868.3
698.124	2537.65
702.02	3217.85
705.913	3817.2
709.805	4797.16
713.695	5109.15
717.584	5773.64
721.47	6472.52
725.355	7171.68
729.238	8525.61
733.119	9594.32
736.998	9479.87
740.876	8392.39
744.752	6903.01
748.626	5638.93
752.498	4728.14
756.368	4158.82
760.237	3580.76
764.104	2840.89
767.969	2240.17
771.832	1999.59
775.693	1547.09
779.553	1280.65
783.411	1197.23
787.267	1233.79
791.122	1392.28
794.974	1601.68
798.825	1761.95
802.674	1865.06
806.522	1956
810.367	1887.73
814.211	1612.24
818.053	1286.66
821.893	851.487
825.732	503.173
829.568	153.534
833.403	3.497
837.236	235.365
841.068	165.836
844.898	295.002
848.726	371.189
852.552	329.732
856.376	345.687
860.199	199.986
864.02	184.369
867.839	128.624
871.656	19.442
875.472	3.479
879.286	9.646
883.098	200.017
886.909	240.884
890.717	295.061
894.524	427.46
898.33	609.245
902.133	993.453
905.935	1414.1
909.735	2053.18
913.533	2505.69
917.33	3215.54
921.124	3335.7
924.918	2745.14
928.709	2299.86
932.499	1890.84
936.286	1573.09
940.073	1834.62
943.857	2036.48
947.64	2244.75
951.421	2551.31
955.2	2978.18
958.978	3087.43
962.753	2697.03
966.527	2171.99
970.3	1752.24
974.071	1493.77
977.84	1454.56
981.607	1389.59
985.372	1517.9
989.136	1350.74
992.898	1461.69
996.659	1626.22
1000.42	1845.95
1004.17	2090.33
1007.93	1982.53
1011.68	1696.98
1015.43	1399.93
1019.18	1105.05
1022.93	923.919
1026.68	868.384
1030.42	738.647
1034.17	826.056
1037.91	987.249
1041.65	998.019
1045.39	891.266
1049.12	783.128
1052.86	699.854
1056.59	571.415
1060.33	534.84
1064.06	550.178
1067.78	486.08
1071.51	556.951
1075.23	545.09
1078.96	658.962
1082.68	894.589
1086.4	1097.05
1090.12	1184.38
1093.83	1456.46
1097.55	1857.66
1101.26	2462.95
1104.97	2947.7
1108.68	3377.73
1112.39	3922.75
1116.1	4162.03
1119.8	4251.24
1123.5	4229.7
1127.2	3889
1130.9	3542.17
1134.6	3254.26
1138.3	3120.62
1141.99	2587.49
1145.69	2639.96
1149.38	2523.16
1153.07	2182.29
1156.76	1832.28
1160.44	1503.08
1164.13	1099.59
1167.81	815.646
1171.49	584.101
1175.17	359.788
1178.85	350.721
1182.52	189.843
1186.2	174.988
1189.87	105.152
1193.54	25.742
1197.21	25.67
1200.88	56.848
1204.55	31.424
1208.21	28.978
1211.88	9.126
1215.54	19.809
1219.2	62.267
1222.86	113.366
1226.51	182.501
1230.17	49.668
1233.82	66.865
1237.47	81.026
1241.12	96.978
1244.77	27.773
1248.42	21.375
1252.06	18.733
1255.71	29.091
1259.35	80.98
1262.99	4.936
1266.63	147.121
1270.26	151.21
1273.9	201.344
1277.53	374.521
1281.16	506.738
1284.8	627.997
1288.42	748.426
1292.05	677.594
1295.68	702.916
1299.3	674.246
1302.92	928.58
1306.55	1090.91
1310.16	1348.21
1313.78	1565.48
1317.4	1948.72
1321.01	2143.94
1324.62	2593.15
1328.24	3325.35
1331.85	3844.55
1335.45	4113.4
1339.06	3759.92
1342.66	3031.83
1346.27	2136.18
1349.87	1594
1353.47	1089.28
1357.07	903.173
1360.66	771.749
1364.26	574.667
1367.85	557.985
1371.44	603.908
1375.04	564.524
1378.62	561.681
1382.21	622.854
1385.8	722.35
1389.38	660.18
1392.96	737.669
1396.54	627.996
1400.12	469.78
1403.7	544.482
1407.28	370.086
1410.85	472.579
1414.42	506.95
1417.99	411.188
1421.56	334.28
1425.13	159.221
1428.7	239.993
1432.26	251.593
1435.83	221.152
1439.39	360.15
1442.95	281.806
1446.51	309.369
1450.06	263.682
1453.62	457.743
1457.17	543.082
1460.73	404.402
1464.28	321.059
1467.83	238.989
1471.37	347.118
1474.92	254.525
1478.46	84.319
1482.01	165.646
1485.55	208.592
1489.09	136.198
1492.63	119.733
1496.16	200.304
1499.7	6.166
1503.23	103.555
1506.76	157.758
1510.29	182.773
1513.82	191.72
1517.35	43.001
1520.88	151.197
1524.4	35.466
