Measurement: Raman, 514 nm, ccw, Raman Data Processed
Mineral: Kurnakovite
Rruff sample: R050105
Ideal chemistry: MgB_3_O_3_(OH)_5_5H_2_O
Locality: Kramer deposit, Boron, Kern County, California, USA
Source: Rock Currier
Description: Tabular single crystal
Measured chemistry: MgB_3_O_3_(OH)_5_Â·5H_2_O
Pin_id: L00269
Orientation: Laser parallel to (-1 -1 0). Fiducial mark perpendicular to laser is parallel to -c [0 0 -1]
Raman shift (cm-1)	intensity
107.995	0
112.168	2976.58
116.339	10348.1
120.508	13704.9
124.675	7563.49
128.84	7187.82
133.003	9411.58
137.164	4979.72
141.323	1509.67
145.48	146.951
149.635	191.071
153.788	422.437
157.939	394.196
162.088	2207.78
166.235	4829.35
170.38	8137.19
174.523	11032.1
178.664	9288.93
182.803	6525.94
186.94	6945.62
191.076	6958.43
195.209	3944.94
199.34	930.193
203.47	210.416
207.597	254.615
211.722	92.528
215.846	1721.27
219.967	3516.09
224.087	7101.94
228.204	12346.9
232.32	13149.9
236.434	7578.05
240.545	3026.37
244.655	1838.44
248.763	3561.74
252.869	6897.3
256.973	8369.1
261.075	4815.08
265.175	2106.74
269.273	1328.43
273.369	2349.89
277.463	4495.43
281.556	6871.82
285.646	7079.06
289.734	4516.73
293.821	2943.63
297.905	3426.15
301.988	5452.29
306.069	6615.41
310.147	5312.32
314.224	3250.05
318.299	2122.1
322.372	2340.09
326.443	3029.85
330.512	3705.76
334.579	5071.85
338.645	7925.03
342.708	13316.2
346.769	21032.3
350.829	31417.3
354.887	41907
358.942	39783.6
362.996	27278.7
367.048	18619.1
371.098	14590.6
375.146	12567
379.192	11844.3
383.236	9621.77
387.279	6146.15
391.319	3404.43
395.358	2011.39
399.394	1637.74
403.429	2139.46
407.462	4335.57
411.493	9055.04
415.522	16320.9
419.549	20271
423.575	14964.5
427.598	7323.23
431.619	2719.26
435.639	710.617
439.657	454.596
443.673	767.73
447.687	858.952
451.699	327.341
455.709	925.367
459.717	2832.24
463.724	5929.47
467.728	6677.02
471.731	4302.89
475.732	1732.12
479.731	523.305
483.728	169.323
487.723	389.569
491.716	1051.05
495.708	1764.77
499.697	2613.71
503.685	3172.86
507.671	3047.21
511.655	2299.74
515.637	1819.45
519.617	1875.33
523.596	1939.42
527.572	2265.05
531.547	3872.94
535.52	4415.75
539.491	6262.66
543.46	8403.19
547.427	11508.4
551.393	15694.6
555.356	20352.3
559.318	20759.9
563.278	15173.5
567.236	10370.2
571.192	7638.75
575.147	5852.31
579.099	5595.83
583.05	6326.31
586.999	8557.73
590.946	9366.1
594.891	7357.4
598.834	5796.1
602.776	5410.22
606.715	6034.9
610.653	7942.46
614.589	11588.1
618.523	18020.7
622.456	28231.5
626.386	40176.4
630.315	46561.5
634.242	40139.7
638.167	28449.1
642.09	19683.3
646.012	13317.4
649.931	9389.99
653.849	6405.71
657.765	4891.51
661.679	3548.39
665.592	2495.33
669.502	1707.36
673.411	1184.91
677.318	621.708
681.223	266.953
685.126	85.39
689.028	114.501
692.927	210.724
696.825	246.565
700.721	156.008
704.616	176.253
708.508	104.18
712.399	407.254
716.288	1037.23
720.175	2155.07
724.06	3851.9
727.944	6527.58
731.825	10405.2
735.705	13471.6
739.584	14270
743.46	11733.3
747.334	9349.4
751.207	7274.44
755.078	5960.65
758.947	5105.33
762.815	4528.28
766.68	3974.02
770.544	3390.31
774.406	3138.47
778.267	3085.5
782.125	2935.4
785.982	3048.16
789.837	3162.76
793.69	3453.22
797.542	3634.53
801.391	3282.71
805.239	2742.72
809.085	2371.55
812.93	1777.21
816.772	1245.68
820.613	630.422
824.452	333.924
828.29	149.697
832.125	85.3
835.959	168.869
839.791	146.768
843.621	44.583
847.45	34.794
851.277	25.472
855.102	94.526
858.925	472.843
862.746	637.795
866.566	1093.64
870.384	1213.3
874.2	1316.78
878.015	1365.09
881.828	1211.21
885.639	1069.21
889.448	829.055
893.256	1048.73
897.061	1094.35
900.865	1365.63
904.668	1869.92
908.468	2601.78
912.267	3307.57
916.064	3828.21
919.86	3818.61
923.653	3570.73
927.445	2904.56
931.236	2177.84
935.024	1684.38
938.811	1251.37
942.596	1302.07
946.379	1146.49
950.161	1339.62
953.94	1452.47
957.719	1385.04
961.495	1032.32
965.27	870.322
969.043	227.039
972.814	150.472
976.583	14.532
980.351	105.446
984.117	114.788
987.882	92.153
991.644	61.158
995.405	28.049
999.165	289.845
1002.92	621.154
1006.68	458.799
1010.43	363.39
1014.18	482.915
1017.93	501.3
1021.68	842.51
1025.43	1296.55
1029.18	1671.42
1032.92	2294.39
1036.66	3050.92
1040.4	3312.32
1044.14	3326.97
1047.88	3041.68
1051.62	2935.67
1055.35	2429.43
1059.08	2178.48
1062.81	1984.98
1066.54	1885.91
1070.27	2000.81
1073.99	1893.51
1077.72	2047.03
1081.44	2321.37
1085.16	2377.53
1088.88	2861.52
1092.59	3265.34
1096.31	3623
1100.02	4475.5
1103.73	4854.85
1107.44	5705.05
1111.15	5885.1
1114.86	6099
1118.57	6277.75
1122.27	5798.6
1125.97	5353.4
1129.67	4724.41
1133.37	4000.14
1137.07	3153.88
1140.76	2693.56
1144.45	1999.53
1148.15	1686.04
1151.84	1280.77
1155.53	1047.53
1159.21	870.247
1162.9	735.901
1166.58	648.492
1170.26	444.026
1173.94	209.504
1177.62	199.93
1181.3	104.271
1184.97	5.464
1188.65	5.574
1192.32	41.41
1195.99	206.77
1199.66	9.124
1203.33	72.483
1206.99	15.48
1210.65	64.688
1214.32	144.938
1217.98	273.571
1221.64	296.253
1225.29	335.396
1228.95	225.76
1232.6	179.571
1236.26	186.413
1239.91	66.278
1243.56	121.146
1247.2	37.012
1250.85	76.885
1254.49	235.768
1258.13	214.662
1261.78	294.694
1265.41	541.507
1269.05	741.469
1272.69	922.535
1276.32	1305.73
1279.95	1708.48
1283.59	1996.11
1287.21	2191.43
1290.84	2198.94
1294.47	2036.56
1298.09	2129.24
1301.72	2002
1305.34	1998.83
1308.96	2227.73
1312.58	2529.72
1316.19	2589.78
1319.81	2788.94
1323.42	2924.21
1327.03	3120.31
1330.64	3293.58
1334.25	3831.2
1337.86	3520.1
1341.46	2912.06
1345.07	2310.07
1348.67	1789.98
1352.27	1295.52
1355.87	1136.48
1359.46	934.757
1363.06	733.092
1366.65	551.754
1370.25	637.898
1373.84	573.686
1377.43	607.955
1381.02	450.513
1384.6	597.53
1388.18	620.023
1391.77	610.631
1395.35	750.36
1398.93	779.22
1402.51	712.212
1406.08	833.308
1409.66	878.474
1413.23	768.692
1416.8	774.958
1420.37	503.265
1423.94	565.604
1427.51	413.094
1431.08	431.785
1434.64	360.639
1438.2	430.246
1441.76	538.83
1445.32	617.691
1448.88	641.523
1452.43	575.445
1455.99	684.652
1459.54	686.382
1463.09	674.705
1466.64	590.692
1470.19	255.452
1473.74	430.128
1477.28	178.907
1480.83	181.902
1484.37	129.936
1487.91	187.088
1491.45	167.669
1494.98	236.957
1498.52	123.243
1502.05	2.837
1505.59	7.9
1509.12	10.337
1512.65	90.264
1516.17	196.245
1519.7	64.776
1523.23	0
