Measurement: Raman, 514 nm, ccw, Raman Data Processed
Mineral: Kurnakovite
Rruff sample: R050105
Ideal chemistry: MgB_3_O_3_(OH)_5_5H_2_O
Locality: Kramer deposit, Boron, Kern County, California, USA
Source: Rock Currier
Description: Tabular single crystal
Measured chemistry: MgB_3_O_3_(OH)_5_Â·5H_2_O
Pin_id: L00269
Orientation: Laser parallel to (-1 -1 0). Fiducial mark perpendicular to laser is parallel to -c [0 0 -1]
Raman shift (cm-1)	intensity
120.508	0
124.675	11.108
128.84	728.779
133.003	1433.71
137.164	566.521
141.323	997.625
145.48	2274.4
149.635	3714.99
153.788	4002.6
157.939	3211.79
162.088	2747.1
166.235	2849.2
170.38	2530.92
174.523	1706.54
178.664	917.929
182.803	1082.84
186.94	1795.04
191.076	1832.47
195.209	707.955
199.34	112.624
203.47	82.172
207.597	60.399
211.722	52.853
215.846	184.264
219.967	653.958
224.087	1469.96
228.204	2867.12
232.32	2903.33
236.434	1771.35
240.545	1204.62
244.655	1900.72
248.763	2957.61
252.869	4063.13
256.973	4297.69
261.075	2789.37
265.175	1285.22
269.273	711.354
273.369	477.253
277.463	582.002
281.556	987.266
285.646	1008.9
289.734	703.833
293.821	395.269
297.905	165.999
301.988	58.365
306.069	5.909
310.147	63.803
314.224	247.479
318.299	522.332
322.372	744.512
326.443	779.797
330.512	601.64
334.579	428.487
338.645	305.825
342.708	297.662
346.769	428.011
350.829	424.91
354.887	530.39
358.942	665.471
362.996	884.073
367.048	1309.36
371.098	1920.38
375.146	2844.88
379.192	3599.13
383.236	3536.57
387.279	2604.65
391.319	1727.42
395.358	1523.88
399.394	1273.03
403.429	541.956
407.462	204.669
411.493	137.917
415.522	373.175
419.549	371.338
423.575	206.372
427.598	208.16
431.619	266.487
435.639	165.05
439.657	184.555
443.673	40.639
447.687	338.646
451.699	476.574
455.709	1182.07
459.717	1835.46
463.724	2989.89
467.728	3430.12
471.731	2861.05
475.732	2330.4
479.731	1958.53
483.728	1827.9
487.723	1870.29
491.716	2037.73
495.708	2211.07
499.697	2507.82
503.685	3070.04
507.671	4172.24
511.655	5318.85
515.637	6468.13
519.617	7739.5
523.596	9028.41
527.572	10349.1
531.547	11943.9
535.52	12677.2
539.491	12423.6
543.46	11762.3
547.427	11583
551.393	11935.3
555.356	12323.3
559.318	10964.9
563.278	7766.94
567.236	5588.52
571.192	4573.13
575.147	3962.59
579.099	4130.82
583.05	4516.95
586.999	5101.55
590.946	5564.52
594.891	5759.9
598.834	6212
602.776	7367.66
606.715	9067.07
610.653	11735.1
614.589	15840.7
618.523	22952.1
622.456	33133.2
626.386	43112.2
630.315	45687.1
634.242	36443.8
638.167	23550.1
642.09	15422.1
646.012	9716.68
649.931	6273.41
653.849	4528.75
657.765	3496.24
661.679	2902.36
665.592	2371.12
669.502	2013.51
673.411	1857.76
677.318	1965.66
681.223	2217.03
685.126	2650.12
689.028	2791.31
692.927	3144.32
696.825	3530.92
700.721	3969.41
704.616	4379.66
708.508	4964.16
712.399	4948.33
716.288	4603.46
720.175	4222.54
724.06	4184.69
727.944	3870.86
731.825	3929.29
735.705	3196.8
739.584	2498.28
743.46	1759.79
747.334	1303.14
751.207	1103.46
755.078	857.383
758.947	666.68
762.815	885.218
766.68	560.966
770.544	441.913
774.406	402.045
778.267	479.342
782.125	392.789
785.982	483.368
789.837	510.063
793.69	673.859
797.542	808.738
801.391	740.687
805.239	938.692
809.085	1149.74
812.93	925.815
816.772	668.903
820.613	465.986
824.452	204.053
828.29	27.919
832.125	121.245
835.959	222.11
839.791	213.057
843.621	171.364
847.45	89.037
851.277	142.077
855.102	160.381
858.925	25.982
862.746	50.429
866.566	82.408
870.384	181.667
874.2	209.467
878.015	67.817
881.828	146.844
885.639	228.776
889.448	158.626
893.256	278.593
897.061	389.76
900.865	426.909
904.668	339.006
908.468	366.825
912.267	448.49
916.064	583.852
919.86	653.902
923.653	791.634
927.445	827.039
931.236	912.114
935.024	1008.85
938.811	1092.26
942.596	1387.31
946.379	1429.02
950.161	1452.38
953.94	1441.39
957.719	1512.04
961.495	1257.32
965.27	1150.25
969.043	1023.81
972.814	814.007
976.583	534.835
980.351	432.99
984.117	354.841
987.882	463.508
991.644	456.619
995.405	424.948
999.165	581.26
1002.92	932.752
1006.68	731.773
1010.43	621.961
1014.18	719.934
1017.93	646.32
1021.68	658.051
1025.43	662.936
1029.18	902.28
1032.92	1237.17
1036.66	1616.39
1040.4	1799.25
1044.14	2019.41
1047.88	2459.97
1051.62	2882.91
1055.35	2633.49
1059.08	2492.59
1062.81	2089.35
1066.54	1842.97
1070.27	1677.34
1073.99	1673.55
1077.72	1356.58
1081.44	1335.46
1085.16	1227.19
1088.88	1425.77
1092.59	1593.2
1096.31	1882.49
1100.02	2143.66
1103.73	2427.7
1107.44	2906.61
1111.15	3069.41
1114.86	3253.1
1118.57	3156.68
1122.27	3143.1
1125.97	3096.56
1129.67	2705.88
1133.37	2419.29
1137.07	1968.04
1140.76	1909.14
1144.45	1768.88
1148.15	1665.19
1151.84	1476.08
1155.53	1183.47
1159.21	891.354
1162.9	689.502
1166.58	385.852
1170.26	312.355
1173.94	55.98
1177.62	148.67
1181.3	158.322
1184.97	57.321
1188.65	196.367
1192.32	231.237
1195.99	259.882
1199.66	51.877
1203.33	56.428
1206.99	126.861
1210.65	10.106
1214.32	105.354
1217.98	335.636
1221.64	465.981
1225.29	392.361
1228.95	408.786
1232.6	438.256
1236.26	579.773
1239.91	519.344
1243.56	404.928
1247.2	277.522
1250.85	80.132
1254.49	315.854
1258.13	522.496
1261.78	603.155
1265.41	523.835
1269.05	1027.54
1272.69	1301.26
1276.32	1558
1279.95	1643.77
1283.59	1911.56
1287.21	2079.37
1290.84	2113.28
1294.47	1990.18
1298.09	2111.14
1301.72	2081.15
1305.34	2237.21
1308.96	2569.31
1312.58	3010.46
1316.19	3160.65
1319.81	3532.89
1323.42	3614.17
1327.03	3454.69
1330.64	3253.41
1334.25	3073.48
1337.86	2726.07
1341.46	2196.78
1345.07	1642.38
1348.67	1244.08
1352.27	693.299
1355.87	654.857
1359.46	646.799
1363.06	612.676
1366.65	385.315
1370.25	454.36
1373.84	392.57
1377.43	254.646
1381.02	277.783
1384.6	210.161
1388.18	142.286
1391.77	193.393
1395.35	11.524
1398.93	125.536
1402.51	193.568
1406.08	139.565
1409.66	28.52
1413.23	106.418
1416.8	145.25
1420.37	27.002
1423.94	181.658
1427.51	37.513
1431.08	8.353
1434.64	163.046
1438.2	305.477
1441.76	272.513
1445.32	305.626
1448.88	475.775
1452.43	389.999
1455.99	503.383
1459.54	355.242
1463.09	563.438
1466.64	508.521
1470.19	89.423
1473.74	338.332
1477.28	207.475
1480.83	152.567
1484.37	164.816
1487.91	256.188
1491.45	388.008
1494.98	371.639
1498.52	281.396
1502.05	26.38
1505.59	40.805
1509.12	126.799
1512.65	115.755
1516.17	102.67
1519.7	202.14
1523.23	0
