Measurement: Raman, 514 nm, ccw, Raman Data Processed
Mineral: Kurnakovite
Rruff sample: R050105
Ideal chemistry: MgB_3_O_3_(OH)_5_5H_2_O
Locality: Kramer deposit, Boron, Kern County, California, USA
Source: Rock Currier
Description: Tabular single crystal
Measured chemistry: MgB_3_O_3_(OH)_5_Â·5H_2_O
Pin_id: L00487
Orientation: Laser parallel to (0 1 1). Fiducial mark perpendicular to laser is parallel to -a [-1 0 0]
Raman shift (cm-1)	intensity
110.777	0
114.949	2502.2
119.119	6897.74
123.286	5411.3
127.452	7669.98
131.615	15710.3
135.777	14580.9
139.937	3683.27
144.094	677.805
148.25	936.412
152.403	827.254
156.555	508.387
160.705	3627.21
164.853	8602.68
168.998	10015.2
173.142	9084.13
177.284	8599.04
181.424	6772.38
185.562	7255.15
189.698	9721.34
193.831	8215.89
197.963	3699.97
202.093	1220.95
206.221	111.346
210.347	95.087
214.472	56.058
218.594	558.08
222.714	1640.28
226.832	4588.24
230.948	7380.37
235.063	5683.72
239.175	1903.11
243.286	97.765
247.394	640.001
251.501	626.965
255.605	445.506
259.708	309.675
263.808	439.095
267.907	6.339
272.004	968.371
276.099	2977.45
280.192	5608.57
284.283	6604.34
288.372	4409.78
292.459	1800.29
296.544	1177.19
300.627	1607.6
304.709	2547.18
308.788	3314.64
312.865	3887.3
316.941	5701.11
321.015	9124.07
325.086	12842.6
329.156	14274.1
333.224	11951.1
337.29	10417.7
341.354	10917.9
345.416	13538.2
349.476	17345.8
353.534	23542.9
357.591	25479.8
361.645	20269.9
365.698	14497.8
369.748	12441.9
373.797	12951.9
377.844	14176.9
381.889	13256.4
385.932	9891.63
389.973	6068.68
394.012	3874.51
398.049	3489.06
402.084	4312.35
406.118	5822.27
410.15	8596
414.179	14014
418.207	19417.4
422.233	17521.7
426.257	9698.24
430.279	4272.49
434.299	1452.69
438.318	292.565
442.334	292.749
446.349	543.46
450.361	400.879
454.372	130.528
458.381	1694.77
462.388	4489.53
466.394	7582.83
470.397	7465.67
474.398	4499.09
478.398	2493.12
482.396	1843.81
486.391	1994.19
490.385	2574.9
494.377	3724.25
498.368	4743.98
502.356	5467.56
506.342	4701.02
510.327	3903.52
514.31	3165.12
518.291	2796.89
522.27	2706.98
526.247	3132.77
530.222	3658.24
534.196	4149.64
538.167	4883.03
542.137	5949.61
546.105	6991.25
550.071	8157.4
554.035	9142.87
557.998	9140.51
561.958	7706.33
565.917	5499.38
569.874	3940.76
573.829	3303.36
577.782	2658.07
581.733	2569.33
585.683	2881.06
589.63	2946.12
593.576	2764.59
597.52	2855.1
601.462	3123.43
605.402	3941.9
609.341	5564.28
613.277	8343.54
617.212	12951.5
621.145	20523.8
625.076	30998.5
629.006	38103.6
632.933	38050.1
636.859	29447.9
640.783	19725.1
644.705	13445.7
648.625	8822.74
652.543	5826.12
656.46	3957.89
660.375	2728.05
664.288	1788.58
668.199	1143.5
672.108	900.786
676.016	555.888
679.921	143.231
683.825	97.001
687.727	145.42
691.628	75.359
695.526	71.921
699.423	46.481
703.318	45.255
707.211	23.078
711.102	97.2
714.992	666.367
718.879	1154.61
722.765	2350.91
726.649	4114.26
730.532	6658.64
734.412	10346
738.291	12067.3
742.168	10835.6
746.043	8073.85
749.916	5766
753.788	4498.06
757.658	3422.45
761.526	2813.14
765.392	2579.38
769.257	2394.6
773.119	2107.81
776.98	2079.9
780.839	2448.86
784.697	2824.86
788.552	3360.32
792.406	4100.81
796.258	4649.12
800.108	4797.25
803.957	4256.19
807.804	3523.92
811.649	2763.45
815.492	2003.74
819.333	1420.81
823.173	805.638
827.011	363.213
830.847	52.458
834.681	276.033
838.514	243.091
842.345	263.667
846.174	281.538
850.001	239.965
853.827	89.731
857.651	206.214
861.473	373.366
865.293	739.488
869.112	1110.34
872.928	1428.07
876.744	1366.42
880.557	1266.73
884.369	1133.11
888.178	988.517
891.987	965.887
895.793	1116.26
899.598	1069.58
903.401	1361.87
907.202	1783.13
911.001	2303.24
914.799	2834.09
918.595	2939.63
922.389	2884.81
926.182	2643.65
929.972	1978.15
933.761	1697.29
937.549	1605.09
941.334	1432.54
945.118	1453.64
948.9	1448.38
952.681	1809.82
956.459	1957.89
960.236	1932.63
964.012	1487.02
967.785	1045.08
971.557	748.809
975.327	636.201
979.095	532.146
982.862	429.771
986.627	201.347
990.39	272.969
994.152	460.563
997.912	520.351
1001.67	573.891
1005.43	875.368
1009.18	671.095
1012.93	757.517
1016.68	535.297
1020.43	736.301
1024.18	982.838
1027.93	1373.58
1031.67	1938.67
1035.42	2549.58
1039.16	3155.57
1042.9	3156.82
1046.63	3060.16
1050.37	2498.93
1054.11	2303.6
1057.84	1752.8
1061.57	1549.51
1065.3	1349.98
1069.03	1061.18
1072.75	1079.24
1076.47	1145.17
1080.2	1019.97
1083.92	1216.27
1087.64	1263.21
1091.36	1466.66
1095.07	1628
1098.79	1945.23
1102.5	2438.36
1106.21	2587.4
1109.92	2966.34
1113.62	3067.2
1117.33	3093.96
1121.04	2950.65
1124.74	2803.25
1128.44	2281.78
1132.14	1951.32
1135.83	1447.52
1139.53	1127.9
1143.22	979.374
1146.92	822.759
1150.61	670.964
1154.3	362.906
1157.98	302.219
1161.67	219.507
1165.35	104.735
1169.04	96.107
1172.72	3.795
1176.4	58.539
1180.07	179.326
1183.75	90.925
1187.42	173.112
1191.1	111.887
1194.77	42.248
1198.44	93.116
1202.1	62.413
1205.77	133.45
1209.43	185.347
1213.1	284.109
1216.76	328.858
1220.42	437.623
1224.07	399.393
1227.73	542.16
1231.38	264.924
1235.04	247.688
1238.69	328.432
1242.34	235.129
1245.99	273.781
1249.63	246.389
1253.28	292.947
1256.92	445.459
1260.56	453.222
1264.2	633.334
1267.84	836.694
1271.48	1039
1275.11	1443.25
1278.74	1893.45
1282.38	2132.59
1286.01	2301.7
1289.63	2290.79
1293.26	2276.85
1296.89	2079.9
1300.51	1873.93
1304.13	1796.94
1307.75	1842.92
1311.37	1904.86
1314.99	2207.09
1318.6	2437.97
1322.22	2609
1325.83	2741.66
1329.44	2737.61
1333.05	2902.75
1336.66	2593.64
1340.26	2120
1343.87	1626.4
1347.47	1188.59
1351.07	742.938
1354.67	547.969
1358.27	276.242
1361.86	314.742
1365.46	310.689
1369.05	292.284
1372.64	177.878
1376.23	395.294
1379.82	270.271
1383.41	360.531
1386.99	458.649
1390.57	558.621
1394.16	471.438
1397.74	532.098
1401.32	789.59
1404.89	908.909
1408.47	926.041
1412.04	1033.97
1415.61	695.688
1419.18	722.209
1422.75	374.923
1426.32	329.882
1429.89	256.404
1433.45	205.47
1437.01	143.137
1440.58	204.517
1444.13	400.89
1447.69	216.227
1451.25	431.596
1454.81	465.255
1458.36	350.426
1461.91	374.24
1465.46	349.867
1469.01	407.522
1472.56	204.487
1476.1	180.896
1479.64	168.563
1483.19	258.354
1486.73	430.522
1490.27	394.481
1493.81	67.621
1497.34	109.338
1500.88	223.987
1504.41	59.221
1507.94	94.101
1511.47	291.997
1515	55.703
1518.53	223.169
