Measurement: Raman, 514 nm, ccw, Raman Data Processed
Mineral: Kurnakovite
Rruff sample: R050105
Ideal chemistry: MgB_3_O_3_(OH)_5_5H_2_O
Locality: Kramer deposit, Boron, Kern County, California, USA
Source: Rock Currier
Description: Tabular single crystal
Measured chemistry: MgB_3_O_3_(OH)_5_Â·5H_2_O
Pin_id: L00484
Orientation: Laser parallel to b* (0 1 0). Fiducial mark perpendicular to laser is parallel to c [0 0 1]
Raman shift (cm-1)	intensity
109.387	0
113.559	911.786
117.729	4724.36
121.897	5354.69
126.063	5687.81
130.228	13390.8
134.39	16447.4
138.55	9296.82
142.709	6853.93
146.865	10178.4
151.019	8505.95
155.171	5603.1
159.322	7311.97
163.47	13057.3
167.617	14636.2
171.761	10680.6
175.904	7540.6
180.044	4496.52
184.183	3593.6
188.319	5439.63
192.454	5781.76
196.586	2544.83
200.717	52.732
204.846	348.043
208.972	214.45
213.097	4.481
217.22	145.436
221.341	185.034
225.46	1792.28
229.577	4200.98
233.692	3715.86
237.805	1323.68
241.916	63.891
246.025	126.354
250.132	519.333
254.237	1655.86
258.34	1688.27
262.442	391.428
266.541	398.726
270.639	128.113
274.734	1128.16
278.828	3224.36
282.919	4492.37
287.009	3080.91
291.097	876.258
295.183	323.534
299.266	615.217
303.348	115.257
307.428	531.928
311.507	1695.32
315.583	3797.15
319.657	7386.43
323.729	11524.8
327.8	13018.4
331.868	11190.3
335.935	8133.6
339.999	7414.23
344.062	7905.86
348.123	9415.04
352.182	12473.5
356.239	14266.7
360.294	12090
364.347	8945.39
368.398	7883.25
372.448	8776.23
376.495	10351.9
380.54	11233.2
384.584	8618.18
388.626	5398.31
392.666	3585.98
396.704	3508.19
400.74	4271.96
404.774	5063.61
408.806	6796.89
412.836	10920
416.865	16029.5
420.891	15652.9
424.916	9182.01
428.939	4160.79
432.959	1504.85
436.978	64.767
440.996	347.077
445.011	624.671
449.024	382.992
453.036	232.875
457.045	1583.02
461.053	4821.25
465.059	9035.4
469.063	10184.3
473.065	6773.4
477.065	3266.14
481.063	1887.44
485.06	1636.36
489.054	1827.01
493.047	2629.46
497.038	3605.76
501.027	4145.92
505.014	4066.01
508.999	3192.06
512.982	2774.1
516.964	2770.19
520.944	3012.57
524.921	3350.81
528.897	3727.95
532.871	4561.68
536.844	4961.66
540.814	5160.78
544.783	5456.66
548.749	5633.63
552.714	6092.14
556.677	5708.01
560.638	4617.2
564.597	3253.79
568.555	2089.49
572.511	1660
576.464	1240.83
580.416	928.009
584.366	884.524
588.315	1033.87
592.261	1433.74
596.206	1540.19
600.148	2230.4
604.089	3115.32
608.028	4684.85
611.965	6898.61
615.901	10886
619.834	17716.9
623.766	26910.2
627.696	35974.8
631.624	35778.1
635.551	28686
639.475	20152.4
643.398	12895.5
647.318	8102.1
651.237	5484.31
655.155	3658.09
659.07	2185.46
662.984	1498.41
666.895	953.926
670.805	513.104
674.713	221.602
678.62	196.769
682.524	30.245
686.427	72.714
690.328	33.116
694.227	51.461
698.124	209.647
702.02	354.365
705.913	649.374
709.805	871.35
713.695	1045.09
717.584	1647.98
721.47	2509.97
725.355	3858.06
729.238	6305.23
733.119	9252.48
736.998	11069.8
740.876	10490.2
744.752	7548.57
748.626	5159.02
752.498	3761.49
756.368	2936.43
760.237	2248.67
764.104	1789.3
767.969	1487.61
771.832	1462.9
775.693	1625.1
779.553	1583.15
783.411	2087.04
787.267	2593.75
791.122	3223.25
794.974	3693.53
798.825	3997.57
802.674	3855.37
806.522	3550.9
810.367	2833.15
814.211	2097.1
818.053	1480.73
821.893	961.034
825.732	470.993
829.568	26.52
833.403	243.156
837.236	348.862
841.068	213.597
844.898	331.649
848.726	303.834
852.552	236.339
856.376	154.135
860.199	117.419
864.02	636.237
867.839	777.553
871.656	1013.48
875.472	1058.16
879.286	1048.64
883.098	1097.98
886.909	958.175
890.717	1158.21
894.524	1270.11
898.33	1201.86
902.133	1561.31
905.935	1921.43
909.735	2517.07
913.533	2873.2
917.33	3419.78
921.124	3454.79
924.918	3097.22
928.709	2662.07
932.499	2384.35
936.286	2332.04
940.073	2682.14
943.857	2819.66
947.64	3112.6
951.421	3588.95
955.2	4188.72
958.978	4419.9
962.753	3665.5
966.527	2905.52
970.3	2248.95
974.071	1797.81
977.84	1742.9
981.607	1480.36
985.372	1238.39
989.136	1066.8
992.898	1126.81
996.659	1107.74
1000.42	1306.22
1004.17	1216.14
1007.93	1188.43
1011.68	1070.23
1015.43	1020.87
1019.18	923.785
1022.93	1046.71
1026.68	1398.39
1030.42	1683.12
1034.17	2136.71
1037.91	2666.38
1041.65	2812.76
1045.39	2794.88
1049.12	2578.94
1052.86	2299.34
1056.59	2094.82
1060.33	1704.66
1064.06	1433.21
1067.78	1238.73
1071.51	971.973
1075.23	956.949
1078.96	781.663
1082.68	912.125
1086.4	932.343
1090.12	972.321
1093.83	1045.07
1097.55	1329.59
1101.26	1416.9
1104.97	1712.99
1108.68	1758.88
1112.39	2119.57
1116.1	2149.07
1119.8	1966.39
1123.5	1974.53
1127.2	1744.5
1130.9	1349.39
1134.6	1363.7
1138.3	1159.88
1141.99	701.028
1145.69	802.179
1149.38	727.326
1153.07	531.455
1156.76	435.258
1160.44	255.358
1164.13	100.414
1167.81	254.33
1171.49	59.167
1175.17	126.223
1178.85	109.009
1182.52	90.602
1186.2	78.979
1189.87	61.093
1193.54	86.003
1197.21	51.361
1200.88	83.7
1204.55	159.853
1208.21	233.299
1211.88	256.654
1215.54	438.932
1219.2	481.165
1222.86	598.385
1226.51	654.557
1230.17	512.688
1233.82	537.794
1237.47	543.863
1241.12	298.868
1244.77	392.804
1248.42	321.671
1252.06	426.472
1255.71	428.204
1259.35	268.866
1262.99	508.46
1266.63	661.983
1270.26	872.436
1273.9	1261.81
1277.53	1429.11
1281.16	1899.34
1284.8	1958.49
1288.42	2190.59
1292.05	1807.64
1295.68	1658.67
1299.3	1424.63
1302.92	1526.4
1306.55	1543.4
1310.16	1549.37
1313.78	1732.85
1317.4	2158.95
1321.01	1952.2
1324.62	1987.45
1328.24	2187.76
1331.85	2047.27
1335.45	1729.36
1339.06	1431.75
1342.66	1190.96
1346.27	645.093
1349.87	470.646
1353.47	369.749
1357.07	328.535
1360.66	254.659
1364.26	167.489
1367.85	178.568
1371.44	291.053
1375.04	214.226
1378.62	326.049
1382.21	398.532
1385.8	435.853
1389.38	404.315
1392.96	406.53
1396.54	578.541
1400.12	532.323
1403.7	649.865
1407.28	629.152
1410.85	624.172
1414.42	744.903
1417.99	549.329
1421.56	481.67
1425.13	265.932
1428.7	756.869
1432.26	226.604
1435.83	177.088
1439.39	535.445
1442.95	260.98
1446.51	366.498
1450.06	311
1453.62	350.498
1457.17	409.26
1460.73	435.465
1464.28	106.24
1467.83	27.762
1471.37	9.244
1474.92	69.031
1478.46	17.973
1482.01	79.93
1485.55	235.795
1489.09	84.74
1492.63	107.086
1496.16	108.139
1499.7	87.695
1503.23	84.201
1506.76	216.111
1510.29	184.668
1513.82	348.115
1517.35	2.986
1520.88	197.475
1524.4	0
