Measurement: Raman, 514 nm, ccw, Raman Data Processed
Mineral: Kurnakovite
Rruff sample: R050105
Ideal chemistry: MgB_3_O_3_(OH)_5_5H_2_O
Locality: Kramer deposit, Boron, Kern County, California, USA
Source: Rock Currier
Description: Tabular single crystal
Measured chemistry: MgB_3_O_3_(OH)_5_Â·5H_2_O
Pin_id: L00495
Orientation: Laser parallel to (1 0 1). Fiducial mark perpendicular to laser is parallel to b [0 1 0]
Raman shift (cm-1)	intensity
102.428	0
106.604	158.064
110.777	2242.8
114.949	5863.25
119.119	10157
123.286	7946.27
127.452	5701.23
131.615	7865.11
135.777	7678.48
139.937	6074.86
144.094	7409.28
148.25	10248.8
152.403	6720.88
156.555	2998.2
160.705	3047.65
164.853	5311.09
168.998	8535.8
173.142	11467.1
177.284	11281.7
181.424	6242.22
185.562	3240.77
189.698	2847.51
193.831	2293.39
197.963	1035.69
202.093	34.021
206.221	383.426
210.347	110.586
214.472	232.278
218.594	97.011
222.714	292.874
226.832	845.76
230.948	1743.74
235.063	1398.91
239.175	928.565
243.286	2109.5
247.394	5407.08
251.501	10952.5
255.605	14689.2
259.708	10628.2
263.808	4438.34
267.907	1124.16
272.004	290.617
276.099	56.693
280.192	945.369
284.283	1253.21
288.372	606.562
292.459	226.302
296.544	307.233
300.627	100.171
304.709	981.879
308.788	2002.35
312.865	3730.55
316.941	7212.03
321.015	12108.4
325.086	16208.2
329.156	16290.9
333.224	11532.6
337.29	7440.17
341.354	5501.83
345.416	5260.62
349.476	6819.21
353.534	9677.4
357.591	10435.6
361.645	7867.86
365.698	5814.31
369.748	5365.34
373.797	6290.06
377.844	7161.17
381.889	6768.63
385.932	5372.89
389.973	3756.71
394.012	2849.35
398.049	2776.43
402.084	2520.99
406.118	2428.07
410.15	3177.7
414.179	5609.9
418.207	8104.69
422.233	7339.09
426.257	3987.1
430.279	1695.76
434.299	242.468
438.318	256.772
442.334	555.208
446.349	476.51
450.361	158.306
454.372	1025.19
458.381	3289.77
462.388	7270.29
466.394	11487.1
470.397	11218.5
474.398	6983.3
478.398	3605.65
482.396	1707.55
486.391	654.022
490.385	79.449
494.377	167.383
498.368	182.053
502.356	24.948
506.342	126.468
510.327	358.495
514.31	637.207
518.291	867.638
522.27	1506.84
526.247	2180.99
530.222	3045.87
534.196	3467.49
538.167	3750.62
542.137	4125.25
546.105	4534.78
550.071	5625.91
554.035	7450.01
557.998	8546.18
561.958	7477.64
565.917	5438.46
569.874	3789.63
573.829	2997.18
577.782	2739.91
581.733	3336.67
585.683	4917.38
589.63	6597.03
593.576	6421.01
597.52	5432.6
601.462	5113.8
605.402	5781.29
609.341	7439.77
613.277	10593
617.212	15934.6
621.145	24033.5
625.076	34830.7
629.006	39874
632.933	37391.5
636.859	27874.2
640.783	18873.1
644.705	13305.2
648.625	9507.6
652.543	6734.25
656.46	5129.81
660.375	3926.05
664.288	3029.03
668.199	2595.7
672.108	2249.27
676.016	1984.71
679.921	1646.17
683.825	1543.9
687.727	1630.48
691.628	1873.46
695.526	1755.93
699.423	1984.18
703.318	2081.76
707.211	2118.9
711.102	2338.49
714.992	2938.08
718.879	3492.08
722.765	4480.79
726.649	5868.49
730.532	8050.92
734.412	10617.9
738.291	11791
742.168	10727.3
746.043	8565.67
749.916	6701.38
753.788	5544.57
757.658	4402.1
761.526	3572.3
765.392	3067.57
769.257	2539.46
773.119	2161.05
776.98	1907.03
780.839	1806.86
784.697	1812.49
788.552	1934.91
792.406	2071.12
796.258	2475.11
800.108	2381.88
803.957	2139.42
807.804	1868.92
811.649	1603.63
815.492	1341.44
819.333	972.083
823.173	561.461
827.011	158.546
830.847	10.704
834.681	130.394
838.514	205.005
842.345	203.009
846.174	178.422
850.001	216.308
853.827	127.847
857.651	92.826
861.473	7.206
865.293	74.323
869.112	81.782
872.928	129.498
876.744	115.558
880.557	121.887
884.369	29.412
888.178	102.368
891.987	149.901
895.793	219.223
899.598	449.409
903.401	661.518
907.202	1108.36
911.001	1477.79
914.799	2025.79
918.595	2246.34
922.389	2361.43
926.182	2436.06
929.972	2579.23
933.761	3019.95
937.549	3738.22
941.334	4524.03
945.118	5003.39
948.9	5136.99
952.681	5389.78
956.459	5517.81
960.236	5296.4
964.012	4324.55
967.785	3419.25
971.557	2842.51
975.327	2338.33
979.095	1976.22
982.862	1722.19
986.627	1521.7
990.39	1495.27
994.152	1556.66
997.912	1867.92
1001.67	2181.63
1005.43	2293.34
1009.18	1963.23
1012.93	1691.47
1016.68	1541.69
1020.43	1519.4
1024.18	1619.03
1027.93	1552.67
1031.67	1806.2
1035.42	2067.4
1039.16	2303.72
1042.9	2403.2
1046.63	2594.81
1050.37	2560.18
1054.11	2596.32
1057.84	2174.95
1061.57	1867.49
1065.3	1535.94
1069.03	1413.31
1072.75	1237.61
1076.47	1203.85
1080.2	1291.04
1083.92	1333.19
1087.64	1406.31
1091.36	1593.41
1095.07	1806.49
1098.79	2088.57
1102.5	2610.65
1106.21	2896.75
1109.92	3191.86
1113.62	3405.01
1117.33	3413.2
1121.04	3345.44
1124.74	3140.75
1128.44	2516.14
1132.14	2263.63
1135.83	1873.32
1139.53	1495.57
1143.22	1354.45
1146.92	1342.98
1150.61	1194.21
1154.3	1069.2
1157.98	911.822
1161.67	608.763
1165.35	471.974
1169.04	335.154
1172.72	182.014
1176.4	86.028
1180.07	205.453
1183.75	48.664
1187.42	148.836
1191.1	68.376
1194.77	128.185
1198.44	132.428
1202.1	33.973
1205.77	92.236
1209.43	112.127
1213.1	344.011
1216.76	699.128
1220.42	801.525
1224.07	907.16
1227.73	848.038
1231.38	810.146
1235.04	598.468
1238.69	486.993
1242.34	333.715
1245.99	332.629
1249.63	409.74
1253.28	493.054
1256.92	590.568
1260.56	640.287
1264.2	754.208
1267.84	1115.59
1271.48	1297.92
1275.11	1593.26
1278.74	1911
1282.38	2273.27
1286.01	2390.8
1289.63	2275.16
1293.26	2192.75
1296.89	2209.57
1300.51	2057.64
1304.13	2155.92
1307.75	2198.43
1311.37	2441.16
1314.99	2684.11
1318.6	2829.28
1322.22	3092.38
1325.83	3102.98
1329.44	3117.6
1333.05	3237.38
1336.66	2937.34
1340.26	2334.77
1343.87	1752.6
1347.47	1299.01
1351.07	928.199
1354.67	1124.7
1358.27	523.572
1361.86	435.187
1365.46	311.74
1369.05	318.127
1372.64	273.511
1376.23	333.833
1379.82	408.29
1383.41	450.33
1386.99	518.68
1390.57	410.233
1394.16	412.987
1397.74	146.913
1401.32	150.978
1404.89	186.141
1408.47	108.358
1412.04	62.704
1415.61	35.841
1419.18	117.704
1422.75	41.687
1426.32	32.135
1429.89	41.94
1433.45	78.495
1437.01	202.922
1440.58	508.858
1444.13	712.943
1447.69	770.028
1451.25	895.283
1454.81	1033.95
1458.36	1048.21
1461.91	959.12
1465.46	756.765
1469.01	688.042
1472.56	445.621
1476.1	511.849
1479.64	369.809
1483.19	471.849
1486.73	383.591
1490.27	164.447
1493.81	167.715
1497.34	112.45
1500.88	120.888
1504.41	0.717
1507.94	164.291
1511.47	175.065
1515	73.703
1518.53	69.739
1522.05	0.369
