Measurement: Raman, 514 nm, ccw, Raman Data Processed
Mineral: Kurnakovite
Rruff sample: R050105
Ideal chemistry: MgB_3_O_3_(OH)_5_5H_2_O
Locality: Kramer deposit, Boron, Kern County, California, USA
Source: Rock Currier
Description: Tabular single crystal
Measured chemistry: MgB_3_O_3_(OH)_5_Â·5H_2_O
Pin_id: L00453
Orientation: Laser parallel to c* (0 0 1). Fiducial mark perpendicular to laser is parallel to a [1 0 0]
Raman shift (cm-1)	intensity
109.387	0
113.559	3611.61
117.729	9428.36
121.897	8501.18
126.063	5920.45
130.228	9201.47
134.39	9768.84
138.55	3428.08
142.709	647.24
146.865	963.209
151.019	369.945
155.171	313.951
159.322	1455.41
163.47	4004.48
167.617	6236.9
171.761	6924.5
175.904	6930.81
180.044	4337.79
184.183	2929.91
188.319	3287.09
192.454	2924.22
196.586	855.417
200.717	583.21
204.846	883.483
208.972	153.367
213.097	348.795
217.22	857.206
221.341	1484.26
225.46	3418.98
229.577	6037.42
233.692	5473.56
237.805	2088.92
241.916	519.428
246.025	377.573
250.132	1670.93
254.237	3941.51
258.34	3213.27
262.442	893.063
266.541	184.088
270.639	130.58
274.734	1231.59
278.828	3204.98
282.919	4562.88
287.009	3228.02
291.097	1438.94
295.183	742.052
299.266	1480.81
303.348	2759.72
307.428	3319.2
311.507	2872.52
315.583	2618.77
319.657	3542.91
323.729	4714.01
327.8	4975.17
331.868	4723.29
335.935	5144.3
339.999	6853.94
344.062	10318.2
348.123	15081.1
352.182	21593.3
356.239	25762.5
360.294	21781.2
364.347	14918.9
368.398	11460.5
372.448	10558.7
376.495	10778.3
380.54	10301.3
384.584	7821.1
388.626	4739.69
392.666	2995.09
396.704	2274.98
400.74	2083.13
404.774	3109.46
408.806	4302.8
412.836	8474.57
416.865	13172.5
420.891	13153.7
424.916	7558.94
428.939	3562.67
432.959	924.438
436.978	156.77
440.996	531.04
445.011	769.765
449.024	220.632
453.036	385.148
457.045	1952.46
461.053	5526.61
465.059	9873.61
469.063	10782.5
473.065	7114.15
477.065	3381.7
481.063	2040.18
485.06	1237.69
489.054	1092.22
493.047	1569.76
497.038	2078.29
501.027	2141.8
505.014	2339.29
508.999	1970.73
512.982	1833.13
516.964	2095.52
520.944	2234.95
524.921	2261.17
528.897	2480.93
532.871	3412.73
536.844	4068.41
540.814	4804.05
544.783	6325.83
548.749	8011.52
552.714	10739.2
556.677	12279
560.638	10991.7
564.597	7965.5
568.555	5392.11
572.511	4098.47
576.464	3433.55
580.416	3085.34
584.366	3838.85
588.315	4922.23
592.261	5251.91
596.206	4050.15
600.148	3327.21
604.089	3358.39
608.028	4544.1
611.965	6088.22
615.901	9087.74
619.834	15065.2
623.766	22351.5
627.696	30247.7
631.624	30060.8
635.551	24537.7
639.475	18125.6
643.398	12195.3
647.318	8370.91
651.237	5896.36
655.155	4567.68
659.07	2709.85
662.984	2078.87
666.895	1500.74
670.805	814.908
674.713	578.715
678.62	458.17
682.524	286.266
686.427	138.08
690.328	126.416
694.227	181.818
698.124	229.984
702.02	29.311
705.913	367.92
709.805	50.717
713.695	130.562
717.584	1067.92
721.47	2308.95
725.355	3614.63
729.238	6282.98
733.119	9255
736.998	10805.7
740.876	10456.1
744.752	8162.09
748.626	6273.8
752.498	4870.28
756.368	4299.58
760.237	3660.55
764.104	2919.05
767.969	2370.95
771.832	2555.58
775.693	2343.89
779.553	2038.88
783.411	2206.36
787.267	2523.87
791.122	3119.88
794.974	3371.55
798.825	3270.89
802.674	3186.89
806.522	3057.55
810.367	2348.88
814.211	1655.86
818.053	984.49
821.893	696.797
825.732	549.262
829.568	193.367
833.403	91.119
837.236	156.627
841.068	46.631
844.898	21.496
848.726	251.443
852.552	38.746
856.376	550.775
860.199	837.621
864.02	1144.68
867.839	980.889
871.656	1143.09
875.472	1022.04
879.286	992.787
883.098	874.504
886.909	785.168
890.717	692.455
894.524	760.297
898.33	988.85
902.133	1367.51
905.935	1784.35
909.735	2425.03
913.533	2813.48
917.33	3451.09
921.124	3350.54
924.918	2505.72
928.709	1921.68
932.499	1572.41
936.286	1130.86
940.073	1170.08
943.857	1087.02
947.64	838.68
951.421	823.051
955.2	895.135
958.978	1045.93
962.753	659.441
966.527	570.664
970.3	192.598
974.071	23.787
977.84	150.998
981.607	25.488
985.372	132.861
989.136	57.242
992.898	11.436
996.659	308.127
1000.42	1001.04
1004.17	1219.08
1007.93	778.557
1011.68	432.398
1015.43	629.607
1019.18	691.266
1022.93	677.314
1026.68	1116.34
1030.42	1255.58
1034.17	1576.88
1037.91	2016.58
1041.65	2269.27
1045.39	2076.19
1049.12	2099.49
1052.86	1500.14
1056.59	1612.71
1060.33	2594.08
1064.06	1831.85
1067.78	1186.6
1071.51	1184
1075.23	1202.31
1078.96	1397.38
1082.68	1792.25
1086.4	2063.86
1090.12	1995.87
1093.83	1972.97
1097.55	2630.86
1101.26	2825.99
1104.97	3280.92
1108.68	3387.25
1112.39	3884.32
1116.1	3732.12
1119.8	3537.23
1123.5	3352.7
1127.2	3020.78
1130.9	2457.33
1134.6	2164.25
1138.3	2064.93
1141.99	1096.15
1145.69	994.184
1149.38	1080.3
1153.07	628.512
1156.76	626.559
1160.44	628.363
1164.13	199.918
1167.81	609.207
1171.49	325.244
1175.17	196.029
1178.85	92.402
1182.52	53.102
1186.2	0.715
1189.87	68.828
1193.54	113.23
1197.21	104.057
1200.88	163.867
1204.55	239.451
1208.21	86.51
1211.88	263.857
1215.54	316.672
1219.2	115.953
1222.86	184.064
1226.51	97.844
1230.17	63.369
1233.82	182.674
1237.47	424.721
1241.12	94.557
1244.77	363.158
1248.42	509.551
1252.06	581.742
1255.71	639.732
1259.35	635.248
1262.99	561.129
1266.63	669.539
1270.26	1117.79
1273.9	1447.92
1277.53	1735.96
1281.16	2086.18
1284.8	2046.67
1288.42	2213.05
1292.05	1893.26
1295.68	1976.31
1299.3	1913.87
1302.92	1787.01
1306.55	1727.69
1310.16	2152.84
1313.78	2395.33
1317.4	2964.74
1321.01	2863.44
1324.62	2913.71
1328.24	3709.95
1331.85	3523.43
1335.45	3370.42
1339.06	2853.15
1342.66	2595.4
1346.27	2755.86
1349.87	1672.37
1353.47	1162.01
1357.07	1058.98
1360.66	856.914
1364.26	371.957
1367.85	595.812
1371.44	425.357
1375.04	507.055
1378.62	876.324
1382.21	829.787
1385.8	828.15
1389.38	520.07
1392.96	893.729
1396.54	799.529
1400.12	531.154
1403.7	535.607
1407.28	651.867
1410.85	560.896
1414.42	638.699
1417.99	702.264
1421.56	642.588
1425.13	188.662
1428.7	415.178
1432.26	528.432
1435.83	823.852
1439.39	1297.26
1442.95	1334.44
1446.51	1464.61
1450.06	1637.78
1453.62	2258.77
1457.17	2239.13
1460.73	2210.05
1464.28	1421.58
1467.83	1058.85
1471.37	1031.04
1474.92	1151.14
1478.46	841.25
1482.01	733.762
1485.55	957.902
1489.09	760.633
1492.63	374.242
1496.16	351.141
1499.7	232.836
1503.23	45.898
1506.76	476.918
1510.29	701.812
1513.82	300.035
1517.35	6.801
1520.88	322.434
1524.4	153.871
