Measurement: Raman, 514 nm, ccw, Raman Data Processed
Mineral: Kurnakovite
Rruff sample: R050105
Ideal chemistry: MgB_3_O_3_(OH)_5_5H_2_O
Locality: Kramer deposit, Boron, Kern County, California, USA
Source: Rock Currier
Description: Tabular single crystal
Measured chemistry: MgB_3_O_3_(OH)_5_Â·5H_2_O
Pin_id: L00495
Orientation: Laser parallel to (1 0 1). Fiducial mark perpendicular to laser is parallel to b [0 1 0]
Raman shift (cm-1)	intensity
96.858	0
101.036	1029.97
105.212	481.479
109.387	1482.92
113.559	3971.39
117.729	6686.14
121.897	7269.25
126.063	6712.19
130.228	11782.5
134.39	16723.2
138.55	19482.3
142.709	23461.7
146.865	24688.3
151.019	18310.7
155.171	9593.92
159.322	7285.73
163.47	7694.73
167.617	8289.31
171.761	10262.8
175.904	12105.8
180.044	8816.27
184.183	5132.97
188.319	3509.47
192.454	2768.32
196.586	2254.32
200.717	859.947
204.846	149.763
208.972	243.451
213.097	342.045
217.22	629.055
221.341	657.923
225.46	242.917
229.577	1057.3
233.692	1000.14
237.805	1135.8
241.916	2298.43
246.025	4862.31
250.132	10059.7
254.237	16411.3
258.34	15983.6
262.442	8704.62
266.541	3281.29
270.639	1142.66
274.734	415.488
278.828	753.048
282.919	946.577
287.009	690.567
291.097	211.184
295.183	33.552
299.266	221.554
303.348	947.45
307.428	1723.47
311.507	3271.81
315.583	5679.28
319.657	9821.71
323.729	14600.8
327.8	16241.8
331.868	13567.8
335.935	8591.94
339.999	5975.49
344.062	4974.28
348.123	5834.03
352.182	8455.49
356.239	10589
360.294	9493.87
364.347	6782.45
368.398	5248.87
372.448	5312.77
376.495	5795.05
380.54	5831.58
384.584	4504.74
388.626	2909.37
392.666	1769.77
396.704	1043.24
400.74	429.793
404.774	143.436
408.806	412.162
412.836	1567.08
416.865	3153.03
420.891	3615.2
424.916	2108.7
428.939	1178.46
432.959	137.221
436.978	305.833
440.996	377.668
445.011	506.604
449.024	286.241
453.036	33.693
457.045	361.304
461.053	1089.82
465.059	1709.19
469.063	1755.87
473.065	1064.56
477.065	325.28
481.063	83.962
485.06	135.585
489.054	2.816
493.047	24.337
497.038	46.076
501.027	179.575
505.014	435.237
508.999	659.985
512.982	910.411
516.964	1204.02
520.944	1855
524.921	2388.44
528.897	3108.53
532.871	3884.53
536.844	4344.13
540.814	4510.63
544.783	4902.67
548.749	5825.58
552.714	7696.12
556.677	9478.23
560.638	9262.86
564.597	7278.68
568.555	5204.39
572.511	4109.07
576.464	3565.46
580.416	3711.78
584.366	4899.02
588.315	6772.11
592.261	7725.39
596.206	6564.8
600.148	5778.34
604.089	6004.77
608.028	7306.26
611.965	9535.49
615.901	13560.9
619.834	20851.8
623.766	29706.5
627.696	38420.1
631.624	37116.8
635.551	29482.8
639.475	20952.2
643.398	13907.7
647.318	9740.69
651.237	7100.96
655.155	5225.57
659.07	3953.57
662.984	3107.8
666.895	2613.1
670.805	2125.14
674.713	1868.39
678.62	1806.42
682.524	1702.16
686.427	1825.73
690.328	1734.24
694.227	1861.39
698.124	1864.35
702.02	1891.54
705.913	1835.93
709.805	2022.48
713.695	2174.66
717.584	2590.59
721.47	3159.36
725.355	3934.06
729.238	5301.07
733.119	6787.34
736.998	7585.02
740.876	7371.27
744.752	6106.92
748.626	5012.35
752.498	4088.36
756.368	3350.54
760.237	2922.02
764.104	2313.8
767.969	1940.26
771.832	1769.82
775.693	1615.31
779.553	1468.66
783.411	1454.89
787.267	1399.98
791.122	1497.94
794.974	1522.84
798.825	1514.7
802.674	1467.58
806.522	1337.51
810.367	1174.42
814.211	941.253
818.053	765.971
821.893	479.524
825.732	276.888
829.568	26.05
833.403	58.975
837.236	95.513
841.068	20.733
844.898	59.602
848.726	127.229
852.552	133.718
856.376	35.038
860.199	75.142
864.02	20.028
867.839	103.537
871.656	102.864
875.472	187.063
879.286	85.431
883.098	33.537
886.909	99.281
890.717	20.877
894.524	2.139
898.33	7.934
902.133	118.833
905.935	225.354
909.735	343.591
913.533	481.528
917.33	734.144
921.124	950.427
924.918	1047.37
928.709	1466.98
932.499	1910.25
936.286	2506.19
940.073	3354.79
943.857	3834.06
947.64	3911
951.421	3670.61
955.2	3595.89
958.978	3203.84
962.753	2796.46
966.527	2165.75
970.3	1834.71
974.071	1481.34
977.84	1176.66
981.607	1046.9
985.372	958.902
989.136	721.738
992.898	603.853
996.659	769.089
1000.42	974.53
1004.17	1098.79
1007.93	1046.31
1011.68	1100.33
1015.43	1197.86
1019.18	1191.05
1022.93	1345.84
1026.68	1526.44
1030.42	1758.5
1034.17	1942.89
1037.91	2105.32
1041.65	2406.71
1045.39	2544.59
1049.12	2488.73
1052.86	2365.14
1056.59	2200.5
1060.33	1877.74
1064.06	1692.94
1067.78	1427.09
1071.51	1207.2
1075.23	1194.29
1078.96	1101.35
1082.68	1287.4
1086.4	1219.45
1090.12	1306.5
1093.83	1443.56
1097.55	1695.64
1101.26	2006.75
1104.97	2369.88
1108.68	2522.06
1112.39	2743.29
1116.1	2752.57
1119.8	2574.91
1123.5	2628.34
1127.2	2268.84
1130.9	1941.44
1134.6	1632.16
1138.3	1430.16
1141.99	1020.52
1145.69	906.214
1149.38	809.349
1153.07	665.914
1156.76	539.866
1160.44	444.036
1164.13	272.381
1167.81	253.061
1171.49	52.145
1175.17	26.779
1178.85	45.025
1182.52	62.595
1186.2	86.905
1189.87	61.971
1193.54	52.902
1197.21	0.292
1200.88	34.397
1204.55	100.013
1208.21	197.633
1211.88	331.465
1215.54	540.518
1219.2	687.807
1222.86	770.353
1226.51	782.142
1230.17	741.17
1233.82	603.44
1237.47	429.943
1241.12	309.668
1244.77	298.427
1248.42	367.728
1252.06	392.068
1255.71	451.62
1259.35	391.384
1262.99	560.365
1266.63	707.081
1270.26	961.55
1273.9	1249.21
1277.53	1575.16
1281.16	1785.24
1284.8	1936.1
1288.42	2012.64
1292.05	1757.29
1295.68	1682.32
1299.3	1590.59
1302.92	1556.11
1306.55	1675.86
1310.16	1838.86
1313.78	2076.1
1317.4	2184.85
1321.01	2327.3
1324.62	2285.38
1328.24	2498.14
1331.85	2475.45
1335.45	2349.84
1339.06	2043.26
1342.66	1759.44
1346.27	1230.23
1349.87	1033.9
1353.47	769.863
1357.07	629.125
1360.66	484.859
1364.26	395.061
1367.85	328.993
1371.44	330.849
1375.04	245.781
1378.62	324.42
1382.21	379.168
1385.8	354.512
1389.38	346.709
1392.96	313.169
1396.54	310.889
1400.12	126.846
1403.7	149.02
1407.28	54.419
1410.85	67.017
1414.42	2.824
1417.99	43.165
1421.56	20.035
1425.13	6.432
1428.7	39.382
1432.26	1.669
1435.83	88.277
1439.39	326.821
1442.95	275.63
1446.51	458.572
1450.06	415.619
1453.62	612.837
1457.17	621.417
1460.73	637.542
1464.28	449.245
1467.83	279.301
1471.37	219.064
1474.92	138.699
1478.46	127.359
1482.01	205.41
1485.55	190.694
1489.09	178.841
1492.63	109.462
1496.16	16.127
1499.7	1.054
1503.23	22.695
1506.76	83.237
1510.29	154.711
1513.82	80.175
1517.35	15.266
1520.88	81.657
1524.4	0
