Measurement: Raman, 514 nm, ccw, Raman Data Processed
Mineral: Kurnakovite
Rruff sample: R050105
Ideal chemistry: MgB_3_O_3_(OH)_5_5H_2_O
Locality: Kramer deposit, Boron, Kern County, California, USA
Source: Rock Currier
Description: Tabular single crystal
Measured chemistry: MgB_3_O_3_(OH)_5_Â·5H_2_O
Pin_id: L00338
Orientation: Laser parallel to a* (1 0 0). Fiducial mark perpendicular to laser is parallel to b [0 1 0]
Raman shift (cm-1)	intensity
109.387	0
113.559	660.406
117.729	1296.73
121.897	3463.08
126.063	1372.27
130.228	2075.69
134.39	4061.01
138.55	1148.74
142.709	777.854
146.865	4193.66
151.019	7145.97
155.171	5797.76
159.322	4243.89
163.47	4522.01
167.617	6011.15
171.761	5597.67
175.904	6855.29
180.044	5053.63
184.183	2940.07
188.319	3523.73
192.454	3192.61
196.586	1714.39
200.717	588.766
204.846	22.23
208.972	240.918
213.097	773.909
217.22	1273.1
221.341	943.918
225.46	1576.13
229.577	3365.87
233.692	3740.53
237.805	1653.45
241.916	1098.09
246.025	1543.03
250.132	2566.59
254.237	3428.86
258.34	3778.9
262.442	2153.78
266.541	596.576
270.639	245.655
274.734	174.369
278.828	19.454
282.919	111.992
287.009	9.629
291.097	131.194
295.183	224.627
299.266	342.473
303.348	361.586
307.428	108.069
311.507	12.703
315.583	144.718
319.657	616.35
323.729	1396.64
327.8	1802.46
331.868	1316.35
335.935	807.494
339.999	511.058
344.062	486.147
348.123	483.865
352.182	608.34
356.239	1074.43
360.294	973.011
364.347	822.687
368.398	1050.02
372.448	1604.86
376.495	2224.58
380.54	2688.13
384.584	2654.29
388.626	1905.07
392.666	1469.37
396.704	1063.28
400.74	953.875
404.774	798.187
408.806	573.246
412.836	637.079
416.865	1405.71
420.891	2153.16
424.916	1546.46
428.939	650.625
432.959	31.821
436.978	165.572
440.996	224.119
445.011	141.921
449.024	217.303
453.036	34.918
457.045	458.646
461.053	1033.99
465.059	1827.26
469.063	2262.29
473.065	1868.05
477.065	1075.44
481.063	461.967
485.06	377.645
489.054	470.217
493.047	636.721
497.038	706.187
501.027	1032.93
505.014	1962.46
508.999	2898.4
512.982	3661.51
516.964	4169.23
520.944	4991.21
524.921	6182.69
528.897	7580
532.871	8323.45
536.844	8834.95
540.814	8726.25
544.783	8760.65
548.749	8857.1
552.714	9620.62
556.677	10403.1
560.638	9784.39
564.597	6846.38
568.555	4357.97
572.511	2914.05
576.464	2704.62
580.416	2883.68
584.366	3404.22
588.315	3881.26
592.261	4336.13
596.206	4528.4
600.148	5055.52
604.089	5957.16
608.028	7032.58
611.965	9584.69
615.901	14094
619.834	21044.2
623.766	30476.2
627.696	39878.8
631.624	40510.8
635.551	32395
639.475	21018.8
643.398	13321.3
647.318	8267.46
651.237	5454.22
655.155	4109.6
659.07	2842.61
662.984	2060.29
666.895	1679.64
670.805	1461.62
674.713	1519.25
678.62	1544.87
682.524	1396.38
686.427	1647.83
690.328	2008.46
694.227	2248.8
698.124	2694.57
702.02	2720.47
705.913	2996.9
709.805	3379.86
713.695	3547.06
717.584	3544.88
721.47	3302.7
725.355	3348.43
729.238	3770.98
733.119	4340.08
736.998	4845.91
740.876	4140.88
744.752	3012.03
748.626	2155.39
752.498	1851.05
756.368	1542.26
760.237	1065.16
764.104	590.523
767.969	544.102
771.832	498.763
775.693	490.465
779.553	313.18
783.411	350.878
787.267	103.532
791.122	242.119
794.974	538.622
798.825	602.026
802.674	581.314
806.522	471.474
810.367	482.488
814.211	571.345
818.053	634.026
821.893	246.518
825.732	71.804
829.568	169.133
833.403	93.71
837.236	124.283
841.068	137.26
844.898	198.784
848.726	1.157
852.552	337.955
856.376	106.937
860.199	27.421
864.02	0.399
867.839	82.649
871.656	83.93
875.472	63.019
879.286	252.47
883.098	465.672
886.909	441.634
890.717	341.344
894.524	315.976
898.33	536.605
902.133	830.172
905.935	903.428
909.735	871.351
913.533	762.877
917.33	1009.12
921.124	1237.95
924.918	1448.37
928.709	1520.35
932.499	1659.9
936.286	1867.02
940.073	1930.7
943.857	2424.95
947.64	2766.77
951.421	3104.15
955.2	3079.1
958.978	2965.61
962.753	2526.69
966.527	2195.34
970.3	1929.56
974.071	1848.34
977.84	1471.7
981.607	1106.51
985.372	925.745
989.136	906.647
992.898	844.944
996.659	1075.22
1000.42	1033.43
1004.17	1071.55
1007.93	964.534
1011.68	892.681
1015.43	806.189
1019.18	1163.78
1022.93	1510.98
1026.68	1749.94
1030.42	2005.11
1034.17	2093.34
1037.91	2258.34
1041.65	2617.62
1045.39	3348.26
1049.12	3678.49
1052.86	3515.59
1056.59	2927.16
1060.33	2303.25
1064.06	2118
1067.78	1896.35
1071.51	1766.98
1075.23	1756.92
1078.96	1386.74
1082.68	1116.44
1086.4	918.144
1090.12	1119.75
1093.83	1391.26
1097.55	1550.69
1101.26	1972.04
1104.97	2137.32
1108.68	2276.53
1112.39	2062.69
1116.1	2211.8
1119.8	2327.86
1123.5	2598.89
1127.2	2328.89
1130.9	2042.92
1134.6	1946.2
1138.3	1452.04
1141.99	1265.51
1145.69	1257.66
1149.38	1501.4
1153.07	1570.7
1156.76	1529.75
1160.44	1222.41
1164.13	707.709
1167.81	279.536
1171.49	191.665
1175.17	18.982
1178.85	232.308
1182.52	131.455
1186.2	240.404
1189.87	6.002
1193.54	260.898
1197.21	192.6
1200.88	26.73
1204.55	21.916
1208.21	179.829
1211.88	498.51
1215.54	560.03
1219.2	527.554
1222.86	383.089
1226.51	404.651
1230.17	203.107
1233.82	321.725
1237.47	352.396
1241.12	587.224
1244.77	845.024
1248.42	650.891
1252.06	682.823
1255.71	450.823
1259.35	541.887
1262.99	525.12
1266.63	864.305
1270.26	1357.55
1273.9	1476.26
1277.53	1923.59
1281.16	2070.78
1284.8	1972.72
1288.42	1747.36
1292.05	1590.11
1295.68	1727.91
1299.3	1765.84
1302.92	2080.61
1306.55	2717.47
1310.16	2989.42
1313.78	3385.38
1317.4	3287.14
1321.01	3122.96
1324.62	2884.65
1328.24	3042.52
1331.85	3159.73
1335.45	3182.36
1339.06	2877.62
1342.66	2567.92
1346.27	2043.96
1349.87	1418.86
1353.47	870.133
1357.07	506.697
1360.66	405.037
1364.26	236.781
1367.85	437.875
1371.44	481.099
1375.04	824.391
1378.62	916.913
1382.21	1027.94
1385.8	842.954
1389.38	594.964
1392.96	203.949
1396.54	193.902
1400.12	135.767
1403.7	192.23
1407.28	546.431
1410.85	673.31
1414.42	943.921
1417.99	737.168
1421.56	682.233
1425.13	635.574
1428.7	158.9
1432.26	1.752
1435.83	46.683
1439.39	28.969
1442.95	153.324
1446.51	388.528
1450.06	761.927
1453.62	924.34
1457.17	1029.19
1460.73	872.354
1464.28	779.667
1467.83	548.673
1471.37	461.018
1474.92	114.061
1478.46	44.836
1482.01	58.533
1485.55	283.311
1489.09	494.371
1492.63	740.193
1496.16	1039.58
1499.7	1108.5
1503.23	1101.39
1506.76	739.811
1510.29	405.678
1513.82	228.215
1517.35	0
