Measurement: Raman, 514 nm, ccw, Raman Data Processed
Mineral: Kurnakovite
Rruff sample: R050105
Ideal chemistry: MgB_3_O_3_(OH)_5_5H_2_O
Locality: Kramer deposit, Boron, Kern County, California, USA
Source: Rock Currier
Description: Tabular single crystal
Measured chemistry: MgB_3_O_3_(OH)_5_Â·5H_2_O
Pin_id: L00453
Orientation: Laser parallel to c* (0 0 1). Fiducial mark perpendicular to laser is parallel to a [1 0 0]
Raman shift (cm-1)	intensity
105.212	0
109.387	457.654
113.559	3324.57
117.729	8157.79
121.897	9636.58
126.063	8132.1
130.228	9687
134.39	7634.29
138.55	2572.68
142.709	1065.32
146.865	2289.2
151.019	2793.47
155.171	2529.97
159.322	2954.75
163.47	5107.75
167.617	5442.66
171.761	3099.02
175.904	1602
180.044	579.014
184.183	538.163
188.319	1738.71
192.454	1742.18
196.586	778.805
200.717	291.74
204.846	534.261
208.972	1500.97
213.097	2616.95
217.22	2817.21
221.341	2207.38
225.46	3280.15
229.577	5180.18
233.692	5086.76
237.805	2454.7
241.916	677.823
246.025	2.148
250.132	217.723
254.237	652.587
258.34	337.689
262.442	549.33
266.541	901.654
270.639	644.073
274.734	43.267
278.828	1025.65
282.919	1904.85
287.009	1377.74
291.097	161.874
295.183	407.998
299.266	308.372
303.348	125.462
307.428	542.988
311.507	777.128
315.583	1286.11
319.657	2411.95
323.729	3362.64
327.8	3499.38
331.868	2832.35
335.935	2249.7
339.999	2794.41
344.062	3757.05
348.123	4492.69
352.182	5416.34
356.239	6144.79
360.294	5197.57
364.347	3782.07
368.398	3388.04
372.448	4115.93
376.495	4702.33
380.54	5140.23
384.584	4622.62
388.626	4012.5
392.666	4723.86
396.704	6200.72
400.74	7251.07
404.774	7274.92
408.806	7838.77
412.836	11089.6
416.865	16235.4
420.891	16817
424.916	11070.7
428.939	6012.4
432.959	3034.86
436.978	1725.16
440.996	1385.88
445.011	1372.99
449.024	2375.44
453.036	4367.68
457.045	9110.05
461.053	19777.2
465.059	35245.9
469.063	40853.7
473.065	29842.1
477.065	16468
481.063	9192.27
485.06	5225
489.054	2745.2
493.047	1771.88
497.038	1243.06
501.027	1209.75
505.014	1189.98
508.999	1133.77
512.982	1278.17
516.964	1440.32
520.944	1557.46
524.921	1495.84
528.897	1488.74
532.871	1795.28
536.844	1746.45
540.814	1683.27
544.783	1926.77
548.749	2878.7
552.714	3557.72
556.677	4307.69
560.638	3813.51
564.597	2197.34
568.555	635.527
572.511	17.068
576.464	332.2
580.416	547.619
584.366	203.104
588.315	312.543
592.261	862.067
596.206	601.674
600.148	463.115
604.089	874.208
608.028	1903.95
611.965	3236.34
615.901	5474.9
619.834	9747.2
623.766	15884.9
627.696	23280.2
631.624	24708.2
635.551	21000.7
639.475	15838.9
643.398	10939.6
647.318	7361.83
651.237	5248.62
655.155	3861.96
659.07	2903.31
662.984	1969.16
666.895	1398.02
670.805	916.226
674.713	674.166
678.62	569.739
682.524	321.896
686.427	349.047
690.328	238.831
694.227	216.764
698.124	351.225
702.02	633.031
705.913	734.904
709.805	1192.05
713.695	1538.19
717.584	2527.67
721.47	3914.45
725.355	5743.09
729.238	8906.05
733.119	12660.3
736.998	14795
740.876	13665.3
744.752	10546.1
748.626	7808.82
752.498	5912.36
756.368	4923.73
760.237	4028.91
764.104	3065.89
767.969	2340.64
771.832	1801.16
775.693	1447.32
779.553	1240.37
783.411	1060.02
787.267	1097.31
791.122	1399.26
794.974	1469.85
798.825	1417.07
802.674	1516.88
806.522	1520.29
810.367	1330.27
814.211	1085.81
818.053	786.901
821.893	504.521
825.732	300.647
829.568	26.131
833.403	115.668
837.236	291.061
841.068	196.753
844.898	290.653
848.726	280.862
852.552	270.425
856.376	97.271
860.199	100.191
864.02	213.557
867.839	273.986
871.656	527.677
875.472	561.718
879.286	537.137
883.098	756.983
886.909	733.575
890.717	1190.23
894.524	1253.94
898.33	1569.32
902.133	2204.39
905.935	2868.98
909.735	3770.12
913.533	4702.82
917.33	5487.14
921.124	5319.92
924.918	4676.1
928.709	3795.68
932.499	3139.66
936.286	2645.06
940.073	2608.87
943.857	2591.09
947.64	2513.71
951.421	2448.74
955.2	2410.3
958.978	2372.25
962.753	2272.6
966.527	1967.35
970.3	1809.5
974.071	1480.05
977.84	1582.69
981.607	1430.32
985.372	1750.6
989.136	1833
992.898	1994.23
996.659	2382.31
1000.42	2979.79
1004.17	3096.05
1007.93	2849.04
1011.68	2223.41
1015.43	1586.2
1019.18	1279.13
1022.93	1028.27
1026.68	974.559
1030.42	809.197
1034.17	789.134
1037.91	859.46
1041.65	1049.28
1045.39	1028.72
1049.12	1052.61
1052.86	962.011
1056.59	955.424
1060.33	890.167
1064.06	673.652
1067.78	592.781
1071.51	671.498
1075.23	455.281
1078.96	458.987
1082.68	389.068
1086.4	433.045
1090.12	359.521
1093.83	278.532
1097.55	329.387
1101.26	562.896
1104.97	674.975
1108.68	767.198
1112.39	1034.16
1116.1	900.008
1119.8	1073.56
1123.5	1179.93
1127.2	1136.14
1130.9	836.319
1134.6	860.842
1138.3	1038.79
1141.99	957.509
1145.69	1285.7
1149.38	1368.08
1153.07	1139.01
1156.76	1020.57
1160.44	1012.43
1164.13	532.404
1167.81	556.392
1171.49	358.304
1175.17	238.122
1178.85	157.815
1182.52	80.271
1186.2	87.488
1189.87	23.616
1193.54	116.164
1197.21	127.317
1200.88	20.118
1204.55	61.781
1208.21	43.189
1211.88	65.824
1215.54	51.646
1219.2	59.024
1222.86	59.338
1226.51	181.562
1230.17	46.314
1233.82	53.646
1237.47	61.487
1241.12	7.21
1244.77	22.313
1248.42	288.015
1252.06	295.187
1255.71	250.285
1259.35	140.321
1262.99	189.291
1266.63	200.195
1270.26	453.034
1273.9	568.808
1277.53	473.512
1281.16	770.141
1284.8	806.688
1288.42	733.15
1292.05	757.532
1295.68	723.838
1299.3	821.613
1302.92	905.237
1306.55	903.321
1310.16	999.696
1313.78	1213.26
1317.4	1662.13
1321.01	1897.79
1324.62	2456.69
1328.24	2935.12
1331.85	3127.45
1335.45	3173.45
1339.06	2804.32
1342.66	2279.61
1346.27	1591.59
1349.87	1246.03
1353.47	974.314
1357.07	724.326
1360.66	602.01
1364.26	409.365
1367.85	419.602
1371.44	447.506
1375.04	552.646
1378.62	612.455
1382.21	694.576
1385.8	647.363
1389.38	648.33
1392.96	601.814
1396.54	520.787
1400.12	509.484
1403.7	303.516
1407.28	325.332
1410.85	446.922
1414.42	410.277
1417.99	413.383
1421.56	567.225
1425.13	235.9
1428.7	173.732
1432.26	292.373
1435.83	322.258
1439.39	412.133
1442.95	465.951
1446.51	475.705
1450.06	530.424
1453.62	693.566
1457.17	939.67
1460.73	729.107
1464.28	397.971
1467.83	462.4
1471.37	500.586
1474.92	254.779
1478.46	296.143
1482.01	225.607
1485.55	467.191
1489.09	271.172
1492.63	274.758
1496.16	246.314
1499.7	268.268
1503.23	22.072
1506.76	188.504
1510.29	273.697
1513.82	72.262
1517.35	8.227
1520.88	0
