Measurement: Raman, 514 nm, ccw, Raman Data Processed
Mineral: Kurnakovite
Rruff sample: R050105
Ideal chemistry: MgB_3_O_3_(OH)_5_5H_2_O
Locality: Kramer deposit, Boron, Kern County, California, USA
Source: Rock Currier
Description: Tabular single crystal
Measured chemistry: MgB_3_O_3_(OH)_5_Â·5H_2_O
Pin_id: L00495
Orientation: Laser parallel to (1 0 1). Fiducial mark perpendicular to laser is parallel to b [0 1 0]
Raman shift (cm-1)	intensity
103.82	0
107.995	551.01
112.168	2825.18
116.339	7899.6
120.508	11929
124.675	8661.24
128.84	8130.79
133.003	8611.36
137.164	4872.87
141.323	3861.94
145.48	6922.92
149.635	9508.47
153.788	5523.54
157.939	2753.62
162.088	3138.1
166.235	3369.71
170.38	4199.66
174.523	5611.93
178.664	4331.64
182.803	1800.71
186.94	1653.93
191.076	1685.96
195.209	1050.45
199.34	196.379
203.47	176.582
207.597	1222.78
211.722	1938.7
215.846	2488.07
219.967	1554.39
224.087	1150.33
228.204	2285.85
232.32	2572.98
236.434	1214.7
240.545	51.122
244.655	120.103
248.763	1083.68
252.869	2654.89
256.973	3397.53
261.075	1735.57
265.175	35.542
269.273	692.294
273.369	258.934
277.463	623.994
281.556	1554.26
285.646	1635.53
289.734	397.843
293.821	545.307
297.905	840.333
301.988	612.497
306.069	260.72
310.147	279.622
314.224	1175.93
318.299	2731.14
322.372	5158.66
326.443	6662.58
330.512	5844.09
334.579	4271.36
338.645	2482.26
342.708	2274.27
346.769	2482.39
350.829	3203.46
354.887	4307.1
358.942	4299.94
362.996	3252.65
367.048	2998.42
371.098	3650.34
375.146	4797.81
379.192	5727.32
383.236	5654.86
387.279	5079.41
391.319	5396.97
395.358	6730.52
399.394	8387.07
403.429	8254.54
407.462	8486.01
411.493	10441.6
415.522	15127.2
419.549	17647.2
423.575	13404
427.598	7768.07
431.619	3908.91
435.639	2241.77
439.657	1380.24
443.673	1260.26
447.687	1905.07
451.699	3255.63
455.709	6984.99
459.717	14530.9
463.724	27692.9
467.728	35832.2
471.731	29078.6
475.732	17628.1
479.731	9144.62
483.728	4647.08
487.723	2244.55
491.716	874.049
495.708	217.6
499.697	15.774
503.685	32.122
507.671	17.455
511.655	150.88
515.637	96.539
519.617	163.859
523.596	499.727
527.572	793.581
531.547	1249.67
535.52	1351.93
539.491	1273.4
543.46	1158.08
547.427	1234.82
551.393	1753.4
555.356	2655.57
559.318	2749.44
563.278	1854.06
567.236	899.438
571.192	345.411
575.147	90.126
579.099	143.291
583.05	195.81
586.999	926.368
590.946	1749.21
594.891	1978.46
598.834	1891.05
602.776	2352.4
606.715	3160.2
610.653	4847.45
614.589	7610.88
618.523	12551.9
622.456	20069.7
626.386	28309.7
630.315	32851.8
634.242	28687.4
638.167	20561.5
642.09	14965
646.012	10475
649.931	7501.38
653.849	5592.21
657.765	4445.77
661.679	3340.65
665.592	2505.82
669.502	2045.34
673.411	1471.13
677.318	1319.31
681.223	1003.97
685.126	1038.54
689.028	1077.77
692.927	996.529
696.825	1212.55
700.721	1322.28
704.616	1619.15
708.508	2026.68
712.399	2299.97
716.288	2839.56
720.175	3792.1
724.06	5773.53
727.944	8367.92
731.825	12356.2
735.705	15353.5
739.584	15696.2
743.46	12745
747.334	9903.81
751.207	7295.56
755.078	5490.23
758.947	4356.81
762.815	3459.3
766.68	2670.69
770.544	1978.95
774.406	1539.06
778.267	1422.97
782.125	1241.64
785.982	1246.04
789.837	1456.4
793.69	1611
797.542	1983.52
801.391	1817.73
805.239	1818.61
809.085	1791.14
812.93	1460.33
816.772	1157.2
820.613	547.75
824.452	322.077
828.29	56.207
832.125	32.304
835.959	328.942
839.791	171.634
843.621	96.328
847.45	158.902
851.277	162.502
855.102	137
858.925	182.834
862.746	76.709
866.566	90.771
870.384	22.814
874.2	80.904
878.015	153.273
881.828	314.02
885.639	471.328
889.448	546.327
893.256	842.095
897.061	1181.69
900.865	1669.16
904.668	2241.49
908.468	2921.57
912.267	3808.31
916.064	4442.7
919.86	4547.61
923.653	4408.01
927.445	3865.89
931.236	3521.27
935.024	3352.13
938.811	3594.48
942.596	4113.33
946.379	4423.67
950.161	4764.5
953.94	5298.84
957.719	5492.68
961.495	4857.02
965.27	4020.88
969.043	3423.84
972.814	2868.12
976.583	2418.51
980.351	2340.67
984.117	2190.57
987.882	2312.71
991.644	2451.44
995.405	2861.32
999.165	3346.99
1002.92	3831.26
1006.68	3551.23
1010.43	2936.18
1014.18	2391.07
1017.93	1781.15
1021.68	1463.28
1025.43	1248.57
1029.18	1311.14
1032.92	1355.31
1036.66	1564.4
1040.4	1531.88
1044.14	1609.22
1047.88	1724.12
1051.62	1921.06
1055.35	1771.33
1059.08	1654.73
1062.81	1251.4
1066.54	1154.42
1070.27	1092.49
1073.99	1048.38
1077.72	935.116
1081.44	943.687
1085.16	932.106
1088.88	1071.38
1092.59	1017.52
1096.31	1097.52
1100.02	1358.41
1103.73	1547.18
1107.44	1797.84
1111.15	1934.39
1114.86	1921.85
1118.57	2045.22
1122.27	1955.52
1125.97	1922.76
1129.67	1713.94
1133.37	1652.32
1137.07	1368.12
1140.76	1524.71
1144.45	1308.02
1148.15	1547.01
1151.84	1359.75
1155.53	1436.12
1159.21	1113.98
1162.9	906.985
1166.58	575.152
1170.26	525.597
1173.94	298.198
1177.62	232.883
1181.3	4.438
1184.97	27.996
1188.65	93.81
1192.32	140.124
1195.99	145.012
1199.66	115.953
1203.33	85.416
1206.99	16.317
1210.65	97.479
1214.32	133.089
1217.98	359.706
1221.64	349.409
1225.29	360.163
1228.95	352.971
1232.6	421.826
1236.26	294.721
1239.91	351.644
1243.56	287.586
1247.2	136.548
1250.85	229.531
1254.49	302.536
1258.13	373.562
1261.78	469.607
1265.41	591.674
1269.05	717.429
1272.69	787.74
1276.32	1090.86
1279.95	1110.02
1283.59	1324.15
1287.21	1450.29
1290.84	1366.45
1294.47	1420.64
1298.09	1385.88
1301.72	1155.16
1305.34	1309.47
1308.96	1404.82
1312.58	1745.2
1316.19	1975.75
1319.81	2047.09
1323.42	2154.6
1327.03	2046.75
1330.64	1940.92
1334.25	1940.49
1337.86	1583.27
1341.46	1233.08
1345.07	856.006
1348.67	618.698
1352.27	374.662
1355.87	296.129
1359.46	232.814
1363.06	220.93
1366.65	215.984
1370.25	236.138
1373.84	407.671
1377.43	215.636
1381.02	280.805
1384.6	274.961
1388.18	342.06
1391.77	364.091
1395.35	315.038
1398.93	229.852
1402.51	180.562
1406.08	160.166
1409.66	73.353
1413.23	19.01
1416.8	224.173
1420.37	0.826
1423.94	116.968
1427.51	175.013
1431.08	99.156
1434.64	208.488
1438.2	420.581
1441.76	588.646
1445.32	775.663
1448.88	1015.7
1452.43	1089.88
1455.99	1189.43
1459.54	1205.44
1463.09	1175.03
1466.64	975.063
1470.19	641.429
1473.74	606.375
1477.28	511.737
1480.83	432.228
1484.37	485.637
1487.91	436.175
1491.45	256.116
1494.98	329.945
1498.52	174.388
1502.05	18.732
1505.59	77.139
1509.12	66.928
1512.65	102.074
1516.17	108.516
1519.7	23.843
