Measurement: Raman, 514 nm, ccw, Raman Data Processed
Mineral: Kurnakovite
Rruff sample: R050105
Ideal chemistry: MgB_3_O_3_(OH)_5_5H_2_O
Locality: Kramer deposit, Boron, Kern County, California, USA
Source: Rock Currier
Description: Tabular single crystal
Measured chemistry: MgB_3_O_3_(OH)_5_Â·5H_2_O
Pin_id: L00338
Orientation: Laser parallel to a* (1 0 0). Fiducial mark perpendicular to laser is parallel to b [0 1 0]
Raman shift (cm-1)	intensity
110.777	0
114.949	749.357
119.119	2308.31
123.286	3528.36
127.452	360.008
131.615	2494.65
135.777	3199.2
139.937	138.312
144.094	821.609
148.25	6071.74
152.403	6980.52
156.555	4696.71
160.705	3566.61
164.853	5245.94
168.998	5481.27
173.142	5683.09
177.284	7531.53
181.424	4610.39
185.562	2943.19
189.698	3373.24
193.831	2818.04
197.963	1617.09
202.093	129.396
206.221	138.379
210.347	403.704
214.472	972.151
218.594	941.726
222.714	889.756
226.832	2425.24
230.948	3853.01
235.063	2777.26
239.175	1410.87
243.286	1262.65
247.394	1784.35
251.501	2897.48
255.605	4441.14
259.708	3878.39
263.808	1669.32
267.907	237
272.004	22.504
276.099	204.466
280.192	97.709
284.283	61.44
288.372	283.44
292.459	146.913
296.544	336.272
300.627	269.693
304.709	114.814
308.788	182.136
312.865	76.605
316.941	456.734
321.015	1253.04
325.086	1852.27
329.156	2147.47
333.224	1651.48
337.29	1004.53
341.354	705.767
345.416	506.345
349.476	688.388
353.534	1080
357.591	1241.48
361.645	1147.15
365.698	1166.42
369.748	1394.17
373.797	1758.98
377.844	2551.1
381.889	3295.55
385.932	2825.55
389.973	1727.1
394.012	1203.14
398.049	1262.72
402.084	1116.4
406.118	861.822
410.15	583.406
414.179	1089.72
418.207	2398.8
422.233	2244.66
426.257	1236.34
430.279	414.427
434.299	169.052
438.318	110.366
442.334	388.534
446.349	335.582
450.361	9.919
454.372	160.031
458.381	660.438
462.388	1508.51
466.394	2904.67
470.397	2772.09
474.398	1655.45
478.398	829.725
482.396	676.692
486.391	522.581
490.385	545.332
494.377	498.988
498.368	914.584
502.356	1422.32
506.342	2263.35
510.327	2735.38
514.31	3547.77
518.291	4774.56
522.27	5671.77
526.247	6560.66
530.222	7725.55
534.196	9027.72
538.167	9694.06
542.137	9384.52
546.105	8759.08
550.071	8890.58
554.035	10604.1
557.998	11074.6
561.958	8802.9
565.917	5726.01
569.874	3821.66
573.829	3135.86
577.782	2858.56
581.733	2958.78
585.683	3454.53
589.63	4417.81
593.576	4924.7
597.52	4729.9
601.462	5084.62
605.402	6325.69
609.341	8417.96
613.277	11628
617.212	16264.8
621.145	23692.4
625.076	35394.9
629.006	44455.2
632.933	41519.9
636.859	28955.6
640.783	18578.1
644.705	11719.2
648.625	7854
652.543	5283.45
656.46	3370.58
660.375	2416.39
664.288	1869.9
668.199	1790.11
672.108	1589.99
676.016	1282.19
679.921	1232.95
683.825	1793.88
687.727	1996.52
691.628	2290.34
695.526	3055.42
699.423	2598.32
703.318	3019.7
707.211	3420.78
711.102	3708.27
714.992	3546.99
718.879	3454
722.765	3694.16
726.649	3957.54
730.532	4393.11
734.412	4831.75
738.291	4722.15
742.168	3974.22
746.043	3305.47
749.916	2422.93
753.788	1691.77
757.658	1232.21
761.526	1022.35
765.392	852.941
769.257	675.701
773.119	483.52
776.98	328.361
780.839	211.196
784.697	295.989
788.552	505.717
792.406	560.353
796.258	495.88
800.108	453.285
803.957	556.549
807.804	612.654
811.649	731.586
815.492	724.329
819.333	423.867
823.173	325.18
827.011	98.254
830.847	83.942
834.681	179.231
838.514	161.864
842.345	391.007
846.174	248.915
850.001	35.573
853.827	154.863
857.651	139.775
861.473	243.027
865.293	230.747
869.112	46.836
872.928	260.971
876.744	153.116
880.557	162.884
884.369	327.293
888.178	333.447
891.987	426.435
895.793	793.354
899.598	835.308
903.401	704.229
907.202	762.796
911.001	1015.94
914.799	1200.7
918.595	1530.02
922.389	1648.91
926.182	1345.36
929.972	1545.32
933.761	1725.8
937.549	2087.78
941.334	2645.27
945.118	2886.28
948.9	2915.78
952.681	2949.84
956.459	3052.42
960.236	3061.5
964.012	2820.09
967.785	2256.19
971.557	1793.8
975.327	1438.92
979.095	1267.52
982.862	1462.86
986.627	1312.56
990.39	1192.15
994.152	1011.76
997.912	814.695
1001.67	1010.03
1005.43	1011.85
1009.18	1207.81
1012.93	1322.79
1016.68	1339.76
1020.43	1190.43
1024.18	1398.71
1027.93	1512.51
1031.67	2020.24
1035.42	2604.77
1039.16	3145.48
1042.9	3275.61
1046.63	3328.63
1050.37	3456.41
1054.11	3180.47
1057.84	2972.97
1061.57	2877.76
1065.3	2489.74
1069.03	2232.64
1072.75	1879.36
1076.47	1247.79
1080.2	1226.63
1083.92	1414.31
1087.64	1606.86
1091.36	1776.27
1095.07	1627.73
1098.79	1777.84
1102.5	1785.31
1106.21	2055.17
1109.92	2394.91
1113.62	2906.55
1117.33	2953.11
1121.04	2781.66
1124.74	2465.14
1128.44	2015.53
1132.14	1849
1135.83	1729.92
1139.53	1835.51
1143.22	1878.7
1146.92	1708.54
1150.61	1667.02
1154.3	1531.16
1157.98	929.832
1161.67	826.031
1165.35	761.803
1169.04	657.986
1172.72	627.477
1176.4	463.846
1180.07	78.037
1183.75	131.984
1187.42	362.363
1191.1	225.453
1194.77	215.291
1198.44	313.898
1202.1	387.572
1205.77	423.129
1209.43	266.572
1213.1	31.898
1216.76	68.811
1220.42	57.375
1224.07	329.535
1227.73	718.279
1231.38	1033.52
1235.04	800.738
1238.69	590.939
1242.34	227.662
1245.99	36.084
1249.63	230.148
1253.28	475.404
1256.92	775.057
1260.56	1189.35
1264.2	1474.66
1267.84	1441.17
1271.48	1330.51
1275.11	1577.85
1278.74	1589.38
1282.38	1622.75
1286.01	1810.31
1289.63	2453.28
1293.26	2346.23
1296.89	2594.92
1300.51	2421.64
1304.13	2318.47
1307.75	1998.85
1311.37	2473.74
1314.99	2857.61
1318.6	3315.52
1322.22	3714.1
1325.83	4110.92
1329.44	4159.8
1333.05	3911.89
1336.66	3414.16
1340.26	2552.84
1343.87	1590.91
1347.47	958.371
1351.07	724.385
1354.67	777.963
1358.27	1171.8
1361.86	1227.36
1365.46	1561.37
1369.05	1229.53
1372.64	347.605
1376.23	798.416
1379.82	275.557
1383.41	23.426
1386.99	280.164
1390.57	405.617
1394.16	646.949
1397.74	1020.65
1401.32	997.113
1404.89	1298.38
1408.47	729.357
1412.04	338.889
1415.61	187.359
1419.18	46.674
1422.75	227.432
1426.32	82.475
1429.89	358.094
1433.45	804.42
1437.01	1070.32
1440.58	1313.59
1444.13	1237.97
1447.69	1159.17
1451.25	620.133
1454.81	358.955
1458.36	189.861
1461.91	267.701
1465.46	56.408
1469.01	381.566
1472.56	715.223
1476.1	1042.36
1479.64	1438.05
1483.19	1412.9
1486.73	1402.99
1490.27	1127.88
1493.81	629.873
1497.34	345.18
1500.88	164.715
1504.41	4.816
