Measurement: Raman, 514 nm, ccw, Raman Data Processed
Mineral: Kurnakovite
Rruff sample: R050105
Ideal chemistry: MgB_3_O_3_(OH)_5_5H_2_O
Locality: Kramer deposit, Boron, Kern County, California, USA
Source: Rock Currier
Description: Tabular single crystal
Measured chemistry: MgB_3_O_3_(OH)_5_Â·5H_2_O
Pin_id: L00487
Orientation: Laser parallel to (0 1 1). Fiducial mark perpendicular to laser is parallel to -a [-1 0 0]
Raman shift (cm-1)	intensity
109.387	0
113.559	2660.23
117.729	9457.74
121.897	9164.44
126.063	7629.4
130.228	16292.7
134.39	21638.8
138.55	9459.6
142.709	1622.17
146.865	1097.73
151.019	871.939
155.171	83.15
159.322	2177.67
163.47	7730.06
167.617	11599.7
171.761	11131.7
175.904	11130.2
180.044	9063.81
184.183	8051.5
188.319	10715.6
192.454	11078.2
196.586	6216.4
200.717	2210.43
204.846	303.255
208.972	61.807
213.097	307.403
217.22	152.824
221.341	1281.12
225.46	4190.98
229.577	8085.97
233.692	8077.29
237.805	3655.75
241.916	644.197
246.025	602.322
250.132	753.315
254.237	237.641
258.34	150.278
262.442	397.678
266.541	119.822
270.639	826.089
274.734	2791.43
278.828	5789.79
282.919	8029.7
287.009	6722.94
291.097	3365
295.183	1529.04
299.266	1638.27
303.348	2664.8
307.428	3688.16
311.507	4140.91
315.583	5049.19
319.657	8082.15
323.729	12549.7
327.8	15296.2
331.868	14456.6
335.935	11961
339.999	12227.6
344.062	14843.8
348.123	19433.7
352.182	26467.2
356.239	31997
360.294	28171
364.347	20130
368.398	15892.8
372.448	15246.8
376.495	16376.1
380.54	16954.4
384.584	13498.8
388.626	8400.19
392.666	5014.58
396.704	3755.79
400.74	4082.78
404.774	5325.56
408.806	7829.69
412.836	13415.3
416.865	20869.8
420.891	22822.9
424.916	14397.2
428.939	6919.63
432.959	2700.41
436.978	648.304
440.996	96.737
445.011	645.771
449.024	668.009
453.036	242.56
457.045	1057.72
461.053	3507.01
465.059	7140.11
469.063	8533.78
473.065	5885.07
477.065	2987
481.063	2101.61
485.06	2076.94
489.054	2591.06
493.047	3781.04
497.038	5164.88
501.027	6058.6
505.014	5960.26
508.999	4586.96
512.982	3638.78
516.964	3247.75
520.944	3327.94
524.921	3369.65
528.897	3771.6
532.871	4847.73
536.844	5715.62
540.814	6687.12
544.783	8156.18
548.749	9531.79
552.714	11252.8
556.677	11992.3
560.638	10725.9
564.597	8053.65
568.555	5991.19
572.511	4505.86
576.464	3586.26
580.416	3245.07
584.366	3350.86
588.315	3644.03
592.261	3872.77
596.206	3424.65
600.148	3733.21
604.089	4559.01
608.028	6257.62
611.965	8719.81
615.901	12962.2
619.834	20857.7
623.766	31693.6
627.696	43724.9
631.624	46103.6
635.551	38625.7
639.475	27889.2
643.398	18302.1
647.318	12112.4
651.237	8103.06
655.155	5550.15
659.07	3655.64
662.984	2558.51
666.895	1878.78
670.805	1171.43
674.713	820.723
678.62	509.487
682.524	121.144
686.427	105.241
690.328	212.037
694.227	141.192
698.124	112.119
702.02	32.91
705.913	155.364
709.805	135.464
713.695	456.258
717.584	1111.09
721.47	2257.95
725.355	4014.82
729.238	7137.69
733.119	10932.5
736.998	13825.3
740.876	13647
744.752	10616.6
748.626	7749.17
752.498	5687.6
756.368	4636.19
760.237	3774.01
764.104	3187.77
767.969	2711.15
771.832	2726.94
775.693	2671.57
779.553	2744.05
783.411	3248.35
787.267	3712.48
791.122	4664.41
794.974	5349.13
798.825	5617.65
802.674	5355.94
806.522	4635.99
810.367	3847.8
814.211	2920.36
818.053	2037.65
821.893	1225.66
825.732	754.386
829.568	130.687
833.403	59.479
837.236	321.97
841.068	311.008
844.898	354.497
848.726	314.039
852.552	114.691
856.376	27.343
860.199	384.627
864.02	837.188
867.839	1291.71
871.656	1695.97
875.472	1725.97
879.286	1446.85
883.098	1376.66
886.909	1202.52
890.717	1084.41
894.524	1061.07
898.33	1305.76
902.133	1491.47
905.935	1899.15
909.735	2471.61
913.533	2862.75
917.33	3583.54
921.124	3520.97
924.918	3017.01
928.709	2451.66
932.499	1861.93
936.286	1516.82
940.073	1550.33
943.857	1572.46
947.64	1603.21
951.421	1789.59
955.2	2092.59
958.978	2075.22
962.753	1731.48
966.527	1144.37
970.3	809.9
974.071	465.069
977.84	439.882
981.607	349.109
985.372	391.729
989.136	426.404
992.898	195.695
996.659	292.042
1000.42	553.476
1004.17	632.401
1007.93	508.397
1011.68	615.382
1015.43	490.007
1019.18	690.555
1022.93	829.567
1026.68	1320.51
1030.42	1836.71
1034.17	2452.31
1037.91	3198.51
1041.65	3500.34
1045.39	3410.93
1049.12	2925.54
1052.86	2477.95
1056.59	2192.89
1060.33	1795.49
1064.06	1652.83
1067.78	1373.03
1071.51	1181.12
1075.23	1266.09
1078.96	1175.95
1082.68	1375.72
1086.4	1948.38
1090.12	1595.96
1093.83	1965.45
1097.55	2233.26
1101.26	2724.19
1104.97	3176.45
1108.68	3470.64
1112.39	3802.77
1116.1	3856.84
1119.8	4162.85
1123.5	3569.82
1127.2	3065.86
1130.9	2411.53
1134.6	2089.9
1138.3	1851.68
1141.99	1333.33
1145.69	979.204
1149.38	876.246
1153.07	582.226
1156.76	369.665
1160.44	260.188
1164.13	202.281
1167.81	21.143
1171.49	58.464
1175.17	37.367
1178.85	90.607
1182.52	173.474
1186.2	50.086
1189.87	75.14
1193.54	41.675
1197.21	176.75
1200.88	93.574
1204.55	37.19
1208.21	63.896
1211.88	136.604
1215.54	320.315
1219.2	423.054
1222.86	544.818
1226.51	512.602
1230.17	452.408
1233.82	449.63
1237.47	393.062
1241.12	294.879
1244.77	350.681
1248.42	401.466
1252.06	495.233
1255.71	596.982
1259.35	478.714
1262.99	639.422
1266.63	1034.11
1270.26	1263.77
1273.9	1616.4
1277.53	1940.02
1281.16	2452.61
1284.8	2731.19
1288.42	3018.8
1292.05	2784.36
1295.68	2588.95
1299.3	2204.52
1302.92	2209.09
1306.55	2183.64
1310.16	2360.16
1313.78	2500.52
1317.4	2852.64
1321.01	2973.22
1324.62	3087.54
1328.24	3245.33
1331.85	3118.59
1335.45	3069.89
1339.06	2594.14
1342.66	2066.81
1346.27	1425.44
1349.87	1060.64
1353.47	768.045
1357.07	630.78
1360.66	365.981
1364.26	241.536
1367.85	381.01
1371.44	377.146
1375.04	276.42
1378.62	344.557
1382.21	409.644
1385.8	522.452
1389.38	436.126
1392.96	546.662
1396.54	760.048
1400.12	688.277
1403.7	961.338
1407.28	948.217
1410.85	1053.9
1414.42	981.36
1417.99	747.587
1421.56	711.79
1425.13	415.804
1428.7	234.46
1432.26	191.465
1435.83	292.401
1439.39	336.826
1442.95	306.303
1446.51	376.743
1450.06	364.203
1453.62	484.834
1457.17	503.861
1460.73	506.392
1464.28	317.562
1467.83	215.553
1471.37	173.599
1474.92	124.9
1478.46	9.325
1482.01	6.624
1485.55	3.93
1489.09	80.549
1492.63	48.216
1496.16	167.919
1499.7	5.157
1503.23	15.23
1506.76	70.332
1510.29	209.171
1513.82	74.534
1517.35	28.602
1520.88	0
