Measurement: Raman, 514 nm, ccw, Raman Data Processed
Mineral: Kurnakovite
Rruff sample: R050105
Ideal chemistry: MgB_3_O_3_(OH)_5_5H_2_O
Locality: Kramer deposit, Boron, Kern County, California, USA
Source: Rock Currier
Description: Tabular single crystal
Measured chemistry: MgB_3_O_3_(OH)_5_Â·5H_2_O
Pin_id: L00453
Orientation: Laser parallel to c* (0 0 1). Fiducial mark perpendicular to laser is parallel to a [1 0 0]
Raman shift (cm-1)	intensity
109.387	0
113.559	6013.84
117.729	11818.6
121.897	11363.2
126.063	6572.72
130.228	10047.5
134.39	12062.4
138.55	4899.73
142.709	818.383
146.865	264.738
151.019	43.889
155.171	547.236
159.322	868.622
163.47	3597.52
167.617	5835.49
171.761	7885.31
175.904	9887.5
180.044	7363.33
184.183	5517.82
188.319	6306.53
192.454	5747.99
196.586	2640.28
200.717	357.008
204.846	494.695
208.972	435.791
213.097	257.55
217.22	373.627
221.341	1529.91
225.46	4235.8
229.577	7494.38
233.692	6806.7
237.805	3195.8
241.916	1204.91
246.025	708.58
250.132	2219.83
254.237	4898.37
258.34	5054.18
262.442	2412.18
266.541	948.337
270.639	1266.58
274.734	2662.52
278.828	5250.18
282.919	7255.6
287.009	5853.74
291.097	3063.54
295.183	1976.52
299.266	2503.37
303.348	3676.3
307.428	4356.21
311.507	3297.34
315.583	2230.45
319.657	2273.57
323.729	2878.63
327.8	3422.63
331.868	3859.23
335.935	4734.88
339.999	7453.48
344.062	11905.9
348.123	18700.2
352.182	28509.2
356.239	35792.8
360.294	31096.1
364.347	21263.8
368.398	15702.5
372.448	13742.9
376.495	13328.2
380.54	13039.7
384.584	10119.2
388.626	6230.68
392.666	3565.87
396.704	2101.66
400.74	1882.86
404.774	2623.3
408.806	4954.05
412.836	9510.11
416.865	15828.5
420.891	16619.1
424.916	10193
428.939	4788.07
432.959	1612.4
436.978	288.992
440.996	366.388
445.011	800.15
449.024	646.829
453.036	211.999
457.045	708.173
461.053	2719.31
465.059	4894.5
469.063	5013.73
473.065	2784
477.065	938.312
481.063	569.192
485.06	559.565
489.054	881.088
493.047	1333.78
497.038	2168.61
501.027	2704.58
505.014	2663.68
508.999	1999.9
512.982	1572.22
516.964	1584.64
520.944	1743.16
524.921	1989.8
528.897	2387.05
532.871	3462.79
536.844	4543.64
540.814	5772.41
544.783	7734.18
548.749	9794.89
552.714	12861.7
556.677	14930.8
560.638	13916.7
564.597	10187.5
568.555	7120.22
572.511	5419.86
576.464	4583.42
580.416	4223.89
584.366	4811.27
588.315	6092.55
592.261	6516.72
596.206	4943.59
600.148	4220.07
604.089	4227.73
608.028	5530.57
611.965	7378.64
615.901	10782.9
619.834	17436
623.766	26237.2
627.696	36100.6
631.624	36875
635.551	30389.6
639.475	22106.3
643.398	14647
647.318	9770.85
651.237	6752.75
655.155	4903.73
659.07	3395.78
662.984	2604.93
666.895	1799.26
670.805	1196.87
674.713	856.821
678.62	581.806
682.524	128.311
686.427	189.506
690.328	271.011
694.227	280.549
698.124	237.932
702.02	238.986
705.913	93.821
709.805	69.75
713.695	38.715
717.584	802.969
721.47	1904.17
725.355	3423.31
729.238	6057.39
733.119	9291.42
736.998	11426.4
740.876	11217.3
744.752	8842.14
748.626	6913.93
752.498	5299.67
756.368	4558.8
760.237	3859.31
764.104	3402.04
767.969	2930.08
771.832	2962.46
775.693	2733.78
779.553	2794.02
783.411	3005.19
787.267	3199.28
791.122	3649.28
794.974	4086.19
798.825	4008.01
802.674	3776.73
806.522	3421.34
810.367	2669.85
814.211	1958.01
818.053	1414.14
821.893	885.73
825.732	621.482
829.568	242.405
833.403	82.727
837.236	37.644
841.068	173.071
844.898	80.087
848.726	35.38
852.552	114.228
856.376	301.991
860.199	621.869
864.02	1032.87
867.839	1068.92
871.656	1454.92
875.472	1413.77
879.286	1284.48
883.098	1227.11
886.909	996.705
890.717	1109.21
894.524	1078.62
898.33	929.97
902.133	1452.26
905.935	1804.53
909.735	2313.84
913.533	2819.07
917.33	3367.33
921.124	3318.42
924.918	2746.25
928.709	2192.82
932.499	1500.15
936.286	1051.28
940.073	880.193
943.857	670.835
947.64	417.203
951.421	418.293
955.2	420.102
958.978	426.622
962.753	247.853
966.527	263.77
970.3	100.299
974.071	135.771
977.84	38.302
981.607	68.51
985.372	206.847
989.136	40.152
992.898	71.952
996.659	95.249
1000.42	265.243
1004.17	334.254
1007.93	363.952
1011.68	373.955
1015.43	418.605
1019.18	705.176
1022.93	893.014
1026.68	1346.02
1030.42	1811.08
1034.17	2280.04
1037.91	2771.47
1041.65	3160.69
1045.39	3099.41
1049.12	2705.45
1052.86	2305.75
1056.59	2140.09
1060.33	2020.97
1064.06	2013.21
1067.78	1681.34
1071.51	1692.98
1075.23	1788.7
1078.96	1797.91
1082.68	2019.86
1086.4	2479.8
1090.12	2528.49
1093.83	2854.44
1097.55	3266.65
1101.26	3844.33
1104.97	4387.31
1108.68	4540.96
1112.39	5000.15
1116.1	5102.45
1119.8	4909.51
1123.5	4560.08
1127.2	4028.22
1130.9	3230.43
1134.6	2852.79
1138.3	2511.03
1141.99	1664.08
1145.69	1333.51
1149.38	1175.85
1153.07	844.811
1156.76	666.574
1160.44	499.131
1164.13	488.832
1167.81	459.621
1171.49	324.557
1175.17	244.287
1178.85	62.799
1182.52	15.902
1186.2	116.652
1189.87	19.104
1193.54	29.783
1197.21	16.98
1200.88	99.65
1204.55	119.191
1208.21	150.529
1211.88	72.555
1215.54	61.797
1219.2	158.342
1222.86	119.1
1226.51	288.072
1230.17	100.086
1233.82	47.439
1237.47	219.818
1241.12	46.057
1244.77	88.162
1248.42	244.145
1252.06	421.016
1255.71	547.775
1259.35	174.432
1262.99	470.008
1266.63	706.562
1270.26	918.238
1273.9	1214.09
1277.53	1558.21
1281.16	2050.78
1284.8	2123.78
1288.42	2396.1
1292.05	2027.46
1295.68	2210.8
1299.3	1678.13
1302.92	1866.44
1306.55	1759.75
1310.16	2194.06
1313.78	2200.39
1317.4	2429.73
1321.01	2428.66
1324.62	2753.47
1328.24	2921.95
1331.85	2933.34
1335.45	2908.74
1339.06	2596.61
1342.66	2123.38
1346.27	1614.47
1349.87	1299.81
1353.47	1048.59
1357.07	817.545
1360.66	752.316
1364.26	567.318
1367.85	302.252
1371.44	291.66
1375.04	267.236
1378.62	519.121
1382.21	570.791
1385.8	617.174
1389.38	302.303
1392.96	591.521
1396.54	599.814
1400.12	512.172
1403.7	600.564
1407.28	615.943
1410.85	653.293
1414.42	851.613
1417.99	610.896
1421.56	574.145
1425.13	366.621
1428.7	305.521
1432.26	391.916
1435.83	448.207
1439.39	615.752
1442.95	519.094
1446.51	628.473
1450.06	592.244
1453.62	916.555
1457.17	811.412
1460.73	808.859
1464.28	381.982
1467.83	380.924
1471.37	345.863
1474.92	489.574
1478.46	305.48
1482.01	335.301
1485.55	408.584
1489.09	299.635
1492.63	153.803
1496.16	220.537
1499.7	111.342
1503.23	70.891
1506.76	215.248
1510.29	135.904
1513.82	248.006
1517.35	0.131
