Measurement: Raman, 514 nm, ccw, Raman Data Processed
Mineral: Kurnakovite
Rruff sample: R050105
Ideal chemistry: MgB_3_O_3_(OH)_5_5H_2_O
Locality: Kramer deposit, Boron, Kern County, California, USA
Source: Rock Currier
Description: Tabular single crystal
Measured chemistry: MgB_3_O_3_(OH)_5_Â·5H_2_O
Pin_id: L00269
Orientation: Laser parallel to (-1 -1 0). Fiducial mark perpendicular to laser is parallel to -c [0 0 -1]
Raman shift (cm-1)	intensity
113.559	0
117.729	2644.7
121.897	2347.07
126.063	517.14
130.228	1432.85
134.39	1508.71
138.55	225.062
142.709	19.706
146.865	965.098
151.019	1964.52
155.171	2722.53
159.322	4374.44
163.47	8580.3
167.617	12181.6
171.761	12180.9
175.904	9873.86
180.044	6092.54
184.183	4384.89
188.319	4651.51
192.454	4039.06
196.586	2100.15
200.717	368.891
204.846	244.032
208.972	92.142
213.097	0.384
217.22	938.941
221.341	2690.94
225.46	6331.47
229.577	10392.6
233.692	9448.6
237.805	4992.43
241.916	3002.97
246.025	3407.08
250.132	5749.57
254.237	8929.31
258.34	8086.89
262.442	3982.82
266.541	1480.39
270.639	715.316
274.734	666.622
278.828	1786.18
282.919	2386.02
287.009	1868.03
291.097	1049.03
295.183	756.647
299.266	1464.11
303.348	2270.76
307.428	2915.27
311.507	2900.16
315.583	3370.77
319.657	5314.14
323.729	8087.82
327.8	9296.79
331.868	8477.91
335.935	6930.99
339.999	7143.97
344.062	8500.8
348.123	10539.5
352.182	13725.9
356.239	16169.2
360.294	13403.2
364.347	9074.82
368.398	6663.46
372.448	5861.19
376.495	5714.31
380.54	5541.74
384.584	4152.69
388.626	2330.2
392.666	1421.28
396.704	774.952
400.74	470.235
404.774	490.127
408.806	1203.66
412.836	3260.89
416.865	5604.83
420.891	5693.48
424.916	2979.81
428.939	1102.88
432.959	51.313
436.978	605.414
440.996	554.143
445.011	725.201
449.024	548.806
453.036	139.03
457.045	540.873
461.053	1902.4
465.059	3046.56
469.063	3061.77
473.065	1967.64
477.065	841.259
481.063	663.623
485.06	749.746
489.054	692.674
493.047	1350.44
497.038	2009.04
501.027	2596.5
505.014	3352.81
508.999	3929.98
512.982	4279.03
516.964	4544
520.944	5041.46
524.921	5651.96
528.897	6204.84
532.871	7457.15
536.844	7849.54
540.814	8104.69
544.783	8982.48
548.749	10102.7
552.714	11975.1
556.677	13205.6
560.638	11618.6
564.597	8530.5
568.555	6326.92
572.511	5166.33
576.464	4791.73
580.416	4484.13
584.366	5172.54
588.315	6147.95
592.261	6746.65
596.206	5500.62
600.148	5398.59
604.089	5627.5
608.028	6965.56
611.965	8922
615.901	12652.6
619.834	19065.6
623.766	26935.9
627.696	34666.6
631.624	33144.7
635.551	26053.2
639.475	18054.1
643.398	11507.3
647.318	7475.97
651.237	4897.01
655.155	3587.43
659.07	2345.23
662.984	1817.43
666.895	1404.14
670.805	979.404
674.713	881.41
678.62	1151.36
682.524	1165.7
686.427	1311.77
690.328	1173.72
694.227	1710.15
698.124	1905.57
702.02	2346.9
705.913	2277.05
709.805	2682.45
713.695	2610.57
717.584	3106.07
721.47	3623.87
725.355	4047.28
729.238	5315.12
733.119	6540.7
736.998	7184.75
740.876	6828.68
744.752	5482.24
748.626	4543.93
752.498	3722.59
756.368	3347.01
760.237	2895.56
764.104	2493.16
767.969	1896.2
771.832	1876.68
775.693	1802.16
779.553	1577.62
783.411	1612.04
787.267	1585.42
791.122	1670.75
794.974	1681
798.825	1573.17
802.674	1660.24
806.522	1291.21
810.367	1208.06
814.211	919.781
818.053	597.354
821.893	470.771
825.732	206.998
829.568	303.25
833.403	484.643
837.236	494.096
841.068	192.582
844.898	185.117
848.726	309.443
852.552	215.934
856.376	271.834
860.199	92.105
864.02	443.525
867.839	361.562
871.656	649.324
875.472	587.816
879.286	329.123
883.098	391.371
886.909	497.602
890.717	333.65
894.524	1031.78
898.33	600.301
902.133	892.092
905.935	1122.07
909.735	1511.9
913.533	1665.39
917.33	2245.48
921.124	2163.14
924.918	2121.36
928.709	2078.14
932.499	1914.46
936.286	1969.32
940.073	2446.72
943.857	2682.66
947.64	2601.13
951.421	2721.13
955.2	2980.66
958.978	2935.81
962.753	2155.49
966.527	1769.7
970.3	1191.43
974.071	978.555
977.84	975.619
981.607	828.965
985.372	1054.69
989.136	373.773
992.898	186.602
996.659	161.027
1000.42	678.609
1004.17	757.785
1007.93	646.59
1011.68	637.857
1015.43	643.264
1019.18	576.754
1022.93	574.684
1026.68	759.555
1030.42	1204.92
1034.17	1508.63
1037.91	1968.34
1041.65	2243.46
1045.39	2351.54
1049.12	2349
1052.86	1932.66
1056.59	1843.5
1060.33	1817.31
1064.06	1810.28
1067.78	1423.58
1071.51	1186.21
1075.23	1171.54
1078.96	1318.58
1082.68	1349.33
1086.4	1566.79
1090.12	1567.97
1093.83	1917.89
1097.55	2125.77
1101.26	2571.1
1104.97	3120.09
1108.68	3292.49
1112.39	3842.47
1116.1	4007.49
1119.8	3879.59
1123.5	3469.45
1127.2	3020.1
1130.9	2590.85
1134.6	2352.31
1138.3	2178.95
1141.99	1576.06
1145.69	1322.43
1149.38	1517.81
1153.07	973.781
1156.76	774.047
1160.44	626.402
1164.13	263.705
1167.81	395.814
1171.49	150.719
1175.17	2.607
1178.85	12.443
1182.52	87.98
1186.2	36.826
1189.87	164.746
1193.54	150.568
1197.21	204.83
1200.88	328.441
1204.55	70.881
1208.21	212.896
1211.88	219.723
1215.54	689.375
1219.2	533.875
1222.86	756.227
1226.51	600.322
1230.17	652.521
1233.82	401.541
1237.47	490.48
1241.12	281.293
1244.77	295.951
1248.42	630.395
1252.06	565.609
1255.71	587.605
1259.35	228.447
1262.99	343.127
1266.63	691.654
1270.26	967.033
1273.9	1255.26
1277.53	1532.33
1281.16	1609.23
1284.8	1807.96
1288.42	1999.53
1292.05	1798.42
1295.68	2035.67
1299.3	1717.82
1302.92	2136.85
1306.55	2338.6
1310.16	2527.44
1313.78	2902.87
1317.4	3358.82
1321.01	3327.47
1324.62	3652.32
1328.24	3695.37
1331.85	3598.86
1335.45	3653.39
1339.06	3049.14
1342.66	2750.34
1346.27	1669.52
1349.87	1729.33
1353.47	1206.43
1357.07	1083.69
1360.66	851.582
1364.26	438.58
1367.85	734.789
1371.44	569.223
1375.04	457.994
1378.62	693.342
1382.21	652.404
1385.8	858.535
1389.38	245.701
1392.96	480.908
1396.54	564.312
1400.12	351.531
1403.7	504.449
1407.28	606.061
1410.85	735.34
1414.42	707.258
1417.99	678.836
1421.56	509.053
1425.13	383.949
1428.7	498.496
1432.26	168.701
1435.83	488.754
1439.39	602.965
1442.95	726.877
1446.51	910.967
1450.06	857.199
1453.62	1047.37
1457.17	1054.44
1460.73	1226.12
1464.28	886.658
1467.83	592.961
1471.37	32.756
1474.92	12.02
1478.46	249.99
1482.01	192.355
1485.55	654.412
1489.09	14.188
1492.63	422.928
1496.16	602.242
1499.7	347.891
1503.23	177.457
1506.76	616.32
1510.29	622.516
1513.82	329.443
1517.35	42.107
1520.88	466.799
1524.4	255.225
