Measurement: Raman, 514 nm, ccw, Raman Data Processed
Mineral: Kurnakovite
Rruff sample: R050105
Ideal chemistry: MgB_3_O_3_(OH)_5_5H_2_O
Locality: Kramer deposit, Boron, Kern County, California, USA
Source: Rock Currier
Description: Tabular single crystal
Measured chemistry: MgB_3_O_3_(OH)_5_Â·5H_2_O
Pin_id: L00338
Orientation: Laser parallel to a* (1 0 0). Fiducial mark perpendicular to laser is parallel to b [0 1 0]
Raman shift (cm-1)	intensity
95.465	0
99.644	4957.8
103.82	10763.6
107.995	4502.68
112.168	3820.78
116.339	5364.03
120.508	11178.5
124.675	9359.8
128.84	5911.95
133.003	3764.39
137.164	594.944
141.323	651.527
145.48	164.335
149.635	2249.98
153.788	2663.54
157.939	2296.01
162.088	3251.13
166.235	6314.62
170.38	4923.67
174.523	4075.78
178.664	3628.55
182.803	2336.6
186.94	2260.97
191.076	2493.28
195.209	1746.36
199.34	932.677
203.47	437.309
207.597	223.29
211.722	564.629
215.846	999.34
219.967	1131.18
224.087	1944.77
228.204	4408.63
232.32	6356.57
236.434	4389.94
240.545	1909.06
244.655	694.104
248.763	158.087
252.869	371.039
256.973	589.858
261.075	45.515
265.175	501.714
269.273	539.879
273.369	207.3
277.463	357.757
281.556	1059.79
285.646	1360.46
289.734	841.451
293.821	194.629
297.905	138.617
301.988	233.984
306.069	140.875
310.147	91.207
314.224	326.643
318.299	1145.2
322.372	2228.63
326.443	2830.17
330.512	2893.95
334.579	2178.04
338.645	2085.39
342.708	2674.07
346.769	3051.56
350.829	3263
354.887	3719.83
358.942	3691.52
362.996	2660.16
367.048	2148.78
371.098	2335.01
375.146	2729.33
379.192	2626.67
383.236	2412.18
387.279	2617.84
391.319	3348.67
395.358	4870.68
399.394	6553.89
403.429	7277.31
407.462	6972.96
411.493	8616.13
415.522	13097.9
419.549	17896.9
423.575	14914.8
427.598	8709.69
431.619	4894.96
435.639	3068.72
439.657	2341.88
443.673	2105.17
447.687	2539.39
451.699	3734.59
455.709	6992.07
459.717	13650.9
463.724	27664.9
467.728	42555.2
471.731	36825.1
475.732	21717.1
479.731	12041
483.728	6644.14
487.723	3902.5
491.716	2086.12
495.708	1179.01
499.697	726.193
503.685	859.68
507.671	1032.51
511.655	976.771
515.637	914.516
519.617	1049.77
523.596	1049.84
527.572	1260.92
531.547	1206.13
535.52	1296.47
539.491	1228.98
543.46	1449.57
547.427	1305.22
551.393	1885.74
555.356	3024.31
559.318	3338.77
563.278	2232.06
567.236	1127.18
571.192	362.996
575.147	165.564
579.099	227.816
583.05	380.971
586.999	355.301
590.946	136.891
594.891	162.5
598.834	533.193
602.776	926.51
606.715	1528.38
610.653	2385.82
614.589	4039.85
618.523	6354.02
622.456	10863.7
626.386	17133.1
630.315	21807.7
634.242	20579.1
638.167	15589.1
642.09	11428.6
646.012	8385.55
649.931	6308.04
653.849	4666.04
657.765	3715.52
661.679	2951.48
665.592	2432.91
669.502	2135.3
673.411	1798.79
677.318	1387.57
681.223	1238.62
685.126	1215.46
689.028	1279.13
692.927	1277.83
696.825	1354.25
700.721	1648.15
704.616	1850.63
708.508	2098.61
712.399	2582.38
716.288	3021.73
720.175	3790.61
724.06	5264.11
727.944	7668.5
731.825	11353.9
735.705	14172.2
739.584	14236.8
743.46	12409.6
747.334	9478.94
751.207	7389.9
755.078	5868.84
758.947	4809.71
762.815	3959.52
766.68	3259.24
770.544	2451.88
774.406	1535.4
778.267	1130.79
782.125	866.018
785.982	620.057
789.837	557.904
793.69	432.531
797.542	287.93
801.391	415.082
805.239	528.979
809.085	603.605
812.93	541.951
816.772	155.006
820.613	202.752
824.452	47.182
828.29	189.209
832.125	104.279
835.959	125.938
839.791	114.904
843.621	268.021
847.45	203.621
851.277	131.693
855.102	52.77
858.925	47.086
862.746	172.676
866.566	67.762
870.384	204.133
874.2	409.191
878.015	310.396
881.828	287.08
885.639	405.422
889.448	572.621
893.256	967.744
897.061	1272.86
900.865	1664.76
904.668	2147.43
908.468	2843.7
912.267	3779.65
916.064	4716.33
919.86	5069.61
923.653	4655.48
927.445	3978.93
931.236	2902.98
935.024	2460.73
938.811	2544.79
942.596	2532.81
946.379	2336.25
950.161	2094.36
953.94	1993.01
957.719	2145.26
961.495	2253.12
965.27	1984.59
969.043	1925.71
972.814	1674.44
976.583	1402.99
980.351	1256.43
984.117	1360.9
987.882	1695.65
991.644	2099.82
995.405	2171.07
999.165	2526.07
1002.92	2695.07
1006.68	2597.05
1010.43	2471.36
1014.18	1992.17
1017.93	1539.08
1021.68	973.262
1025.43	797.318
1029.18	544.641
1032.92	738.676
1036.66	1184.46
1040.4	1276.43
1044.14	1116.11
1047.88	936.426
1051.62	711.42
1055.35	522.912
1059.08	912.879
1062.81	1005.92
1066.54	898.859
1070.27	823.699
1073.99	653.99
1077.72	287.033
1081.44	145.762
1085.16	164.238
1088.88	469.682
1092.59	460.641
1096.31	907.604
1100.02	570.516
1103.73	392.35
1107.44	502.826
1111.15	876.719
1114.86	986.094
1118.57	1131.77
1122.27	1360.23
1125.97	888.719
1129.67	900.389
1133.37	896.996
1137.07	1004.68
1140.76	1058.97
1144.45	1667.88
1148.15	1777.65
1151.84	1806.83
1155.53	1330.08
1159.21	1039.87
1162.9	731.031
1166.58	641.715
1170.26	748.406
1173.94	646.141
1177.62	694.908
1181.3	451.5
1184.97	257.758
1188.65	72.266
1192.32	117.619
1195.99	8.619
1199.66	272.533
1203.33	584.064
1206.99	517.508
1210.65	375.123
1214.32	308.865
1217.98	131.725
1221.64	68.426
1225.29	325.887
1228.95	207.988
1232.6	485.754
1236.26	797.506
1239.91	590.369
1243.56	387.264
1247.2	256.293
1250.85	5.842
1254.49	225.127
1258.13	214.439
1261.78	478.527
1265.41	684.814
1269.05	702.791
1272.69	462.213
1276.32	196.715
1279.95	5.887
1283.59	79.422
1287.21	162.961
1290.84	341.43
1294.47	752.338
1298.09	782.721
1301.72	1074.66
1305.34	790.23
1308.96	630.443
1312.58	470.359
1316.19	636.955
1319.81	739.777
1323.42	1107.5
1327.03	1626.28
1330.64	2051.39
1334.25	2239.11
1337.86	1874.54
1341.46	1310.52
1345.07	799.004
1348.67	349.689
1352.27	188.857
1355.87	300.533
1359.46	432.139
1363.06	842.639
1366.65	1158.08
1370.25	1122.66
1373.84	939.623
1377.43	1141.5
1381.02	723.273
1384.6	537.729
1388.18	291.77
1391.77	417.418
1395.35	647.252
1398.93	908.924
1402.51	951.494
1406.08	1133.13
1409.66	1106.04
1413.23	983.395
1416.8	435.244
1420.37	138.719
1423.94	29.635
1427.51	25.758
1431.08	151.734
1434.64	365.244
1438.2	942.045
1441.76	940.99
1445.32	1357.54
1448.88	1358.07
1452.43	1103.76
1455.99	804.232
1459.54	780.311
1463.09	649.555
1466.64	498.254
1470.19	460.453
1473.74	714.982
1477.28	1054.36
1480.83	1249.94
1484.37	1437.68
1487.91	1480.26
1491.45	1456.22
1494.98	1251.27
1498.52	724.492
1502.05	488.496
1505.59	122.67
1509.12	24.566
1512.65	125.104
1516.17	57.322
1519.7	7.449
