Measurement: Raman, 514 nm, ccw, Raman Data Processed
Mineral: Kurnakovite
Rruff sample: R050105
Ideal chemistry: MgB_3_O_3_(OH)_5_5H_2_O
Locality: Kramer deposit, Boron, Kern County, California, USA
Source: Rock Currier
Description: Tabular single crystal
Measured chemistry: MgB_3_O_3_(OH)_5_Â·5H_2_O
Pin_id: L00484
Orientation: Laser parallel to b* (0 1 0). Fiducial mark perpendicular to laser is parallel to c [0 0 1]
Raman shift (cm-1)	intensity
107.995	0
112.168	986.605
116.339	4785.77
120.508	6870.8
124.675	6929.91
128.84	15726.5
133.003	24357.4
137.164	13570.8
141.323	4975.83
145.48	4426.03
149.635	4788.29
153.788	2365.68
157.939	2427.45
162.088	5486.27
166.235	8676.49
170.38	7452.74
174.523	6863.08
178.664	6065.89
182.803	4819.49
186.94	5997.89
191.076	6724.59
195.209	4397.78
199.34	2051.51
203.47	763.352
207.597	834.03
211.722	656.667
215.846	530.292
219.967	32.3
224.087	714.194
228.204	2862.35
232.32	3577.8
236.434	1645.24
240.545	31.303
244.655	616.946
248.763	734.997
252.869	600.12
256.973	314.163
261.075	357.787
265.175	419.357
269.273	401.104
273.369	1981.67
277.463	4587.36
281.556	7105.66
285.646	6725.17
289.734	3252.47
293.821	686.061
297.905	179.616
301.988	36.764
306.069	496.19
310.147	1553.1
314.224	3608.96
318.299	7011.84
322.372	11334.1
326.443	14409.7
330.512	13300.5
334.579	10526.1
338.645	8723.58
342.708	9557.53
346.769	11835.4
350.829	16472.3
354.887	20834.6
358.942	19690.3
362.996	14397.3
367.048	12012.1
371.098	12120.9
375.146	13874.9
379.192	15466.3
383.236	13611.3
387.279	8807.97
391.319	5492.44
395.358	4734.33
399.394	5731.4
403.429	6974.1
407.462	8933.29
411.493	13080.6
415.522	19639
419.549	23116.3
423.575	16629
427.598	8175.99
431.619	3336.25
435.639	1284.26
439.657	28.859
443.673	406.517
447.687	468.472
451.699	11.133
455.709	1403.88
459.717	4219.92
463.724	9347.88
467.728	12658.1
471.731	9980.88
475.732	5489.69
479.731	2677.54
483.728	1764.45
487.723	1852.47
491.716	2638.6
495.708	3761.89
499.697	4438.34
503.685	4175.02
507.671	3198.03
511.655	2228.45
515.637	2077.34
519.617	2293.7
523.596	2435.7
527.572	2702.14
531.547	3178.89
535.52	3796.73
539.491	4371.11
543.46	4963.3
547.427	5652.17
551.393	5924.62
555.356	5835.1
559.318	5036.96
563.278	3527.27
567.236	2540.74
571.192	2027.47
575.147	1473.48
579.099	1123.18
583.05	992.375
586.999	905.996
590.946	1156.58
594.891	1463.56
598.834	1940.79
602.776	2835.09
606.715	4090.14
610.653	6150.89
614.589	9563.6
618.523	15514
622.456	24982.6
626.386	35549.2
630.315	41444.1
634.242	36025.4
638.167	25156.1
642.09	17262.1
646.012	11476.5
649.931	7622.3
653.849	5404.41
657.765	3758.86
661.679	2596.24
665.592	1907.77
669.502	1428.2
673.411	885.935
677.318	535.041
681.223	206.435
685.126	53.428
689.028	109.885
692.927	136.282
696.825	313.946
700.721	195.523
704.616	142.782
708.508	186.69
712.399	463.386
716.288	813.062
720.175	1669.71
724.06	3553.31
727.944	6197.84
731.825	10458.3
735.705	13673.6
739.584	14206.7
743.46	11202.7
747.334	8358.44
751.207	5861.02
755.078	4256.4
758.947	3363.86
762.815	2808.09
766.68	2589.68
770.544	2243.05
774.406	2246.17
778.267	2477.01
782.125	2788.56
785.982	3341.79
789.837	4105.7
793.69	5102.28
797.542	5640.52
801.391	5389.4
805.239	4868.93
809.085	4014.51
812.93	3222.86
816.772	2340.26
820.613	1627.25
824.452	892.836
828.29	362.007
832.125	33.469
835.959	152.51
839.791	151.82
843.621	93.519
847.45	99.062
851.277	268.793
855.102	3.188
858.925	251.641
862.746	528.311
866.566	913.816
870.384	1234.04
874.2	1458.04
878.015	1421.85
881.828	1267.55
885.639	1159.21
889.448	1008.78
893.256	1141.14
897.061	1256.46
900.865	1562.73
904.668	1876.7
908.468	2428.33
912.267	3013.59
916.064	3473.47
919.86	3538.96
923.653	3326.06
927.445	2746.77
931.236	2286.09
935.024	1867.03
938.811	1846.59
942.596	1790.76
946.379	1834.55
950.161	2129.97
953.94	2261.02
957.719	2422.7
961.495	1970.02
965.27	1443.97
969.043	1207.56
972.814	815.806
976.583	701.698
980.351	629.789
984.117	358.432
987.882	490.44
991.644	397.602
995.405	441.687
999.165	561.142
1002.92	746.351
1006.68	555.178
1010.43	513.566
1014.18	572.932
1017.93	482.517
1021.68	602.746
1025.43	853.672
1029.18	1330.3
1032.92	1861.05
1036.66	2401.5
1040.4	2558.76
1044.14	2601.24
1047.88	2317.45
1051.62	2239.88
1055.35	1835.45
1059.08	1467.93
1062.81	1207.17
1066.54	1144.07
1070.27	894.742
1073.99	811.166
1077.72	737.494
1081.44	754.68
1085.16	587.726
1088.88	772.636
1092.59	894.416
1096.31	1010.07
1100.02	1221.59
1103.73	1315
1107.44	1592.29
1111.15	1680.47
1114.86	1587.53
1118.57	1559.49
1122.27	1404.34
1125.97	1453.09
1129.67	1158.74
1133.37	965.211
1137.07	751.215
1140.76	721.626
1144.45	389.032
1148.15	515.194
1151.84	234.072
1155.53	233.521
1159.21	96.124
1162.9	8.675
1166.58	7.099
1170.26	57.135
1173.94	95.6
1177.62	70.637
1181.3	86.321
1184.97	73.782
1188.65	154.771
1192.32	68.36
1195.99	72.722
1199.66	51.062
1203.33	135.166
1206.99	132.899
1210.65	144.527
1214.32	293.884
1217.98	525.316
1221.64	524.676
1225.29	464.958
1228.95	546.157
1232.6	428.278
1236.26	465.306
1239.91	445.23
1243.56	456.054
1247.2	242.771
1250.85	353.971
1254.49	437.883
1258.13	388.271
1261.78	641.544
1265.41	735.7
1269.05	809.736
1272.69	844.647
1276.32	1309.44
1279.95	1585.11
1283.59	1843.69
1287.21	2008.18
1290.84	1828.6
1294.47	1655.93
1298.09	1513.12
1301.72	1153.18
1305.34	1006.35
1308.96	1011.71
1312.58	1042.45
1316.19	1132.25
1319.81	1323.72
1323.42	1279.29
1327.03	1377.03
1330.64	1174.62
1334.25	1164.46
1337.86	939.471
1341.46	533.938
1345.07	263.746
1348.67	30.329
1352.27	60.766
1355.87	65.156
1359.46	224.96
1363.06	248.317
1366.65	266.611
1370.25	224.89
1373.84	158.967
1377.43	173.745
1381.02	153.265
1384.6	249.535
1388.18	365.544
1391.77	360.287
1395.35	468.757
1398.93	546.94
1402.51	702.831
1406.08	645.414
1409.66	521.671
1413.23	459.595
1416.8	541.331
1420.37	364.385
1423.94	348.509
1427.51	59.035
1431.08	250.132
1434.64	228.323
1438.2	361.605
1441.76	98.934
1445.32	206.846
1448.88	351.701
1452.43	198.64
1455.99	191.78
1459.54	287.23
1463.09	299.129
1466.64	271.658
1470.19	37.971
1473.74	120.268
1477.28	133.105
1480.83	90.714
1484.37	80.365
1487.91	135.018
1491.45	114.931
1494.98	98.989
1498.52	136.168
1502.05	19.026
1505.59	15.398
1509.12	98.611
1512.65	128.661
1516.17	46.709
