Measurement: Raman, 514 nm, ccw, Raman Data Processed
Mineral: Kutnohorite
Rruff sample: R060473
Ideal chemistry: CaMn^2+^(CO_3_)_2_
Locality: N'Chwaning II mine, Kalahari manganese field, northern Cape Province, Republic of South Africa
Source: Michael Scott
Description: Aggregate of parallel pink colored acicular crystals
Measured chemistry: Ca_1.00_(Mn^2+^_0.63_Ca_0.35_Mg_0.02_)(CO_3_)_2_
Pin_id: L00557
Orientation: Laser parallel to -a* (-1 0 0). Fiducial mark perpendicular to laser is parallel to -c [0 0 -1]
Raman shift (cm-1)	intensity
101.059	0
105.981	1570.39
110.9	1712.91
115.817	1284.71
120.732	686.399
125.645	160.064
130.556	678.563
135.464	302.371
140.371	713.798
145.275	1175.14
150.177	2394.48
155.076	3817.49
159.974	4169.73
164.869	4048.74
169.762	3612.22
174.653	3086.19
179.541	2123.64
184.427	1017.93
189.311	484.241
194.193	475.975
199.073	176.293
203.95	0.773438
208.825	116.78
213.698	61.2441
218.569	72.0244
223.437	47.7842
228.303	25.9541
233.167	90.7129
238.028	445.558
242.888	538.381
247.745	1014.59
252.599	1511.52
257.452	2109.97
262.302	3448.64
267.15	5456.46
271.995	8148.25
276.839	11239.3
281.68	13445
286.518	12800.9
291.355	10076.8
296.189	6749.57
301.02	4402.38
305.85	2795.35
310.677	1841.18
315.502	1040.98
320.325	829.021
325.145	675.711
329.963	418.875
334.778	450.644
339.592	223.997
344.403	236.731
349.211	193.23
354.017	134.1
358.821	73.8311
363.623	144.925
368.422	45.4307
373.219	44.6108
378.014	37.644
382.806	89.6528
387.596	80.7383
392.383	77.2769
397.168	14.5537
401.951	41.5864
406.732	66.3823
411.51	162.204
416.285	135.43
421.059	292.618
425.829	182.849
430.598	291.413
435.364	246.205
440.128	215.464
444.889	186.665
449.648	272.136
454.405	329.628
459.159	215.913
463.911	355.785
468.66	259.951
473.407	277.862
478.152	262.807
482.894	287.639
487.634	260.646
492.372	327.293
497.106	263.358
501.839	377.701
506.569	276.045
511.297	271.725
516.022	348.076
520.745	250.893
525.466	296.588
530.184	259.618
534.899	279.783
539.612	320.353
544.323	229.702
549.031	221.582
553.737	285.945
558.44	264.212
563.141	296.81
567.84	223.052
572.536	87.1289
577.229	99.218
581.92	115.182
586.609	146.261
591.295	82.6702
595.979	6.09424
600.66	81.5466
605.339	52.4631
610.015	74.0972
614.689	0.989258
619.36	37.1326
624.029	55.4954
628.696	17.1577
633.36	42.7136
638.021	87.1084
642.68	11.1113
647.336	48.9539
651.99	94.4519
656.642	8.30249
661.291	20.2048
665.937	27.2964
670.581	12.7957
675.222	109.39
679.861	53.9541
684.498	84.2639
689.132	139.418
693.763	320.344
698.392	569.01
703.018	1500.21
707.642	3755.09
712.263	6130.23
716.882	5437.2
721.498	2739.59
726.112	939.559
730.723	437.301
735.332	203.88
739.938	131.44
744.541	153.87
749.142	27.9038
753.741	86.6951
758.337	44.2168
762.93	24.5073
767.521	90.811
772.109	124.786
776.695	55.5166
781.278	30.1296
785.859	14.1504
790.437	35.8623
795.012	85.2056
799.585	57.291
804.155	11.4663
808.723	57.8887
813.288	50.3755
817.851	107.926
822.411	89.2554
826.968	54.7617
831.523	30.3525
836.076	119.869
840.625	61.9297
845.172	76.6748
849.717	82.9878
854.259	129.254
858.798	162.456
863.335	194.393
867.869	127.728
872.401	193.517
876.93	213.719
881.456	145.015
885.98	55.9502
890.501	62.939
895.02	113.843
899.536	35.8477
904.049	65.0972
908.56	125.043
913.068	204.111
917.573	12.8979
922.076	126.938
926.576	56.1387
931.074	26.0723
935.569	87.125
940.061	0.07666
944.551	73.9834
949.038	66.2798
953.522	41.1025
958.004	18.7539
962.483	34.064
966.96	6.18262
971.434	52.6821
975.905	45.8276
980.373	55.1387
984.839	4.67871
989.303	75.0723
993.763	129.906
998.221	37.6318
1002.68	127.646
1007.13	195.713
1011.58	264.552
1016.03	222.299
1020.47	297.459
1024.91	343.916
1029.35	222.331
1033.79	254.267
1038.22	442.53
1042.65	509.026
1047.08	566.621
1051.51	844.523
1055.93	1091.02
1060.35	1350.66
1064.77	2051.69
1069.19	4588.62
1073.6	15775.6
1078.01	38480.9
1082.42	52713
1086.82	55447.4
1091.22	40198.4
1095.62	18971.2
1100.02	6633.17
1104.41	2009.27
1108.8	828.165
1113.19	387.1
1117.58	324.026
1121.96	274.611
1126.34	119.007
1130.72	26.2627
1135.09	111.816
1139.46	0.603516
1143.83	43.2441
1148.2	39.9199
1152.56	13.4238
1156.92	28.8232
1161.28	87.2617
1165.64	203.394
1169.99	75.0693
1174.34	47.9961
1178.69	141.977
1183.04	98.3897
1187.38	25.9746
1191.72	204.951
1196.05	184.01
1200.39	121.353
1204.72	231.649
1209.05	60.3027
1213.37	245.119
1217.7	25.3545
1222.02	35.1055
1226.33	130.245
1230.65	140.011
1234.96	78.0801
1239.27	157.008
1243.58	84.9717
1247.88	269.676
1252.18	322.69
1256.48	324.765
1260.78	289.856
1265.07	100.578
1269.36	298.759
1273.64	283.023
1277.93	362.411
1282.21	308.209
1286.49	401.786
1290.77	377.216
1295.04	242.976
1299.31	178.15
1303.58	189.548
1307.84	319.707
1312.11	214.303
1316.37	102.818
1320.62	302.723
1324.88	219.823
1329.13	122.528
1333.38	204.721
1337.62	8.5293
1341.86	15.4717
1346.1	204.699
1350.34	188.066
1354.58	239.166
1358.81	95.0703
1363.04	16.1055
1367.26	162.119
1371.48	93.1133
1375.7	63.7793
1379.92	14.7266
1384.14	279.584
1388.35	214.523
1392.56	347.596
1396.77	436.695
1400.97	587.17
1405.17	837.576
1409.37	777.633
1413.56	733.6
1417.76	656.484
1421.94	714.475
1426.13	642.791
1430.32	764.049
1434.5	452.512
1438.68	743.037
1442.85	338.088
1447.02	258.18
1451.19	265.404
1455.36	74.5547
1459.53	185.221
1463.69	20.7812
1467.85	81.5664
1472	292.516
1476.15	161.68
1480.3	98.4121
1484.45	31.9355
1488.6	218.037
1492.74	360.158
1496.88	375.256
1501.01	218.477
1505.14	481.557
1509.27	429.691
1513.4	510.504
1517.53	610.637
1521.65	475.232
1525.77	247.791
1529.88	354.727
1533.99	279.668
1538.11	444.059
1542.21	252.908
1546.32	345.76
1550.42	337.848
1554.52	214.377
1558.61	387.537
1562.71	240.275
1566.8	96.2227
1570.88	334.836
