Measurement: Raman, 514 nm, ccw, Raman Data Processed
Mineral: Kutnohorite
Rruff sample: R060473
Ideal chemistry: CaMn^2+^(CO_3_)_2_
Locality: N'Chwaning II mine, Kalahari manganese field, northern Cape Province, Republic of South Africa
Source: Michael Scott
Description: Aggregate of parallel pink colored acicular crystals
Measured chemistry: Ca_1.00_(Mn^2+^_0.63_Ca_0.35_Mg_0.02_)(CO_3_)_2_
Pin_id: L00843
Orientation: Laser parallel to c* (0 0 1). Fiducial mark perpendicular to laser is parallel to -a [-1 0 0]
Raman shift (cm-1)	intensity
101.059	0
105.981	1195.56
110.9	1219.61
115.817	757.768
120.732	579.752
125.645	172.971
130.556	737.838
135.464	47.3828
140.371	1172.22
145.275	685.775
150.177	2320.1
155.076	3465.26
159.974	3771.73
164.869	3351.35
169.762	2747.78
174.653	2529.77
179.541	1838.27
184.427	991.521
189.311	444.183
194.193	547.935
199.073	256.11
203.95	101.458
208.825	4.84668
213.698	134.661
218.569	220.547
223.437	130.793
228.303	139.614
233.167	338.014
238.028	631.691
242.888	532.801
247.745	747.29
252.599	1431.1
257.452	1915.94
262.302	2872.73
267.15	4483.8
271.995	6881.15
276.839	9602.3
281.68	11623.7
286.518	11153.1
291.355	8616.12
296.189	5872.96
301.02	3844.26
305.85	2602.46
310.677	1627.81
315.502	1080.36
320.325	721.606
325.145	660.436
329.963	347.38
334.778	327.5
339.592	325.138
344.403	384.641
349.211	231.789
354.017	192.338
358.821	89.9473
363.623	110.265
368.422	88.2334
373.219	31.8843
378.014	29.231
382.806	53.0464
387.596	118.803
392.383	19.6348
397.168	15.5337
401.951	120.638
406.732	151.715
411.51	300.778
416.285	246.861
421.059	332.181
425.829	370.914
430.598	299.443
435.364	287.33
440.128	372.491
444.889	397.623
449.648	420.047
454.405	475.655
459.159	576.391
463.911	446.864
468.66	448.42
473.407	420.012
478.152	352.493
482.894	263.552
487.634	297.988
492.372	387.75
497.106	322.591
501.839	469.513
506.569	193.694
511.297	296.291
516.022	364.852
520.745	426.02
525.466	326.695
530.184	394.25
534.899	250.325
539.612	275.941
544.323	304.91
549.031	350.929
553.737	332.578
558.44	421.106
563.141	391.607
567.84	376.576
572.536	453.774
577.229	296.543
581.92	245.637
586.609	249.634
591.295	52.5786
595.979	48.4019
600.66	56.291
605.339	97.333
610.015	13.6328
614.689	26.3247
619.36	127.223
624.029	71.438
628.696	121.314
633.36	22.5049
638.021	101.08
642.68	79.8364
647.336	92.3506
651.99	109.801
656.642	0.582031
661.291	103.627
665.937	35.2808
670.581	22.0855
675.222	13.3516
679.861	33.3003
684.498	5.4541
689.132	107.881
693.763	221.234
698.392	622.66
703.018	1194.08
707.642	2942.62
712.263	5135.77
716.882	4696.47
721.498	2387.76
726.112	923.195
730.723	387.226
735.332	205.612
739.938	119.949
744.541	121.058
749.142	39.6753
753.741	86.085
758.337	87.1646
762.93	133.092
767.521	210.373
772.109	83.0308
776.695	141.8
781.278	16.4727
785.859	21.1909
790.437	107.405
795.012	4.45361
799.585	55.5918
804.155	33.3281
808.723	157.474
813.288	76.1768
817.851	11.6782
822.411	7.18652
826.968	118.93
831.523	36.9668
836.076	79.6289
840.625	15.5259
845.172	139.673
849.717	196.356
854.259	230.668
858.798	248.647
863.335	360.101
867.869	276.536
872.401	293.906
876.93	224.801
881.456	165.948
885.98	167.211
890.501	251.718
895.02	186.962
899.536	132.629
904.049	245.316
908.56	245.597
913.068	248.097
917.573	115.379
922.076	64.1231
926.576	158.31
931.074	131.198
935.569	103.987
940.061	98.0391
944.551	85.2744
949.038	22.3252
953.522	6.3125
958.004	21.6562
962.483	19.8877
966.96	52.4092
971.434	138.414
975.905	38.044
980.373	27.2432
984.839	25.0039
989.303	74.0723
993.763	66.4199
998.221	23.084
1002.68	335.525
1007.13	15.6885
1011.58	143.715
1016.03	186.343
1020.47	92.4443
1024.91	347.603
1029.35	414.608
1033.79	281.688
1038.22	355.97
1042.65	490.152
1047.08	679.635
1051.51	636.114
1055.93	850.366
1060.35	1188.7
1064.77	1700.5
1069.19	3810.9
1073.6	12317.5
1078.01	32456.6
1082.42	45450.2
1086.82	48700.5
1091.22	35846.9
1095.62	16795.7
1100.02	5979.93
1104.41	2088.92
1108.8	779.736
1113.19	442.295
1117.58	288.731
1121.96	249.27
1126.34	103.356
1130.72	219.918
1135.09	147.51
1139.46	186.501
1143.83	176.321
1148.2	65.3447
1152.56	170.639
1156.92	42.7451
1161.28	69.709
1165.64	39.4736
1169.99	154.383
1174.34	56.0742
1178.69	115.228
1183.04	50.4522
1187.38	64.5127
1191.72	72.1133
1196.05	132.46
1200.39	163.249
1204.72	192.547
1209.05	112.553
1213.37	300.832
1217.7	175.767
1222.02	294.341
1226.33	168.446
1230.65	156.352
1234.96	237.221
1239.27	197.309
1243.58	446.961
1247.88	331.426
1252.18	372.373
1256.48	421.713
1260.78	430.809
1265.07	277.986
1269.36	419.08
1273.64	479.209
1277.93	564.637
1282.21	494.522
1286.49	425.242
1290.77	374.435
1295.04	449.723
1299.31	328.254
1303.58	448.93
1307.84	495.805
1312.11	287.502
1316.37	513.394
1320.62	351.994
1324.88	264.592
1329.13	325.307
1333.38	185.893
1337.62	118.738
1341.86	177.318
1346.1	263.123
1350.34	9.32422
1354.58	123.144
1358.81	82.25
1363.04	258.529
1367.26	112.932
1371.48	118.33
1375.7	141.397
1379.92	180.873
1384.14	214.037
1388.35	213.478
1392.56	251.148
1396.77	511.461
1400.97	670.672
1405.17	824.918
1409.37	611.434
1413.56	682.688
1417.76	354.67
1421.94	516.031
1426.13	565.006
1430.32	533.891
1434.5	633.488
1438.68	793.457
1442.85	582.451
1447.02	565.723
1451.19	685.375
1455.36	593.754
1459.53	406.055
1463.69	500.932
1467.85	74.1367
1472	93.5918
1476.15	171.58
1480.3	178.418
1484.45	41.6562
1488.6	87.9414
1492.74	27.5039
1496.88	94.3086
1501.01	192.727
1505.14	292.201
1509.27	506.617
1513.4	428.613
1517.53	593.867
1521.65	545.523
1525.77	578.312
1529.88	521.738
1533.99	326.898
1538.11	527.785
1542.21	490.422
1546.32	326.805
1550.42	267.551
1554.52	268.695
1558.61	145.43
1562.71	127.844
1566.8	319.555
1570.88	462.008
