Measurement: Raman, 514 nm, ccw, Raman Data Processed
Mineral: Kutnohorite
Rruff sample: R060473
Ideal chemistry: CaMn^2+^(CO_3_)_2_
Locality: N'Chwaning II mine, Kalahari manganese field, northern Cape Province, Republic of South Africa
Source: Michael Scott
Description: Aggregate of parallel pink colored acicular crystals
Measured chemistry: Ca_1.00_(Mn^2+^_0.63_Ca_0.35_Mg_0.02_)(CO_3_)_2_
Pin_id: L00843
Orientation: Laser parallel to c* (0 0 1). Fiducial mark perpendicular to laser is parallel to -a [-1 0 0]
Raman shift (cm-1)	intensity
102.29	0
107.211	1467.47
112.13	1216.83
117.046	1409.46
121.961	413.828
126.873	53.4453
131.783	274.441
136.691	264.095
141.597	1124.95
146.5	1518.53
151.402	3161.48
156.301	4366.79
161.198	4530.5
166.092	4166.3
170.985	3410.83
175.875	2673.42
180.763	1483.04
185.649	944.434
190.532	717.365
195.413	507.295
200.292	5.36133
205.169	141.025
210.044	53.6582
214.916	99.6035
219.786	253.985
224.654	163.358
229.519	61.3008
234.382	126.202
239.243	683.026
244.102	597.301
248.958	1079.58
253.813	1894.63
258.664	2931.08
263.514	4430.25
268.361	7075.57
273.206	10552.5
278.049	14041.5
282.889	16102.3
287.728	14384.5
292.563	10357.4
297.397	7030.59
302.228	4506.15
307.057	2751.7
311.884	1907.86
316.708	1161.74
321.53	782.681
326.35	606.012
331.167	340.188
335.982	419.655
340.795	283.291
345.605	266.469
350.413	189.054
355.219	188.03
360.022	11.8623
364.823	93.5244
369.622	0.690918
374.418	60.1274
379.212	27.085
384.004	30.5527
388.793	57.6562
393.58	73.2725
398.364	11.6348
403.146	33.9917
407.926	177.676
412.704	238.75
417.479	281.198
422.251	390.063
427.022	315.903
431.79	392.116
436.555	360.214
441.319	434.656
446.079	267.709
450.838	376.318
455.594	347.71
460.347	407.423
465.099	443.25
469.847	352.885
474.594	330.898
479.338	365.659
484.079	324.759
488.819	382.625
493.555	370.771
498.29	409.663
503.022	364.247
507.751	252.775
512.478	361.512
517.203	287.766
521.925	370.178
526.645	316.236
531.363	395.034
536.078	364.323
540.79	317.72
545.5	359.243
550.208	369.63
554.913	458.836
559.616	301.302
564.316	378.146
569.014	319.239
573.709	277.561
578.402	389.85
583.093	132.986
587.781	112.724
592.466	141.834
597.15	70.0376
601.83	84.9092
606.508	120.64
611.184	74.6899
615.857	57.5127
620.528	120.918
625.196	16.0156
629.862	123.654
634.525	21.73
639.186	111.448
643.844	47.9185
648.5	32.5874
653.153	180.517
657.804	55.6499
662.452	23.0391
667.098	38.0859
671.742	21.5425
676.382	63.521
681.021	26.834
685.656	54.0806
690.29	70.335
694.92	220.572
699.549	635.466
704.174	1674.92
708.797	3779.63
713.418	5479.25
718.036	4046.17
722.652	1787.53
727.265	660.208
731.875	149.934
736.483	186.922
741.089	179.722
745.692	39.9971
750.292	87.3247
754.89	79.0073
759.485	11.1748
764.078	37.1338
768.668	65.5781
773.256	113.759
777.841	5.2959
782.423	195.495
787.003	41.1357
791.581	20.3516
796.156	149.736
800.728	45.7197
805.298	123.681
809.865	94.0957
814.429	79.916
818.991	143.432
823.551	168
828.107	127.295
832.662	34.8818
837.213	48.4424
841.762	287.191
846.309	106.397
850.853	81.3887
855.394	164.16
859.933	238.878
864.469	260.224
869.002	320.358
873.533	213.69
878.062	35.915
882.587	191.433
887.11	246.886
891.631	168.457
896.149	92.4434
900.664	164.586
905.177	163.164
909.687	263.784
914.194	226.877
918.699	97.1807
923.201	181.065
927.701	160.398
932.198	212.938
936.692	174.328
941.184	39.8662
945.673	135.815
950.159	4.83789
954.643	115.279
959.124	69.4356
963.603	6.0332
968.078	113.993
972.552	58.7285
977.022	76.5898
981.49	141.23
985.955	111.21
990.418	34.419
994.878	119.553
999.335	272.834
1003.79	156.096
1008.24	314.128
1012.69	343.278
1017.14	129.338
1021.58	272.123
1026.02	242.878
1030.46	329.711
1034.9	238.598
1039.33	347.733
1043.76	571.751
1048.19	625.337
1052.62	895.47
1057.04	1134.47
1061.46	1260
1065.88	1976.9
1070.29	5222.08
1074.7	17145
1079.11	36968.3
1083.52	45528.8
1087.92	44099.9
1092.32	27941.5
1096.72	12065.2
1101.12	4271.28
1105.51	1311.29
1109.9	549.549
1114.29	460.951
1118.67	318.659
1123.06	285.843
1127.43	55.3242
1131.81	74.9522
1136.18	217.75
1140.56	11.0879
1144.93	199.448
1149.29	147.802
1153.65	193.739
1158.02	114.693
1162.37	25.6289
1166.73	141.226
1171.08	223.602
1175.43	108.648
1179.78	52.0391
1184.12	126.889
1188.46	72.791
1192.8	22.5039
1197.14	141.191
1201.47	110.928
1205.8	45.7168
1210.13	92.3027
1214.45	106.973
1218.78	56.4453
1223.1	72.1543
1227.41	267.232
1231.73	180.477
1236.04	129
1240.35	251.219
1244.65	376.197
1248.96	364.15
1253.26	296.244
1257.55	150.596
1261.85	348.365
1266.14	146.178
1270.43	266.541
1274.72	312.949
1279	162.715
1283.28	185.24
1287.56	269.209
1291.84	225.258
1296.11	202.881
1300.38	233.508
1304.64	205.891
1308.91	359.67
1313.17	104.732
1317.43	231.111
1321.68	235.025
1325.94	195.293
1330.19	113.43
1334.44	189.168
1338.68	152.658
1342.92	24.1465
1347.16	1.91016
1351.4	207.51
1355.63	130.094
1359.86	136.758
1364.09	24.1738
1368.32	90.334
1372.54	90.6016
1376.76	153.697
1380.98	4.33203
1385.19	109.195
1389.4	281.084
1393.61	582.742
1397.82	749.023
1402.02	1208
1406.22	1126.2
1410.42	923.561
1414.61	887.58
1418.8	586.971
1422.99	559.541
1427.18	497.606
1431.36	548.318
1435.54	627.654
1439.72	786.771
1443.89	662.162
1448.07	609.451
1452.24	406.389
1456.4	321.949
1460.57	111.891
1464.73	183.481
1468.88	207.305
1473.04	118.328
1477.19	117.391
1481.34	54.3008
1485.49	60.457
1489.63	463.703
1493.77	453.773
1497.91	445.922
1502.05	349.977
1506.18	438.84
1510.31	456.051
1514.43	677.387
1518.56	701.273
1522.68	630.394
1526.8	360.418
1530.91	109.992
1535.02	299.625
1539.13	195.023
1543.24	439.594
1547.34	347.406
1551.44	381.59
1555.54	117.371
1559.64	41.9648
1563.73	4.29297
1567.82	198.492
1571.91	148.062
