Measurement: Raman, 514 nm, ccw, Raman Data Processed
Mineral: Kutnohorite
Rruff sample: R060473
Ideal chemistry: CaMn^2+^(CO_3_)_2_
Locality: N'Chwaning II mine, Kalahari manganese field, northern Cape Province, Republic of South Africa
Source: Michael Scott
Description: Aggregate of parallel pink colored acicular crystals
Measured chemistry: Ca_1.00_(Mn^2+^_0.63_Ca_0.35_Mg_0.02_)(CO_3_)_2_
Pin_id: L00557
Orientation: Laser parallel to -a* (-1 0 0). Fiducial mark perpendicular to laser is parallel to -c [0 0 -1]
Raman shift (cm-1)	intensity
101.059	0
105.981	1382.17
110.9	1371.8
115.817	1677.06
120.732	573.606
125.645	173.342
130.556	491.113
135.464	552.461
140.371	994.226
145.275	1612.57
150.177	2525.16
155.076	3650.81
159.974	4709.49
164.869	4079.59
169.762	3727.11
174.653	3008.51
179.541	2166.93
184.427	1006.78
189.311	717.424
194.193	420.54
199.073	224.299
203.95	198.358
208.825	0.148438
213.698	23.0664
218.569	158.305
223.437	141.31
228.303	107.409
233.167	326.943
238.028	606.453
242.888	721.191
247.745	1032.79
252.599	1625.15
257.452	2445.18
262.302	3925.49
267.15	6267
271.995	9323.85
276.839	13065.5
281.68	15334.2
286.518	14664.6
291.355	11687.4
296.189	7962.63
301.02	5204.54
305.85	3500.03
310.677	2081.5
315.502	1303.33
320.325	875.003
325.145	824.759
329.963	400.172
334.778	445.485
339.592	284.151
344.403	234.737
349.211	201.006
354.017	245.709
358.821	96.7705
363.623	57.1616
368.422	4.5625
373.219	13.4448
378.014	18.1411
382.806	53.3525
387.596	43.7861
392.383	53.6792
397.168	37.5317
401.951	82.4487
406.732	113.888
411.51	244.3
416.285	166.11
421.059	287.123
425.829	325.228
430.598	337.772
435.364	274.34
440.128	260.422
444.889	193.947
449.648	253.33
454.405	270.468
459.159	245.576
463.911	290.797
468.66	301.072
473.407	335.765
478.152	364.081
482.894	226.953
487.634	330.459
492.372	239.916
497.106	291.791
501.839	313.788
506.569	256.63
511.297	288.916
516.022	253.435
520.745	339.845
525.466	250.911
530.184	296.928
534.899	261.043
539.612	305.346
544.323	270.848
549.031	186.82
553.737	265.605
558.44	243.38
563.141	358.171
567.84	253.291
572.536	266.872
577.229	234.843
581.92	164.77
586.609	9.42896
591.295	65.4116
595.979	32.5305
600.66	90.2478
605.339	49.4509
610.015	0.624023
614.689	33.4595
619.36	68.2261
624.029	50.2949
628.696	83.7036
633.36	36.3835
638.021	42.6677
642.68	21.1423
647.336	4.65845
651.99	24.6731
656.642	62.9507
661.291	8.40576
665.937	70.2869
670.581	38.8025
675.222	9.56714
679.861	68.0354
684.498	47.6899
689.132	144.659
693.763	204.823
698.392	640.037
703.018	1492.96
707.642	3583.13
712.263	5850.73
716.882	5187.26
721.498	2599.23
726.112	922.326
730.723	336.365
735.332	164.606
739.938	140.287
744.541	72.3037
749.142	44.0444
753.741	101.799
758.337	107.231
762.93	122.162
767.521	54.7964
772.109	20.7207
776.695	25.4648
781.278	52.2871
785.859	59.1094
790.437	137.185
795.012	79.3223
799.585	0.615234
804.155	8.521
808.723	30.7783
813.288	58.2158
817.851	25.48
822.411	98.001
826.968	48.8203
831.523	107.412
836.076	53.1572
840.625	57.8818
845.172	191.546
849.717	156.833
854.259	37.104
858.798	22.9766
863.335	186.616
867.869	236.595
872.401	268.565
876.93	143.331
881.456	141.937
885.98	95.7407
890.501	34.3394
895.02	156.738
899.536	41.8032
904.049	194.736
908.56	90.4512
913.068	71.269
917.573	85.1924
922.076	36.9858
926.576	25.3706
931.074	38.5322
935.569	74.1269
940.061	13.4492
944.551	94.2002
949.038	73.0093
953.522	66.3648
958.004	87.8564
962.483	32.5727
966.96	80.2905
971.434	9.01709
975.905	6.79883
980.373	12.1782
984.839	61.8325
989.303	66.7031
993.763	132.507
998.221	141.231
1002.68	52.2148
1007.13	135.879
1011.58	122.331
1016.03	290.878
1020.47	187.982
1024.91	260.481
1029.35	197.77
1033.79	330.205
1038.22	311.281
1042.65	552.537
1047.08	539.149
1051.51	746.305
1055.93	899.11
1060.35	1327.87
1064.77	2040.71
1069.19	4609.44
1073.6	16263.6
1078.01	38670.7
1082.42	51341.7
1086.82	51467.8
1091.22	37203.9
1095.62	18221.8
1100.02	6634.76
1104.41	2057.93
1108.8	799.497
1113.19	411.837
1117.58	263.635
1121.96	286.111
1126.34	168.863
1130.72	44.4033
1135.09	152.801
1139.46	37.1123
1143.83	40.9629
1148.2	145.149
1152.56	23.5732
1156.92	87.6367
1161.28	140.401
1165.64	52.5215
1169.99	102.081
1174.34	9.79492
1178.69	138.414
1183.04	81.2705
1187.38	87.6406
1191.72	20.165
1196.05	143.951
1200.39	48.1455
1204.72	132.302
1209.05	22.9951
1213.37	69.0693
1217.7	120.23
1222.02	81.4473
1226.33	137.391
1230.65	171.435
1234.96	88.1426
1239.27	204.523
1243.58	33.2178
1247.88	194.027
1252.18	204.157
1256.48	247.395
1260.78	181.823
1265.07	231.94
1269.36	169.959
1273.64	151.64
1277.93	298.719
1282.21	214.799
1286.49	107.592
1290.77	169.244
1295.04	279.445
1299.31	205.608
1303.58	145.853
1307.84	109.022
1312.11	141.661
1316.37	124.429
1320.62	214.456
1324.88	6.74414
1329.13	55.7432
1333.38	171.797
1337.62	20.3057
1341.86	85.4853
1346.1	29.6182
1350.34	162.101
1354.58	52.8926
1358.81	97.8955
1363.04	51.9932
1367.26	125.606
1371.48	51.169
1375.7	36.8516
1379.92	60.4629
1384.14	85.041
1388.35	246.783
1392.56	449.99
1396.77	609.064
1400.97	1028.25
1405.17	1195.81
1409.37	1084.25
1413.56	851.707
1417.76	490.184
1421.94	677.014
1426.13	777.791
1430.32	633.432
1434.5	647.887
1438.68	707.926
1442.85	613.85
1447.02	284.482
1451.19	194.838
1455.36	80.1543
1459.53	52.4316
1463.69	121.99
1467.85	116.238
1472	213.633
1476.15	195.086
1480.3	39.7109
1484.45	135.066
1488.6	90.0566
1492.74	546.24
1496.88	372.527
1501.01	148.783
1505.14	340.158
1509.27	449.432
1513.4	529.805
1517.53	592.439
1521.65	412.549
1525.77	448.66
1529.88	378.307
1533.99	461.57
1538.11	346.08
1542.21	127.492
1546.32	407.94
1550.42	404.545
1554.52	415.711
1558.61	97.5488
1562.71	222.191
1566.8	176.869
