Measurement: Raman, 514 nm, ccw, Raman Data Processed
Mineral: Kutnohorite
Rruff sample: R060473
Ideal chemistry: CaMn^2+^(CO_3_)_2_
Locality: N'Chwaning II mine, Kalahari manganese field, northern Cape Province, Republic of South Africa
Source: Michael Scott
Description: Aggregate of parallel pink colored acicular crystals
Measured chemistry: Ca_1.00_(Mn^2+^_0.63_Ca_0.35_Mg_0.02_)(CO_3_)_2_
Pin_id: L00843
Orientation: Laser parallel to c* (0 0 1). Fiducial mark perpendicular to laser is parallel to -a [-1 0 0]
Raman shift (cm-1)	intensity
102.29	0
107.211	2299.21
112.13	1309.44
117.046	1123.22
121.961	467.647
126.873	236.332
131.783	338.871
136.691	80.5703
141.597	708.695
146.5	1385.5
151.402	2485.01
156.301	3738.52
161.198	3764.46
166.092	3419.81
170.985	3082.11
175.875	2436.44
180.763	1717.15
185.649	943.492
190.532	276.856
195.413	371.999
200.292	58.1133
205.169	15.082
210.044	54.2647
214.916	64.7959
219.786	201.036
224.654	136.417
229.519	213.269
234.382	190.171
239.243	402.783
244.102	239.505
248.958	1104.81
253.813	1479.8
258.664	2069.38
263.514	3223.95
268.361	5042.11
273.206	6997.93
278.049	9729.56
282.889	11244.3
287.728	10239.7
292.563	7652.79
297.397	4816.64
302.228	3093.56
307.057	1950.04
311.884	1226.51
316.708	888.823
321.53	475.37
326.35	593.19
331.167	326.477
335.982	204.838
340.795	319.147
345.605	289.84
350.413	100.099
355.219	304.046
360.022	19.812
364.823	151.341
369.622	213.457
374.418	112.441
379.212	119.273
384.004	33.4922
388.793	26.8203
393.58	33.2075
398.364	154.399
403.146	4.76465
407.926	273.231
412.704	390.926
417.479	395.185
422.251	428.108
427.022	364.873
431.79	413.182
436.555	290.499
441.319	119.572
446.079	362.468
450.838	392.748
455.594	529.367
460.347	444.251
465.099	523.239
469.847	359.228
474.594	331.704
479.338	279.773
484.079	247.904
488.819	307.87
493.555	320.788
498.29	348.372
503.022	416.79
507.751	327.464
512.478	305.531
517.203	378.76
521.925	371.738
526.645	299.721
531.363	281.708
536.078	287.616
540.79	450.386
545.5	360.111
550.208	393.343
554.913	358.712
559.616	405.195
564.316	422.896
569.014	502.918
573.709	371.323
578.402	278.136
583.093	169.929
587.781	139.26
592.466	23.2559
597.15	136.106
601.83	192.292
606.508	100.206
611.184	176.218
615.857	138.498
620.528	80.0576
625.196	167.841
629.862	78.4141
634.525	70.0347
639.186	70.9233
643.844	105.884
648.5	41.3306
653.153	20.9346
657.804	10.3052
662.452	21.8467
667.098	48.1636
671.742	45.7544
676.382	3.47412
681.021	70.0024
685.656	22.937
690.29	102.502
694.92	286.502
699.549	525.057
704.174	1654.59
708.797	3564.09
713.418	5522.18
718.036	4019.57
722.652	1784.93
727.265	551.289
731.875	327.174
736.483	70.4873
741.089	84.7837
745.692	144.462
750.292	30.8506
754.89	141.25
759.485	2.76416
764.078	52.1211
768.668	37.8535
773.256	86.1797
777.841	29.9082
782.423	9.51416
787.003	14.3135
791.581	169.902
796.156	12.1352
800.728	84.3867
805.298	44.2192
809.865	50.8027
814.429	45.7353
818.991	103.559
823.551	75.4258
828.107	7.95264
832.662	138.831
837.213	167.14
841.762	165.196
846.309	106.813
850.853	267.916
855.394	317.684
859.933	220.885
864.469	329.65
869.002	219.305
873.533	234.736
878.062	116.79
882.587	52.812
887.11	133.573
891.631	182.775
896.149	176.339
900.664	84.3633
905.177	204.579
909.687	87.4795
914.194	94.4097
918.699	74.4878
923.201	175.668
927.701	75.457
932.198	57.0859
936.692	246.312
941.184	101.324
945.673	33.8633
950.159	6.21289
954.643	29.9443
959.124	16.9365
963.603	17.501
968.078	151.973
972.552	14.6113
977.022	84.0488
981.49	25.2344
985.955	65.3477
990.418	74.9189
994.878	158.31
999.335	18.3877
1003.79	39.5039
1008.24	161.698
1012.69	208.227
1017.14	181.699
1021.58	244.692
1026.02	339.522
1030.46	329.901
1034.9	329.218
1039.33	413.896
1043.76	386.888
1048.19	546.22
1052.62	658.16
1057.04	967.602
1061.46	1217.59
1065.88	1909.93
1070.29	4872.9
1074.7	15937.9
1079.11	37301
1083.52	47832.3
1087.92	47657.5
1092.32	30352.3
1096.72	13019
1101.12	4374.14
1105.51	1519.63
1109.9	734.321
1114.29	415.397
1118.67	279.448
1123.06	357.109
1127.43	173.519
1131.81	65.4004
1136.18	274.308
1140.56	95.8809
1144.93	153.617
1149.29	10.6123
1153.65	213.502
1158.02	69.1953
1162.37	69.334
1166.73	133.153
1171.08	5.82715
1175.43	73.4219
1179.78	107.321
1184.12	67.0322
1188.46	185.197
1192.8	193.051
1197.14	10.5801
1201.47	71.459
1205.8	20.3447
1210.13	175.903
1214.45	60.2295
1218.78	132.077
1223.1	118.564
1227.41	263.785
1231.73	180.923
1236.04	152.906
1240.35	237.625
1244.65	150.926
1248.96	219.41
1253.26	321.643
1257.55	201.695
1261.85	117.644
1266.14	215.389
1270.43	398.275
1274.72	292.498
1279	377.238
1283.28	476.188
1287.56	371.213
1291.84	370.078
1296.11	493.094
1300.38	364.582
1304.64	318.053
1308.91	330.508
1313.17	332.238
1317.43	220.459
1321.68	365.723
1325.94	251.178
1330.19	91.3789
1334.44	68.9805
1338.68	76.6426
1342.92	336.641
1347.16	112.803
1351.4	238.254
1355.63	353.91
1359.86	112.623
1364.09	174.621
1368.32	44.2285
1372.54	134.588
1376.76	62.1543
1380.98	164.424
1385.19	377.693
1389.4	242.424
1393.61	455.473
1397.82	424.728
1402.02	623.59
1406.22	342.533
1410.42	510.519
1414.61	241.086
1418.8	380.451
1422.99	379.273
1427.18	637.121
1431.36	593.416
1435.54	484.178
1439.72	736.158
1443.89	510.174
1448.07	486.631
1452.24	259.307
1456.4	383.221
1460.57	89.4375
1464.73	203.537
1468.88	223.344
1473.04	38.457
1477.19	13.3203
1481.34	35.625
1485.49	101.076
1489.63	107.807
1493.77	420.328
1497.91	107.113
1502.05	204.168
1506.18	301.039
1510.31	596.188
1514.43	499.18
1518.56	511.453
1522.68	334.969
1526.8	478.051
1530.91	519.949
1535.02	488.324
1539.13	460.359
1543.24	355.953
1547.34	301.18
1551.44	468.566
1555.54	115.746
1559.64	240.805
1563.73	138.504
1567.82	30.2812
1571.91	130.207
