Measurement: Raman, 514 nm, ccw, Raman Data Processed
Mineral: Kutnohorite
Rruff sample: R060473
Ideal chemistry: CaMn^2+^(CO_3_)_2_
Locality: N'Chwaning II mine, Kalahari manganese field, northern Cape Province, Republic of South Africa
Source: Michael Scott
Description: Aggregate of parallel pink colored acicular crystals
Measured chemistry: Ca_1.00_(Mn^2+^_0.63_Ca_0.35_Mg_0.02_)(CO_3_)_2_
Pin_id: L00557
Orientation: Laser parallel to -a* (-1 0 0). Fiducial mark perpendicular to laser is parallel to -c [0 0 -1]
Raman shift (cm-1)	intensity
101.059	0
105.981	2060.14
110.9	2413.28
115.817	2477.24
120.732	386.785
125.645	142.785
130.556	1048.58
135.464	276.945
140.371	930.709
145.275	1534.24
150.177	2622.6
155.076	4134.84
159.974	4527.9
164.869	4471.24
169.762	4063.78
174.653	3770
179.541	2369.21
184.427	1241.07
189.311	1086.2
194.193	403.982
199.073	77.9365
203.95	199.319
208.825	56.5762
213.698	158.449
218.569	103.285
223.437	101.224
228.303	46.123
233.167	170.012
238.028	716.496
242.888	565.062
247.745	895.614
252.599	1566.39
257.452	2868.8
262.302	4352.87
267.15	6661.52
271.995	9840.54
276.839	14080.2
281.68	17451.2
286.518	16885
291.355	13544.8
296.189	9432.43
301.02	6321.72
305.85	3991.89
310.677	2448.66
315.502	1564.62
320.325	1316.99
325.145	986.804
329.963	499.491
334.778	573.112
339.592	327.429
344.403	269.322
349.211	256.748
354.017	212.416
358.821	93.0195
363.623	30.166
368.422	100.774
373.219	103.92
378.014	94.9292
382.806	3.47705
387.596	14.4712
392.383	48.0068
397.168	63.8511
401.951	140.18
406.732	132.5
411.51	177.094
416.285	170.304
421.059	452.121
425.829	365.954
430.598	406.252
435.364	408.385
440.128	195.552
444.889	377.039
449.648	246.148
454.405	422.722
459.159	297.986
463.911	313.531
468.66	400.951
473.407	331.518
478.152	262.23
482.894	327.723
487.634	319.772
492.372	293.626
497.106	287.21
501.839	440.625
506.569	394.82
511.297	447.101
516.022	367.075
520.745	413.304
525.466	343.83
530.184	347.632
534.899	451.002
539.612	369.337
544.323	244.117
549.031	202.175
553.737	487.943
558.44	324.571
563.141	429.55
567.84	320.516
572.536	288.538
577.229	223.986
581.92	81.8433
586.609	314.443
591.295	110.75
595.979	83.9487
600.66	101.294
605.339	93.8638
610.015	148.677
614.689	183.407
619.36	97.3589
624.029	117.101
628.696	90.6162
633.36	98.854
638.021	136.225
642.68	60.0845
647.336	152.773
651.99	16.8125
656.642	44.5264
661.291	73.1621
665.937	21.7583
670.581	46.3105
675.222	69.625
679.861	9.81152
684.498	136.599
689.132	125.405
693.763	256.349
698.392	501.961
703.018	1476.74
707.642	3318.29
712.263	5766.12
716.882	5725.76
721.498	2970.83
726.112	1173.74
730.723	477.516
735.332	207.129
739.938	179.564
744.541	8.95166
749.142	18.9243
753.741	113.353
758.337	99.9512
762.93	57.792
767.521	68.8677
772.109	22.6186
776.695	110.996
781.278	106.794
785.859	13.5767
790.437	43.6606
795.012	50.6323
799.585	81.4263
804.155	111.408
808.723	89.7041
813.288	105.993
817.851	22.5249
822.411	119.114
826.968	108.878
831.523	4.42188
836.076	147.783
840.625	14.1802
845.172	42.1953
849.717	75.7671
854.259	171.391
858.798	88.7061
863.335	131.863
867.869	175.04
872.401	159.315
876.93	197.564
881.456	119.507
885.98	22.0479
890.501	200.707
895.02	164.359
899.536	127.639
904.049	43.9648
908.56	122.794
913.068	202.877
917.573	71.3818
922.076	46.8359
926.576	14.2227
931.074	144.088
935.569	35.8389
940.061	119.626
944.551	101.518
949.038	63.0889
953.522	24.835
958.004	65.0615
962.483	12.9043
966.96	94.6045
971.434	82.2861
975.905	98.3467
980.373	6.85547
984.839	86.7529
989.303	125.192
993.763	89.9258
998.221	148.482
1002.68	167.654
1007.13	363.978
1011.58	301.227
1016.03	211.928
1020.47	274.078
1024.91	286.558
1029.35	440.481
1033.79	332.477
1038.22	467.028
1042.65	476.557
1047.08	556.059
1051.51	928.523
1055.93	939.894
1060.35	1496.01
1064.77	2065.74
1069.19	4469.8
1073.6	15109.2
1078.01	38584.5
1082.42	52025.5
1086.82	51054
1091.22	37936.5
1095.62	19927.3
1100.02	7774.62
1104.41	2501.69
1108.8	1014.77
1113.19	413.734
1117.58	270.872
1121.96	391.538
1126.34	107.605
1130.72	260.601
1135.09	81.0059
1139.46	109.894
1143.83	179.39
1148.2	69.9824
1152.56	166.898
1156.92	65.2002
1161.28	161.796
1165.64	60.2891
1169.99	93.7285
1174.34	136.731
1178.69	7.01758
1183.04	48.9727
1187.38	168.632
1191.72	137.637
1196.05	110.246
1200.39	51.5264
1204.72	145.294
1209.05	157.476
1213.37	52.9648
1217.7	74.835
1222.02	118.142
1226.33	89.6523
1230.65	156.578
1234.96	143.749
1239.27	219.833
1243.58	182.874
1247.88	204.44
1252.18	214.739
1256.48	352.325
1260.78	132.288
1265.07	198.209
1269.36	62.5977
1273.64	251.315
1277.93	252.621
1282.21	338.565
1286.49	210.647
1290.77	296.068
1295.04	345.109
1299.31	245.057
1303.58	264.264
1307.84	295.639
1312.11	295.789
1316.37	302.414
1320.62	156.051
1324.88	49.9121
1329.13	97.791
1333.38	92.1348
1337.62	149.213
1341.86	159.428
1346.1	161.723
1350.34	41.0684
1354.58	6.79297
1358.81	92.1094
1363.04	196.606
1367.26	176.965
1371.48	15.7168
1375.7	86.0723
1379.92	225.682
1384.14	145.635
1388.35	267.992
1392.56	655.328
1396.77	671.084
1400.97	1150.18
1405.17	1372.22
1409.37	1345.06
1413.56	1261.03
1417.76	832.42
1421.94	785.547
1426.13	928.631
1430.32	762.678
1434.5	640.686
1438.68	651.562
1442.85	571.703
1447.02	439.357
1451.19	115.728
1455.36	189.816
1459.53	214.99
1463.69	187.772
1467.85	54.4473
1472	186.316
1476.15	42.4434
1480.3	40.1777
1484.45	3.79297
1488.6	48.334
1492.74	358.264
1496.88	211.346
1501.01	374.315
1505.14	272.637
1509.27	544.356
1513.4	468.465
1517.53	466.539
1521.65	633.617
1525.77	528.992
1529.88	350.545
1533.99	427.728
1538.11	352.213
1542.21	290.539
1546.32	386.098
1550.42	165.106
1554.52	132.451
1558.61	234.932
1562.71	19.1445
1566.8	166.492
1570.88	56.1719
