Measurement: Raman, 514 nm, ccw, Raman Data Processed
Mineral: Kyanite
Rruff sample: R050450
Ideal chemistry: Al_2_OSiO_4_
Locality: Switzerland
Source: Marcus Origlieri
Description: Blue bladed crystals
Measured chemistry: Al_2.00_OSi_1.00_O_4_
Pin_id: M00770
Orientation: Laser parallel to (0 1 -1). Fiducial mark perpendicular to laser is parallel to -a [-1 0 0]
Raman shift (cm-1)	intensity
162.246	0
167.16	83.2188
172.073	219.046
176.982	141.527
181.888	85.8057
186.792	19.125
191.694	42.248
196.592	175.018
201.488	888.06
206.381	1444.46
211.271	921.321
216.159	253.2
221.044	378.433
225.926	656.638
230.806	273.445
235.683	87.5947
240.557	159.555
245.429	299.032
250.298	206.859
255.164	123.249
260.027	58.9131
264.888	282.833
269.746	587.453
274.601	1750.09
279.454	2837.54
284.304	1448.62
289.151	2232.25
293.996	8026.43
298.838	12510.6
303.677	16231.7
308.514	3716.78
313.348	1069.52
318.179	6025.05
323.008	11704
327.834	15945
332.657	3765.76
337.478	1286.82
342.295	1772.21
347.111	1188.54
351.923	1648.54
356.733	3461.5
361.54	6320.52
366.345	4331.16
371.147	6777.76
375.946	10141.3
380.743	15266.7
385.537	24956.1
390.328	18369.5
395.116	14825.6
399.902	11733.6
404.686	19775.3
409.466	8545.58
414.244	1440.92
419.019	965.445
423.792	934.616
428.562	3305.37
433.329	9790.7
438.094	15643.6
442.856	9812.1
447.616	4731.13
452.372	2857.71
457.126	808.891
461.878	1358.66
466.627	2144.03
471.373	2351.12
476.116	5772
480.857	24046.6
485.596	47814
490.331	41161.2
495.064	15731.9
499.795	5564.51
504.522	2472.94
509.247	2118.26
513.97	2087.53
518.69	750.496
523.407	135.027
528.121	148.218
532.833	165.206
537.543	137.177
542.249	4.82031
546.953	69.0478
551.655	20.4736
556.354	1050.53
561.05	2743.88
565.743	3265.52
570.434	1387.41
575.123	823.542
579.808	914.9
584.491	1429.47
589.172	1317.23
593.85	484.172
598.525	599.507
603.197	1078.75
607.868	1641.57
612.535	1537.6
617.2	1855.39
621.862	2051.86
626.522	2203.68
631.178	4603.44
635.833	7518.12
640.485	7032.44
645.134	3447.29
649.78	3261.55
654.424	4795.74
659.066	4759.91
663.704	2208.87
668.341	1032.6
672.974	713.431
677.605	442.532
682.234	322.769
686.859	343.276
691.483	222.006
696.103	389.682
700.721	501.222
705.337	369.789
709.949	348.132
714.56	217.62
719.167	454.781
723.772	525.607
728.375	388.085
732.975	20.2061
737.572	173.914
742.167	145.238
746.759	13.8945
751.349	14.2109
755.936	180.523
760.52	23.8711
765.102	31.127
769.681	54.9033
774.258	152.603
778.832	59.291
783.404	51
787.973	115.921
792.539	58.0762
797.103	49.0137
801.665	37.9971
806.223	44.4775
810.779	220.562
815.333	200.03
819.884	90.4912
824.433	370.635
828.979	174.477
833.522	350.03
838.063	412.233
842.601	235.073
847.137	295.556
851.67	312.684
856.2	468.521
860.729	579.904
865.254	798.023
869.777	1129.81
874.297	1528.19
878.815	2096.44
883.33	3938.03
887.843	6363
892.353	7938.16
896.861	9147.25
901.366	10041.2
905.869	7274.92
910.369	3767.22
914.866	2728.53
919.361	2911.6
923.854	3369.49
928.344	4747.15
932.831	7172.35
937.316	10346
941.798	14096.6
946.278	16704.7
950.755	17246.1
955.23	19948.2
959.702	24649.8
964.171	24086.5
968.638	15574.2
973.103	8636.52
977.565	5209.81
982.025	3316.01
986.482	2363.9
990.936	2020.5
995.388	2549.18
999.837	3776.68
1004.28	3425.65
1008.73	1718.91
1013.17	938.699
1017.61	658.152
1022.05	431.5
1026.48	293.643
1030.91	119.838
1035.34	150.303
1039.77	15.6914
1044.19	1.42969
1048.62	117.885
1053.03	33.7754
1057.45	31.1973
1061.87	44.4258
1066.28	125.447
1070.69	12.4277
1075.09	90.6992
1079.5	181.617
1083.9	87.1856
1088.3	150.914
1092.69	206.092
1097.09	36.9727
1101.48	257.707
1105.87	130.256
1110.26	51.7285
1114.64	331.082
1119.02	26.5234
1123.4	182.949
1127.78	83.2148
1132.15	23.3262
1136.53	237.205
1140.89	31.1445
1145.26	28.2559
1149.63	162.94
1153.99	39.8652
1158.35	58.4062
1162.7	138.981
1167.06	158.508
1171.41	39.1875
1175.76	310.871
1180.11	288.867
1184.45	325.363
1188.79	365.557
1193.13	133.268
1197.47	429.408
1201.81	205.549
1206.14	164.816
1210.47	183.641
1214.79	14.3984
1219.12	201.621
1223.44	314.143
1227.76	244.144
1232.08	424.312
1236.39	379.633
1240.7	439.762
1245.02	391.717
1249.32	249.732
1253.63	420.223
1257.93	389.195
1262.23	505.506
1266.53	318.408
1270.82	182.715
1275.12	237.619
1279.41	380.004
1283.69	195.709
1287.98	361.853
1292.26	294.65
1296.54	295.119
1300.82	264.197
1305.1	353.873
1309.37	326.656
1313.64	501.406
1317.91	360.484
1322.17	259.522
1326.44	251.42
1330.7	183.053
1334.96	294.231
1339.21	344.721
1343.47	394.041
1347.72	1.85938
1351.97	168.557
1356.21	235.318
1360.46	194.652
1364.7	246.572
1368.94	155.859
1373.17	103.232
1377.41	285.482
1381.64	130.34
1385.87	47.8145
1390.1	142.887
1394.32	165.625
1398.54	45.4219
1402.76	95.4688
1406.98	90.2324
1411.19	85.0332
1415.41	109.018
1419.62	80.9941
1423.82	195.977
1428.03	118.127
1432.23	170.065
1436.43	306.807
1440.63	268.371
1444.82	282.252
1449.02	237.404
1453.21	331.842
1457.4	284.057
1461.58	235.414
1465.77	181.088
1469.95	233.353
1474.12	69.4609
1478.3	264.918
1482.47	399.894
1486.64	77.6484
1490.81	138.566
1494.98	215.647
1499.14	157.422
1503.31	361.834
1507.47	409.592
1511.62	205.91
1515.78	135.086
1519.93	118.154
1524.08	202.941
1528.23	120.906
1532.37	38.7773
1536.51	138.426
1540.65	238.344
1544.79	207.312
1548.93	108.191
1553.06	35.9434
1557.19	208.647
1561.32	27.0469
