Measurement: Raman, 514 nm, ccw, Raman Data Processed
Mineral: Kyanite
Rruff sample: R050450
Ideal chemistry: Al_2_OSiO_4_
Locality: Switzerland
Source: Marcus Origlieri
Description: Blue bladed crystals
Measured chemistry: Al_2.00_OSi_1.00_O_4_
Pin_id: M01978
Orientation: Laser parallel to -b* (0 -1 0). Fiducial mark perpendicular to laser is parallel to c [0 0 1]
Raman shift (cm-1)	intensity
148.716	0
153.638	118.828
158.558	50.8875
163.475	73.323
168.389	119.411
173.3	180.981
178.209	181.406
183.115	189.625
188.018	136.281
192.918	115.435
197.816	231.624
202.711	482.184
207.604	534.837
212.494	438.376
217.381	817.517
222.265	1700.1
227.147	4234.59
232.026	1350.94
236.902	91.8765
241.775	46.1016
246.646	37.3906
251.514	89.4697
256.38	131.732
261.243	134.657
266.103	107.207
270.96	90.084
275.815	515.777
280.667	888.987
285.516	1144.13
290.363	4918.3
295.207	10490.6
300.048	26028
304.887	22983.1
309.723	2705.97
314.556	1053.11
319.387	2852.13
324.215	8251.91
329.04	7879.31
333.862	932.599
338.682	399.522
343.5	485.864
348.314	260.041
353.126	2298.91
357.935	6710.6
362.742	10442.2
367.546	3404.82
372.347	5741.33
377.145	4947.76
381.941	6688.85
386.735	14425.8
391.525	17047
396.313	11892.6
401.098	7166.84
405.881	12451.9
410.661	3559.9
415.438	2109.84
420.213	4163.95
424.985	1952.88
429.754	2976.64
434.521	8085.23
439.285	15784.6
444.046	6620.77
448.805	4763.63
453.561	1500.21
458.315	531.53
463.065	1388.59
467.813	2286.53
472.559	2128.59
477.302	7594.76
482.042	24065.2
486.78	58542.9
491.515	33733.8
496.247	12725.8
500.977	4847.91
505.704	3481.19
510.428	4442.53
515.15	3257.85
519.869	1098.06
524.586	143.088
529.3	147.13
534.011	271.296
538.719	146.109
543.425	244.389
548.129	601.003
552.83	457.495
557.528	1440.98
562.223	4461.1
566.916	6181.83
571.607	8474.13
576.294	6399
580.979	1610.4
585.662	1013.33
590.341	813.769
595.019	588.879
599.693	1026.07
604.365	2432.05
609.035	2548.71
613.701	937.89
618.366	743.024
623.027	425.614
627.686	100.144
632.342	567.849
636.996	1284.58
641.647	867.04
646.296	358.815
650.942	592.056
655.585	1066.22
660.226	1076.64
664.864	1435.23
669.499	2714.18
674.132	2292.94
678.763	871.114
683.39	754.737
688.015	618.473
692.638	334.104
697.258	340.603
701.875	482.95
706.49	421.125
711.102	140.922
715.712	545.891
720.319	1200.45
724.923	1861.76
729.525	961.815
734.124	169.599
738.721	51.0928
743.315	10.7422
747.907	37.2759
752.496	1.11182
757.082	89.5
761.666	10.5122
766.247	22.8296
770.826	21.8096
775.402	107.405
779.975	42.2568
784.546	10.9429
789.115	41.002
793.681	63.2163
798.244	85.9106
802.804	92.085
807.363	156.889
811.918	166.846
816.471	294.231
821.022	162.611
825.569	290.615
830.115	419.256
834.657	386.546
839.198	532.461
843.735	812.05
848.27	804.29
852.803	1129.17
857.333	1513.68
861.86	1909.86
866.385	2750.72
870.907	3720.24
875.427	5782.43
879.944	10003.6
884.459	19478.9
888.971	32060.9
893.481	29851.9
897.988	21104.5
902.492	20467
906.994	12983
911.493	6846.75
915.99	4187.72
920.485	3239.65
924.976	3030.5
929.466	3590.66
933.952	5135.72
938.436	7250.59
942.918	9437.24
947.397	11641.5
951.874	13095.8
956.348	12257.9
960.819	11395.4
965.288	9102.73
969.755	5569.04
974.219	3243.37
978.68	2137.22
983.139	1432.8
987.595	1102.17
992.049	967.572
996.501	1284.84
1000.95	1878.66
1005.4	1295.25
1009.84	714.876
1014.28	500.123
1018.72	450.057
1023.16	204.421
1027.59	231.352
1032.02	120.731
1036.45	80.8306
1040.88	101.131
1045.3	38.1304
1049.72	36.7466
1054.14	78.894
1058.56	9.75977
1062.97	71.3047
1067.38	89.9766
1071.79	152.408
1076.19	78.7988
1080.6	69.8364
1085	64.5776
1089.4	86.103
1093.79	135.264
1098.19	88.1953
1102.58	161.101
1106.97	64.1631
1111.35	4.19385
1115.74	117.84
1120.12	103.04
1124.5	62.0308
1128.87	48.063
1133.25	15.9658
1137.62	138.856
1141.99	17.2549
1146.35	50.6435
1150.72	94.5547
1155.08	105.572
1159.44	48.7861
1163.79	6.15381
1168.15	74.8018
1172.5	50.5269
1176.85	34.1636
1181.19	35.188
1185.54	3.29394
1189.88	109.868
1194.22	34.208
1198.55	57.7681
1202.89	68.187
1207.22	37.2959
1211.55	89.707
1215.88	20.5488
1220.2	54.334
1224.52	20.335
1228.84	9.36621
1233.16	8.99121
1237.47	153.471
1241.78	63.2861
1246.09	185.248
1250.4	155.036
1254.7	135.205
1259.01	104.514
1263.31	125.329
1267.6	224.086
1271.9	88.9258
1276.19	177.607
1280.48	137.045
1284.77	150.004
1289.05	171.198
1293.33	124.074
1297.61	117.046
1301.89	219.209
1306.16	160.224
1310.44	173.924
1314.71	187.852
1318.97	91.0283
1323.24	318.298
1327.5	102.995
1331.76	216.676
1336.02	172.824
1340.28	171.3
1344.53	169.189
1348.78	100.452
1353.03	189.723
1357.27	100.843
1361.52	48.0889
1365.76	90.0781
1370	68.7334
1374.23	85.2627
1378.47	138.318
1382.7	91.4316
1386.93	97.3584
1391.15	168.395
1395.38	54.1367
1399.6	32.2803
1403.82	190.113
1408.03	54.6377
1412.25	33.5449
1416.46	42.8574
1420.67	113.505
1424.88	19.9844
1429.08	8.40039
1433.28	196.918
1437.48	89.3027
1441.68	101.724
1445.87	24.4424
1450.07	243.215
1454.26	233.072
1458.44	196.233
1462.63	129.152
1466.81	73.1631
1470.99	77.2939
1475.17	233.325
1479.34	73.2568
1483.52	190.116
1487.69	83.0029
1491.86	142.024
1496.02	200.856
1500.19	102.397
1504.35	165.794
1508.51	199.982
1512.66	214.69
1516.82	161.039
1520.97	190.966
1525.12	191.048
1529.26	90.0459
1533.41	211.481
1537.55	128.555
1541.69	160.833
1545.83	149.282
1549.96	57.9082
1554.09	2.33106
1558.22	113.645
1562.35	0.22168
