Measurement: Raman, 514 nm, ccw, Raman Data Processed
Mineral: Kyanite
Rruff sample: R050450
Ideal chemistry: Al_2_OSiO_4_
Locality: Switzerland
Source: Marcus Origlieri
Description: Blue bladed crystals
Measured chemistry: Al_2.00_OSi_1.00_O_4_
Pin_id: M00970
Orientation: Laser parallel to -a* (-1 0 0). Fiducial mark perpendicular to laser is parallel to b [0 1 0]
Raman shift (cm-1)	intensity
148.716	0
153.638	49.9209
158.558	4.70068
163.475	146.663
168.389	61.7876
173.3	104.35
178.209	12.2554
183.115	14.3354
188.018	53.1216
192.918	6.84375
197.816	264.755
202.711	581.679
207.604	1824.51
212.494	431.827
217.381	36.8945
222.265	184.561
227.147	887.922
232.026	128.559
236.902	45.041
241.775	166.971
246.646	301.343
251.514	354.377
256.38	23.877
261.243	39.5068
266.103	8.3623
270.96	396.229
275.815	2315.77
280.667	2074.26
285.516	580.751
290.363	3115.94
295.207	5034.06
300.048	17871.8
304.887	11092.4
309.723	1140.56
314.556	1225.25
319.387	3720.21
324.215	14697.1
329.04	9782.11
333.862	1259.49
338.682	936.582
343.5	1590.88
348.314	512.376
353.126	1752.9
357.935	6208.4
362.742	6897.17
367.546	2626.28
372.347	6567.79
377.145	10788.9
381.941	16968.6
386.735	27856.5
391.525	18454.3
396.313	10241.4
401.098	14080.5
405.881	23998.3
410.661	3807.2
415.438	657.621
420.213	361.294
424.985	701.364
429.754	3324.36
434.521	12064.9
439.285	18772.2
444.046	5661.94
448.805	6069.06
453.561	1623.57
458.315	694.491
463.065	2123.95
467.813	3086.91
472.559	2397.39
477.302	7843.39
482.042	23508.9
486.78	56159
491.515	27344.7
496.247	10893.8
500.977	3344.6
505.704	1730.22
510.428	1570.35
515.15	1422.98
519.869	393.886
524.586	140.921
529.3	116.772
534.011	137.156
538.719	93.4961
543.425	27.4893
548.129	127.425
552.83	194.742
557.528	1182.73
562.223	4342.39
566.916	2485.11
571.607	1303.18
576.294	879.993
580.979	809.649
585.662	1478.2
590.341	738.688
595.019	633.816
599.693	1033.34
604.365	2098.11
609.035	2356.64
613.701	2044.89
618.366	2847.95
623.027	2934.27
627.686	3860.7
632.342	5724.28
636.996	9517.13
641.647	6292.61
646.296	4056.19
650.942	5283.52
655.585	8099.87
660.226	5901.92
664.864	2556.35
669.499	1709.54
674.132	866.765
678.763	439.394
683.39	236.33
688.015	192.439
692.638	66.1787
697.258	197.372
701.875	306.102
706.49	260.441
711.102	57.6211
715.712	6.55957
720.319	19.4814
724.923	359.918
729.525	150.92
734.124	27.4805
738.721	34.4541
743.315	1.08984
747.907	2.72363
752.496	64.0029
757.082	34.7256
761.666	37.8301
766.247	50.1943
770.826	42.9023
775.402	54.1348
779.975	61.4434
784.546	68.8125
789.115	26.041
793.681	95.291
798.244	72.2002
802.804	190.788
807.363	35.2754
811.918	152.951
816.471	202.905
821.022	218.955
825.569	377.849
830.115	417.289
834.657	352.557
839.198	480.801
843.735	617.854
848.27	782.311
852.803	981.986
857.333	1454.48
861.86	1535.56
866.385	1304.17
870.907	1414.13
875.427	1568.37
879.944	1841.18
884.459	2706.32
888.971	3688.02
893.481	4189.02
897.988	5605.01
902.492	6269.78
906.994	4079.05
911.493	2658.69
915.99	2450.56
920.485	2743.16
924.976	3604.08
929.466	5570.97
933.952	8718.86
938.436	12677.2
942.918	16441.1
947.397	18953.5
951.874	19796.2
956.348	25098
960.819	31137
965.288	25910.2
969.755	14961.7
974.219	8320.39
978.68	5121.31
983.139	3272.46
987.595	2631.11
992.049	2456.25
996.501	3838.65
1000.95	6403.92
1005.4	4314.91
1009.84	1845.93
1014.28	1256.21
1018.72	914.738
1023.16	876.562
1027.59	688.1
1032.02	394.904
1036.45	273.791
1040.88	5.94434
1045.3	101.072
1049.72	210.038
1054.14	21.46
1058.56	36.9668
1062.97	77.6221
1067.38	167.431
1071.79	222.834
1076.19	272.059
1080.6	424.178
1085	483.722
1089.4	357.12
1093.79	292.644
1098.19	25.96
1102.58	50.5566
1106.97	197.913
1111.35	260.259
1115.74	212.593
1120.12	216.893
1124.5	96.1455
1128.87	6.65723
1133.25	4.45019
1137.62	39.7607
1141.99	30.623
1146.35	41.0684
1150.72	32.752
1155.08	38.1006
1159.44	159.629
1163.79	11.668
1168.15	122.206
1172.5	153.319
1176.85	189.993
1181.19	117.499
1185.54	49.5185
1189.88	164.205
1194.22	44.7607
1198.55	79.9394
1202.89	192.066
1207.22	12.4619
1211.55	70.5781
1215.88	220.508
1220.2	166.061
1224.52	246.394
1228.84	89.3867
1233.16	458.562
1237.47	370.124
1241.78	505.904
1246.09	393.942
1250.4	494.756
1254.7	499.337
1259.01	567.063
1263.31	579.822
1267.6	676.652
1271.9	747.1
1276.19	682.321
1280.48	565.592
1284.77	479.435
1289.05	559.14
1293.33	804.63
1297.61	664.216
1301.89	606.652
1306.16	704.721
1310.44	947.044
1314.71	834.299
1318.97	850.948
1323.24	717.914
1327.5	492.094
1331.76	288.647
1336.02	314.034
1340.28	78.2978
1344.53	295.924
1348.78	107.483
1353.03	221.239
1357.27	35.6465
1361.52	192.842
1365.76	135.804
1370	238.433
1374.23	327.894
1378.47	134.482
1382.7	308.088
1386.93	201.814
1391.15	26.5771
1395.38	69.54
1399.6	21.4531
1403.82	150.595
1408.03	24.4844
1412.25	113.186
1416.46	110.374
1420.67	33.8066
1424.88	18.6836
1429.08	287.666
1433.28	287.753
1437.48	591.432
1441.68	1300.96
1445.87	1382.32
1450.07	1507.11
1454.26	1646.91
1458.44	1685.82
1462.63	1224.94
1466.81	862.712
1470.99	742.981
1475.17	561.731
1479.34	679.321
1483.52	491.742
1487.69	320.387
1491.86	218.043
1496.02	154.227
1500.19	29.4092
1504.35	74.415
1508.51	75.0176
1512.66	61.9824
1516.82	49.5059
1520.97	121.106
1525.12	139.433
1529.26	151.648
1533.41	158.669
1537.55	345.795
1541.69	140.335
1545.83	309.94
1549.96	16.0176
1554.09	177.199
1558.22	215.025
1562.35	175.398
