Measurement: Raman, 514 nm, ccw, Raman Data Processed
Mineral: Kyanite
Rruff sample: R050450
Ideal chemistry: Al_2_OSiO_4_
Locality: Switzerland
Source: Marcus Origlieri
Description: Blue bladed crystals
Measured chemistry: Al_2.00_OSi_1.00_O_4_
Pin_id: M00970
Orientation: Laser parallel to -a* (-1 0 0). Fiducial mark perpendicular to laser is parallel to b [0 1 0]
Raman shift (cm-1)	intensity
148.716	0
153.638	68.1646
158.558	79.8965
163.475	94.9448
168.389	45.6875
173.3	122.141
178.209	128.297
183.115	33.9956
188.018	12.2183
192.918	5.31836
197.816	259.159
202.711	445.034
207.604	1271.21
212.494	369.582
217.381	4.62354
222.265	264.127
227.147	641.144
232.026	111.417
236.902	94.5474
241.775	158.269
246.646	314.399
251.514	227.25
256.38	100.297
261.243	40.3892
266.103	121.832
270.96	374.902
275.815	1909.71
280.667	1460.13
285.516	429.299
290.363	2713.04
295.207	3800.48
300.048	13465.7
304.887	8012.74
309.723	859.948
314.556	893.154
319.387	2929.17
324.215	11275.4
329.04	7113.09
333.862	738.711
338.682	725.363
343.5	1180.39
348.314	514.166
353.126	1517.73
357.935	4981.32
362.742	5485.22
367.546	2161.29
372.347	5101.6
377.145	7465.45
381.941	12024.5
386.735	18715.4
391.525	12831.2
396.313	7267.03
401.098	10465.6
405.881	16211.9
410.661	2738.69
415.438	600.314
420.213	655.313
424.985	775.651
429.754	2705.34
434.521	8949.41
439.285	13411.9
444.046	4227.58
448.805	4506.6
453.561	1189.91
458.315	584.536
463.065	1440.55
467.813	2045.02
472.559	1742.13
477.302	5664.87
482.042	17021
486.78	44731.7
491.515	19245.8
496.247	7245.23
500.977	2374.26
505.704	1297.83
510.428	1227.08
515.15	1008.89
519.869	114.083
524.586	33.584
529.3	102.738
534.011	77.5703
538.719	198.4
543.425	42.6728
548.129	261.91
552.83	301.538
557.528	1087.4
562.223	3690.34
566.916	1936.35
571.607	905.406
576.294	468.256
580.979	701.796
585.662	1238.93
590.341	827.035
595.019	364.596
599.693	896.914
604.365	2148.79
609.035	2196.33
613.701	1747.79
618.366	2126.33
623.027	2191.94
627.686	2903.12
632.342	4379.36
636.996	6245.8
641.647	4137.43
646.296	2653.36
650.942	3705.63
655.585	5824.02
660.226	4472.97
664.864	2101.68
669.499	1910.05
674.132	1382.95
678.763	517.588
683.39	278.035
688.015	271.525
692.638	167.155
697.258	235.82
701.875	360.13
706.49	355.076
711.102	92.6523
715.712	118.728
720.319	195.366
724.923	451.614
729.525	183.472
734.124	186.935
738.721	19.9766
743.315	48.4795
747.907	49.1201
752.496	9.95801
757.082	13.0479
761.666	37.3525
766.247	15.0762
770.826	22.0889
775.402	65.5254
779.975	20.876
784.546	159.519
789.115	55.7998
793.681	15.6787
798.244	112.235
802.804	50.6504
807.363	170.762
811.918	197.954
816.471	127.507
821.022	63.2412
825.569	224.699
830.115	195.945
834.657	206.955
839.198	354.713
843.735	385.228
848.27	603.324
852.803	593.723
857.333	900.229
861.86	1248.86
866.385	1046.33
870.907	995.211
875.427	1134.95
879.944	1529.9
884.459	2336.58
888.971	3325.81
893.481	3412.09
897.988	4040.83
902.492	4466.16
906.994	2912.19
911.493	2253.21
915.99	2177.03
920.485	2529.53
924.976	3130.33
929.466	4687
933.952	7353.5
938.436	10242.6
942.918	14028.7
947.397	17246.8
951.874	19163.7
956.348	21597.6
960.819	24586.7
965.288	19819
969.755	11394.4
974.219	6304.9
978.68	3719.54
983.139	2513.3
987.595	2007.28
992.049	2175.41
996.501	3329.38
1000.95	5582.89
1005.4	3773.12
1009.84	1597.54
1014.28	856.2
1018.72	649.918
1023.16	603.051
1027.59	415.738
1032.02	376.606
1036.45	276.032
1040.88	102.766
1045.3	124.53
1049.72	44.6611
1054.14	92.7715
1058.56	69.0977
1062.97	48.5381
1067.38	2.72754
1071.79	209.425
1076.19	106.184
1080.6	365.847
1085	130.019
1089.4	141.227
1093.79	339.851
1098.19	115.103
1102.58	126.062
1106.97	238.93
1111.35	282.774
1115.74	170.591
1120.12	269.38
1124.5	105.124
1128.87	129.809
1133.25	72.5938
1137.62	30.7646
1141.99	19.0391
1146.35	32.1992
1150.72	48.79
1155.08	36.5068
1159.44	51.9228
1163.79	80.2686
1168.15	108.169
1172.5	138.989
1176.85	104.572
1181.19	132.996
1185.54	123.162
1189.88	10.0127
1194.22	55.3438
1198.55	168.435
1202.89	43.3369
1207.22	139.713
1211.55	167.688
1215.88	111.263
1220.2	86.6162
1224.52	100.049
1228.84	143.755
1233.16	340.389
1237.47	251.788
1241.78	315.153
1246.09	348.952
1250.4	301.033
1254.7	494.53
1259.01	394.077
1263.31	432.323
1267.6	515.031
1271.9	687.721
1276.19	593.526
1280.48	543.648
1284.77	413.964
1289.05	412.578
1293.33	596.81
1297.61	453.935
1301.89	602.702
1306.16	620.546
1310.44	669.182
1314.71	752.868
1318.97	776.384
1323.24	504.196
1327.5	431.584
1331.76	363.726
1336.02	96.3916
1340.28	323.712
1344.53	239.19
1348.78	152.533
1353.03	114.502
1357.27	381.698
1361.52	152.789
1365.76	81.916
1370	111.844
1374.23	229.704
1378.47	195.913
1382.7	250.816
1386.93	264.499
1391.15	213.431
1395.38	92.1133
1399.6	41.0205
1403.82	176.086
1408.03	24.9727
1412.25	29.8281
1416.46	137.921
1420.67	70.4111
1424.88	68.2578
1429.08	135.062
1433.28	355.069
1437.48	585.218
1441.68	867.919
1445.87	1039.45
1450.07	1230.97
1454.26	1181.31
1458.44	1254.95
1462.63	966.126
1466.81	779.159
1470.99	434.772
1475.17	473.828
1479.34	432.95
1483.52	525.304
1487.69	146.564
1491.86	202.889
1496.02	70.2686
1500.19	37.7461
1504.35	204.651
1508.51	225.597
1512.66	48.9326
1516.82	83.0215
1520.97	123.336
1525.12	141.532
1529.26	257.353
1533.41	224.611
1537.55	347.662
1541.69	229.833
1545.83	138.25
1549.96	141.976
1554.09	296.518
1558.22	119.351
1562.35	47.8125
