Measurement: Raman, 514 nm, ccw, Raman Data Processed
Mineral: Kyanite
Rruff sample: R050450
Ideal chemistry: Al_2_OSiO_4_
Locality: Switzerland
Source: Marcus Origlieri
Description: Blue bladed crystals
Measured chemistry: Al_2.00_OSi_1.00_O_4_
Pin_id: M01603
Orientation: Laser parallel to (-1 0 -1). Fiducial mark perpendicular to laser is parallel to b [0 1 0]
Raman shift (cm-1)	intensity
148.716	0
153.638	96.7764
158.558	167.853
163.475	115.392
168.389	196.323
173.3	346.434
178.209	244.85
183.115	76.4375
188.018	88.7129
192.918	86.0859
197.816	118.348
202.711	493.114
207.604	1341.41
212.494	410.533
217.381	114.859
222.265	334.478
227.147	1208.75
232.026	248.318
236.902	123.557
241.775	191.114
246.646	396.988
251.514	328.253
256.38	36.0928
261.243	36.6953
266.103	72.5195
270.96	89.5488
275.815	843.015
280.667	1419.17
285.516	266.5
290.363	1753.24
295.207	4558.53
300.048	11265.7
304.887	11189.1
309.723	1229.43
314.556	692.648
319.387	2559.73
324.215	6950.94
329.04	7639.94
333.862	1004.35
338.682	245.508
343.5	436.679
348.314	262.518
353.126	1497.47
357.935	3559.55
362.742	5917.41
367.546	1210.28
372.347	1989.57
377.145	6171.23
381.941	10487.8
386.735	21945.2
391.525	12447.6
396.313	8417.83
401.098	7254.81
405.881	16016.5
410.661	3427.4
415.438	475.461
420.213	27.8262
424.985	391.646
429.754	1948.85
434.521	6824.47
439.285	13208.5
444.046	5598.6
448.805	5818.78
453.561	2344.04
458.315	940.739
463.065	1756.19
467.813	2897.94
472.559	2006.83
477.302	5259.93
482.042	15802.4
486.78	42707.1
491.515	23522.8
496.247	8566.5
500.977	2720.17
505.704	1185.85
510.428	826.479
515.15	451.828
519.869	284.508
524.586	39.1397
529.3	89.1055
534.011	83.9863
538.719	82.0078
543.425	31.3623
548.129	354.897
552.83	6.10449
557.528	492.387
562.223	1632.17
566.916	1486.98
571.607	477.709
576.294	303.446
580.979	392.173
585.662	565.121
590.341	585.789
595.019	769.411
599.693	1545.32
604.365	2647.22
609.035	3305.75
613.701	2233
618.366	2686.95
623.027	2333.4
627.686	2328.1
632.342	3326.88
636.996	5156.66
641.647	4249.53
646.296	2733.57
650.942	3877.03
655.585	6137.16
660.226	5065.42
664.864	2256.58
669.499	1098.13
674.132	597.764
678.763	329.674
683.39	262.535
688.015	222.424
692.638	139.514
697.258	63.0742
701.875	95.7559
706.49	22.2148
711.102	1.13086
715.712	21.791
720.319	37.6445
724.923	298.984
729.525	96.9746
734.124	131.873
738.721	223.371
743.315	146.264
747.907	64.0801
752.496	62.5176
757.082	6.48242
761.666	223.166
766.247	41.2012
770.826	232.67
775.402	172.617
779.975	40.1016
784.546	121.195
789.115	51.1504
793.681	75.8438
798.244	225.074
802.804	239.887
807.363	197.522
811.918	286.141
816.471	552.887
821.022	421.852
825.569	477.549
830.115	639.902
834.657	376.924
839.198	754.688
843.735	815.109
848.27	754.752
852.803	1012.98
857.333	1398.09
861.86	1465.05
866.385	1475.66
870.907	1468.47
875.427	1439.89
879.944	1885.25
884.459	2810.32
888.971	4258.58
893.481	3949.64
897.988	3217.64
902.492	2986.14
906.994	2485.87
911.493	2025.45
915.99	2019.31
920.485	1890.79
924.976	2760.59
929.466	3983.51
933.952	6268.44
938.436	8822.47
942.918	11348.6
947.397	12612.5
951.874	12366.8
956.348	15767.1
960.819	20895.5
965.288	19025.9
969.755	11411.5
974.219	5898.36
978.68	3487.6
983.139	2215.06
987.595	1688.87
992.049	1649.93
996.501	3421.13
1000.95	5894.36
1005.4	4698.49
1009.84	1925.12
1014.28	924.918
1018.72	448.019
1023.16	580.174
1027.59	508.984
1032.02	207.84
1036.45	46.3789
1040.88	196.248
1045.3	143.568
1049.72	10.8945
1054.14	170.695
1058.56	25.1895
1062.97	38.959
1067.38	18.2773
1071.79	129.889
1076.19	229.893
1080.6	442.238
1085	606.215
1089.4	539.014
1093.79	332.631
1098.19	197.065
1102.58	178.309
1106.97	505.357
1111.35	418.201
1115.74	450.834
1120.12	348.252
1124.5	339.449
1128.87	432.424
1133.25	20.1738
1137.62	250.627
1141.99	391.834
1146.35	28.6367
1150.72	111.045
1155.08	156.377
1159.44	223.385
1163.79	281.139
1168.15	38.6113
1172.5	203.385
1176.85	23.5117
1181.19	208.629
1185.54	64.8555
1189.88	11.7773
1194.22	60.166
1198.55	60.4199
1202.89	160.41
1207.22	111.022
1211.55	65.3457
1215.88	164.502
1220.2	166.504
1224.52	293.359
1228.84	302.078
1233.16	420.664
1237.47	579.129
1241.78	486.486
1246.09	649.787
1250.4	566.254
1254.7	674.705
1259.01	963.102
1263.31	1074.77
1267.6	1273.07
1271.9	1176.8
1276.19	1235.45
1280.48	948.709
1284.77	906.541
1289.05	880.812
1293.33	1100.11
1297.61	1336.75
1301.89	1306.08
1306.16	1634.47
1310.44	1598.62
1314.71	1831.78
1318.97	1772.36
1323.24	1488.13
1327.5	1272.11
1331.76	749.08
1336.02	524.617
1340.28	575.857
1344.53	477.519
1348.78	542.402
1353.03	333.522
1357.27	280.894
1361.52	249.525
1365.76	307.44
1370	404.875
1374.23	676.479
1378.47	489.115
1382.7	492.721
1386.93	326.268
1391.15	234.393
1395.38	180.775
1399.6	190.607
1403.82	119.025
1408.03	558.557
1412.25	237.875
1416.46	318.42
1420.67	155.166
1424.88	122.094
1429.08	240.375
1433.28	703.203
1437.48	1383.17
1441.68	1885.69
1445.87	2576.31
1450.07	2656.88
1454.26	3045.58
1458.44	2815.89
1462.63	2544.84
1466.81	1702.45
1470.99	1368.38
1475.17	815.336
1479.34	1031.86
1483.52	423.99
1487.69	11.7539
1491.86	14.7578
1496.02	245.533
1500.19	97.3379
1504.35	69.3555
1508.51	181.934
1512.66	152.418
1516.82	138.133
1520.97	467.242
1525.12	215.023
1529.26	326.883
1533.41	525.199
1537.55	407.617
1541.69	521.184
1545.83	532.734
1549.96	442.582
1554.09	418.922
1558.22	122.652
1562.35	277.211
