Measurement: Raman, 514 nm, ccw, Raman Data Processed
Mineral: Kyanite
Rruff sample: R050450
Ideal chemistry: Al_2_OSiO_4_
Locality: Switzerland
Source: Marcus Origlieri
Description: Blue bladed crystals
Measured chemistry: Al_2.00_OSi_1.00_O_4_
Pin_id: M00770
Orientation: Laser parallel to (0 1 -1). Fiducial mark perpendicular to laser is parallel to -a [-1 0 0]
Raman shift (cm-1)	intensity
159.787	0
164.703	156.788
169.617	204.788
174.528	334.468
179.435	375.129
184.341	35.4531
189.243	30.0928
194.143	85.0537
199.04	196.518
203.935	274.32
208.827	263.24
213.716	265.035
218.602	783.593
223.486	1185.48
228.367	1485.6
233.245	421.824
238.12	213.361
242.993	66.1577
247.863	42.9888
252.731	21.3359
257.596	93.9019
262.458	59.0898
267.317	127.482
272.174	282.44
277.028	834.488
281.879	1369.1
286.728	1415.72
291.574	4490.94
296.417	7768.8
301.258	13043.3
306.096	8209.8
310.931	796.174
315.764	1007.31
320.594	2889.43
325.421	5427.47
330.246	3433.54
335.068	256.607
339.887	222.26
344.703	256.981
349.517	84.8106
354.329	1944.37
359.137	4210.56
363.943	4440.26
368.746	2318.56
373.547	3558.47
378.345	3951.95
383.14	5613.02
387.932	8125.64
392.722	9075.33
397.51	7417.68
402.294	7586.71
407.076	8020.2
411.855	3052.35
416.632	3216.91
421.406	4067.07
426.177	1692.65
430.946	2999.69
435.712	5998.33
440.475	6741.42
445.236	2568.95
449.994	1724.88
454.75	408.19
459.502	41.8603
464.253	586.964
469	928.578
473.745	1438.8
478.487	7271.67
483.227	18149.1
487.964	28537.9
492.698	14934.1
497.43	5781.83
502.159	2421.27
506.885	2243.37
511.609	2792.23
516.33	1855.88
521.049	489.972
525.764	11.6094
530.478	294.473
535.188	216.451
539.896	252.347
544.602	910.643
549.304	1018.45
554.004	1072.39
558.702	2759.13
563.397	5381.82
568.089	4625.12
572.779	4358.03
577.466	2325.96
582.15	867.215
586.832	648.017
591.511	210.908
596.188	276.356
600.862	524.723
605.533	1169.51
610.202	1035.43
614.868	477.548
619.531	385.15
624.192	314.211
628.85	542.6
633.506	1275.76
638.159	2332.75
642.81	1436.48
647.457	638.347
652.103	806.607
656.745	1130.87
661.385	1239.27
666.023	1483.33
670.658	1756.89
675.29	1181.77
679.92	536.578
684.547	316.815
689.171	149.765
693.793	32.5518
698.413	134.359
703.029	150.961
707.643	42.1797
712.255	74.9111
716.864	31.0449
721.47	479.759
726.074	709.087
730.675	179.02
735.274	146.539
739.87	94.5957
744.463	18.9404
749.054	96.7178
753.643	89.5928
758.228	53.873
762.812	124.122
767.392	148.607
771.97	1.46191
776.546	49.4346
781.118	88.5606
785.689	16.3428
790.256	79.6201
794.822	126.33
799.384	330.813
803.944	276.956
808.502	451.273
813.057	451.756
817.609	578.033
822.159	566.872
826.706	630.278
831.251	585.637
835.793	952.636
840.332	701.323
844.869	904.749
849.404	693.841
853.936	798.296
858.465	1022.96
862.992	1480.23
867.516	1732.12
872.037	2345.01
876.557	3449.53
881.073	5666.55
885.587	10945.2
890.099	16363.8
894.608	17370.6
899.114	19497.1
903.618	18715.2
908.119	10131.3
912.618	5075.56
917.114	3306.64
921.608	2462.28
926.099	2307.34
930.588	2830.81
935.074	3778.36
939.557	5087.35
944.038	6804.64
948.517	8452.84
952.993	9128.07
957.466	8645.09
961.937	8380.64
966.405	6546.98
970.871	3897.57
975.334	2407.98
979.795	1432.98
984.253	1071.16
988.709	736.233
993.162	849.28
997.613	1391.16
1002.06	2047.56
1006.51	1326.97
1010.95	605.523
1015.39	179.809
1019.83	348.778
1024.26	232.594
1028.7	121.643
1033.13	150.32
1037.56	30.3096
1041.98	74.8672
1046.4	7.06543
1050.83	40.6728
1055.24	6.4834
1059.66	19.0957
1064.07	39.9834
1068.48	53.9795
1072.89	112.636
1077.3	91.8291
1081.7	234.065
1086.1	193.678
1090.5	47.1309
1094.89	191.42
1099.29	61.4961
1103.68	2.28516
1108.06	475.826
1112.45	615.221
1116.83	760.1
1121.21	209.555
1125.59	133.498
1129.97	343.25
1134.34	195.807
1138.71	200.238
1143.08	100.588
1147.44	16.7305
1151.81	74.0996
1156.17	350.992
1160.53	344.269
1164.88	169.91
1169.23	29.2852
1173.59	80.4902
1177.93	115.318
1182.28	436.533
1186.62	696.926
1190.96	496.975
1195.3	165.459
1199.64	0.564453
1203.97	86.543
1208.3	8.79492
1212.63	259.404
1216.96	396.818
1221.28	539.037
1225.6	532.309
1229.92	550.107
1234.24	677.791
1238.55	556.629
1242.86	468.828
1247.17	684.139
1251.47	646.758
1255.78	718.291
1260.08	480.783
1264.38	322.565
1268.68	285.553
1272.97	145.83
1277.26	152.377
1281.55	234.596
1285.84	78.6856
1290.12	438.537
1294.4	504.254
1298.68	353.566
1302.96	445.492
1307.23	152.131
1311.51	146.309
1315.78	254.264
1320.04	185.07
1324.31	231.734
1328.57	165.086
1332.83	14.4746
1337.09	227.019
1341.34	16.0957
1345.59	41.3281
1349.84	47.4492
1354.09	68.291
1358.34	90.7832
1362.58	95.9746
1366.82	69.9219
1371.06	7.56641
1375.29	176.371
1379.52	81.2832
1383.75	294.945
1387.98	228.361
1392.21	167.602
1396.43	9.78711
1400.65	36.5273
1404.87	250.342
1409.09	405.629
1413.3	225.059
1417.51	122.035
1421.72	180.777
1425.93	105.934
1430.13	206.303
1434.33	455.602
1438.53	272.926
1442.73	313.506
1446.92	424.344
1451.11	295.539
1455.3	464.856
1459.49	443.5
1463.67	271.016
1467.86	415.955
1472.04	307.148
1476.21	297.211
1480.39	271.031
1484.56	253.537
1488.73	230.18
1492.9	112.525
1497.06	216.842
1501.23	256.92
1505.39	113.611
1509.55	431.361
1513.7	199.875
1517.85	88.2891
1522	150.709
1526.15	248.941
1530.3	105.057
1534.44	326.33
1538.58	122.918
1542.72	280.137
1546.86	29.4609
1550.99	25.5195
1555.13	101.732
1559.26	6.17383
1563.38	0
