Measurement: Raman, 514 nm, ccw, Raman Data Processed
Mineral: Kyanite
Rruff sample: R050450
Ideal chemistry: Al_2_OSiO_4_
Locality: Switzerland
Source: Marcus Origlieri
Description: Blue bladed crystals
Measured chemistry: Al_2.00_OSi_1.00_O_4_
Pin_id: M01855
Orientation: Laser parallel to (1 1 0). Fiducial mark perpendicular to laser is parallel to c [0 0 1]
Raman shift (cm-1)	intensity
148.716	0
153.638	177.341
158.558	57.5283
163.475	187.278
168.389	20.5859
173.3	276.377
178.209	142.981
183.115	163.849
188.018	128.547
192.918	96.0703
197.816	131.845
202.711	118.465
207.604	500.659
212.494	328.806
217.381	32.0918
222.265	325.871
227.147	894.219
232.026	245.621
236.902	119.879
241.775	167.928
246.646	177.363
251.514	78.3301
256.38	47.791
261.243	44.8984
266.103	94.457
270.96	443.228
275.815	1469.71
280.667	2204.96
285.516	818.812
290.363	3031.45
295.207	5752.84
300.048	12746.1
304.887	12779
309.723	1847.97
314.556	872.68
319.387	3024.2
324.215	9573.85
329.04	10054.2
333.862	1442.16
338.682	925.316
343.5	1749.31
348.314	481.447
353.126	1262.03
357.935	3895.19
362.742	6248.23
367.546	1122.84
372.347	1407.04
377.145	2591.89
381.941	4851.38
386.735	9115.49
391.525	7047.39
396.313	5191.66
401.098	4686.06
405.881	9064.02
410.661	2598.8
415.438	911.527
420.213	1937.04
424.985	1061.13
429.754	1772.63
434.521	6228.57
439.285	12383
444.046	5583.99
448.805	3351.38
453.561	1115.19
458.315	56.4395
463.065	223.227
467.813	323.547
472.559	518.336
477.302	2741.77
482.042	10323.8
486.78	26796.8
491.515	16246.3
496.247	4801.38
500.977	1812.78
505.704	1255.65
510.428	1626.93
515.15	1618.55
519.869	542.641
524.586	99.9648
529.3	20.4141
534.011	118.701
538.719	222.44
543.425	54.1133
548.129	274.023
552.83	166.594
557.528	1251.66
562.223	3658.89
566.916	2690.8
571.607	996.301
576.294	528.994
580.979	522.162
585.662	844.693
590.341	742.648
595.019	590.873
599.693	1516.59
604.365	3664.99
609.035	4918.58
613.701	2610.72
618.366	2729.15
623.027	2744.65
627.686	3035.28
632.342	2969.44
636.996	1706.59
641.647	1521.59
646.296	1238.41
650.942	1365.51
655.585	2008.82
660.226	1200.43
664.864	1019.35
669.499	1230.32
674.132	1050.58
678.763	289.572
683.39	170.094
688.015	28.9316
692.638	206.772
697.258	109.928
701.875	301.828
706.49	355.838
711.102	69.5098
715.712	23.166
720.319	91.4961
724.923	278.434
729.525	181.719
734.124	151.334
738.721	43.7754
743.315	148.148
747.907	102.234
752.496	19.4629
757.082	31.5449
761.666	15.2988
766.247	76.0293
770.826	172.875
775.402	22.9141
779.975	94.6973
784.546	176.643
789.115	56.207
793.681	30.9551
798.244	200.315
802.804	41.9219
807.363	48.7051
811.918	204.91
816.471	194.055
821.022	307.947
825.569	293.621
830.115	181.529
834.657	342.934
839.198	457.699
843.735	344.363
848.27	659.139
852.803	942.262
857.333	1020.02
861.86	1100.82
866.385	1288.21
870.907	1077.16
875.427	1055.73
879.944	1345.94
884.459	1810.77
888.971	2932.57
893.481	2746.98
897.988	1823.69
902.492	1402.86
906.994	1677.5
911.493	1986.55
915.99	1753.56
920.485	2443.96
924.976	2888.61
929.466	3923.76
933.952	5832.75
938.436	8609.71
942.918	13213.1
947.397	22240.4
951.874	30707.8
956.348	24761.2
960.819	16713
965.288	12047.8
969.755	7376.09
974.219	4483.96
978.68	2525.34
983.139	1903.53
987.595	1693.3
992.049	1488.88
996.501	2918.67
1000.95	5380.01
1005.4	4028.09
1009.84	1836.39
1014.28	930.008
1018.72	665.535
1023.16	705.271
1027.59	586.607
1032.02	319.988
1036.45	266.498
1040.88	53.0293
1045.3	42.7305
1049.72	80.3144
1054.14	27.1172
1058.56	42.0508
1062.97	22.1445
1067.38	107.865
1071.79	25.3027
1076.19	157.637
1080.6	483.941
1085	555.643
1089.4	349.041
1093.79	368.926
1098.19	44.375
1102.58	152.58
1106.97	60.334
1111.35	202.08
1115.74	10.9473
1120.12	325.283
1124.5	446.174
1128.87	60.6113
1133.25	161.547
1137.62	76.9336
1141.99	262.769
1146.35	301.049
1150.72	108.268
1155.08	86.4805
1159.44	322.264
1163.79	111.977
1168.15	95.541
1172.5	247.971
1176.85	347.682
1181.19	41.7129
1185.54	275.994
1189.88	174.754
1194.22	164.357
1198.55	117.418
1202.89	250.162
1207.22	98.9551
1211.55	312.488
1215.88	318.486
1220.2	254.01
1224.52	383.012
1228.84	329.334
1233.16	272.887
1237.47	594.533
1241.78	512.121
1246.09	713.238
1250.4	603.543
1254.7	738.615
1259.01	631.199
1263.31	676.9
1267.6	1263.65
1271.9	730.828
1276.19	861.629
1280.48	983.029
1284.77	650.408
1289.05	955.281
1293.33	939.561
1297.61	959.85
1301.89	934.193
1306.16	924.084
1310.44	1341.35
1314.71	1395.89
1318.97	1114.96
1323.24	761.09
1327.5	774.518
1331.76	668.791
1336.02	478.422
1340.28	487.723
1344.53	447.26
1348.78	651.734
1353.03	385.363
1357.27	425.057
1361.52	528.566
1365.76	365.711
1370	405.656
1374.23	544.273
1378.47	362.291
1382.7	235.785
1386.93	580.205
1391.15	399.945
1395.38	126.32
1399.6	350.352
1403.82	100.691
1408.03	112.023
1412.25	450.844
1416.46	208
1420.67	200.055
1424.88	244.785
1429.08	419.387
1433.28	387.336
1437.48	1191.87
1441.68	1719.54
1445.87	1732.44
1450.07	2179.85
1454.26	2129.24
1458.44	1797.07
1462.63	1355.29
1466.81	1347.94
1470.99	636.781
1475.17	704.519
1479.34	626.637
1483.52	1016.97
1487.69	467.731
1491.86	115.742
1496.02	106.316
1500.19	83.8164
1504.35	87.6953
1508.51	114.758
1512.66	152.16
1516.82	88.0859
1520.97	209.25
1525.12	68.7578
1529.26	239.527
1533.41	219.914
1537.55	100.445
1541.69	263
1545.83	259.176
1549.96	257.883
1554.09	3.61328
1558.22	130.086
1562.35	270.488
