Measurement: Raman, 514 nm, ccw, Raman Data Processed
Mineral: Kyanite
Rruff sample: R050450
Ideal chemistry: Al_2_OSiO_4_
Locality: Switzerland
Source: Marcus Origlieri
Description: Blue bladed crystals
Measured chemistry: Al_2.00_OSi_1.00_O_4_
Pin_id: M01603
Orientation: Laser parallel to (-1 0 -1). Fiducial mark perpendicular to laser is parallel to b [0 1 0]
Raman shift (cm-1)	intensity
148.716	0
153.638	276.144
158.558	233.996
163.475	200.954
168.389	148.214
173.3	240.606
178.209	337.04
183.115	91.9043
188.018	5.69922
192.918	136.163
197.816	332.828
202.711	204.807
207.604	226.919
212.494	127.029
217.381	141.377
222.265	127.869
227.147	609.204
232.026	254.142
236.902	116.419
241.775	246.21
246.646	186.431
251.514	194.144
256.38	73.3144
261.243	37.9277
266.103	61.9629
270.96	20.3408
275.815	595.117
280.667	1280.05
285.516	504.498
290.363	1665.65
295.207	3270.61
300.048	5750.52
304.887	6786.9
309.723	904.693
314.556	650.803
319.387	2174.71
324.215	5416.3
329.04	6792.17
333.862	848.58
338.682	108.531
343.5	447.232
348.314	40.0254
353.126	340.838
357.935	1178.65
362.742	2646.79
367.546	882.242
372.347	2776.99
377.145	3942.03
381.941	4267.56
386.735	6572.17
391.525	4716.18
396.313	3993.63
401.098	2998.98
405.881	7293.85
410.661	1780.49
415.438	688.566
420.213	1672.59
424.985	783.715
429.754	935.932
434.521	2867.26
439.285	5462.68
444.046	2436.23
448.805	2452.89
453.561	911.734
458.315	97.7891
463.065	122.106
467.813	510.545
472.559	672.143
477.302	1906.88
482.042	6719.8
486.78	19000
491.515	11195.3
496.247	3520.74
500.977	1607.5
505.704	659.484
510.428	632.58
515.15	667.719
519.869	334.815
524.586	193.15
529.3	104.34
534.011	71.1152
538.719	123.1
543.425	18.457
548.129	188.504
552.83	25.7852
557.528	657.293
562.223	1667.43
566.916	1504.1
571.607	505.758
576.294	452.621
580.979	428.07
585.662	1297.78
590.341	836.316
595.019	267.623
599.693	597.404
604.365	1451.36
609.035	2076.38
613.701	1039.36
618.366	693.975
623.027	1018.23
627.686	1072.63
632.342	1565.66
636.996	1770.89
641.647	1494.58
646.296	822.613
650.942	966.455
655.585	1783.56
660.226	1728.65
664.864	1064.62
669.499	1090.58
674.132	1128.14
678.763	347.459
683.39	336.031
688.015	342.022
692.638	371.568
697.258	332.039
701.875	296.461
706.49	390.574
711.102	223.658
715.712	221.398
720.319	179.08
724.923	227.611
729.525	223.367
734.124	142.24
738.721	87.1562
743.315	258.17
747.907	164.342
752.496	169.6
757.082	148.008
761.666	282.312
766.247	186.57
770.826	100.018
775.402	82.2481
779.975	68.6836
784.546	102.369
789.115	29.543
793.681	289.887
798.244	50.4824
802.804	38.6504
807.363	67.6719
811.918	210.871
816.471	90.3379
821.022	347.793
825.569	138.406
830.115	44.6406
834.657	275.574
839.198	300.56
843.735	229.25
848.27	166.678
852.803	409.406
857.333	342.717
861.86	531.316
866.385	597.992
870.907	309.731
875.427	647.08
879.944	939.606
884.459	1043.94
888.971	1314.01
893.481	1840.49
897.988	2052.99
902.492	2643.03
906.994	2196.36
911.493	1508.26
915.99	1474.54
920.485	1280.13
924.976	1948.44
929.466	2444.77
933.952	3334.18
938.436	5183.45
942.918	7367.08
947.397	11401.3
951.874	14823.5
956.348	13019.2
960.819	10407.7
965.288	8408.35
969.755	5052.11
974.219	3069.47
978.68	1827.75
983.139	1452.58
987.595	1123.42
992.049	978.062
996.501	1401.98
1000.95	2155.26
1005.4	1881.22
1009.84	777.941
1014.28	524.703
1018.72	430.84
1023.16	290.898
1027.59	154.328
1032.02	139.234
1036.45	125.5
1040.88	38.9727
1045.3	23.8359
1049.72	98.9414
1054.14	63.8633
1058.56	205.551
1062.97	252.769
1067.38	81.6602
1071.79	377.793
1076.19	179.598
1080.6	405.402
1085	159.5
1089.4	146.254
1093.79	96.1133
1098.19	174.625
1102.58	258.758
1106.97	154.566
1111.35	84.5078
1115.74	82.7383
1120.12	76.9766
1124.5	307.977
1128.87	396.57
1133.25	248.816
1137.62	360.652
1141.99	375.164
1146.35	195.332
1150.72	55.1172
1155.08	99.1406
1159.44	187.543
1163.79	93.6172
1168.15	9.125
1172.5	343.406
1176.85	234.84
1181.19	91.793
1185.54	22.4453
1189.88	94.8828
1194.22	15.9805
1198.55	251.332
1202.89	1.08594
1207.22	255.168
1211.55	216.223
1215.88	13.3203
1220.2	444.152
1224.52	400.273
1228.84	326.223
1233.16	157.727
1237.47	448.766
1241.78	113.535
1246.09	297.84
1250.4	152.367
1254.7	572.109
1259.01	382.391
1263.31	401.18
1267.6	356.617
1271.9	404.285
1276.19	365.34
1280.48	370.781
1284.77	316.894
1289.05	105.742
1293.33	134.586
1297.61	481.894
1301.89	573.91
1306.16	495.312
1310.44	834.852
1314.71	806.391
1318.97	632.262
1323.24	724.887
1327.5	362.031
1331.76	381.219
1336.02	477.25
1340.28	281.824
1344.53	188.644
1348.78	161.887
1353.03	242.918
1357.27	391.031
1361.52	411.902
1365.76	299.273
1370	162.019
1374.23	344.215
1378.47	465.606
1382.7	388.75
1386.93	131.977
1391.15	164.535
1395.38	34.0508
1399.6	16.2109
1403.82	300.363
1408.03	36.6992
1412.25	337.566
1416.46	84.2461
1420.67	163.449
1424.88	67.9219
1429.08	477.883
1433.28	207.019
1437.48	153.039
1441.68	621.648
1445.87	829.426
1450.07	865.516
1454.26	915.781
1458.44	1098.23
1462.63	727.812
1466.81	643.519
1470.99	530.434
1475.17	294.586
1479.34	569.387
1483.52	527.867
1487.69	476.262
1491.86	321.598
1496.02	531.023
1500.19	211.215
1504.35	144.598
1508.51	86.9023
1512.66	300.949
1516.82	36.5898
1520.97	473.641
1525.12	308.957
1529.26	103.945
1533.41	88.5469
1537.55	190.684
1541.69	328.211
1545.83	54.7539
1549.96	37.2852
1554.09	310.352
1558.22	60.5273
1562.35	261.367
