Measurement: Raman, 514 nm, ccw, Raman Data Processed
Mineral: Kyanite
Rruff sample: R050450
Ideal chemistry: Al_2_OSiO_4_
Locality: Switzerland
Source: Marcus Origlieri
Description: Blue bladed crystals
Measured chemistry: Al_2.00_OSi_1.00_O_4_
Pin_id: M00770
Orientation: Laser parallel to (0 1 -1). Fiducial mark perpendicular to laser is parallel to -a [-1 0 0]
Raman shift (cm-1)	intensity
159.787	0
164.703	103.831
169.617	262.964
174.528	235.619
179.435	279.019
184.341	40.085
189.243	85.4604
194.143	83.7266
199.04	189.63
203.935	293.913
208.827	347.966
213.716	480.909
218.602	1361.24
223.486	2196.76
228.367	2818.99
233.245	1086.24
238.12	303.766
242.993	283.766
247.863	152.212
252.731	55.7954
257.596	173.531
262.458	25.0615
267.317	189.986
272.174	499.784
277.028	1216.17
281.879	1252.81
286.728	2136.04
291.574	7614.45
296.417	12920.8
301.258	24244.2
306.096	12622.1
310.931	1432.37
315.764	1366.32
320.594	4095.32
325.421	8581.62
330.246	4520.44
335.068	288.344
339.887	210.826
344.703	180.645
349.517	351.107
354.329	3733.94
359.137	8424.59
363.943	7299.45
368.746	3746.2
373.547	5048.81
378.345	5295.26
383.14	7935.53
387.932	12201.8
392.722	15228
397.51	11178
402.294	12027.3
407.076	11610.5
411.855	4372.38
416.632	5196.65
421.406	6240.66
426.177	2648.35
430.946	4973.87
435.712	9940.48
440.475	10387.9
445.236	3497.95
449.994	2170.6
454.75	372.721
459.502	160.356
464.253	1056.66
469	1245.94
473.745	2346.01
478.487	12055.8
483.227	30348.2
487.964	46426.1
492.698	23402.9
497.43	9354.4
502.159	3967.72
506.885	3866.08
511.609	4488.48
516.33	2569.49
521.049	542.013
525.764	122.005
530.478	147.242
535.188	136.736
539.896	564.201
544.602	1632.93
549.304	1718.34
554.004	1640.39
558.702	4439.84
563.397	8683.59
568.089	7781.5
572.779	8028.79
577.466	4371.82
582.15	1165.14
586.832	760.596
591.511	344.17
596.188	345.955
600.862	919.965
605.533	1664.27
610.202	1148.81
614.868	399.69
619.531	662.482
624.192	326.047
628.85	742.543
633.506	1732.33
638.159	2827.3
642.81	1761.69
647.457	657.422
652.103	754.136
656.745	988.079
661.385	1367.83
666.023	2475.34
670.658	3500.05
675.29	2115.17
679.92	911.321
684.547	484.35
689.171	343.017
693.793	8.70898
698.413	62.9824
703.029	139.117
707.643	66.3115
712.255	132.768
716.864	383.412
721.47	700.96
726.074	910.017
730.675	413.572
735.274	226.618
739.87	14.0059
744.463	134.685
749.054	137.144
753.643	182.965
758.228	102.036
762.812	133.331
767.392	47.0908
771.97	24.6113
776.546	26.2383
781.118	117.95
785.689	60.1953
790.256	17.4941
794.822	308.868
799.384	600.257
803.944	883.252
808.502	1050.22
813.057	1118.62
817.609	1195.78
822.159	1411.62
826.706	1344.56
831.251	1394.44
835.793	1534.1
840.332	1497.74
844.869	1515.58
849.404	1356.65
853.936	1576.64
858.465	1993.5
862.992	2232.95
867.516	3086
872.037	3520.54
876.557	5329.86
881.073	9602.2
885.587	17261.4
890.099	24658.8
894.608	25236.1
899.114	28898.5
903.618	27970.5
908.119	15088.3
912.618	7373.13
917.114	4819.86
921.608	3364
926.099	3239.36
930.588	3855.08
935.074	5387.92
939.557	7233.57
944.038	9274.31
948.517	11651.8
952.993	12782.9
957.466	11517.7
961.937	10509
966.405	7686.55
970.871	4666.14
975.334	2764.48
979.795	1839.76
984.253	1346.25
988.709	948.986
993.162	985.609
997.613	1337.1
1002.06	2033.77
1006.51	1363.03
1010.95	605.612
1015.39	437.407
1019.83	456.92
1024.26	246.065
1028.7	268.016
1033.13	155.09
1037.56	28.2441
1041.98	104.574
1046.4	0.503906
1050.83	125.01
1055.24	78.6231
1059.66	33.7148
1064.07	182.697
1068.48	19.2852
1072.89	117.408
1077.3	22.668
1081.7	249.06
1086.1	316.217
1090.5	51.3633
1094.89	131.275
1099.29	130.082
1103.68	216.906
1108.06	1004.59
1112.45	1432.12
1116.83	1442.96
1121.21	577.805
1125.59	525.893
1129.97	332.943
1134.34	578.213
1138.71	197.34
1143.08	120.373
1147.44	141.193
1151.81	170.398
1156.17	189.023
1160.53	425.756
1164.88	27.5254
1169.23	239.606
1173.59	105.436
1177.93	159.963
1182.28	645.102
1186.62	1020.23
1190.96	721.531
1195.3	206.732
1199.64	80.3184
1203.97	101.66
1208.3	3.16406
1212.63	451.188
1216.96	467.137
1221.28	772.584
1225.6	911.162
1229.92	1091.31
1234.24	1606.86
1238.55	922.41
1242.86	896.641
1247.17	1043.44
1251.47	1317.09
1255.78	1178.99
1260.08	1124.79
1264.38	807.9
1268.68	527.975
1272.97	438.731
1277.26	495.352
1281.55	347.258
1285.84	287.246
1290.12	566.018
1294.4	786.791
1298.68	802.959
1302.96	626.969
1307.23	428.832
1311.51	528.926
1315.78	267.85
1320.04	307.863
1324.31	217.086
1328.57	164.332
1332.83	66.0195
1337.09	155.746
1341.34	39.3555
1345.59	116.949
1349.84	153.129
1354.09	23.2383
1358.34	3.63281
1362.58	188.506
1366.82	225.033
1371.06	0.185547
1375.29	161.143
1379.52	121.523
1383.75	15.5059
1387.98	98.0078
1392.21	308.85
1396.43	41.791
1400.65	232.359
1404.87	398.551
1409.09	403.772
1413.3	354.004
1417.51	157.213
1421.72	376.543
1425.93	277.947
1430.13	323.978
1434.33	389.191
1438.53	633.34
1442.73	794.674
1446.92	800.297
1451.11	905.41
1455.3	668.736
1459.49	985.217
1463.67	978.689
1467.86	463.809
1472.04	524.99
1476.21	533.625
1480.39	562.043
1484.56	619.201
1488.73	244.898
1492.9	190.44
1497.06	142.984
1501.23	14.916
1505.39	139.039
1509.55	143.859
1513.7	271.727
1517.85	82.4062
1522	109.482
1526.15	74.1953
1530.3	257.168
1534.44	1160.59
1538.58	154.555
1542.72	78.3184
1546.86	293.662
1550.99	21.8848
1555.13	49.5625
1559.26	259.576
1563.38	0
