Measurement: Raman, 514 nm, ccw, Raman Data Processed
Mineral: Kyanite
Rruff sample: R050450
Ideal chemistry: Al_2_OSiO_4_
Locality: Switzerland
Source: Marcus Origlieri
Description: Blue bladed crystals
Measured chemistry: Al_2.00_OSi_1.00_O_4_
Pin_id: M01978
Orientation: Laser parallel to -b* (0 -1 0). Fiducial mark perpendicular to laser is parallel to c [0 0 1]
Raman shift (cm-1)	intensity
148.716	0
153.638	124.428
158.558	9.15918
163.475	53.9775
168.389	227.028
173.3	366.028
178.209	735.303
183.115	352.396
188.018	162.284
192.918	158.242
197.816	128.134
202.711	268.856
207.604	196.791
212.494	73.333
217.381	238.233
222.265	616.499
227.147	1325.14
232.026	251.106
236.902	28.2505
241.775	68.4136
246.646	109.471
251.514	144.279
256.38	126.329
261.243	233.697
266.103	49.5908
270.96	178.283
275.815	1130.18
280.667	1448.88
285.516	695.691
290.363	2739.34
295.207	5107.74
300.048	11974.4
304.887	9799.1
309.723	1403.42
314.556	1578.98
319.387	2269.73
324.215	5199.54
329.04	4527.28
333.862	908.153
338.682	1211.3
343.5	1713.07
348.314	527.839
353.126	1825.01
357.935	5523.16
362.742	7398.09
367.546	2277.75
372.347	4095.13
377.145	6789.21
381.941	6963.28
386.735	9746.33
391.525	8155.28
396.313	6081.54
401.098	6269.93
405.881	10072.8
410.661	3018.92
415.438	1617.29
420.213	2504.17
424.985	1278.64
429.754	2573.71
434.521	6936.37
439.285	11308.7
444.046	4599.53
448.805	3340.94
453.561	1193.91
458.315	361.541
463.065	495.943
467.813	832.192
472.559	977.243
477.302	3233.03
482.042	11121.6
486.78	25310.9
491.515	13600.1
496.247	5002.94
500.977	1797.63
505.704	1595.16
510.428	2777.39
515.15	2742.27
519.869	822.818
524.586	28.7061
529.3	265.818
534.011	159.889
538.719	109.205
543.425	374.616
548.129	427.385
552.83	316.604
557.528	1514.39
562.223	4221.5
566.916	3131.94
571.607	2109.69
576.294	1395.92
580.979	254.214
585.662	159.75
590.341	127.514
595.019	228.335
599.693	822.829
604.365	2480
609.035	2594.3
613.701	1418.99
618.366	1163.49
623.027	888.232
627.686	1038.79
632.342	1154.31
636.996	1103.07
641.647	729.277
646.296	101.866
650.942	298.778
655.585	538.17
660.226	616.964
664.864	598.686
669.499	884.734
674.132	809.862
678.763	418.299
683.39	402.472
688.015	171.728
692.638	78.6973
697.258	51.3613
701.875	348.705
706.49	238.714
711.102	68.3799
715.712	273.654
720.319	163.469
724.923	357.902
729.525	173.946
734.124	10.5518
738.721	8.40234
743.315	7.35644
747.907	86.708
752.496	72.2519
757.082	57.5332
761.666	20.6562
766.247	63.0166
770.826	47.6357
775.402	104.86
779.975	36.583
784.546	19.9316
789.115	59.709
793.681	163.748
798.244	147.232
802.804	31.1162
807.363	139.642
811.918	259.175
816.471	230.658
821.022	191.779
825.569	288.462
830.115	265.731
834.657	407.59
839.198	413.112
843.735	577.319
848.27	589.139
852.803	539.53
857.333	644.687
861.86	791.446
866.385	1035.87
870.907	1102.79
875.427	1811.99
879.944	2784.46
884.459	5292.8
888.971	8666.78
893.481	7933.88
897.988	6063.66
902.492	5811.9
906.994	3926.16
911.493	2528.42
915.99	2356.93
920.485	2131.51
924.976	2497.28
929.466	3167.97
933.952	4643.19
938.436	6385.76
942.918	8215.89
947.397	11199.7
951.874	13531
956.348	13210.6
960.819	12869.7
965.288	10619.7
969.755	6367.55
974.219	3845.84
978.68	2457.39
983.139	1680.85
987.595	1601.52
992.049	1783.21
996.501	2809.24
1000.95	4449.41
1005.4	3090.5
1009.84	1434.08
1014.28	746.6
1018.72	573.31
1023.16	362.448
1027.59	212.232
1032.02	224.634
1036.45	152.324
1040.88	14.8232
1045.3	111.977
1049.72	187.2
1054.14	15.9834
1058.56	70.7822
1062.97	208.916
1067.38	68.0615
1071.79	31.1133
1076.19	52.0176
1080.6	33.9746
1085	47.1094
1089.4	40.7266
1093.79	11.998
1098.19	15.2305
1102.58	66.7383
1106.97	57.8945
1111.35	8.30078
1115.74	104.174
1120.12	117.418
1124.5	148.394
1128.87	9.19336
1133.25	67.6621
1137.62	115.869
1141.99	56.1309
1146.35	197.492
1150.72	39.9258
1155.08	149.225
1159.44	18.5566
1163.79	27.4238
1168.15	26.291
1172.5	261.949
1176.85	154.832
1181.19	102.606
1185.54	63.8418
1189.88	65.7285
1194.22	26.7676
1198.55	90.3984
1202.89	237.848
1207.22	258.66
1211.55	174.125
1215.88	86.5742
1220.2	7.02148
1224.52	208.158
1228.84	315.6
1233.16	168.291
1237.47	253.33
1241.78	468.191
1246.09	194.258
1250.4	140.246
1254.7	367.699
1259.01	294.324
1263.31	367.762
1267.6	279.115
1271.9	188.826
1276.19	313.713
1280.48	186.785
1284.77	240.084
1289.05	158.99
1293.33	555.902
1297.61	162.42
1301.89	988.049
1306.16	400.006
1310.44	431.922
1314.71	434.184
1318.97	308.74
1323.24	401.402
1327.5	513.766
1331.76	401.109
1336.02	317.203
1340.28	306.332
1344.53	319.115
1348.78	371.35
1353.03	363.424
1357.27	417.418
1361.52	191.957
1365.76	316.572
1370	242.367
1374.23	64.5059
1378.47	201.512
1382.7	105.606
1386.93	2.37109
1391.15	206.326
1395.38	4.87109
1399.6	229.625
1403.82	199.035
1408.03	26.3379
1412.25	139.336
1416.46	46.8926
1420.67	16.1094
1424.88	228.602
1429.08	197.398
1433.28	109.078
1437.48	161.945
1441.68	145.051
1445.87	268.295
1450.07	237.668
1454.26	32.9727
1458.44	167.435
1462.63	59.8828
1466.81	219.353
1470.99	121.246
1475.17	224.072
1479.34	379.248
1483.52	289.842
1487.69	425.957
1491.86	46.5254
1496.02	129.723
1500.19	241.283
1504.35	12.7871
1508.51	264.16
1512.66	50.5488
1516.82	207.863
1520.97	150.359
1525.12	159.24
1529.26	107.029
1533.41	168.662
1537.55	253.674
1541.69	162.853
1545.83	60.6426
1549.96	325.143
1554.09	33.9531
1558.22	122.273
1562.35	0.828125
