Measurement: Raman, 514 nm, ccw, Raman Data Processed
Mineral: Kyanite
Rruff sample: R050450
Ideal chemistry: Al_2_OSiO_4_
Locality: Switzerland
Source: Marcus Origlieri
Description: Blue bladed crystals
Measured chemistry: Al_2.00_OSi_1.00_O_4_
Pin_id: M01448
Orientation: Laser parallel to -c* (0 0 -1). Fiducial mark perpendicular to laser is parallel to -a [-1 0 0]
Raman shift (cm-1)	intensity
148.716	0
153.638	296.844
158.558	148.498
163.475	187.726
168.389	359.35
173.3	423.438
178.209	255.541
183.115	127.631
188.018	240.378
192.918	312.262
197.816	251.776
202.711	406.869
207.604	422.633
212.494	229.224
217.381	169.202
222.265	196.37
227.147	564.202
232.026	249.518
236.902	146.576
241.775	121.344
246.646	8.72852
251.514	72.0928
256.38	203.553
261.243	375.065
266.103	23.3066
270.96	154.544
275.815	348.058
280.667	713.551
285.516	125.345
290.363	1363.45
295.207	1867.85
300.048	4410.38
304.887	4259.68
309.723	572.384
314.556	338.318
319.387	984.76
324.215	3288.76
329.04	3442.07
333.862	337.711
338.682	68.6758
343.5	388.945
348.314	41.8281
353.126	285.17
357.935	861.504
362.742	1726.17
367.546	575.148
372.347	1903.43
377.145	2354
381.941	2194.18
386.735	3443.74
391.525	3555.45
396.313	2209.23
401.098	1800.87
405.881	4562.86
410.661	1059.48
415.438	732.109
420.213	1427.71
424.985	731.08
429.754	626.916
434.521	2113.94
439.285	3812.1
444.046	1348.46
448.805	1196.01
453.561	468.728
458.315	57.7988
463.065	115.268
467.813	98.5469
472.559	394.978
477.302	1023.57
482.042	3924.25
486.78	13396.1
491.515	7146.91
496.247	2430.3
500.977	830.369
505.704	634.566
510.428	724.922
515.15	877.457
519.869	302.082
524.586	36.7012
529.3	70.6602
534.011	10.9141
538.719	126.35
543.425	240.51
548.129	308.144
552.83	226.504
557.528	226.295
562.223	1705.35
566.916	1438.9
571.607	1176.75
576.294	742.807
580.979	462.641
585.662	609.752
590.341	428.119
595.019	84.2793
599.693	31.877
604.365	660.387
609.035	825.894
613.701	507.522
618.366	265.902
623.027	223.326
627.686	446.676
632.342	580.482
636.996	1224.26
641.647	1078.65
646.296	334.506
650.942	268.5
655.585	614.727
660.226	745.35
664.864	649.66
669.499	820.279
674.132	746.441
678.763	325.94
683.39	298.879
688.015	319.369
692.638	247.746
697.258	314.496
701.875	182.188
706.49	112.838
711.102	260.756
715.712	217.475
720.319	121.918
724.923	302.443
729.525	304.709
734.124	61.7656
738.721	55.7324
743.315	199.734
747.907	248.576
752.496	212.871
757.082	176.615
761.666	90.9023
766.247	119.527
770.826	192.74
775.402	256.402
779.975	250.537
784.546	32.2578
789.115	197.143
793.681	27.5645
798.244	294.185
802.804	93.9648
807.363	145.682
811.918	66.1465
816.471	166.449
821.022	193.441
825.569	116.619
830.115	216.512
834.657	207.435
839.198	132.435
843.735	124.316
848.27	317.144
852.803	328.723
857.333	303.545
861.86	405.568
866.385	443.25
870.907	847.41
875.427	916.164
879.944	1536.58
884.459	2281.73
888.971	3816.62
893.481	4361.9
897.988	4834.51
902.492	5916.31
906.994	3397.51
911.493	1657.81
915.99	1214.03
920.485	1019.7
924.976	1294.35
929.466	1476.81
933.952	1844.53
938.436	2742.71
942.918	3904.34
947.397	5881.09
951.874	8101.84
956.348	6831.21
960.819	5323.83
965.288	4167.59
969.755	2463.81
974.219	1666.55
978.68	1010.51
983.139	940.928
987.595	477.195
992.049	597.662
996.501	613.289
1000.95	1175.2
1005.4	996.746
1009.84	485.838
1014.28	484.699
1018.72	275.699
1023.16	217.867
1027.59	135.316
1032.02	101.039
1036.45	305.801
1040.88	28.5938
1045.3	284.094
1049.72	137.359
1054.14	116.957
1058.56	26.625
1062.97	195.84
1067.38	173.633
1071.79	45.4375
1076.19	166.188
1080.6	5.36719
1085	285.496
1089.4	15.6055
1093.79	219.672
1098.19	71.1328
1102.58	11.6094
1106.97	77.8906
1111.35	213.891
1115.74	324.981
1120.12	144.148
1124.5	23.1445
1128.87	304.602
1133.25	123.371
1137.62	55.7031
1141.99	396.984
1146.35	280.707
1150.72	211.793
1155.08	67.7969
1159.44	12.0078
1163.79	87.8867
1168.15	112.707
1172.5	320.93
1176.85	4.45312
1181.19	301.707
1185.54	219.988
1189.88	144.301
1194.22	243.934
1198.55	168.481
1202.89	49.7734
1207.22	109.316
1211.55	95.6445
1215.88	6.4375
1220.2	143.941
1224.52	200.797
1228.84	506.602
1233.16	149.758
1237.47	115.746
1241.78	61.2695
1246.09	11.4727
1250.4	252.629
1254.7	173.031
1259.01	126.867
1263.31	36.1719
1267.6	107.969
1271.9	72.3125
1276.19	217.574
1280.48	48.0156
1284.77	231.641
1289.05	70.1289
1293.33	286.926
1297.61	89.2227
1301.89	299.812
1306.16	298.078
1310.44	358.008
1314.71	331.707
1318.97	390.129
1323.24	408.902
1327.5	253.508
1331.76	209.117
1336.02	345.449
1340.28	295.742
1344.53	467.062
1348.78	260.629
1353.03	92.9922
1357.27	287.043
1361.52	528.707
1365.76	213.426
1370	229.938
1374.23	307.969
1378.47	177.375
1382.7	123.019
1386.93	114.562
1391.15	210.773
1395.38	44.2305
1399.6	120.394
1403.82	118.336
1408.03	314.129
1412.25	141.234
1416.46	82.2109
1420.67	54.707
1424.88	19.1406
1429.08	371.359
1433.28	290.262
1437.48	150.133
1441.68	304.965
1445.87	143.93
1450.07	272.352
1454.26	267.688
1458.44	326.949
1462.63	530.992
1466.81	48.5508
1470.99	299.797
1475.17	158.461
1479.34	159.961
1483.52	25.8125
1487.69	127.848
1491.86	289.981
1496.02	352.102
1500.19	222.383
1504.35	469.664
1508.51	180.543
1512.66	426.727
1516.82	223.863
1520.97	369.539
1525.12	423.594
1529.26	63.4219
1533.41	413.016
1537.55	219.367
1541.69	461.949
1545.83	341.438
1549.96	154.059
1554.09	331.019
1558.22	364.957
1562.35	429.981
