Measurement: Raman, 514 nm, ccw, Raman Data Processed
Mineral: Kyanite
Rruff sample: R050450
Ideal chemistry: Al_2_OSiO_4_
Locality: Switzerland
Source: Marcus Origlieri
Description: Blue bladed crystals
Measured chemistry: Al_2.00_OSi_1.00_O_4_
Pin_id: M01603
Orientation: Laser parallel to (-1 0 -1). Fiducial mark perpendicular to laser is parallel to b [0 1 0]
Raman shift (cm-1)	intensity
148.716	0
153.638	220.465
158.558	181.657
163.475	165.248
168.389	126.188
173.3	287.932
178.209	361.392
183.115	100.531
188.018	136.665
192.918	10.834
197.816	111.452
202.711	230.772
207.604	918.831
212.494	73.6494
217.381	150.593
222.265	413.674
227.147	1155.52
232.026	312.889
236.902	101.106
241.775	259.733
246.646	198.99
251.514	376.301
256.38	12.9756
261.243	341.957
266.103	60.626
270.96	59.1875
275.815	1357.51
280.667	1012.22
285.516	224.983
290.363	2173.14
295.207	3125.97
300.048	10410.2
304.887	7149.17
309.723	818.342
314.556	916.82
319.387	2209.63
324.215	8087.46
329.04	6313.67
333.862	491.054
338.682	329.506
343.5	477.532
348.314	58.6719
353.126	778.126
357.935	2644.87
362.742	3746.45
367.546	1174.25
372.347	3958.09
377.145	5851.08
381.941	7041.01
386.735	13052.5
391.525	8669.34
396.313	4605.82
401.098	5532.67
405.881	11367.8
410.661	1538.6
415.438	393.755
420.213	1422.73
424.985	303.948
429.754	1206.35
434.521	5228.18
439.285	9263.92
444.046	3135.06
448.805	4461.16
453.561	1096.27
458.315	554.442
463.065	948.782
467.813	1594.39
472.559	1231.13
477.302	3592.19
482.042	11714.4
486.78	34962.8
491.515	14138.2
496.247	5244.5
500.977	1739.74
505.704	1003.98
510.428	1022.13
515.15	888.139
519.869	228.991
524.586	5.29883
529.3	140.179
534.011	102.135
538.719	2.17871
543.425	138.291
548.129	267.999
552.83	119.414
557.528	630.096
562.223	2685.52
566.916	1411.65
571.607	589.894
576.294	517.336
580.979	999.839
585.662	1505.35
590.341	1142.71
595.019	1012.92
599.693	1639.68
604.365	2915.88
609.035	3332.18
613.701	2138.99
618.366	2390.55
623.027	2292.4
627.686	2696.05
632.342	3192.45
636.996	3781.91
641.647	2767.92
646.296	2070.2
650.942	2705.06
655.585	4094.7
660.226	3227.62
664.864	1402.21
669.499	1325.72
674.132	855.939
678.763	349.529
683.39	230.69
688.015	135.456
692.638	135.319
697.258	72.9912
701.875	16.1748
706.49	113.481
711.102	122.037
715.712	281.123
720.319	33.373
724.923	190.707
729.525	98.5342
734.124	19.8115
738.721	13.1855
743.315	81.8281
747.907	46.0742
752.496	24.0879
757.082	42.123
761.666	208.558
766.247	233.431
770.826	320.795
775.402	358.679
779.975	140.269
784.546	154.484
789.115	195.401
793.681	270.393
798.244	444.529
802.804	378.349
807.363	491.135
811.918	548.937
816.471	791.651
821.022	827.066
825.569	719.59
830.115	655.015
834.657	732.105
839.198	712.497
843.735	1044.55
848.27	1365.44
852.803	1481.63
857.333	1678.25
861.86	2133.08
866.385	1667.12
870.907	1661.42
875.427	1465.36
879.944	1853.69
884.459	2321.11
888.971	3714.43
893.481	3695.85
897.988	3748.97
902.492	3580.14
906.994	3030.87
911.493	2330.31
915.99	2330.97
920.485	2463.64
924.976	3016.45
929.466	3920.04
933.952	5842.15
938.436	8119.99
942.918	11089.6
947.397	15171.7
951.874	18117.9
956.348	17442.2
960.819	17168.7
965.288	14025.3
969.755	8346.5
974.219	4548.95
978.68	2719.55
983.139	1930.37
987.595	1525.83
992.049	1403.17
996.501	2789.71
1000.95	5048.35
1005.4	3442.13
1009.84	1308.2
1014.28	713.027
1018.72	535.756
1023.16	828.691
1027.59	355.457
1032.02	188.33
1036.45	163.473
1040.88	44.9102
1045.3	100.35
1049.72	31.0684
1054.14	36.0273
1058.56	16.5898
1062.97	112.471
1067.38	37.8535
1071.79	343.676
1076.19	542.436
1080.6	812.484
1085	880.35
1089.4	822.131
1093.79	580.615
1098.19	323.008
1102.58	529.231
1106.97	815.275
1111.35	677.131
1115.74	358.805
1120.12	454.287
1124.5	515.562
1128.87	498.635
1133.25	385.498
1137.62	96.1523
1141.99	50.5938
1146.35	30.2852
1150.72	182.268
1155.08	80.3125
1159.44	205.934
1163.79	249.324
1168.15	235.406
1172.5	205.24
1176.85	151.133
1181.19	120.522
1185.54	156.607
1189.88	71.7227
1194.22	88.5918
1198.55	76.8457
1202.89	21.0918
1207.22	123.451
1211.55	72.3887
1215.88	425.006
1220.2	215.553
1224.52	273.035
1228.84	283.461
1233.16	567.846
1237.47	535.191
1241.78	780.537
1246.09	665.6
1250.4	956.621
1254.7	989.465
1259.01	979.508
1263.31	1534.7
1267.6	1734.86
1271.9	1821.62
1276.19	1758.08
1280.48	1642.31
1284.77	1605.32
1289.05	1426.44
1293.33	1964.2
1297.61	1793.76
1301.89	2018.08
1306.16	2315.15
1310.44	2387.48
1314.71	2484.92
1318.97	2467.8
1323.24	2139.42
1327.5	1337.57
1331.76	1097.96
1336.02	757.842
1340.28	954.084
1344.53	822.359
1348.78	970.941
1353.03	951.828
1357.27	448.027
1361.52	518.543
1365.76	610.391
1370	807.297
1374.23	826.934
1378.47	720.303
1382.7	988.84
1386.93	858.291
1391.15	735.644
1395.38	470.225
1399.6	640.375
1403.82	643.135
1408.03	665.871
1412.25	827.715
1416.46	551.404
1420.67	307.609
1424.88	539.258
1429.08	732.072
1433.28	988.91
1437.48	2142.58
1441.68	3049.69
1445.87	3705.44
1450.07	4301.85
1454.26	4504.03
1458.44	4327.02
1462.63	3253.7
1466.81	2677.08
1470.99	1894.65
1475.17	1505.86
1479.34	1290.91
1483.52	870.328
1487.69	618.207
1491.86	187.727
1496.02	174.184
1500.19	157.172
1504.35	4.99023
1508.51	162.477
1512.66	52.9902
1516.82	208.537
1520.97	499.17
1525.12	534.285
1529.26	476.779
1533.41	462.867
1537.55	420.211
1541.69	603.562
1545.83	226.102
1549.96	253.746
1554.09	294.99
1558.22	15.6133
1562.35	3.00195
