Measurement: Raman, 514 nm, ccw, Raman Data Processed
Mineral: Kyanite
Rruff sample: R050450
Ideal chemistry: Al_2_OSiO_4_
Locality: Switzerland
Source: Marcus Origlieri
Description: Blue bladed crystals
Measured chemistry: Al_2.00_OSi_1.00_O_4_
Pin_id: M01978
Orientation: Laser parallel to -b* (0 -1 0). Fiducial mark perpendicular to laser is parallel to c [0 0 1]
Raman shift (cm-1)	intensity
148.716	0
153.638	108.894
158.558	7.22998
163.475	108.997
168.389	135.143
173.3	278.581
178.209	277.029
183.115	66.563
188.018	70.3071
192.918	29.73
197.816	193.298
202.711	327.715
207.604	388.094
212.494	89.3359
217.381	229.831
222.265	637.392
227.147	1395.47
232.026	420.738
236.902	71.1992
241.775	90.7764
246.646	15.3408
251.514	74.9404
256.38	148.462
261.243	114.149
266.103	20.8154
270.96	1171.13
275.815	3464.47
280.667	3245.53
285.516	1882.25
290.363	5674.97
295.207	9717.85
300.048	20580.8
304.887	14231.8
309.723	1942.24
314.556	1357.36
319.387	4180.86
324.215	10058
329.04	7615.75
333.862	1250.44
338.682	1460.32
343.5	1764.1
348.314	1078.15
353.126	4762.86
357.935	11506.2
362.742	12431.4
367.546	1914.44
372.347	1716.37
377.145	5891.15
381.941	11611.8
386.735	18578.1
391.525	12795.4
396.313	10219.4
401.098	13619.9
405.881	20103.8
410.661	5153.38
415.438	2633.46
420.213	3761.23
424.985	2229.66
429.754	6023.76
434.521	15068.5
439.285	21848.9
444.046	7788.96
448.805	5023.77
453.561	1704.32
458.315	248.644
463.065	124.673
467.813	361.424
472.559	1314.87
477.302	6335.07
482.042	18980
486.78	40878.8
491.515	18709.3
496.247	6315.7
500.977	2372.95
505.704	1525
510.428	2270.88
515.15	1794.63
519.869	370.231
524.586	128.73
529.3	166.052
534.011	207.017
538.719	185.407
543.425	40.0635
548.129	141.848
552.83	992.362
557.528	3991.35
562.223	9956.7
566.916	5211.42
571.607	1129.46
576.294	487.813
580.979	257.453
585.662	321.665
590.341	259.648
595.019	894.929
599.693	2770
604.365	6560.17
609.035	6664.46
613.701	3565.14
618.366	3268.57
623.027	2957.45
627.686	3481.97
632.342	3536.36
636.996	2619.89
641.647	1477.25
646.296	685.04
650.942	544.485
655.585	794.322
660.226	538.319
664.864	427.623
669.499	464.228
674.132	421.39
678.763	146.806
683.39	151.486
688.015	155.402
692.638	173.163
697.258	201.337
701.875	497.411
706.49	471.239
711.102	256.443
715.712	112.227
720.319	110.826
724.923	23.0098
729.525	8.72852
734.124	72.8887
738.721	52.4795
743.315	28.5557
747.907	152.075
752.496	38.9209
757.082	165.363
761.666	113.024
766.247	10.0254
770.826	131.961
775.402	135.94
779.975	54.8506
784.546	1.30273
789.115	31.5029
793.681	89.5264
798.244	38.5215
802.804	95.7783
807.363	170.944
811.918	141.493
816.471	38.0947
821.022	89.9863
825.569	196.5
830.115	168.508
834.657	107.025
839.198	94.0811
843.735	180.665
848.27	189.83
852.803	233.591
857.333	363.93
861.86	381.718
866.385	339.688
870.907	522.398
875.427	531.506
879.944	474.045
884.459	852.847
888.971	884.209
893.481	916.346
897.988	1265.9
902.492	1457.69
906.994	1739.63
911.493	2090.23
915.99	2682.8
920.485	3460.12
924.976	4519.8
929.466	6139.52
933.952	8864.36
938.436	11862.4
942.918	15641.4
947.397	21792.2
951.874	26906.2
956.348	26231.7
960.819	25635.3
965.288	20386.6
969.755	12390.8
974.219	7348.01
978.68	4626.82
983.139	3570.63
987.595	3021.82
992.049	3787.02
996.501	7004.26
1000.95	10225.2
1005.4	6779.11
1009.84	3269.09
1014.28	1817.73
1018.72	1114.72
1023.16	982.979
1027.59	683.997
1032.02	508.508
1036.45	472.167
1040.88	392.663
1045.3	302.859
1049.72	217.601
1054.14	282.292
1058.56	442.668
1062.97	237.756
1067.38	280.576
1071.79	144.076
1076.19	118.463
1080.6	76.7715
1085	204.227
1089.4	43.1953
1093.79	213.209
1098.19	43.0391
1102.58	150.357
1106.97	23.666
1111.35	144.295
1115.74	100.67
1120.12	47.0293
1124.5	150.662
1128.87	61.1387
1133.25	246.527
1137.62	126.268
1141.99	66.7188
1146.35	13.2578
1150.72	121.135
1155.08	104.047
1159.44	39.9297
1163.79	25.75
1168.15	57.1113
1172.5	1.7832
1176.85	9.625
1181.19	21.7305
1185.54	149.272
1189.88	23.6953
1194.22	80.168
1198.55	22.7441
1202.89	240.057
1207.22	90.6445
1211.55	122.082
1215.88	173.881
1220.2	166.312
1224.52	179.857
1228.84	335.228
1233.16	221.539
1237.47	156.56
1241.78	167.449
1246.09	237.309
1250.4	211.053
1254.7	248.338
1259.01	140.168
1263.31	155.338
1267.6	123.074
1271.9	277.885
1276.19	178.715
1280.48	269.121
1284.77	255.635
1289.05	101.338
1293.33	173.623
1297.61	367.236
1301.89	318.861
1306.16	210.102
1310.44	264.336
1314.71	402.369
1318.97	308.312
1323.24	359.176
1327.5	151.238
1331.76	381.418
1336.02	377.199
1340.28	452.103
1344.53	49.9395
1348.78	288.301
1353.03	8.75
1357.27	25.6855
1361.52	291.582
1365.76	305.787
1370	139.262
1374.23	14.166
1378.47	324.217
1382.7	28.9219
1386.93	157.018
1391.15	210.785
1395.38	136.356
1399.6	74.8164
1403.82	81.4043
1408.03	202.769
1412.25	129.914
1416.46	44.8867
1420.67	143.685
1424.88	23.4355
1429.08	665.014
1433.28	307.541
1437.48	3.44531
1441.68	240.727
1445.87	205.117
1450.07	48.6758
1454.26	0.916016
1458.44	201.592
1462.63	380.094
1466.81	187.611
1470.99	143.059
1475.17	260.277
1479.34	220.539
1483.52	307.914
1487.69	320.269
1491.86	255.617
1496.02	293.934
1500.19	157.705
1504.35	239.217
1508.51	150.848
1512.66	260.67
1516.82	316.848
1520.97	299.275
1525.12	252.062
1529.26	295.518
1533.41	309.019
1537.55	98.8184
1541.69	102.062
1545.83	136.029
1549.96	195.326
1554.09	10.4629
1558.22	54.4941
1562.35	0.193359
