Measurement: Raman, 514 nm, ccw, Raman Data Processed
Mineral: Kyanite
Rruff sample: R050450
Ideal chemistry: Al_2_OSiO_4_
Locality: Switzerland
Source: Marcus Origlieri
Description: Blue bladed crystals
Measured chemistry: Al_2.00_OSi_1.00_O_4_
Pin_id: M01448
Orientation: Laser parallel to -c* (0 0 -1). Fiducial mark perpendicular to laser is parallel to -a [-1 0 0]
Raman shift (cm-1)	intensity
148.716	0
153.638	223.389
158.558	5.38281
163.475	249.16
168.389	76.6152
173.3	241.439
178.209	255.565
183.115	140.24
188.018	158.739
192.918	348.808
197.816	382.469
202.711	558.051
207.604	443.04
212.494	188.172
217.381	228.955
222.265	125.07
227.147	362.185
232.026	55.8174
236.902	1.9834
241.775	42.2344
246.646	26.0332
251.514	208.748
256.38	62.1065
261.243	158.362
266.103	64.4756
270.96	177.04
275.815	593.333
280.667	575.708
285.516	396.317
290.363	1248.16
295.207	1483.98
300.048	4435.56
304.887	3067.97
309.723	410.104
314.556	405.728
319.387	1089.73
324.215	4639.98
329.04	3268.48
333.862	377.251
338.682	354.219
343.5	533.001
348.314	89.7949
353.126	187.827
357.935	995.178
362.742	1338.83
367.546	815.748
372.347	1717.93
377.145	2460.37
381.941	2492.91
386.735	3390.92
391.525	3508.59
396.313	2076.08
401.098	1992.9
405.881	3559.59
410.661	826.487
415.438	457.54
420.213	692.855
424.985	324.062
429.754	511.525
434.521	2238
439.285	3575.62
444.046	1275.39
448.805	1069.29
453.561	301.297
458.315	123.727
463.065	115.044
467.813	351.67
472.559	322.432
477.302	1272.27
482.042	4802.18
486.78	12842.1
491.515	7222.16
496.247	2129.34
500.977	919.609
505.704	493.943
510.428	680.322
515.15	784.795
519.869	258.424
524.586	162.119
529.3	118.172
534.011	116.342
538.719	50.5059
543.425	313.416
548.129	163.019
552.83	116.789
557.528	318.092
562.223	1347.64
566.916	966.188
571.607	586.479
576.294	447.758
580.979	237.51
585.662	894.666
590.341	532.613
595.019	79.5293
599.693	170.135
604.365	510.211
609.035	781.182
613.701	693.352
618.366	343.799
623.027	404.418
627.686	494.803
632.342	782.527
636.996	1345.02
641.647	710.789
646.296	426.115
650.942	473.666
655.585	777.908
660.226	780.303
664.864	482.102
669.499	532.229
674.132	576.756
678.763	267.652
683.39	136.529
688.015	165.269
692.638	24.2969
697.258	606.896
701.875	379.943
706.49	340.176
711.102	39.5625
715.712	144.918
720.319	172.613
724.923	208.107
729.525	330.252
734.124	12.5742
738.721	173.039
743.315	137.182
747.907	208.734
752.496	162.256
757.082	272.414
761.666	203.225
766.247	90.6699
770.826	92.1992
775.402	34.291
779.975	64.3594
784.546	95.0371
789.115	33.7012
793.681	69.0117
798.244	148.965
802.804	138.428
807.363	115.506
811.918	1.72656
816.471	231.924
821.022	19.459
825.569	175.26
830.115	180.707
834.657	128.717
839.198	131.631
843.735	35.1191
848.27	251.81
852.803	417.365
857.333	226.635
861.86	311.027
866.385	335.19
870.907	413.721
875.427	648.656
879.944	906.977
884.459	1707
888.971	2794.73
893.481	3116.18
897.988	3743.02
902.492	3741.76
906.994	2330.34
911.493	1295.65
915.99	1068.32
920.485	1128.08
924.976	1005.05
929.466	1311.75
933.952	1982.13
938.436	2769.6
942.918	3987.31
947.397	6279.28
951.874	7682.15
956.348	6426.28
960.819	5001.8
965.288	3610.03
969.755	2319.95
974.219	1597.81
978.68	755.4
983.139	538.856
987.595	499.508
992.049	599.566
996.501	786.348
1000.95	964.617
1005.4	651.356
1009.84	286.125
1014.28	250.258
1018.72	156.342
1023.16	49.5332
1027.59	15.3594
1032.02	11.7852
1036.45	113.516
1040.88	138.383
1045.3	91.9394
1049.72	12.2773
1054.14	33.377
1058.56	87.4863
1062.97	198.309
1067.38	176.621
1071.79	249.715
1076.19	11.8281
1080.6	256.315
1085	86.8711
1089.4	183.809
1093.79	187.852
1098.19	251.367
1102.58	50.4805
1106.97	19.6133
1111.35	49.2715
1115.74	37.4141
1120.12	390.984
1124.5	26.1016
1128.87	37.3789
1133.25	99.3633
1137.62	409.713
1141.99	155.93
1146.35	207.275
1150.72	26.4473
1155.08	207.252
1159.44	38.502
1163.79	3.66211
1168.15	96.5625
1172.5	203.43
1176.85	53.9746
1181.19	204.877
1185.54	257.463
1189.88	86.1953
1194.22	309.684
1198.55	114.625
1202.89	151.301
1207.22	262.44
1211.55	120.287
1215.88	315.318
1220.2	325.268
1224.52	183.609
1228.84	186.971
1233.16	180.56
1237.47	218.312
1241.78	95.2461
1246.09	191.188
1250.4	8.19922
1254.7	366.781
1259.01	148.824
1263.31	201.594
1267.6	92.9258
1271.9	147.594
1276.19	244.871
1280.48	215.422
1284.77	2.45703
1289.05	268.543
1293.33	239.738
1297.61	293.891
1301.89	295.629
1306.16	372.719
1310.44	334.051
1314.71	311.715
1318.97	218.269
1323.24	354.551
1327.5	165.602
1331.76	202.012
1336.02	154.012
1340.28	329.848
1344.53	228.695
1348.78	463.582
1353.03	175.207
1357.27	61.9609
1361.52	290.805
1365.76	227.231
1370	195.879
1374.23	218.871
1378.47	35.0898
1382.7	230.586
1386.93	352.152
1391.15	95.957
1395.38	69.3594
1399.6	62.1133
1403.82	166.277
1408.03	154.016
1412.25	148.965
1416.46	446.359
1420.67	785.312
1424.88	432.527
1429.08	234.848
1433.28	11.3281
1437.48	354.965
1441.68	394.398
1445.87	506.254
1450.07	321.867
1454.26	381.773
1458.44	250.914
1462.63	153.059
1466.81	293.113
1470.99	186.16
1475.17	244.277
1479.34	393.312
1483.52	422.629
1487.69	248.227
1491.86	374.711
1496.02	466.918
1500.19	56.7461
1504.35	361.609
1508.51	434.984
1512.66	11.207
1516.82	29.0039
1520.97	441.055
1525.12	346.543
1529.26	398.703
1533.41	9.52734
1537.55	87.125
1541.69	250.445
1545.83	150.789
1549.96	500.516
1554.09	460.738
1558.22	64.5039
1562.35	222.223
