Measurement: Raman, 514 nm, ccw, Raman Data Processed
Mineral: Kyanite
Rruff sample: R050450
Ideal chemistry: Al_2_OSiO_4_
Locality: Switzerland
Source: Marcus Origlieri
Description: Blue bladed crystals
Measured chemistry: Al_2.00_OSi_1.00_O_4_
Pin_id: M00970
Orientation: Laser parallel to -a* (-1 0 0). Fiducial mark perpendicular to laser is parallel to b [0 1 0]
Raman shift (cm-1)	intensity
148.716	0
153.638	43.1103
158.558	128.022
163.475	93.1523
168.389	209.423
173.3	97.9463
178.209	105.426
183.115	118.305
188.018	12.5557
192.918	41.6108
197.816	2.13477
202.711	276.203
207.604	581.783
212.494	35.3794
217.381	157.193
222.265	261.216
227.147	1178.66
232.026	218.144
236.902	66.2749
241.775	140.001
246.646	233
251.514	39.52
256.38	4.41357
261.243	25.7749
266.103	85.5229
270.96	303.638
275.815	1722.9
280.667	1929.65
285.516	933.493
290.363	4063.02
295.207	5356.52
300.048	14750.1
304.887	10538.8
309.723	1242.44
314.556	1136.65
319.387	3361.23
324.215	12281.8
329.04	9405.99
333.862	1060.92
338.682	904.065
343.5	1505.1
348.314	423.41
353.126	1321.51
357.935	4528.75
362.742	5919.13
367.546	1174.45
372.347	2529.34
377.145	4286.79
381.941	6088.08
386.735	10706
391.525	8282.33
396.313	4946.72
401.098	5775.02
405.881	11144.4
410.661	1999.88
415.438	774.643
420.213	2444.05
424.985	1110.88
429.754	2338.14
434.521	7345.9
439.285	13420.1
444.046	4183.77
448.805	3901.75
453.561	910.112
458.315	89.9365
463.065	306.349
467.813	455.494
472.559	715.186
477.302	3826.35
482.042	12279.4
486.78	35558
491.515	14706.1
496.247	4703.96
500.977	1701.27
505.704	1185.09
510.428	1540.42
515.15	1346.14
519.869	238.227
524.586	5.35644
529.3	105.75
534.011	160.216
538.719	181.193
543.425	62.3408
548.129	166.302
552.83	169.351
557.528	1367.46
562.223	4633.11
566.916	2593.86
571.607	859.303
576.294	689.349
580.979	747.175
585.662	1483.24
590.341	693.326
595.019	681.922
599.693	1720.66
604.365	4189.73
609.035	4502.92
613.701	2078.61
618.366	2151.48
623.027	2528.32
627.686	3411.96
632.342	2953.84
636.996	2154.07
641.647	1622.81
646.296	1306.36
650.942	1551.72
655.585	2047.49
660.226	1790.75
664.864	1371.17
669.499	1698.39
674.132	1108.29
678.763	300.853
683.39	199.244
688.015	51.1807
692.638	2.58594
697.258	186.258
701.875	1715.41
706.49	212.22
711.102	41.6348
715.712	55.5215
720.319	116.885
724.923	222.858
729.525	127.46
734.124	11.3232
738.721	46.376
743.315	90.21
747.907	34.1397
752.496	11.4863
757.082	40.7783
761.666	15.8682
766.247	120.851
770.826	98.959
775.402	50.6113
779.975	5.125
784.546	4.2334
789.115	22.2783
793.681	17.2773
798.244	168.299
802.804	94.5859
807.363	56.6553
811.918	201.614
816.471	196.731
821.022	264.848
825.569	196.029
830.115	303.261
834.657	299.153
839.198	506.352
843.735	511.354
848.27	541.018
852.803	773.805
857.333	1165.79
861.86	1369.12
866.385	979.322
870.907	959.884
875.427	1063.92
879.944	1332.57
884.459	1754.06
888.971	2173.94
893.481	1978.18
897.988	2134.1
902.492	2367.88
906.994	2008.25
911.493	2149.28
915.99	2174.11
920.485	2853.45
924.976	3579.34
929.466	4966.43
933.952	7002.13
938.436	10506.4
942.918	16083.8
947.397	27274.1
951.874	35325.4
956.348	26909
960.819	18960.7
965.288	13379.7
969.755	8040.15
974.219	4803.7
978.68	3192.42
983.139	2366.35
987.595	1832.53
992.049	1926.95
996.501	3335.54
1000.95	5806.38
1005.4	3915.43
1009.84	1504.53
1014.28	882.026
1018.72	615.637
1023.16	823.055
1027.59	574.153
1032.02	356.45
1036.45	214.522
1040.88	2.37109
1045.3	87.9717
1049.72	140.41
1054.14	0.015625
1058.56	67.0986
1062.97	68.8721
1067.38	23.3203
1071.79	169.37
1076.19	146.697
1080.6	325.369
1085	324.618
1089.4	272.048
1093.79	198.981
1098.19	81.3106
1102.58	48.6494
1106.97	65.9981
1111.35	133.343
1115.74	271.706
1120.12	93.0557
1124.5	206.377
1128.87	109.659
1133.25	69.8955
1137.62	27.958
1141.99	3.33398
1146.35	2.11523
1150.72	22.2598
1155.08	17.1982
1159.44	38.2842
1163.79	203.847
1168.15	151.836
1172.5	61.4922
1176.85	166.028
1181.19	147.374
1185.54	102.46
1189.88	151.279
1194.22	35.9902
1198.55	22.3125
1202.89	30.0166
1207.22	0.46582
1211.55	99.7793
1215.88	193.826
1220.2	96.6846
1224.52	138.339
1228.84	191.793
1233.16	329.596
1237.47	372.657
1241.78	277.824
1246.09	356.677
1250.4	238.135
1254.7	356.396
1259.01	371.465
1263.31	428.275
1267.6	641.39
1271.9	548.783
1276.19	524.646
1280.48	386.418
1284.77	460.532
1289.05	513.104
1293.33	383.737
1297.61	513.849
1301.89	546.781
1306.16	614.646
1310.44	601.47
1314.71	801.267
1318.97	714.604
1323.24	550.588
1327.5	369.578
1331.76	257.493
1336.02	260.184
1340.28	264.585
1344.53	131.627
1348.78	242.41
1353.03	132.683
1357.27	32.3369
1361.52	111.781
1365.76	215.116
1370	25.7822
1374.23	280.493
1378.47	204.107
1382.7	281.174
1386.93	209.544
1391.15	46.4531
1395.38	8.97656
1399.6	185.656
1403.82	80.3144
1408.03	58.1465
1412.25	22.8633
1416.46	106.587
1420.67	25.0967
1424.88	226.297
1429.08	153.633
1433.28	386.685
1437.48	543.4
1441.68	1008.94
1445.87	1221.88
1450.07	1406.16
1454.26	1311.56
1458.44	1302
1462.63	1109.72
1466.81	917.85
1470.99	714.519
1475.17	523.063
1479.34	454.055
1483.52	562.574
1487.69	315.581
1491.86	141.006
1496.02	96.9394
1500.19	224.066
1504.35	142.281
1508.51	283.361
1512.66	104.167
1516.82	4.75488
1520.97	163.138
1525.12	186.138
1529.26	163.301
1533.41	374.829
1537.55	306.8
1541.69	104.408
1545.83	268.159
1549.96	225.368
1554.09	183.265
1558.22	136.571
1562.35	0.574219
