Measurement: Raman, 514 nm, ccw, Raman Data Processed
Mineral: Kyanite
Rruff sample: R050450
Ideal chemistry: Al_2_OSiO_4_
Locality: Switzerland
Source: Marcus Origlieri
Description: Blue bladed crystals
Measured chemistry: Al_2.00_OSi_1.00_O_4_
Pin_id: M01855
Orientation: Laser parallel to (1 1 0). Fiducial mark perpendicular to laser is parallel to c [0 0 1]
Raman shift (cm-1)	intensity
148.716	0
153.638	130.685
158.558	9.85547
163.475	64.1802
168.389	196.503
173.3	442.625
178.209	283.682
183.115	66.689
188.018	22.751
192.918	32.502
197.816	295.663
202.711	635.034
207.604	1621.35
212.494	380.306
217.381	132.673
222.265	511.739
227.147	1198.5
232.026	360.502
236.902	37.6465
241.775	142.765
246.646	388.042
251.514	338.982
256.38	122.298
261.243	7.78955
266.103	287.519
270.96	236.5
275.815	1253.03
280.667	1509.84
285.516	678.007
290.363	2963.78
295.207	6413.37
300.048	17129.7
304.887	12804.5
309.723	1442.01
314.556	1215.35
319.387	3902.86
324.215	11861.7
329.04	9480.37
333.862	1125.11
338.682	536.726
343.5	816.235
348.314	356.613
353.126	1734.82
357.935	4863.45
362.742	6072.67
367.546	1586.56
372.347	3357.05
377.145	8664.12
381.941	14874.1
386.735	23374.3
391.525	16013.2
396.313	10413
401.098	10041.8
405.881	15630.2
410.661	3195.97
415.438	429.794
420.213	252.228
424.985	551.008
429.754	3102.13
434.521	9522.63
439.285	15855.5
444.046	6783.6
448.805	6604.02
453.561	2437.75
458.315	1092.81
463.065	2211.31
467.813	3128.41
472.559	2692.96
477.302	8501.19
482.042	24464.5
486.78	54774.6
491.515	27719.2
496.247	9877.19
500.977	3197.72
505.704	1574.68
510.428	1238.04
515.15	814.734
519.869	195.659
524.586	20.7783
529.3	244.102
534.011	210.033
538.719	117.377
543.425	242.718
548.129	270.122
552.83	49.7075
557.528	573.727
562.223	1937.46
566.916	1218.22
571.607	415.406
576.294	116.575
580.979	312.534
585.662	700.264
590.341	500.949
595.019	554.712
599.693	1526.03
604.365	3096.5
609.035	3153.69
613.701	2341.56
618.366	3162.93
623.027	3044.4
627.686	3410.44
632.342	4327.7
636.996	6393.37
641.647	4760.02
646.296	3540.08
650.942	4907.19
655.585	7237.94
660.226	5681.73
664.864	2406.76
669.499	1565.32
674.132	1000.14
678.763	592.007
683.39	376.252
688.015	371.31
692.638	125.02
697.258	214.367
701.875	356.351
706.49	262.971
711.102	13.2188
715.712	113.979
720.319	334.33
724.923	784.307
729.525	374.908
734.124	112.131
738.721	6.9375
743.315	9.07129
747.907	110.378
752.496	10.9082
757.082	142.235
761.666	45.102
766.247	19.0537
770.826	30.4282
775.402	53.3008
779.975	89.3125
784.546	46.3706
789.115	11.6919
793.681	125.489
798.244	10.396
802.804	83.0337
807.363	116.602
811.918	123.616
816.471	146.129
821.022	332.627
825.569	409.92
830.115	344.007
834.657	415.6
839.198	602.338
843.735	689.915
848.27	850.152
852.803	1012.62
857.333	1640.79
861.86	1826.83
866.385	1737.78
870.907	1913.4
875.427	2229.77
879.944	3549.21
884.459	6393.47
888.971	9759.61
893.481	8405.92
897.988	5635.34
902.492	4674.69
906.994	3266.13
911.493	2505.05
915.99	2441.58
920.485	2795.53
924.976	3348.9
929.466	5065.44
933.952	8134.63
938.436	11590.2
942.918	15252.9
947.397	17721.1
951.874	18454.6
956.348	21913.3
960.819	25837.1
965.288	21829.2
969.755	12737.5
974.219	7054.15
978.68	4272.92
983.139	2760.95
987.595	2424.27
992.049	2533.84
996.501	4410.66
1000.95	7364.72
1005.4	5231.97
1009.84	2197.2
1014.28	1270.19
1018.72	977.723
1023.16	1008.08
1027.59	666.512
1032.02	316.697
1036.45	139.792
1040.88	94.7705
1045.3	41.1797
1049.72	30.9321
1054.14	3.125
1058.56	52.6685
1062.97	52.3355
1067.38	89.1802
1071.79	147.872
1076.19	114.033
1080.6	466.267
1085	573.496
1089.4	348.829
1093.79	175.257
1098.19	206.777
1102.58	111.381
1106.97	132.06
1111.35	267.809
1115.74	274.623
1120.12	220.496
1124.5	309.42
1128.87	120.391
1133.25	141.404
1137.62	46.3726
1141.99	42.0796
1146.35	10.1968
1150.72	82.4199
1155.08	58.7153
1159.44	78.9482
1163.79	92.96
1168.15	61.0088
1172.5	130.985
1176.85	201.803
1181.19	1.33301
1185.54	77.2671
1189.88	90.5288
1194.22	11.3516
1198.55	70.9365
1202.89	14.7026
1207.22	2.9165
1211.55	51.1528
1215.88	121.123
1220.2	169.176
1224.52	152.775
1228.84	199.456
1233.16	352.036
1237.47	472.464
1241.78	492.836
1246.09	624.108
1250.4	453.283
1254.7	557.449
1259.01	566.677
1263.31	748.829
1267.6	758.014
1271.9	875.846
1276.19	922.702
1280.48	689.198
1284.77	638.421
1289.05	555.625
1293.33	909.302
1297.61	827.415
1301.89	766.915
1306.16	799.316
1310.44	1091.34
1314.71	1102.02
1318.97	1080.82
1323.24	804.604
1327.5	671.254
1331.76	315.851
1336.02	273.769
1340.28	315.447
1344.53	280.657
1348.78	181.894
1353.03	167.153
1357.27	175.434
1361.52	53.7207
1365.76	240.74
1370	275.191
1374.23	170.794
1378.47	274.753
1382.7	282.532
1386.93	243.489
1391.15	299.202
1395.38	117.687
1399.6	42.7036
1403.82	2.21338
1408.03	109.033
1412.25	3.12598
1416.46	148.826
1420.67	117.164
1424.88	133.272
1429.08	269.99
1433.28	561.994
1437.48	876.535
1441.68	1561.54
1445.87	1707.07
1450.07	1977.27
1454.26	2174.97
1458.44	1858.85
1462.63	1758.9
1466.81	1184.14
1470.99	810.592
1475.17	706.863
1479.34	762.112
1483.52	670.373
1487.69	403.158
1491.86	297.708
1496.02	132.253
1500.19	114.225
1504.35	15.2334
1508.51	1.54785
1512.66	35.3877
1516.82	86.2178
1520.97	83.9736
1525.12	145.749
1529.26	319.653
1533.41	315.093
1537.55	154.202
1541.69	207.446
1545.83	210.638
1549.96	117.595
1554.09	149.436
1558.22	32.2227
1562.35	0.617188
