Measurement: Raman, 514 nm, ccw, Raman Data Processed
Mineral: Kyanite
Rruff sample: R050450
Ideal chemistry: Al_2_OSiO_4_
Locality: Switzerland
Source: Marcus Origlieri
Description: Blue bladed crystals
Measured chemistry: Al_2.00_OSi_1.00_O_4_
Pin_id: M01448
Orientation: Laser parallel to -c* (0 0 -1). Fiducial mark perpendicular to laser is parallel to -a [-1 0 0]
Raman shift (cm-1)	intensity
148.716	0
153.638	273.066
158.558	139.55
163.475	131.302
168.389	316.966
173.3	215.332
178.209	416.076
183.115	228.724
188.018	294.427
192.918	102.08
197.816	413.593
202.711	562.589
207.604	169.626
212.494	231.924
217.381	38.1855
222.265	275.34
227.147	913.025
232.026	244.836
236.902	83.1758
241.775	36.0547
246.646	57.4522
251.514	4.48438
256.38	34.9209
261.243	139.853
266.103	44.3565
270.96	258.103
275.815	200.13
280.667	565.675
285.516	159.557
290.363	994.731
295.207	2101.68
300.048	4163.81
304.887	6719.8
309.723	684.454
314.556	332.995
319.387	892.281
324.215	1982.43
329.04	3364.36
333.862	447.672
338.682	80.6836
343.5	314.143
348.314	0.033203
353.126	377.147
357.935	894.531
362.742	3225.22
367.546	787.195
372.347	2045.45
377.145	2384.98
381.941	2078.79
386.735	4326.86
391.525	3658.06
396.313	3724.69
401.098	1971.88
405.881	5734.64
410.661	1354.72
415.438	858.908
420.213	1996.28
424.985	785.809
429.754	512.482
434.521	1813.38
439.285	4380.46
444.046	1812.7
448.805	1805.13
453.561	692.201
458.315	336.723
463.065	34.2148
467.813	411.266
472.559	296.08
477.302	1457.1
482.042	4465.84
486.78	15457
491.515	9360.25
496.247	3525.9
500.977	1178.73
505.704	703.68
510.428	1046.76
515.15	1156.03
519.869	131.438
524.586	54.0625
529.3	269.223
534.011	18.7676
538.719	82.3184
543.425	239.728
548.129	692.541
552.83	134.041
557.528	326.172
562.223	1580.41
566.916	1792.19
571.607	1782.59
576.294	1464.13
580.979	440.644
585.662	492.906
590.341	74.5723
595.019	53.7988
599.693	320.043
604.365	720.584
609.035	1170.57
613.701	424.412
618.366	505.691
623.027	371.492
627.686	358.996
632.342	726.695
636.996	904.434
641.647	866.031
646.296	377.832
650.942	264.266
655.585	806.773
660.226	719.824
664.864	530.729
669.499	751.211
674.132	565.33
678.763	227.797
683.39	52.0742
688.015	316.582
692.638	108.322
697.258	175.633
701.875	293.207
706.49	202.352
711.102	58.6055
715.712	155.117
720.319	437.559
724.923	440.51
729.525	198.918
734.124	120.975
738.721	61.2109
743.315	4.19336
747.907	43.8086
752.496	47.2676
757.082	67.4629
761.666	214.549
766.247	37.043
770.826	209.572
775.402	56.4707
779.975	102.305
784.546	96.584
789.115	38.1367
793.681	88.9453
798.244	4.94727
802.804	145.107
807.363	19.3145
811.918	104.012
816.471	191.094
821.022	75.7852
825.569	192.986
830.115	212.904
834.657	61.3633
839.198	314.117
843.735	121.561
848.27	48.8184
852.803	301.371
857.333	559.828
861.86	510.693
866.385	538.453
870.907	973.549
875.427	1320.83
879.944	1716.59
884.459	3129.63
888.971	5577.58
893.481	6392.61
897.988	5855.9
902.492	6639.73
906.994	4484.04
911.493	2259.79
915.99	1541.29
920.485	1337.24
924.976	1137.66
929.466	1383.68
933.952	1821.63
938.436	2698.32
942.918	3520.46
947.397	5079.85
951.874	6095.63
956.348	5676.2
960.819	5168.11
965.288	4847.73
969.755	2858.59
974.219	1744.69
978.68	1004.05
983.139	561.047
987.595	581.197
992.049	460.131
996.501	869.002
1000.95	1290.29
1005.4	1127.89
1009.84	485.578
1014.28	277.588
1018.72	274.986
1023.16	188.684
1027.59	100.586
1032.02	104.566
1036.45	148.809
1040.88	131.644
1045.3	31.9492
1049.72	11.2227
1054.14	86.6914
1058.56	20.0156
1062.97	64.1602
1067.38	117.918
1071.79	198.957
1076.19	327.231
1080.6	36.4102
1085	26.7734
1089.4	7.89062
1093.79	31.418
1098.19	358.207
1102.58	57.8242
1106.97	83.6602
1111.35	287.074
1115.74	329.125
1120.12	285.769
1124.5	351.609
1128.87	139.023
1133.25	460.363
1137.62	41.2891
1141.99	341.641
1146.35	80.6055
1150.72	30.2031
1155.08	25.7344
1159.44	250.285
1163.79	162.766
1168.15	239.113
1172.5	151.805
1176.85	333.344
1181.19	127.508
1185.54	180.766
1189.88	250.383
1194.22	376.047
1198.55	128.859
1202.89	91.1523
1207.22	258.398
1211.55	232.711
1215.88	241.426
1220.2	423.512
1224.52	142.898
1228.84	328.809
1233.16	129.715
1237.47	547.602
1241.78	130.875
1246.09	403.445
1250.4	73.375
1254.7	162.043
1259.01	9.52734
1263.31	285.688
1267.6	308.648
1271.9	689.062
1276.19	264.746
1280.48	142.184
1284.77	127.254
1289.05	121.875
1293.33	147.691
1297.61	560.699
1301.89	197.938
1306.16	395.941
1310.44	122.234
1314.71	437.574
1318.97	483.586
1323.24	270.773
1327.5	456.156
1331.76	410.449
1336.02	762.019
1340.28	543.688
1344.53	402.801
1348.78	409.789
1353.03	94.207
1357.27	67.0156
1361.52	574.152
1365.76	354.121
1370	216.652
1374.23	274.402
1378.47	181.469
1382.7	209.379
1386.93	307.977
1391.15	74.1328
1395.38	126.508
1399.6	295.625
1403.82	134.258
1408.03	269.836
1412.25	271.629
1416.46	276.473
1420.67	60.3203
1424.88	175.098
1429.08	240.738
1433.28	63.6055
1437.48	468.519
1441.68	317.188
1445.87	404.262
1450.07	135.394
1454.26	299.539
1458.44	258.394
1462.63	534.137
1466.81	456.848
1470.99	185.746
1475.17	371.887
1479.34	715.434
1483.52	168.258
1487.69	326.41
1491.86	214.144
1496.02	489.527
1500.19	297.684
1504.35	307.859
1508.51	310.723
1512.66	313.738
1516.82	183.754
1520.97	218.324
1525.12	226.148
1529.26	13.0938
1533.41	574.199
1537.55	649.43
1541.69	131.988
1545.83	272.184
1549.96	357.32
1554.09	162.363
1558.22	446.453
1562.35	310.793
