Measurement: Raman, 514 nm, ccw, Raman Data Processed
Mineral: Kyanite
Rruff sample: R050450
Ideal chemistry: Al_2_OSiO_4_
Locality: Switzerland
Source: Marcus Origlieri
Description: Blue bladed crystals
Measured chemistry: Al_2.00_OSi_1.00_O_4_
Pin_id: M01855
Orientation: Laser parallel to (1 1 0). Fiducial mark perpendicular to laser is parallel to c [0 0 1]
Raman shift (cm-1)	intensity
148.716	0
153.638	48.4541
158.558	98.4307
163.475	94.5
168.389	242.963
173.3	293.752
178.209	274.661
183.115	137.398
188.018	126.236
192.918	30.6113
197.816	251.827
202.711	587.45
207.604	1832.29
212.494	765.418
217.381	219.959
222.265	480.613
227.147	1619.17
232.026	592.359
236.902	41.4756
241.775	235.234
246.646	621.32
251.514	433.163
256.38	94.834
261.243	60.3301
266.103	121.337
270.96	154.29
275.815	1075.9
280.667	1816.33
285.516	454.042
290.363	2341.48
295.207	6488.73
300.048	15207.1
304.887	15924.7
309.723	2108.1
314.556	921.976
319.387	3632.8
324.215	10497.2
329.04	11414.8
333.862	1524.51
338.682	543.512
343.5	895.064
348.314	422.919
353.126	1639.77
357.935	4374.69
362.742	7014.34
367.546	1926.66
372.347	2940.66
377.145	7336.3
381.941	12831
386.735	23957.5
391.525	16181.1
396.313	11190.5
401.098	8244.22
405.881	16175.1
410.661	4469.89
415.438	637.648
420.213	244.402
424.985	289.594
429.754	2487.22
434.521	8236.29
439.285	16129.8
444.046	8041.68
448.805	6782.97
453.561	3132.66
458.315	980.801
463.065	1927.44
467.813	3151.76
472.559	2636.71
477.302	6509.49
482.042	20724.2
486.78	49793.6
491.515	32442.6
496.247	11058.4
500.977	3697.83
505.704	1698.89
510.428	1278.4
515.15	863.602
519.869	129.145
524.586	0.030273
529.3	135.04
534.011	77.5664
538.719	205.916
543.425	42
548.129	336.094
552.83	5.1709
557.528	424.891
562.223	1671.04
566.916	1583.61
571.607	428.224
576.294	192.736
580.979	180.205
585.662	400.757
590.341	524.256
595.019	430.992
599.693	1095.45
604.365	2546.42
609.035	3331.41
613.701	2513.21
618.366	2813.35
623.027	2811.35
627.686	3173.4
632.342	3912.09
636.996	5737.95
641.647	5055.21
646.296	3823.53
650.942	4386.36
655.585	7045.67
660.226	6265.09
664.864	2865.82
669.499	1827.27
674.132	1232.9
678.763	735.332
683.39	689.117
688.015	577.596
692.638	294.887
697.258	111.639
701.875	674.795
706.49	339.371
711.102	102.182
715.712	202.648
720.319	364.307
724.923	849.336
729.525	514.74
734.124	44.4941
738.721	180.506
743.315	59.3145
747.907	72.5703
752.496	103.519
757.082	78.0215
761.666	144.002
766.247	98.6484
770.826	93.6894
775.402	61.5039
779.975	8.61133
784.546	81.1973
789.115	21.0195
793.681	119.619
798.244	257.342
802.804	119.809
807.363	84.6953
811.918	47.3164
816.471	208.789
821.022	235.978
825.569	266.619
830.115	422.051
834.657	541.82
839.198	511.982
843.735	646.639
848.27	670.15
852.803	959.262
857.333	1211.71
861.86	1784.32
866.385	1730.43
870.907	1716.4
875.427	2202.62
879.944	3548.49
884.459	5636.27
888.971	9336.29
893.481	9048.69
897.988	5854.05
902.492	4557.48
906.994	3334.7
911.493	2546.34
915.99	2420.02
920.485	2607.31
924.976	3260.33
929.466	4744.21
933.952	7362.61
938.436	11044.7
942.918	14653.8
947.397	17297.7
951.874	18184.4
956.348	20764
960.819	25572.3
965.288	22600
969.755	13744.9
974.219	7543.86
978.68	4389.18
983.139	2757.78
987.595	2134.48
992.049	2390.08
996.501	3644.47
1000.95	7020.32
1005.4	5950.43
1009.84	2532.91
1014.28	1421.92
1018.72	845.754
1023.16	691.295
1027.59	531.41
1032.02	491.344
1036.45	141.824
1040.88	171.625
1045.3	89.8281
1049.72	150.053
1054.14	48.7266
1058.56	36.8594
1062.97	76.2598
1067.38	15.7051
1071.79	28.5898
1076.19	363.295
1080.6	348.065
1085	422.324
1089.4	140.859
1093.79	162.113
1098.19	294.885
1102.58	39.582
1106.97	378.322
1111.35	160.826
1115.74	199.932
1120.12	244.66
1124.5	185.022
1128.87	77.0019
1133.25	122.58
1137.62	236.269
1141.99	34.8789
1146.35	123.195
1150.72	119.945
1155.08	142.531
1159.44	87.6582
1163.79	13.9766
1168.15	60.4082
1172.5	92.9844
1176.85	286.631
1181.19	350.609
1185.54	39.2266
1189.88	80.8652
1194.22	107.047
1198.55	292.809
1202.89	230.68
1207.22	180.31
1211.55	241.719
1215.88	128.705
1220.2	138.027
1224.52	281.266
1228.84	297.779
1233.16	413.09
1237.47	514.75
1241.78	618.769
1246.09	761.271
1250.4	493
1254.7	452.129
1259.01	518.586
1263.31	750.836
1267.6	934.59
1271.9	775.676
1276.19	814.854
1280.48	574.717
1284.77	796.428
1289.05	722.434
1293.33	965.519
1297.61	992.18
1301.89	832.146
1306.16	953.74
1310.44	927.682
1314.71	1185.1
1318.97	1058.79
1323.24	1028.31
1327.5	657.74
1331.76	557.414
1336.02	613.014
1340.28	737.576
1344.53	337.652
1348.78	363.502
1353.03	363.514
1357.27	242.131
1361.52	415.904
1365.76	492.631
1370	180.133
1374.23	462.535
1378.47	287.869
1382.7	436.627
1386.93	89.0684
1391.15	128.555
1395.38	250.74
1399.6	24.9395
1403.82	5.16211
1408.03	129.42
1412.25	88.2578
1416.46	408.08
1420.67	80.5293
1424.88	316.344
1429.08	434.365
1433.28	401.66
1437.48	590.043
1441.68	1097.14
1445.87	1469.06
1450.07	1746.86
1454.26	1535.04
1458.44	1639.61
1462.63	1269.99
1466.81	1205.73
1470.99	1029.7
1475.17	486.922
1479.34	771.129
1483.52	614.65
1487.69	411.059
1491.86	265.201
1496.02	261.988
1500.19	245.894
1504.35	34.6816
1508.51	27.3281
1512.66	0.597656
1516.82	223.383
1520.97	262.188
1525.12	227.975
1529.26	286.522
1533.41	95.7832
1537.55	173.883
1541.69	219.857
1545.83	231.385
1549.96	202.133
1554.09	446.637
1558.22	440.289
1562.35	274.086
