Measurement: Raman, 514 nm, ccw, Raman Data Processed
Mineral: Laumontite
Rruff sample: R040020
Ideal chemistry: Ca(Si_4_Al_2_)O_12_4H_2_O
Locality: Pine Creek Tungsten mine, Bishop, Inyo County, California, USA
Source: University of Arizona Mineral Museum
Description: Pale gray long prism coated with smaller crystals
Measured chemistry: (Ca_0.99_K_0.01_)_Σ=1_(Si_4.01_Al_1.99_)O_12_·4H_2_O; H_2_O estimated by difference
Pin_id: L00504
Orientation: Laser parallel to -c [0 0 -1]. Fiducial mark perpendicular to laser is parallel to b* (0 1 0)
Raman shift (cm-1)	intensity
96.813	0
100.975	809.796
105.135	2449.72
109.292	3293.24
113.448	3759.06
117.602	3617.02
121.755	3746.61
125.905	3174.25
130.053	3133.6
134.2	3785.57
138.345	4463.96
142.488	5198.9
146.629	5113.27
150.768	4250.13
154.905	2901.49
159.04	2338.67
163.174	2187.8
167.306	2341.07
171.436	2566.82
175.564	2339.85
179.69	1960.84
183.814	1111.56
187.937	754.244
192.057	555.171
196.176	645.396
200.293	317.33
204.408	390.641
208.521	555.011
212.633	1040.2
216.742	1225.89
220.85	891.529
224.956	316.851
229.06	28.174
233.162	26.44
237.263	519.327
241.361	275.498
245.458	372.153
249.553	339.511
253.646	267.463
257.737	53.671
261.827	79.123
265.914	31.838
270	190.123
274.084	487.489
278.166	895.766
282.246	1496.64
286.325	2026.03
290.402	3022.65
294.477	3759.46
298.55	4496
302.621	5561.56
306.69	7945.95
310.758	10569.3
314.824	11421.7
318.888	9713.25
322.95	8803.99
327.01	11493.9
331.069	11201.3
335.126	6544.66
339.181	3554.13
343.234	2181.4
347.285	1388.1
351.335	1224.53
355.383	1000.65
359.429	776.442
363.473	811.861
367.515	906.887
371.556	1001.5
375.595	1265.68
379.632	2359.42
383.667	3642.72
387.7	3075.59
391.732	1491.79
395.762	731.701
399.79	407.092
403.816	310.346
407.841	117.73
411.864	85.85
415.884	286.301
419.904	83.047
423.921	43.58
427.937	121.971
431.951	13.109
435.963	287.391
439.973	181.148
443.981	174.371
447.988	297.096
451.993	569.195
455.996	950.693
459.998	1361.57
463.998	2101.84
467.996	3261.52
471.992	4110.68
475.986	3199.32
479.979	2817.66
483.97	3835.74
487.959	5943.41
491.946	10570.6
495.932	12457.4
499.916	9273.74
503.898	8969.8
507.878	11635.5
511.857	15620.9
515.834	18485.9
519.809	16120.6
523.782	10975
527.754	6562.7
531.723	4122.99
535.692	2766.47
539.658	1650.18
543.623	1253.19
547.585	898.578
551.547	590.586
555.506	342.455
559.464	563.287
563.42	189.492
567.374	125.922
571.326	217.828
575.277	446.896
579.226	776.461
583.173	1277.05
587.119	1812.06
591.063	2713.95
595.005	3164.22
598.945	2515.6
602.884	1763.14
606.821	1162.91
610.756	929.898
614.689	772.021
618.621	603.637
622.551	575.594
626.479	1119.46
630.406	1246.72
634.331	988.791
638.254	708.766
642.175	573.988
646.095	755.035
650.013	1000.41
653.929	975.043
657.844	881.01
661.757	1021.79
665.668	1024.43
669.577	1685.63
673.485	2214.61
677.391	1964.51
681.296	1132.91
685.198	450.947
689.099	427.764
692.998	354.24
696.896	460.428
700.792	13.16
704.686	352.383
708.578	847.666
712.469	1062.45
716.358	706.91
720.246	520.863
724.131	154.912
728.015	29.818
731.898	174.654
735.778	419.168
739.657	66.535
743.535	82.299
747.41	91.355
751.284	154.592
755.156	197.076
759.027	28.879
762.896	40.184
766.763	281.174
770.628	451.871
774.492	442.289
778.354	92.422
782.215	37.773
786.073	1.59
789.93	350.426
793.786	518.486
797.64	255.697
801.492	47.516
805.342	41.146
809.191	74.818
813.038	100.436
816.884	325.656
820.727	340.564
824.569	65.1
828.41	158.482
832.249	307.346
836.086	257.309
839.921	280.598
843.755	453.258
847.587	365.752
851.418	157.426
855.247	676.096
859.074	948.363
862.899	1030.24
866.723	572.178
870.545	644.076
874.366	375.816
878.185	716.67
882.002	836.002
885.818	506.209
889.632	265.459
893.444	230.125
897.255	407.664
901.064	427.785
904.872	508.912
908.677	164.498
912.482	263.133
916.284	411.721
920.085	271.803
923.884	872.273
927.682	892.67
931.478	1141.39
935.272	715.131
939.065	131.225
942.856	891.713
946.646	1251.87
950.433	1446.19
954.22	1339.87
958.004	604.053
961.787	521.703
965.569	334.297
969.348	652.469
973.126	867.555
976.903	592.764
980.678	430.014
984.451	171.383
988.223	6.412
991.993	444.643
995.761	633.742
999.528	1103.88
1003.29	2084.46
1007.06	1217.58
1010.82	1096.85
1014.58	866.904
1018.34	1271.49
1022.1	1293.08
1025.85	1484.73
1029.6	917.254
1033.36	719.494
1037.11	330.697
1040.86	895.195
1044.6	1111.31
1048.35	892.279
1052.09	1162.85
1055.84	1022.73
1059.58	1025.58
1063.32	1660.43
1067.06	2501.61
1070.79	3581.98
1074.53	5132.32
1078.26	5663.15
1081.99	5033.57
1085.72	4333.97
1089.45	3744.44
1093.18	3515.03
1096.9	3725.85
1100.62	4197
1104.35	4108.25
1108.07	3429.86
1111.79	2671.35
1115.5	1502.98
1119.22	904.734
1122.93	1176.5
1126.64	1238.23
1130.36	1287.79
1134.07	1130.89
1137.77	710.102
1141.48	262.289
1145.18	4.953
1148.89	477.395
1152.59	798.098
1156.29	957.852
1159.99	813.352
1163.68	460.547
1167.38	19.461
1171.07	19.793
1174.77	39.617
1178.45	190.418
1182.14	428.551
1185.83	807.879
1189.52	786.664
1193.2	595.199
1196.88	94.582
1200.57	137.016
1204.24	179.605
1207.92	227.199
1211.6	603.73
1215.28	840.824
1218.95	917
1222.62	774.449
1226.29	840.531
1229.96	296.723
1233.63	402.859
1237.29	388.07
1240.95	759.875
1244.62	1292.68
1248.28	1335.54
1251.94	1488.45
1255.6	801.543
1259.25	1064.9
1262.91	398.469
1266.56	460.758
1270.21	749.207
1273.86	1136.05
1277.51	1155.02
1281.16	948.965
1284.8	1080.22
1288.45	720.137
1292.09	25.754
1295.73	198.156
1299.37	511.527
1303.01	216.945
1306.64	1032.4
1310.28	1508.59
1313.91	1574.67
1317.55	1240.19
1321.17	1304.23
1324.8	837.543
1328.43	250.039
1332.06	312.723
1335.68	240.094
1339.3	683.281
1342.92	1009
1346.54	1436.19
1350.16	1478.57
1353.78	1037.83
1357.39	1037.77
1361.01	586.918
1364.62	131.746
1368.23	544.113
1371.84	573.445
1375.45	529.176
1379.05	1028.68
1382.66	1187.21
