Measurement: Raman, 514 nm, ccw, Raman Data Processed
Mineral: Laumontite
Rruff sample: R040020
Ideal chemistry: Ca(Si_4_Al_2_)O_12_4H_2_O
Locality: Pine Creek Tungsten mine, Bishop, Inyo County, California, USA
Source: University of Arizona Mineral Museum
Description: Pale gray long prism coated with smaller crystals
Measured chemistry: (Ca_0.99_K_0.01_)_Σ=1_(Si_4.01_Al_1.99_)O_12_·4H_2_O; H_2_O estimated by difference
Pin_id: L00070
Orientation: Laser parallel to [-1 0 -1]. Fiducial mark perpendicular to laser is parallel to b* (0 1 0)
Raman shift (cm-1)	intensity
84.318	0
88.485	610.839
92.65	423.348
96.813	880.562
100.975	1777.77
105.135	3147.41
109.292	4426.24
113.448	4898.18
117.602	5678.02
121.755	4679.31
125.905	3690.65
130.053	3197.02
134.2	3614.81
138.345	4374.07
142.488	5139.1
146.629	4882.83
150.768	3612.72
154.905	2484.51
159.04	1920.02
163.174	2197.62
167.306	2558.85
171.436	2803.28
175.564	2536.55
179.69	2100.25
183.814	1434.26
187.937	949.816
192.057	596.661
196.176	804.28
200.293	802.335
204.408	780.518
208.521	678.322
212.633	425.304
216.742	51.327
220.85	43.57
224.956	99.358
229.06	86.009
233.162	243.367
237.263	282.568
241.361	144.022
245.458	210.136
249.553	265.877
253.646	102.392
257.737	88.607
261.827	162.667
265.914	219.023
270	483.461
274.084	551.496
278.166	647.795
282.246	1037.83
286.325	1418.22
290.402	2070
294.477	2578.64
298.55	3315.29
302.621	4649.36
306.69	6851.83
310.758	9352.86
314.824	10632.5
318.888	8999.89
322.95	6853.55
327.01	6753.15
331.069	6338.66
335.126	4210.96
339.181	2561.77
343.234	2082.06
347.285	2311.99
351.335	3101.53
355.383	2100.66
359.429	1459.38
363.473	1077.65
367.515	979.621
371.556	922.889
375.595	789.48
379.632	1000.13
383.667	1133.34
387.7	1107.66
391.732	777.442
395.762	630.706
399.79	895.972
403.816	1253.74
407.841	1752.97
411.864	1849.02
415.884	1708.84
419.904	1016.21
423.921	432.606
427.937	31.565
431.951	121.908
435.963	152.219
439.973	121.859
443.981	88.703
447.988	190.027
451.993	278.212
455.996	395.874
459.998	413.061
463.998	889.812
467.996	1456.66
471.992	1972.82
475.986	1798.76
479.979	2035.9
483.97	3512.65
487.959	6729.21
491.946	13074.7
495.932	14970.2
499.916	9305.84
503.898	6890.67
507.878	7405.33
511.857	9609.83
515.834	11904.2
519.809	10828.4
523.782	7612.41
527.754	4816.32
531.723	2860.11
535.692	1873.71
539.658	1377.54
543.623	881.958
547.585	566.755
551.547	451.872
555.506	325.928
559.464	461.562
563.42	417.874
567.374	405.742
571.326	597.331
575.277	1038.89
579.226	1544.58
583.173	2315.35
587.119	3916.4
591.063	5657.3
595.005	5872.16
598.945	4377.9
602.884	2798.57
606.821	1487.68
610.756	1129.26
614.689	689.916
618.621	349.541
622.551	44.291
626.479	209.781
630.406	339.338
634.331	345.967
638.254	43.619
642.175	28.16
646.095	199.121
650.013	427.746
653.929	326.674
657.844	214.613
661.757	291.842
665.668	678.938
669.577	1225.99
673.485	1712.9
677.391	1590.07
681.296	907.416
685.198	544.1
689.099	515.582
692.998	221.939
696.896	118.061
700.792	44.49
704.686	280.285
708.578	555.877
712.469	551.297
716.358	246.539
720.246	221.945
724.131	18.654
728.015	53.424
731.898	17.092
735.778	170.898
739.657	25.877
743.535	143.148
747.41	139.182
751.284	181.227
755.156	103.217
759.027	24.486
762.896	24.471
766.763	146.131
770.628	176.451
774.492	266.471
778.354	54.26
782.215	34.727
786.073	63.25
789.93	252.455
793.786	247.729
797.64	152.895
801.492	28.492
805.342	153.949
809.191	418.969
813.038	523.408
816.884	528.242
820.727	488.932
824.569	353.291
828.41	167.895
832.249	371.773
836.086	385.414
839.921	148.84
843.755	221.941
847.587	304.67
851.418	126.643
855.247	377.932
859.074	550.074
862.899	521.387
866.723	243.166
870.545	374.92
874.366	386.52
878.185	824.9
882.002	590.211
885.818	161.963
889.632	176.877
893.444	263.23
897.255	452.199
901.064	421.402
904.872	395.363
908.677	176.633
912.482	131.938
916.284	267.418
920.085	236.514
923.884	584.094
927.682	482.539
931.478	600.512
935.272	257.674
939.065	156.092
942.856	467.902
946.646	767.691
950.433	630.008
954.22	405.584
958.004	244.371
961.787	252.605
965.569	481.189
969.348	500.311
973.126	739.342
976.903	588.227
980.678	346.688
984.451	95.486
988.223	145.623
991.993	434
995.761	798.752
999.528	909.344
1003.29	1218.87
1007.06	1228.9
1010.82	1738.11
1014.58	2437.32
1018.34	3396.29
1022.1	3987.61
1025.85	4462.05
1029.6	3241.59
1033.36	1951.67
1037.11	1215.07
1040.86	1212.86
1044.6	1247.9
1048.35	1037.11
1052.09	739.965
1055.84	610.311
1059.58	721.502
1063.32	989.568
1067.06	1269.19
1070.79	1789.19
1074.53	2108.68
1078.26	2018.12
1081.99	1737.7
1085.72	2197.53
1089.45	1517.52
1093.18	1707.58
1096.9	1798.01
1100.62	2609.01
1104.35	2850.43
1108.07	2742.17
1111.79	2023.22
1115.5	1264.28
1119.22	855.586
1122.93	1020.47
1126.64	891.094
1130.36	880.928
1134.07	442.785
1137.77	330.508
1141.48	80.529
1145.18	60.412
1148.89	643.748
1152.59	883.451
1156.29	852.506
1159.99	491.75
1163.68	300.633
1167.38	330.594
1171.07	50.98
1174.77	88.057
1178.45	93.449
1182.14	593.838
1185.83	771.252
1189.52	637.648
1193.2	293.277
1196.88	170.578
1200.57	65.219
1204.24	140.135
1207.92	624.23
1211.6	697.617
1215.28	630.484
1218.95	663.41
1222.62	385.15
1226.29	436.908
1229.96	468.744
1233.63	390.66
1237.29	622.607
1240.95	814.547
1244.62	1156.5
1248.28	978.625
1251.94	950.854
1255.6	429.322
1259.25	528.658
1262.91	337.115
1266.56	407.668
1270.21	828.408
1273.86	876.779
1277.51	767.758
1281.16	472.188
1284.8	514.586
1288.45	319.582
1292.09	180.938
1295.73	333.463
1299.37	548.5
1303.01	492.648
1306.64	1213.02
1310.28	1233.2
1313.91	981.502
1317.55	529.518
1321.17	649.002
1324.8	354.619
1328.43	120.588
1332.06	140.318
1335.68	378.908
1339.3	595.48
1342.92	912.375
1346.54	1001.27
1350.16	765.615
1353.78	292.139
1357.39	284.764
1361.01	100.594
1364.62	3.168
