Measurement: Raman, 514 nm, ccw, Raman Data Processed
Mineral: Laumontite
Rruff sample: R040020
Ideal chemistry: Ca(Si_4_Al_2_)O_12_4H_2_O
Locality: Pine Creek Tungsten mine, Bishop, Inyo County, California, USA
Source: University of Arizona Mineral Museum
Description: Pale gray long prism coated with smaller crystals
Measured chemistry: (Ca_0.99_K_0.01_)_Σ=1_(Si_4.01_Al_1.99_)O_12_·4H_2_O; H_2_O estimated by difference
Pin_id: l00206
Orientation: Laser parallel to b* (0 1 0). Fiducial mark perpendicular to laser is parallel to -c [0 0 -1]
Raman shift (cm-1)	intensity
121.897	0
126.063	186.877
130.228	637.332
134.39	1165.97
138.55	1781.12
142.709	2053.28
146.865	1598.42
151.019	1043.71
155.171	774.916
159.322	760.156
163.47	873.621
167.617	898.285
171.761	1112.35
175.904	1066.07
180.044	720.828
184.183	611.67
188.319	531.406
192.454	710.631
196.586	746.676
200.717	978.816
204.846	881.938
208.972	426.258
213.097	22.107
217.22	159.15
221.341	2.934
225.46	55.525
229.577	4.281
233.692	126.932
237.805	38.461
241.916	79.547
246.025	52.873
250.132	114.236
254.237	50.59
258.34	205.598
262.442	348.914
266.541	320.113
270.639	470.441
274.734	656.938
278.828	988.092
282.919	1197.69
287.009	1887.4
291.097	2617.83
295.183	2910.62
299.266	3161.47
303.348	3821.7
307.428	5041
311.507	5879.28
315.583	5286.33
319.657	4211.89
323.729	4006.01
327.8	3888.98
331.868	2630.87
335.935	1801.42
339.999	1459.92
344.062	1405.9
348.123	1779.31
352.182	1331.65
356.239	1043.06
360.294	804.738
364.347	556.342
368.398	697.855
372.448	948.578
376.495	1323.39
380.54	1919.39
384.584	1861.16
388.626	1054.7
392.666	534.896
396.704	403.344
400.74	329.738
404.774	803.207
408.806	776.867
412.836	706.555
416.865	380.062
420.891	114.355
424.916	190.359
428.939	21.98
432.959	42.111
436.978	17.816
440.996	107.686
445.011	42.613
449.024	56.902
453.036	156.137
457.045	315.027
461.053	453.564
465.059	622.604
469.063	1252.4
473.065	1081.16
477.065	1321.2
481.063	1790.51
485.06	3508.42
489.054	6647.98
493.047	8854.95
497.038	6176.32
501.027	4213.23
505.014	4529.38
508.999	5704.79
512.982	7290.05
516.964	6895.16
520.944	5340.12
524.921	3454.93
528.897	1849.6
532.871	1374.62
536.844	862.055
540.814	688.098
544.783	316.586
548.749	332.537
552.714	188.809
556.677	54.799
560.638	315.365
564.597	110.926
568.555	203.998
572.511	259.002
576.464	585.928
580.416	1357.98
584.366	1862.61
588.315	2717.46
592.261	3070.76
596.206	2473.92
600.148	1703.72
604.089	935.199
608.028	657.926
611.965	364.85
615.901	397.012
619.834	281.391
623.766	76.443
627.696	266.531
631.624	319.658
635.551	53.23
639.475	165.922
643.398	57.881
647.318	279.453
651.237	390.393
655.155	170.996
659.07	401.301
662.984	381.441
666.895	541.359
670.805	861.082
674.713	930.598
678.62	489.879
682.524	278.926
686.427	241.191
690.328	40.305
694.227	109.508
698.124	18.098
702.02	130.113
705.913	77.328
709.805	395.164
713.695	319.352
717.584	355.281
721.47	234.508
725.355	87.164
729.238	38.391
733.119	402.844
736.998	126.719
740.876	9.656
744.752	64.168
748.626	87.137
752.498	169.555
756.368	273.07
760.237	134.492
764.104	14.332
767.969	256.5
771.832	158.305
775.693	238.605
779.553	73.008
783.411	185.465
787.267	323.672
791.122	369.098
794.974	146.078
798.825	295.418
802.674	499.109
806.522	496.418
810.367	658.426
814.211	951.266
818.053	1419.04
821.893	727.711
825.732	587.711
829.568	554.5
833.403	411.109
837.236	287.41
841.068	103.293
844.898	437.789
848.726	220.887
852.552	292.312
856.376	276.066
860.199	349.566
864.02	463.797
867.839	456.945
871.656	136.477
875.472	653.723
879.286	739.613
883.098	281.027
886.909	398.438
890.717	289.117
894.524	67.641
898.33	257.312
902.133	157.469
905.935	33.707
909.735	230.961
913.533	253.199
917.33	163.277
921.124	635.422
924.918	477.875
928.709	470.047
932.499	114.348
936.286	436.273
940.073	858.855
943.857	570.355
947.64	831.871
951.421	734.734
955.2	661.32
958.978	390.145
962.753	203.117
966.527	556.086
970.3	699.02
974.071	161.949
977.84	64.871
981.607	327.812
985.372	211.176
989.136	204.574
992.898	633.891
996.659	773.281
1000.42	595.586
1004.17	614.586
1007.93	856.352
1011.68	1070.16
1015.43	1983.08
1019.18	1937.79
1022.93	2243.59
1026.68	1612.76
1030.42	1365.63
1034.17	882.387
1037.91	1167.75
1041.65	1192.67
1045.39	716.492
1049.12	668.273
1052.86	443.613
1056.59	996.051
1060.33	948.945
1064.06	1381.04
1067.78	1550.15
1071.51	1771.77
1075.23	1877.36
1078.96	1643.34
1082.68	1559.56
1086.4	1916
1090.12	1642.66
1093.83	1821.18
1097.55	1582.28
1101.26	1448.93
1104.97	1746.12
1108.68	1403.39
1112.39	1580.74
1116.1	1008.13
1119.8	825.762
1123.5	1023.72
1127.2	912.012
1130.9	110.492
1134.6	119.141
1138.3	227.961
1141.99	427.355
1145.69	1087.57
1149.38	718.277
1153.07	539.434
1156.76	221.461
1160.44	464.668
1164.13	118.625
1167.81	383.445
1171.49	359.277
1175.17	674.906
1178.85	810.785
1182.52	549.801
1186.2	119.496
1189.87	445.043
1193.54	520.801
1197.21	1094
1200.88	482.375
1204.55	764.953
1208.21	633.523
1211.88	259.957
1215.54	0
