Measurement: Raman, 514 nm, ccw, Raman Data Processed
Mineral: Laumontite
Rruff sample: R040020
Ideal chemistry: Ca(Si_4_Al_2_)O_12_4H_2_O
Locality: Pine Creek Tungsten mine, Bishop, Inyo County, California, USA
Source: University of Arizona Mineral Museum
Description: Pale gray long prism coated with smaller crystals
Measured chemistry: (Ca_0.99_K_0.01_)_Σ=1_(Si_4.01_Al_1.99_)O_12_·4H_2_O; H_2_O estimated by difference
Pin_id: L00070
Orientation: Laser parallel to [-1 0 -1]. Fiducial mark perpendicular to laser is parallel to b* (0 1 0)
Raman shift (cm-1)	intensity
95.426	0
99.588	35.37
103.748	696.9
107.907	1565.6
112.063	2542.85
116.218	3459.39
120.371	3507.62
124.522	3514.18
128.671	3616.57
132.818	3558.07
136.963	3582.13
141.107	3620.6
145.248	3410.74
149.388	3045.22
153.526	3125.53
157.662	3302.6
161.796	3637.03
165.929	4318
170.059	5043.32
174.188	4933.52
178.315	3765.86
182.44	2661.28
186.563	1755.23
190.684	1303.2
194.803	983.553
198.921	1515.09
203.037	1547.42
207.15	1810.33
211.262	2803.65
215.373	3907.23
219.481	3540.7
223.588	1713.77
227.692	666.425
231.795	218.653
235.896	249.553
239.995	358.206
244.093	337.32
248.188	207.011
252.282	233.443
256.374	227.355
260.464	26.211
264.552	70.825
268.638	302.101
272.723	543.914
276.806	905.039
280.887	994.209
284.966	1434.33
289.043	1776.85
293.118	2540.48
297.192	3270.98
301.264	4910.2
305.334	7748.51
309.402	11346
313.469	12492.7
317.533	10468.7
321.596	9244.01
325.657	10498.7
329.716	11762.6
333.774	7704.14
337.829	4282.15
341.883	2467.4
345.935	1761.8
349.985	1035.97
354.034	829.831
358.08	903.349
362.125	696.496
366.168	739.255
370.209	1131.61
374.249	1873.55
378.286	3495.06
382.322	5506.15
386.356	5626.82
390.388	3017.07
394.419	1276.88
398.447	569.531
402.474	421.729
406.499	512.432
410.523	459.279
414.544	286.658
418.564	233.754
422.582	81.406
426.598	5.502
430.613	170.439
434.625	126.684
438.636	44.175
442.646	147.098
446.653	22.467
450.658	137.089
454.662	365.973
458.664	664.28
462.665	842.131
466.663	1500.34
470.66	2087.4
474.655	2233.82
478.648	2352.96
482.64	3119.02
486.629	5805.12
490.617	12050.4
494.603	16435.8
498.588	11460.2
502.571	7784.27
506.552	8407.95
510.531	11001.3
514.508	12964.2
518.484	12746.8
522.458	9199.05
526.43	5770.91
530.4	3532.41
534.369	2103.59
538.336	1494.9
542.301	1206.26
546.265	887.426
550.226	667.168
554.186	544.332
558.145	415.683
562.101	323.995
566.056	309.216
570.009	308.899
573.96	378.293
577.91	630.509
581.858	1205.64
585.804	1755.17
589.748	2554.39
593.691	2861.2
597.632	2502.6
601.571	1741.24
605.508	937.595
609.444	652.046
613.378	439.848
617.311	428.297
621.241	487.047
625.17	184
629.097	316.509
633.023	302.093
636.946	560.962
640.868	420.114
644.789	269.639
648.707	109.566
652.624	351.082
656.539	752.686
660.453	761.326
664.364	998.371
668.274	1715.01
672.183	2351.32
676.089	2667.12
679.994	1793.01
683.898	1068.57
687.799	596.227
691.699	560.428
695.597	264.893
699.493	359.57
703.388	313.09
707.281	356.395
711.172	809.5
715.062	1070.23
718.95	675.088
722.836	406.959
726.721	249.277
730.604	202.029
734.485	294.895
738.364	227.406
742.242	109.871
746.118	157.469
749.993	65.449
753.866	256.926
757.737	289.293
761.606	51.252
765.474	232.766
769.34	164.107
773.204	245.238
777.067	336.064
780.928	25.443
784.787	94.371
788.645	224.633
792.501	118.533
796.355	19.498
800.208	96.666
804.059	56.645
807.908	59.566
811.756	27.186
815.602	353.699
819.446	699.979
823.289	308.41
827.13	174.59
830.969	170.232
834.807	165.74
838.643	351
842.477	516.127
846.31	200.975
850.141	135.119
853.971	278.82
857.798	222.213
861.624	306.533
865.449	560.732
869.272	174.889
873.093	139.115
876.912	76.699
880.73	247.135
884.546	410.547
888.361	351.207
892.174	23.508
895.985	25.27
899.795	226.289
903.603	523.441
907.409	461.348
911.214	252.947
915.017	350.607
918.818	152.812
922.618	265.049
926.416	667.643
930.213	549.818
934.008	752.455
937.801	443.953
941.593	60.113
945.383	187.568
949.171	765.303
952.958	755.078
956.743	669.857
960.526	216.576
964.308	226.857
968.089	126.861
971.867	17.332
975.644	347.928
979.42	298.383
983.193	249.275
986.966	279.865
990.736	30.967
994.505	150.871
998.272	452.68
1002.04	804.703
1005.8	1072.97
1009.57	596.369
1013.33	580.025
1017.09	693.35
1020.84	1135.36
1024.6	1416.68
1028.35	1415.3
1032.11	993.006
1035.86	708.131
1039.61	637.895
1043.36	613.566
1047.1	715.559
1050.85	665.146
1054.59	1039.24
1058.33	871.242
1062.07	983.047
1065.81	1003.25
1069.55	1165.66
1073.28	1787.44
1077.02	2269.15
1080.75	2230.83
1084.48	1912.57
1088.21	1454.61
1091.93	1496.26
1095.66	1368.67
1099.38	1322.96
1103.11	1925.19
1106.83	1967.83
1110.55	1580.24
1114.26	1212.73
1117.98	645.529
1121.69	437.961
1125.41	498.885
1129.12	551.199
1132.83	777.039
1136.54	826.303
1140.24	398.891
1143.95	391.316
1147.65	49.973
1151.36	88.713
1155.06	43.127
1158.76	543.963
1162.45	396.008
1166.15	576.975
1169.84	240.082
1173.53	40.635
1177.22	9.33
1180.91	60.92
1184.6	271.65
1188.29	421.662
1191.97	580.986
1195.66	400.15
1199.34	48.611
1203.02	207.193
1206.7	205.049
1210.37	87.812
1214.05	468.957
1217.72	485.338
1221.4	621.848
1225.07	747.504
1228.74	388.025
1232.4	253.344
1236.07	529.529
1239.73	246.104
1243.4	348.039
1247.06	720.273
1250.72	573.09
1254.38	1105.9
1258.03	908.695
1261.69	491.537
1265.34	664.123
1268.99	234.725
1272.65	617.693
1276.3	516.197
1279.94	1006.52
1283.59	1211.37
1287.23	866.592
1290.88	1068.06
1294.52	635.092
1298.16	167.9
1301.8	431.762
1305.43	106.217
1309.07	462.73
1312.7	708.543
1316.33	1194.16
1319.96	1126.31
1323.59	741.332
1327.22	785.475
1330.85	607.785
1334.47	1020.52
1338.1	228.25
1341.72	214.812
1345.34	170.434
1348.96	383.906
1352.57	858.387
1356.19	959.115
1359.8	833.756
1363.41	787.561
1367.03	483.273
1370.63	42.508
1374.24	233.959
1377.85	141.338
1381.45	437.002
1385.06	1005.67
1388.66	559.166
