Measurement: Raman, 514 nm, ccw, Raman Data Processed
Mineral: Laumontite
Rruff sample: R040020
Ideal chemistry: Ca(Si_4_Al_2_)O_12_4H_2_O
Locality: Pine Creek Tungsten mine, Bishop, Inyo County, California, USA
Source: University of Arizona Mineral Museum
Description: Pale gray long prism coated with smaller crystals
Measured chemistry: (Ca_0.99_K_0.01_)_Σ=1_(Si_4.01_Al_1.99_)O_12_·4H_2_O; H_2_O estimated by difference
Pin_id: L00070
Orientation: Laser parallel to [-1 0 -1]. Fiducial mark perpendicular to laser is parallel to b* (0 1 0)
Raman shift (cm-1)	intensity
53.701	0
57.882	214.462
62.061	76.943
66.238	805.861
70.413	862.293
74.587	690.768
78.758	1832.88
82.928	1823.65
87.096	1058.71
91.262	14.653
95.426	232.249
99.588	1612.38
103.748	3027.88
107.907	4104.5
112.063	5146.43
116.218	6014.67
120.371	5629.9
124.522	4992.54
128.671	4792.93
132.818	4801.37
136.963	5138.44
141.107	5957.77
145.248	6091.1
149.388	5558.71
153.526	4952.43
157.662	4544.15
161.796	3907.61
165.929	4041.34
170.059	4316.22
174.188	4061.43
178.315	3106.55
182.44	2181.36
186.563	1605.71
190.684	1229.51
194.803	1092.74
198.921	1705.44
203.037	1797.62
207.15	1559.3
211.262	1376.98
215.373	1250.85
219.481	978.041
223.588	529.3
227.692	259.093
231.795	16.354
235.896	156.042
239.995	162.785
244.093	36.393
248.188	92.878
252.282	59.557
256.374	217.056
260.464	405.676
264.552	652.305
268.638	928.062
272.723	1117.38
276.806	1120.7
280.887	1110.71
284.966	1131.9
289.043	1531.31
293.118	2196.28
297.192	2840.28
301.264	3841.36
305.334	6141.77
309.402	9150.94
313.469	10758.1
317.533	9583.97
321.596	7669.14
325.657	8054.02
329.716	8708.67
333.774	5753.08
337.829	3237.23
341.883	1871.11
345.935	1484.71
349.985	1238.06
354.034	1141.13
358.08	773.944
362.125	326.497
366.168	238.77
370.209	440.749
374.249	572.415
378.286	923.756
382.322	1714.82
386.356	1884.84
390.388	1138.91
394.419	380.456
398.447	213.897
402.474	322.875
406.499	867.87
410.523	1104.22
414.544	848.848
418.564	478.806
422.582	342.463
426.598	20.758
430.613	223.359
434.625	156.787
438.636	11.05
442.646	4.158
446.653	61.058
450.658	53.329
454.662	157.424
458.664	311.191
462.665	674.7
466.663	1148.49
470.66	1881.6
474.655	1774.61
478.648	1948.05
482.64	2551.53
486.629	4735.52
490.617	10318.6
494.603	14932.4
498.588	10845.4
502.571	7157.73
506.552	7589.85
510.531	10041.8
514.508	12343.5
518.484	12175
522.458	9074.5
526.43	5662.23
530.4	3360.67
534.369	1959.71
538.336	1340.3
542.301	1031.54
546.265	712.192
550.226	422.274
554.186	231.639
558.145	278.816
562.101	257.337
566.056	308.338
570.009	449.978
573.96	565.745
577.91	965.332
581.858	1750.33
585.804	2702.05
589.748	3907.91
593.691	4323.72
597.632	3876.68
601.571	2515.31
605.508	1541.37
609.444	964.052
613.378	652.068
617.311	620.358
621.241	572.627
625.17	295.061
629.097	302.593
633.023	378.476
636.946	426.882
640.868	348.521
644.789	300.63
648.707	20.737
652.624	649.375
656.539	507.353
660.453	514.425
664.364	641.053
668.274	1067.45
672.183	1773.67
676.089	2299.96
679.994	1536.5
683.898	772.846
687.799	612.459
691.699	497.571
695.597	392.45
699.493	427.397
703.388	381.772
707.281	285.905
711.172	629.677
715.062	593.359
718.95	501.976
722.836	300.045
726.721	13.792
730.604	39.127
734.485	31.448
738.364	113.824
742.242	84.738
746.118	94.047
749.993	16.752
753.866	176.906
757.737	478.152
761.606	17.781
765.474	106.848
769.34	425.607
773.204	4.131
777.067	62.314
780.928	99.67
784.787	62.918
788.645	176.008
792.501	160.252
796.355	114.732
800.208	168.727
804.059	192.025
807.908	116.359
811.756	329.951
815.602	593.811
819.446	797.406
823.289	470.777
827.13	314.266
830.969	257.186
834.807	129.875
838.643	292.338
842.477	454.545
846.31	256.475
850.141	208.129
853.971	248.889
857.798	269.857
861.624	501.039
865.449	642.08
869.272	232.994
873.093	203.898
876.912	35.408
880.73	291.695
884.546	379.389
888.361	441.209
892.174	295.799
895.985	0.027
899.795	189.27
903.603	356.857
907.409	573.555
911.214	358.818
915.017	400.062
918.818	152.691
922.618	251.637
926.416	698.117
930.213	475.281
934.008	831.154
937.801	526.186
941.593	210.822
945.383	220.76
949.171	717.607
952.958	712.5
956.743	498.986
960.526	296.256
964.308	14.822
968.089	33.428
971.867	42.223
975.644	230.988
979.42	309.676
983.193	318.025
986.966	456.652
990.736	55.176
994.505	300.385
998.272	809.82
1002.04	1302.96
1005.8	1592.67
1009.57	1203.17
1013.33	1562.71
1017.09	1892.86
1020.84	2484.28
1024.6	2969.54
1028.35	2807.06
1032.11	1881.14
1035.86	1253.81
1039.61	687.646
1043.36	768.445
1047.1	838.891
1050.85	794.932
1054.59	1109.83
1058.33	850.281
1062.07	999.797
1065.81	1000.83
1069.55	1151.58
1073.28	1771.96
1077.02	2221.98
1080.75	2261.99
1084.48	2122.01
1088.21	1762.86
1091.93	1723.1
1095.66	1663.65
1099.38	1454.56
1103.11	2325.32
1106.83	2597.17
1110.55	2348.41
1114.26	1839.04
1117.98	1580.34
1121.69	651.057
1125.41	391.789
1129.12	522.273
1132.83	790.17
1136.54	832.053
1140.24	352.332
1143.95	272.49
1147.65	63.752
1151.36	6.822
1155.06	26.779
1158.76	356.018
1162.45	295.174
1166.15	554.26
1169.84	215.562
1173.53	34.23
1177.22	57.24
1180.91	28.838
1184.6	141.477
1188.29	260.17
1191.97	398.141
1195.66	375.678
1199.34	6.58
1203.02	310.301
1206.7	27.254
1210.37	53.129
1214.05	228.701
1217.72	264.016
1221.4	449.662
1225.07	554.301
1228.74	399.125
1232.4	104.795
1236.07	352.945
1239.73	246.658
1243.4	339.246
1247.06	421.676
1250.72	599.879
1254.38	860.73
1258.03	661.539
1261.69	522.305
1265.34	423.012
1268.99	332.02
1272.65	285.77
1276.3	563.203
1279.94	780.891
1283.59	1132.54
1287.23	851.338
1290.88	1021.57
1294.52	654.629
1298.16	145.633
1301.8	462.949
1305.43	395.619
1309.07	318.691
1312.7	503.09
1316.33	975.973
1319.96	979.656
1323.59	1102.67
1327.22	832.318
1330.85	523.518
1334.47	514.762
1338.1	247.484
1341.72	97.58
1345.34	227.1
1348.96	349.998
1352.57	536.92
1356.19	783.684
1359.8	806.508
1363.41	577.973
1367.03	560.836
1370.63	115.484
1374.24	7.658
1377.85	32.893
1381.45	350.996
1385.06	753.793
1388.66	710.074
1392.26	862.971
