Measurement: Raman, 514 nm, ccw, Raman Data Processed
Mineral: Laumontite
Rruff sample: R040020
Ideal chemistry: Ca(Si_4_Al_2_)O_12_4H_2_O
Locality: Pine Creek Tungsten mine, Bishop, Inyo County, California, USA
Source: University of Arizona Mineral Museum
Description: Pale gray long prism coated with smaller crystals
Measured chemistry: (Ca_0.99_K_0.01_)_Σ=1_(Si_4.01_Al_1.99_)O_12_·4H_2_O; H_2_O estimated by difference
Pin_id: l00206
Orientation: Laser parallel to b* (0 1 0). Fiducial mark perpendicular to laser is parallel to -c [0 0 -1]
Raman shift (cm-1)	intensity
121.897	0
126.063	175.035
130.228	654.765
134.39	1718.09
138.55	2408.13
142.709	2909.06
146.865	2577.24
151.019	1964.6
155.171	1340.79
159.322	1264
163.47	1376.53
167.617	1298.22
171.761	1329.6
175.904	1289.64
180.044	934.684
184.183	432.428
188.319	256.451
192.454	494.789
196.586	285.809
200.717	226.637
204.846	269.117
208.972	142.012
213.097	5.535
217.22	39.664
221.341	5.732
225.46	40.822
229.577	75.744
233.692	50.67
237.805	134.215
241.916	58.799
246.025	96.92
250.132	57.053
254.237	19.34
258.34	203.121
262.442	2.707
266.541	167.871
270.639	228.537
274.734	369.088
278.828	586.223
282.919	686.068
287.009	822.617
291.097	1280.08
295.183	1389.52
299.266	2049.52
303.348	2519.82
307.428	3550
311.507	4195.66
315.583	4119.12
319.657	3987.67
323.729	4985.44
327.8	5352.54
331.868	3769.05
335.935	2154.95
339.999	1409.09
344.062	942.174
348.123	1023.94
352.182	604.824
356.239	554.896
360.294	694.91
364.347	634.828
368.398	584.613
372.448	634.24
376.495	902.023
380.54	1230.87
384.584	997.189
388.626	565.789
392.666	365.25
396.704	212.508
400.74	266.441
404.774	463.484
408.806	327.332
412.836	558.596
416.865	164.891
420.891	34.021
424.916	141.268
428.939	85.309
432.959	162.539
436.978	209.379
440.996	55.598
445.011	81.471
449.024	77.09
453.036	282.436
457.045	387.715
461.053	813.484
465.059	1062.57
469.063	1448.75
473.065	1307.09
477.065	948.949
481.063	1154.49
485.06	1798.76
489.054	2663.72
493.047	3787.71
497.038	3361.01
501.027	3214.39
505.014	4217.23
508.999	5718.98
512.982	7250.48
516.964	7231.76
520.944	5542.84
524.921	3254.22
528.897	1866.01
532.871	1478.51
536.844	971.178
540.814	533.709
544.783	355.039
548.749	465.24
552.714	265.23
556.677	123.738
560.638	193.656
564.597	33.539
568.555	384.754
572.511	445.779
576.464	371.779
580.416	596.883
584.366	1057.36
588.315	1779.88
592.261	1916.82
596.206	1355.28
600.148	1209.74
604.089	656.852
608.028	600.162
611.965	407.104
615.901	153.674
619.834	149.311
623.766	323.654
627.696	410.543
631.624	156.477
635.551	1.965
639.475	177.873
643.398	287.881
647.318	498.723
651.237	332.795
655.155	157.143
659.07	280.193
662.984	422.857
666.895	605.031
670.805	516.965
674.713	448.635
678.62	258.795
682.524	440.932
686.427	382.627
690.328	54.248
694.227	15.141
698.124	188.775
702.02	393.916
705.913	477.018
709.805	504.545
713.695	121.045
717.584	457.621
721.47	93.027
725.355	299.977
729.238	41.941
733.119	384.766
736.998	58.871
740.876	136.68
744.752	511.637
748.626	416.68
752.498	119.711
756.368	244.262
760.237	167.77
764.104	371.098
767.969	304.266
771.832	197.277
775.693	71.641
779.553	156.699
783.411	336.598
787.267	267.895
791.122	193.926
794.974	46.426
798.825	32.875
802.674	600.629
806.522	658.52
810.367	395.836
814.211	254.066
818.053	771.992
821.893	490.02
825.732	564.48
829.568	528.266
833.403	55.031
837.236	81.727
841.068	107.168
844.898	380.133
848.726	233.215
852.552	263.617
856.376	57.824
860.199	376.945
864.02	311.832
867.839	555.59
871.656	170.035
875.472	643.176
879.286	676.602
883.098	3.73
886.909	175.578
890.717	687.074
894.524	425.422
898.33	207.684
902.133	156.73
905.935	8.359
909.735	180.145
913.533	471.211
917.33	253.094
921.124	515.473
924.918	127.59
928.709	273.336
932.499	405.07
936.286	726.938
940.073	1018.44
943.857	1039.9
947.64	1276.32
951.421	1086.52
955.2	602.871
958.978	774.414
962.753	565.297
966.527	446.965
970.3	558.98
974.071	149.176
977.84	32.438
981.607	223.941
985.372	476.668
989.136	217.223
992.898	388.605
996.659	350.344
1000.42	520.891
1004.17	456.578
1007.93	964.344
1011.68	1201.17
1015.43	1653.09
1019.18	1607.18
1022.93	2039.7
1026.68	1491.96
1030.42	1474.48
1034.17	883.164
1037.91	1066.97
1041.65	1081.39
1045.39	414.684
1049.12	622.57
1052.86	598.059
1056.59	1180.66
1060.33	1294.12
1064.06	1367.71
1067.78	1391.13
1071.51	1814.65
1075.23	1806.44
1078.96	1910.57
1082.68	1793.61
1086.4	2255.69
1090.12	1977.4
1093.83	1850.03
1097.55	1691.54
1101.26	1563.2
1104.97	1805.18
1108.68	1917.74
1112.39	1724.32
1116.1	1214.32
1119.8	940.344
1123.5	583.961
1127.2	342.215
1130.9	2.809
1134.6	352.383
1138.3	337.949
1141.99	413.801
1145.69	1129.59
1149.38	245.387
1153.07	161.473
1156.76	157.43
1160.44	473.23
1164.13	49.223
1167.81	545.367
1171.49	351.695
1175.17	518.242
1178.85	255.043
1182.52	32.203
1186.2	160.227
1189.87	207.805
1193.54	766.184
1197.21	1205.81
1200.88	624.168
1204.55	603.516
1208.21	423.234
1211.88	464.512
1215.54	289.766
1219.2	342.496
1222.86	1054.71
1226.51	1305.27
1230.17	1089.81
1233.82	738.105
1237.47	1197.82
1241.12	712.488
1244.77	221.988
1248.42	162.84
1252.06	548.645
1255.71	987.879
1259.35	1088.98
1262.99	264.156
1266.63	0
