Measurement: Raman, 514 nm, ccw, Raman Data Processed
Mineral: Laumontite
Rruff sample: R040020
Ideal chemistry: Ca(Si_4_Al_2_)O_12_4H_2_O
Locality: Pine Creek Tungsten mine, Bishop, Inyo County, California, USA
Source: University of Arizona Mineral Museum
Description: Pale gray long prism coated with smaller crystals
Measured chemistry: (Ca_0.99_K_0.01_)_Σ=1_(Si_4.01_Al_1.99_)O_12_·4H_2_O; H_2_O estimated by difference
Pin_id: L00252
Orientation: Laser parallel to a [1 0 0]. Fiducial mark perpendicular to laser is parallel to b* (0 1 0)
Raman shift (cm-1)	intensity
130.053	0
134.2	1341.56
138.345	5126.9
142.488	8755.59
146.629	8895.79
150.768	6046.35
154.905	3072.49
159.04	2111.83
163.174	2520.42
167.306	3417.08
171.436	3931.16
175.564	3975.09
179.69	3098.65
183.814	1804.72
187.937	1217
192.057	1023.04
196.176	851.417
200.293	760.631
204.408	763.841
208.521	449.711
212.633	149.388
216.742	34.7861
220.85	85.4863
224.956	199.903
229.06	279.087
233.162	235.445
237.263	370.877
241.361	257.288
245.458	216.926
249.553	120.475
253.646	102.071
257.737	199.394
261.827	409.714
265.914	612.247
270	817.025
274.084	896.653
278.166	857.673
282.246	1381.24
286.325	1906.33
290.402	2667.44
294.477	3844
298.55	6085.6
302.621	9420.14
306.69	14550.2
310.758	19362.8
314.824	20526.3
318.888	18050.5
322.95	18944.2
327.01	24706
331.069	22717.1
335.126	13109
339.181	7390.83
343.234	4951.05
347.285	4209.42
351.335	3937.95
355.383	2900.19
359.429	2443.53
363.473	2297.26
367.515	2241.18
371.556	2219.02
375.595	2643.45
379.632	3783.22
383.667	3995.65
387.7	2465.13
391.732	1395.32
395.762	1311.71
399.79	1474.95
403.816	2116.21
407.841	3026.45
411.864	3286.84
415.884	2205.95
419.904	669.67
423.921	128.735
427.937	139.135
431.951	62.4219
435.963	2.8457
439.973	37.876
443.981	173.201
447.988	444.129
451.993	626.371
455.996	1078.77
459.998	1650.13
463.998	3130.16
467.996	4728.96
471.992	5206.48
475.986	3652.89
479.979	3228.17
483.97	4892.73
487.959	9346.55
491.946	17109.6
495.932	18002
499.916	13263.9
503.898	14055.4
507.878	19546.5
511.857	28247.7
515.834	33109
519.809	27560.6
523.782	17482.6
527.754	10345
531.723	6497.9
535.692	4361.36
539.658	2875.97
543.623	1781.07
547.585	1217.44
551.547	935.347
555.506	714.629
559.464	665.619
563.42	408.32
567.374	622.606
571.326	1000.74
575.277	1607.95
579.226	2470.61
583.173	4572.81
587.119	7565.39
591.063	10520.9
595.005	10331.8
598.945	7183.47
602.884	4525.72
606.821	2852.77
610.756	2076.66
614.689	1258.73
618.621	791.273
622.551	592.862
626.479	849.609
630.406	725.079
634.331	399.106
638.254	196.165
642.175	273.669
646.095	510.365
650.013	612.173
653.929	511.603
657.844	410.343
661.757	1019.1
665.668	1547.87
669.577	2436.66
673.485	2835.46
677.391	2444.63
681.296	1385.12
685.198	624.894
689.099	492.667
692.998	112.244
696.896	211.185
700.792	419.926
704.686	868.391
708.578	1536.66
712.469	1817.48
716.358	1063.14
720.246	540.88
724.131	218.614
728.015	93.7939
731.898	247.124
735.778	0.698242
739.657	54.5859
743.535	160.253
747.41	184.724
751.284	19.0684
755.156	167.174
759.027	199.891
762.896	101.936
766.763	16.8867
770.628	37.1719
774.492	116.61
778.354	137.706
782.215	30.2793
786.073	2.40918
789.93	164.193
793.786	50.0303
797.64	35.1582
801.492	28.9668
805.342	452.636
809.191	595.934
813.038	698.872
816.884	851.461
820.727	583.696
824.569	595.582
828.41	307.115
832.249	258.292
836.086	109.074
839.921	10.5352
843.755	149.289
847.587	198.428
851.418	297.476
855.247	326.176
859.074	444.531
862.899	342.547
866.723	260.26
870.545	417.743
874.366	304.987
878.185	521.819
882.002	399.761
885.818	76.0625
889.632	140.715
893.444	475.766
897.255	439.905
901.064	164.061
904.872	256.144
908.677	61.8184
912.482	252.744
916.284	461.139
920.085	506.451
923.884	816.205
927.682	611.649
931.478	841.352
935.272	596.898
939.065	782.225
942.856	1833.6
946.646	2957.86
950.433	3308.27
954.22	1967.15
958.004	909.607
961.787	652.146
965.569	625.334
969.348	488.461
973.126	591.537
976.903	334.559
980.678	287.522
984.451	309.935
988.223	470.512
991.993	838.729
995.761	1006.42
999.528	1348.71
1003.29	1891.74
1007.06	2445
1010.82	3608.33
1014.58	5671.73
1018.34	7658.86
1022.1	10042.5
1025.85	11499.7
1029.6	7844.81
1033.36	4472.84
1037.11	2738.23
1040.86	2112.8
1044.6	1796.77
1048.35	1103.55
1052.09	1066.5
1055.84	871.678
1059.58	1384.29
1063.32	2199.4
1067.06	3005.03
1070.79	4490.79
1074.53	6215.85
1078.26	6611.62
1081.99	5767.76
1085.72	5174.25
1089.45	4710.89
1093.18	4817.36
1096.9	5274.91
1100.62	6322.51
1104.35	8050.08
1108.07	7917.74
1111.79	5706.72
1115.5	3594.6
1119.22	2472.57
1122.93	1820.51
1126.64	1188.17
1130.36	735.447
1134.07	713.801
1137.77	325.041
1141.48	402.315
1145.18	469.148
1148.89	721.275
1152.59	572.398
1156.29	549.268
1159.99	66.0879
1163.68	66.2188
1167.38	169.461
1171.07	93.0234
1174.77	342.981
1178.45	138.793
1182.14	464.418
1185.83	409.385
1189.52	123.455
1193.2	32.5371
1196.88	128.734
1200.57	159.781
1204.24	202.748
1207.92	385.121
1211.6	537.102
1215.28	268.67
1218.95	348.822
1222.62	97.1231
1226.29	186.779
1229.96	376.574
1233.63	636.481
1237.29	646.471
1240.95	786.516
1244.62	796.607
1248.28	396.764
1251.94	447.004
1255.6	97.2207
1259.25	527.287
1262.91	506.535
1266.56	739.562
1270.21	753.951
1273.86	781.357
1277.51	420.49
1281.16	331.57
1284.8	83.3809
1288.45	170.307
1292.09	198.582
1295.73	292.525
1299.37	624.873
1303.01	655.244
1306.64	814.9
1310.28	953.775
1313.91	528.559
1317.55	324.478
1321.17	440.758
1324.8	225.764
1328.43	427.906
1332.06	336.065
1335.68	597.803
1339.3	679.18
1342.92	520.521
1346.54	489.359
1350.16	598.551
1353.78	122.928
1357.39	1.00391
1361.01	8.26758
1364.62	47.3496
