Measurement: Raman, 514 nm, ccw, Raman Data Processed
Mineral: Laumontite
Rruff sample: R040020
Ideal chemistry: Ca(Si_4_Al_2_)O_12_4H_2_O
Locality: Pine Creek Tungsten mine, Bishop, Inyo County, California, USA
Source: University of Arizona Mineral Museum
Description: Pale gray long prism coated with smaller crystals
Measured chemistry: (Ca_0.99_K_0.01_)_Σ=1_(Si_4.01_Al_1.99_)O_12_·4H_2_O; H_2_O estimated by difference
Pin_id: L00252
Orientation: Laser parallel to a [1 0 0]. Fiducial mark perpendicular to laser is parallel to b* (0 1 0)
Raman shift (cm-1)	intensity
128.671	0
132.818	626.287
136.963	3118.55
141.107	6003.83
145.248	6984.95
149.388	5539.82
153.526	3759.79
157.662	2564.88
161.796	2244.16
165.929	2982.29
170.059	3807.47
174.188	3366.29
178.315	2461.22
182.44	1829.91
186.563	1354.58
190.684	1111.04
194.803	1148.51
198.921	1718.76
203.037	1599.57
207.15	1244.41
211.262	999.88
215.373	869.111
219.481	385.601
223.588	57.7158
227.692	186.258
231.795	277.966
235.896	368.597
239.995	399.494
244.093	152.45
248.188	147.815
252.282	105.33
256.374	224.75
260.464	591.102
264.552	803.333
268.638	1104.68
272.723	1340.5
276.806	1017.58
280.887	831.812
284.966	1121.56
289.043	1555.87
293.118	2478.97
297.192	3697.75
301.264	5799.31
305.334	9318.4
309.402	13683
313.469	15211.9
317.533	13835
321.596	13231.3
325.657	16769.5
329.716	17710.6
333.774	11416
337.829	6586.02
341.883	3919.31
345.935	3001.83
349.985	2710.05
354.034	2294.06
358.08	1804.55
362.125	1534.67
366.168	1502.94
370.209	1744.57
374.249	2182.3
378.286	2847.18
382.322	3904.34
386.356	3171.24
390.388	1629.32
394.419	849.201
398.447	811.895
402.474	1386.83
406.499	2118.85
410.523	2428.74
414.544	1702.46
418.564	825.707
422.582	251.957
426.598	6.0459
430.613	117.949
434.625	116.661
438.636	47.7012
442.646	109.597
446.653	79.2422
450.658	404.068
454.662	649.735
458.664	1004.56
462.665	1528.37
466.663	2741.22
470.66	3773.23
474.655	2764.46
478.648	2325.05
482.64	2845.01
486.629	5604.46
490.617	11923.4
494.603	15861.8
498.588	11139.6
502.571	9356.9
506.552	12363.9
510.531	18190.7
514.508	22647.6
518.484	21224.6
522.458	14891.7
526.43	8918.9
530.4	5266.25
534.369	3083.82
538.336	2161.58
542.301	1499.51
546.265	1098.54
550.226	587.775
554.186	267.156
558.145	307.946
562.101	161.662
566.056	166.773
570.009	395.457
573.96	893.648
577.91	1506.78
581.858	2763.99
585.804	4382.95
589.748	6856.24
593.691	7670.81
597.632	6415.77
601.571	4037.41
605.508	2226.62
609.444	1332.29
613.378	919.74
617.311	914.76
621.241	623.661
625.17	358.84
629.097	526.653
633.023	467.06
636.946	401.716
640.868	258.498
644.789	267.262
648.707	137.292
652.624	436.392
656.539	445.977
660.453	614.1
664.364	872.171
668.274	1730.19
672.183	2398.67
676.089	2497.41
679.994	1470.46
683.898	600.179
687.799	549.819
691.699	337.84
695.597	266.017
699.493	194.731
703.388	392.012
707.281	629.168
711.172	1246.14
715.062	1092.95
718.95	579.69
722.836	16.668
726.721	64.3721
730.604	101.042
734.485	106.781
738.364	5.26953
742.242	9.1084
746.118	6.97852
749.993	56.3281
753.866	89.3408
757.737	2.15625
761.606	46.0098
765.474	94.7549
769.34	5.94141
773.204	16.2178
777.067	14.081
780.928	55.0879
784.787	116.911
788.645	219.458
792.501	76.9639
796.355	122.658
800.208	47.5654
804.059	71.8828
807.908	106.002
811.756	419.781
815.602	703.24
819.446	726.391
823.289	369.231
827.13	191.75
830.969	273.94
834.807	315.766
838.643	237.166
842.477	388.199
846.31	88.8418
850.141	99.1465
853.971	329.135
857.798	238.312
861.624	407.787
865.449	407.006
869.272	216.084
873.093	105.064
876.912	112.902
880.73	259.301
884.546	456.791
888.361	219.555
892.174	93.6856
895.985	112.207
899.795	383.018
903.603	519.438
907.409	526.357
911.214	123.875
915.017	423.336
918.818	417.914
922.618	701.432
926.416	1291.83
930.213	1076.04
934.008	922.961
937.801	635.561
941.593	622.848
945.383	1397.83
949.171	2525.14
952.958	1969.69
956.743	963.527
960.526	498.08
964.308	162.586
968.089	207.74
971.867	302.842
975.644	457.889
979.42	402.051
983.193	256.465
986.966	436.24
990.736	239.277
994.505	702.455
998.272	1256.35
1002.04	2021.17
1005.8	2206.38
1009.57	2322.54
1013.33	3387.9
1017.09	4810.45
1020.84	7156.41
1024.6	9163.8
1028.35	7733.18
1032.11	4308.72
1035.86	2374.75
1039.61	1539.84
1043.36	1334.1
1047.1	1203.84
1050.85	1355.71
1054.59	1272.39
1058.33	988.916
1062.07	1354.91
1065.81	1695.23
1069.55	2611.99
1073.28	4158.16
1077.02	5094.64
1080.75	4741.04
1084.48	3977.73
1088.21	3235.18
1091.93	3422.47
1095.66	3750.15
1099.38	4288.63
1103.11	5847.09
1106.83	6755.48
1110.55	4914.45
1114.26	3123.01
1117.98	1741.77
1121.69	1220.34
1125.41	1068.45
1129.12	846.379
1132.83	1032
1136.54	910.67
1140.24	357.76
1143.95	165.193
1147.65	109.334
1151.36	126.223
1155.06	173.947
1158.76	440.781
1162.45	527.566
1166.15	334.262
1169.84	100.875
1173.53	63.0137
1177.22	167.059
1180.91	48.1934
1184.6	433.035
1188.29	387.305
1191.97	471.254
1195.66	234.957
1199.34	128.055
1203.02	65.1973
1206.7	77.9961
1210.37	121.504
1214.05	605.256
1217.72	596.678
1221.4	546.551
1225.07	392.527
1228.74	362.35
1232.4	152.268
1236.07	272.256
1239.73	272.277
1243.4	662.328
1247.06	852.408
1250.72	712.551
1254.38	1062.35
1258.03	692.021
1261.69	279.865
1265.34	417.244
1268.99	494.838
1272.65	600.867
1276.3	647.111
1279.94	1085.69
1283.59	962.422
1287.23	845.682
1290.88	810.152
1294.52	462.162
1298.16	84.6348
1301.8	395.875
1305.43	446.914
1309.07	535.064
1312.7	821.85
1316.33	1257.65
1319.96	933.977
1323.59	756.439
1327.22	575.693
1330.85	462.768
1334.47	291.893
1338.1	241.769
1341.72	347.072
1345.34	460.582
1348.96	698.246
1352.57	752.268
1356.19	793.508
1359.8	611.729
1363.41	419.051
1367.03	0
