Measurement: Raman, 514 nm, ccw, Raman Data Processed
Mineral: Laumontite
Rruff sample: R040020
Ideal chemistry: Ca(Si_4_Al_2_)O_12_4H_2_O
Locality: Pine Creek Tungsten mine, Bishop, Inyo County, California, USA
Source: University of Arizona Mineral Museum
Description: Pale gray long prism coated with smaller crystals
Measured chemistry: (Ca_0.99_K_0.01_)_Σ=1_(Si_4.01_Al_1.99_)O_12_·4H_2_O; H_2_O estimated by difference
Pin_id: L00504
Orientation: Laser parallel to -c [0 0 -1]. Fiducial mark perpendicular to laser is parallel to b* (0 1 0)
Raman shift (cm-1)	intensity
113.448	0
117.602	294.416
121.755	1024.58
125.905	1521.19
130.053	1736.55
134.2	1986.08
138.345	1982.65
142.488	1516.6
146.629	1193.07
150.768	1482.1
154.905	2019.46
159.04	2706.25
163.174	4205.8
167.306	5580.02
171.436	5750.15
175.564	5021.06
179.69	4137.1
183.814	2791.91
187.937	1716.86
192.057	1216.95
196.176	1562.86
200.293	1352.49
204.408	1513.9
208.521	2576.33
212.633	4849.48
216.742	5903.19
220.85	4237.23
224.956	2081.43
229.06	855.625
233.162	99.457
237.263	347.32
241.361	84.707
245.458	272.693
249.553	401.273
253.646	180.443
257.737	40.244
261.827	31.895
265.914	59.969
270	344.953
274.084	830.477
278.166	844.812
282.246	1421
286.325	2093.71
290.402	3010.64
294.477	3549.87
298.55	4811.04
302.621	7780.1
306.69	12519.1
310.758	16717.8
314.824	16475.5
318.888	12822.2
322.95	11467.9
327.01	14592.7
331.069	14216.8
335.126	8350.11
339.181	4532.44
343.234	2621.9
347.285	1617.94
351.335	1681.75
355.383	1314.86
359.429	947.705
363.473	1120.22
367.515	1422.37
371.556	1874.12
375.595	2945.47
379.632	5706.4
383.667	9306.9
387.7	7317.09
391.732	3136.89
395.762	1316.66
399.79	841.885
403.816	496.117
407.841	319.334
411.864	151.707
415.884	484.521
419.904	252.822
423.921	3.773
427.937	287.311
431.951	102.664
435.963	50.631
439.973	102.182
443.981	57.057
447.988	112.898
451.993	492.082
455.996	700.609
459.998	718.551
463.998	1275.94
467.996	2113.89
471.992	3190.22
475.986	2586.04
479.979	3082.2
483.97	5417.81
487.959	10703.8
491.946	20308.6
495.932	22023
499.916	13157
503.898	10280.6
507.878	11663.8
511.857	14326.6
515.834	16849.1
519.809	14781.3
523.782	10113.3
527.754	6294.85
531.723	3836.1
535.692	2546.99
539.658	1868.15
543.623	1489.67
547.585	891.902
551.547	691.613
555.506	570.762
559.464	789.605
563.42	547.791
567.374	373.926
571.326	490.408
575.277	940.873
579.226	1177.1
583.173	1691.92
587.119	2456.74
591.063	3631.46
595.005	3829.7
598.945	2893
602.884	1751.97
606.821	929.463
610.756	1010.82
614.689	837.771
618.621	433.232
622.551	30.842
626.479	689.693
630.406	818.965
634.331	671.289
638.254	508.9
642.175	200.391
646.095	609.791
650.013	1186.88
653.929	1214.74
657.844	978.648
661.757	1335.21
665.668	1801.64
669.577	2888.14
673.485	3973.73
677.391	3380.36
681.296	1775.9
685.198	1020.99
689.099	875.729
692.998	479.641
696.896	163.344
700.792	163.184
704.686	300.039
708.578	1042.8
712.469	1414.94
716.358	956.629
720.246	568.377
724.131	281.176
728.015	323.691
731.898	256.381
735.778	627.994
739.657	90.662
743.535	207.805
747.41	443.58
751.284	505.043
755.156	216.84
759.027	7.988
762.896	8.979
766.763	349.895
770.628	731.055
774.492	651.717
778.354	71.113
782.215	21.422
786.073	11.525
789.93	495.885
793.786	708.354
797.64	465.453
801.492	152.75
805.342	59.844
809.191	326.75
813.038	293.418
816.884	419.777
820.727	130.637
824.569	126.645
828.41	167.129
832.249	348.27
836.086	433.535
839.921	158.684
843.755	323.688
847.587	488.594
851.418	332.047
855.247	703.941
859.074	1048.58
862.899	1073.21
866.723	457.875
870.545	492.938
874.366	478.277
878.185	1133.44
882.002	1058.82
885.818	263.449
889.632	1.625
893.444	361.184
897.255	601.676
901.064	569.039
904.872	690.152
908.677	224.742
912.482	198.645
916.284	322.293
920.085	517.383
923.884	1142.11
927.682	677.027
931.478	1070.91
935.272	283.988
939.065	93.492
942.856	956.934
946.646	960.535
950.433	729.98
954.22	530.66
958.004	153.629
961.787	256.922
965.569	502.957
969.348	756.117
973.126	1398.5
976.903	771.23
980.678	333.641
984.451	177.781
988.223	124.297
991.993	417.41
995.761	1021.89
999.528	1229.74
1003.29	1767.98
1007.06	743.625
1010.82	639.285
1014.58	725.34
1018.34	1500.18
1022.1	1162.24
1025.85	1445.67
1029.6	754.992
1033.36	645.816
1037.11	450.059
1040.86	1136.45
1044.6	1567.53
1048.35	1122
1052.09	1237.25
1055.84	591.879
1059.58	767.375
1063.32	1408.37
1067.06	1722.71
1070.79	2346.91
1074.53	3000.6
1078.26	2814.48
1081.99	1948.21
1085.72	1371.81
1089.45	1521.59
1093.18	1614.56
1096.9	1914.59
1100.62	2429.25
1104.35	2323.97
1108.07	1768.96
1111.79	1433.66
1115.5	668.402
1119.22	523.055
1122.93	1143.11
1126.64	1297.11
1130.36	1279.85
1134.07	1083.66
1137.77	667.352
1141.48	290.699
1145.18	33.332
1148.89	847.109
1152.59	1458.35
1156.29	1369.03
1159.99	901.574
1163.68	282.145
1167.38	677.836
1171.07	218.555
1174.77	40.113
1178.45	101.531
1182.14	616.352
1185.83	1323.82
1189.52	1060.4
1193.2	815.324
1196.88	223.617
1200.57	377.613
1204.24	181.168
1207.92	874.664
1211.6	1057.2
1215.28	1399.98
1218.95	1031.18
1222.62	1082.22
1226.29	952.781
1229.96	923.945
1233.63	771.137
1237.29	744.688
1240.95	1348.26
1244.62	1971.71
1248.28	1465.05
1251.94	1488.32
1255.6	761.109
1259.25	909.496
1262.91	606.609
1266.56	458.301
1270.21	1305.04
1273.86	1403.53
1277.51	1504.34
1281.16	1057.36
1284.8	1069.08
1288.45	779.156
1292.09	282.152
1295.73	317.672
1299.37	818.527
1303.01	659.242
1306.64	1529.48
1310.28	2098.16
1313.91	1604.94
1317.55	1248.95
1321.17	1401.67
1324.8	793.477
1328.43	247.996
1332.06	173.602
1335.68	565.359
1339.3	1061.67
1342.92	1185.73
1346.54	1624.16
1350.16	1468.56
1353.78	716.551
1357.39	693.496
1361.01	431.805
1364.62	43.672
1368.23	85.105
1371.84	457.578
1375.45	0
