Measurement: Raman, 514 nm, ccw, Raman Data Processed
Mineral: Laumontite
Rruff sample: R040020
Ideal chemistry: Ca(Si_4_Al_2_)O_12_4H_2_O
Locality: Pine Creek Tungsten mine, Bishop, Inyo County, California, USA
Source: University of Arizona Mineral Museum
Description: Pale gray long prism coated with smaller crystals
Measured chemistry: (Ca_0.99_K_0.01_)_Σ=1_(Si_4.01_Al_1.99_)O_12_·4H_2_O; H_2_O estimated by difference
Pin_id: l00206
Orientation: Laser parallel to b* (0 1 0). Fiducial mark perpendicular to laser is parallel to -c [0 0 -1]
Raman shift (cm-1)	intensity
114.949	0
119.119	103.627
123.286	289.395
127.452	629.77
131.615	1270.7
135.777	1451.53
139.937	1699.21
144.094	1425.08
148.25	969.528
152.403	432.16
156.555	296.695
160.705	215.767
164.853	141.004
168.998	232.389
173.142	363.258
177.284	249.189
181.424	438.976
185.562	251.945
189.698	403.445
193.831	525.322
197.963	789.164
202.093	1023.96
206.221	549.576
210.347	325.74
214.472	48.654
218.594	19.156
222.714	6.191
226.832	96.672
230.948	49.598
235.063	22.709
239.175	146.002
243.286	159.07
247.394	17.281
251.501	83.365
255.605	132.025
259.708	102.988
263.808	173.07
267.907	449.428
272.004	532.961
276.099	858.055
280.192	1014.81
284.283	1549.83
288.372	1946.13
292.459	2457.51
296.544	2640.56
300.627	2791.53
304.709	3952.36
308.788	5592.94
312.865	5493.03
316.941	4392.61
321.015	3361.79
325.086	2770.61
329.156	2359.11
333.224	1587.17
337.29	1214.15
341.354	1179.66
345.416	1544.17
349.476	1538.25
353.534	1212.29
357.591	666.279
361.645	470.207
365.698	314.049
369.748	467.789
373.797	461.424
377.844	1064.97
381.889	1366.65
385.932	1145.51
389.973	550.795
394.012	293.359
398.049	188.602
402.084	199.902
406.118	664.961
410.15	523.318
414.179	261.258
418.207	84.02
422.233	16.807
426.257	149.488
430.279	91.947
434.299	55.873
438.318	65.84
442.334	2.65
446.349	61.43
450.361	189.365
454.372	29.945
458.381	240.949
462.388	393.141
466.394	733.98
470.397	1075.21
474.398	1095.88
478.398	1465.96
482.396	2276.56
486.391	4469.59
490.385	8559.75
494.377	8529.52
498.368	5435.47
502.356	3904.47
506.342	4282.55
510.327	5410.45
514.31	6308.16
518.291	5335.69
522.27	3503.02
526.247	2299.84
530.222	1736.79
534.196	885.578
538.167	874.203
542.137	375.258
546.105	242.383
550.071	452.629
554.035	439.58
557.998	475.98
561.958	343.895
565.917	346.07
569.874	271.049
573.829	562.789
577.782	1142.9
581.733	1350.91
585.683	2407.78
589.63	2947.25
593.576	2901.47
597.52	2114.39
601.462	1355.62
605.402	1069.49
609.341	504.076
613.277	416.695
617.212	127.93
621.145	453.418
625.076	151.615
629.006	314.475
632.933	62.402
636.859	153.357
640.783	73.842
644.705	176.229
648.625	207.08
652.543	62.395
656.46	147.688
660.375	417.48
664.288	397.029
668.199	876.338
672.108	975.396
676.016	1044.22
679.921	822.869
683.825	451.303
687.727	160.537
691.628	88.42
695.526	266.611
699.423	265.156
703.318	452.299
707.211	88.881
711.102	565.262
714.992	471.24
718.879	186.783
722.765	46.451
726.649	117.322
730.532	68.027
734.412	62.209
738.291	14.359
742.168	278.941
746.043	7.906
749.916	125.172
753.788	57.107
757.658	309.154
761.526	281.049
765.392	312.934
769.257	444.395
773.119	364.711
776.98	45.941
780.839	173.102
784.697	262.484
788.552	34.953
792.406	9.719
796.258	537.23
800.108	392.703
803.957	500.281
807.804	431.531
811.649	668.312
815.492	1406.4
819.333	946.066
823.173	874.496
827.011	502.094
830.847	275.215
834.681	494.715
838.514	63.109
842.345	259.586
846.174	124.016
850.001	10.695
853.827	161.059
857.651	296.559
861.473	7.977
865.293	224.059
869.112	279.758
872.928	473.754
876.744	68.977
880.557	20.609
884.369	560.52
888.178	181.469
891.987	380.789
895.793	129.852
899.598	192.094
903.401	404.777
907.202	239.047
911.001	283.824
914.799	488.223
918.595	352.066
922.389	3.254
926.182	373.027
929.972	221.301
933.761	485.383
937.549	420.531
941.334	341.32
945.118	115.195
948.9	542.406
952.681	486.426
956.459	371.719
960.236	247.066
964.012	292.461
967.785	177.82
971.557	6.887
975.327	168.391
979.095	213.605
982.862	71.215
986.627	144.094
990.39	39.195
994.152	184.293
997.912	129.879
1001.67	684.141
1005.43	509.957
1009.18	551.539
1012.93	676.992
1016.68	909.121
1020.43	1026.39
1024.18	1352.97
1027.93	1109.49
1031.67	1047.74
1035.42	340.246
1039.16	292.402
1042.9	379.309
1046.63	576.309
1050.37	893.379
1054.11	601.383
1057.84	911.949
1061.57	766.891
1065.3	815.242
1069.03	523.023
1072.75	979.848
1076.47	1226.62
1080.2	1224.78
1083.92	1231.54
1087.64	1377.87
1091.36	774.18
1095.07	762.699
1098.79	798.75
1102.5	1018.22
1106.21	1694.07
1109.92	1209.47
1113.62	614.574
1117.33	425.277
1121.04	474.977
1124.74	434.898
1128.44	232.875
1132.14	342.523
1135.83	282.398
1139.53	562.371
1143.22	582.242
1146.92	222.035
1150.61	111.758
1154.3	78.414
1157.98	421.559
1161.67	321.66
1165.35	511.887
1169.04	182.277
1172.72	222.895
1176.4	166.238
1180.07	14.906
1183.75	286.355
1187.42	708.164
1191.1	270.66
1194.77	493.941
1198.44	397.953
1202.1	570.074
1205.77	462.203
1209.43	180.254
1213.1	682.578
1216.76	1010.12
1220.42	1093.04
1224.07	921.844
1227.73	810.867
1231.38	586.223
1235.04	299.25
1238.69	5.395
1242.34	524.562
1245.99	656.738
1249.63	1231.62
1253.28	911.895
1256.92	895.277
1260.56	590.332
