Measurement: Raman, 514 nm, ccw, Raman Data Processed
Mineral: Laumontite
Rruff sample: R040020
Ideal chemistry: Ca(Si_4_Al_2_)O_12_4H_2_O
Locality: Pine Creek Tungsten mine, Bishop, Inyo County, California, USA
Source: University of Arizona Mineral Museum
Description: Pale gray long prism coated with smaller crystals
Measured chemistry: (Ca_0.99_K_0.01_)_Σ=1_(Si_4.01_Al_1.99_)O_12_·4H_2_O; H_2_O estimated by difference
Pin_id: L00504
Orientation: Laser parallel to -c [0 0 -1]. Fiducial mark perpendicular to laser is parallel to b* (0 1 0)
Raman shift (cm-1)	intensity
95.426	0
99.588	1939.62
103.748	5792.12
107.907	8003.4
112.063	8222.02
116.218	7435.6
120.371	6244.76
124.522	5265.83
128.671	5176.06
132.818	5686.75
136.963	7299.53
141.107	9901.53
145.248	10966.9
149.388	9067.96
153.526	6580.27
157.662	4726.49
161.796	3217.55
165.929	2502.55
170.059	2270.59
174.188	1770.05
178.315	1261.69
182.44	887.584
186.563	367.713
190.684	142.062
194.803	50.328
198.921	129.607
203.037	19.033
207.15	216.412
211.262	523.805
215.373	481.938
219.481	291.182
223.588	481.561
227.692	383.168
231.795	86.064
235.896	111.148
239.995	342.27
244.093	108.615
248.188	133.504
252.282	198.67
256.374	240.748
260.464	713.199
264.552	916.605
268.638	1099.23
272.723	1331.59
276.806	1926.15
280.887	2446.54
284.966	3282.43
289.043	4568.83
293.118	6077.45
297.192	7305.99
301.264	7879.71
305.334	8891.72
309.402	12421.2
313.469	15298.3
317.533	14361.5
321.596	12957.6
325.657	15247.4
329.716	17232.4
333.774	11454.2
337.829	6404.27
341.883	3993.71
345.935	2992.58
349.985	2170.8
354.034	1858.33
358.08	1677.31
362.125	1333.1
366.168	1015.36
370.209	965.113
374.249	1119.75
378.286	1381.01
382.322	1856.99
386.356	1975.29
390.388	1225.85
394.419	727.289
398.447	423.336
402.474	39.127
406.499	25.258
410.523	32.096
414.544	153.051
418.564	40.207
422.582	171.742
426.598	172.273
430.613	371.727
434.625	60.273
438.636	307.66
442.646	594.049
446.653	479.412
450.658	713.643
454.662	1156.72
458.664	1688.66
462.665	2839.52
466.663	4319.31
470.66	5868.09
474.655	5225.88
478.648	4052.76
482.64	3638.81
486.629	4794.1
490.617	8468.67
494.603	12422.6
498.588	11795.8
502.571	11248.5
506.552	14780.5
510.531	21801.9
514.508	28262.7
518.484	28552.9
522.458	21082.7
526.43	13131.8
530.4	8371.38
534.369	5184.47
538.336	3635.85
542.301	2416.8
546.265	1981.38
550.226	1693.13
554.186	1024.35
558.145	953.271
562.101	784.277
566.056	739.498
570.009	1019.94
573.96	760.201
577.91	920.51
581.858	1647.78
585.804	3168.83
589.748	4423.78
593.691	4797.39
597.632	4590.6
601.571	3649.75
605.508	2842.25
609.444	2049.48
613.378	1496.34
617.311	1662.85
621.241	2459.03
625.17	3584.93
629.097	4260.92
633.023	2616.88
636.946	1745.21
640.868	1802.88
644.789	2677.3
648.707	2971.45
652.624	2725.36
656.539	2499.04
660.453	1862.48
664.364	1465.7
668.274	1458.71
672.183	1601.57
676.089	1934.36
679.994	1237.25
683.898	680.002
687.799	82.576
691.699	125.119
695.597	223.438
699.493	417.127
703.388	426.898
707.281	426.338
711.172	625.572
715.062	1014.63
718.95	883.65
722.836	692.848
726.721	132.309
730.604	92.143
734.485	117.703
738.364	142.277
742.242	181.969
746.118	69.035
749.993	230.658
753.866	122.939
757.737	254.066
761.606	420.629
765.474	686.943
769.34	443.148
773.204	169.258
777.067	275.279
780.928	361.227
784.787	177.094
788.645	57.127
792.501	51.514
796.355	213.959
800.208	509.391
804.059	614.783
807.908	500.141
811.756	255.475
815.602	530.791
819.446	1016.1
823.289	961.662
827.13	1170.48
830.969	1217.28
834.807	936.121
838.643	802.18
842.477	1365.29
846.31	1917
850.141	2064.47
853.971	2126.02
857.798	1987.73
861.624	3182.95
865.449	3239.06
869.272	2615.42
873.093	1951.92
876.912	1158.56
880.73	1272.28
884.546	1206.18
888.361	1603.88
892.174	1830.99
895.985	1480.75
899.795	1426.36
903.603	1288.91
907.409	1162.06
911.214	1463.59
915.017	1704.44
918.818	982.273
922.618	501.168
926.416	500.283
930.213	639.631
934.008	1349.17
937.801	1388.56
941.593	884.584
945.383	1231.98
949.171	2052.61
952.958	2283.11
956.743	1873.71
960.526	1434.62
964.308	965.834
968.089	607.371
971.867	20.773
975.644	218.592
979.42	3.811
983.193	486.395
986.966	1019.13
990.736	592.18
994.505	145.611
998.272	599.527
1002.04	2514.11
1005.8	4988.07
1009.57	2507.95
1013.33	2115.09
1017.09	1492.23
1020.84	1800.02
1024.6	2128.07
1028.35	2447.18
1032.11	1826.77
1035.86	1886.62
1039.61	1446.53
1043.36	1257.25
1047.1	857.477
1050.85	820.855
1054.59	1611.8
1058.33	1925.58
1062.07	2637.22
1065.81	3171.41
1069.55	3867.61
1073.28	5988.78
1077.02	8050.57
1080.75	8483.02
1084.48	8696.29
1088.21	7360.29
1091.93	6475.03
1095.66	5310.22
1099.38	4269.54
1103.11	4783.84
1106.83	5279.19
1110.55	5036.26
1114.26	4083.5
1117.98	2641.09
1121.69	1769
1125.41	897.508
1129.12	716.582
1132.83	936.258
1136.54	1646.45
1140.24	1247.13
1143.95	1198.32
1147.65	460.555
1151.36	156.336
1155.06	232.391
1158.76	12.633
1162.45	351.648
1166.15	1022.19
1169.84	1194.32
1173.53	1148.23
1177.22	984.211
1180.91	582.629
1184.6	295.496
1188.29	292.25
1191.97	474.867
1195.66	1002.77
1199.34	755.836
1203.02	1376.93
1206.7	806.766
1210.37	7.848
1214.05	7.418
