Measurement: Raman, 514 nm, ccw, Raman Data Processed
Mineral: Laverovite
Rruff sample: R060216
Ideal chemistry: K_2_NaMn^2+^_7_Zr^4+^_2_(Si_4_O_12_)_2_O_2_(OH)_4_F
Locality: Desourdy Quarry, Mont Saint-Hilaire, Rouville County, Quebec, Canada
Source: Royal Ontario Museum
Description: Brown fragment showing lamellar habit. Type sample
Measured chemistry: (K_1.74_Na_0.18_[box]_0.08_)_Σ=2_(Na_0.92_Ca_0.08_)_Σ=1_(Mn_4.09_Fe^2+^_2.67_Mg_0.24_)_Σ=7_(Zr_1.42_Ti_0.58_)_Σ=2_(Si_7.86_Al_0.14_)_Σ=8_O_26_((OH)_3.14_O_0.86_)_Σ=4_
Pin_id: L01980
Orientation: Laser parallel to (1 1 0). Fiducial mark perpendicular to laser is parallel to c [0 0 1]
Raman shift (cm-1)	intensity
117.777	0
122.723	596.904
127.667	2960.75
132.608	5640.05
137.547	11220.1
142.482	17112.3
147.415	11260.7
152.345	5220.35
157.272	1346.05
162.197	2212.19
167.118	3712.86
172.037	3060.14
176.954	804.322
181.867	464.975
186.778	73.9668
191.685	308.617
196.591	1944.72
201.493	4775.98
206.393	1675.84
211.289	2893.45
216.184	5528.6
221.075	6744.5
225.964	7678.13
230.849	9209.37
235.732	10043.9
240.613	9969.57
245.49	9364.9
250.365	8537.06
255.237	7259.67
260.107	5609.33
264.973	4975.13
269.837	3935.91
274.698	2468.3
279.557	1574.24
284.412	1099.4
289.265	1471.64
294.116	2012.75
298.963	2950.95
303.808	3255.88
308.65	3777.77
313.489	3623.28
318.325	3705.31
323.159	3773.01
327.99	4176.41
332.819	4259.54
337.644	5850.62
342.467	6903.4
347.287	7295.69
352.105	7151.28
356.92	7138.26
361.732	7163.22
366.541	6691.85
371.348	6507.16
376.152	6302.68
380.953	6371
385.751	6307.96
390.547	6400.08
395.34	5521.13
400.13	5059.92
404.918	4010.66
409.703	3437.93
414.485	3192.8
419.265	3317.17
424.041	3126.95
428.816	2360.18
433.587	1329.89
438.356	206.94
443.122	373.348
447.885	780.609
452.646	698.289
457.404	412.404
462.159	68.0117
466.911	360.045
471.661	401.518
476.409	359.164
481.153	430.025
485.895	390.266
490.634	898.104
495.37	130.963
500.104	496.389
504.835	434.252
509.564	469.246
514.289	499.643
519.013	342.188
523.733	159.465
528.451	107.502
533.166	333.127
537.878	608.439
542.588	1550.49
547.295	2694.32
551.999	5153.51
556.701	6621.1
561.4	7306.49
566.096	6218.19
570.79	4728.43
575.481	3695.25
580.169	3224.72
584.855	3429.67
589.538	3575.47
594.219	3909.55
598.896	3292.17
603.571	3807.02
608.244	3865.64
612.914	4383.65
617.581	4996.27
622.245	5952.06
626.907	7334.91
631.566	8708.81
636.223	10551.9
640.877	13605.2
645.528	19596.2
650.177	26982.4
654.823	29583.3
659.466	23042.9
664.107	16563.2
668.745	13179
673.38	12667.8
678.013	13720.5
682.643	15466
687.271	17419.4
691.896	19023
696.518	20215.3
701.138	20709.1
705.755	21413.3
710.369	21962.9
714.981	21517.1
719.59	20552.6
724.197	18296.4
728.801	16223.2
733.402	13781
738.001	11755.3
742.597	10270.9
747.19	9281.33
751.781	8492.88
756.369	8126.52
760.955	7754.22
765.538	6931.99
770.118	5902.96
774.696	4946.99
779.271	4212.17
783.844	3594.41
788.414	3281.66
792.981	2585.9
797.546	2331.14
802.108	1369.43
806.667	587.75
811.224	31.916
815.779	183.231
820.33	241.711
824.88	386.394
829.426	500.652
833.97	397.381
838.512	530.916
843.05	185.793
847.587	168.67
852.12	457.06
856.651	1142.06
861.18	1677.96
865.706	2738.71
870.229	4011.27
874.75	5346.59
879.268	6686.68
883.783	8000.85
888.296	9778.29
892.807	11149.5
897.314	14261.7
901.82	15891.1
906.322	17430.4
910.822	19539.1
915.32	21319
919.815	22489
924.307	22463.3
928.797	22362.9
933.284	21387.8
937.769	20212.7
942.251	20887.7
946.731	17560.5
951.208	16264.7
955.682	13449.5
960.154	10074.1
964.623	7110.15
969.09	5139.56
973.554	3838.14
978.016	3161.8
982.475	2698.88
986.931	2963.82
991.385	3303.51
995.837	3970.76
1000.29	4656.59
1004.73	7161.97
1009.18	8417.2
1013.62	10917.7
1018.06	13944.9
1022.49	16858.1
1026.93	19091.4
1031.36	19814.1
1035.79	17899.3
1040.21	14395.6
1044.63	11189.6
1049.06	8235.19
1053.47	6947.68
1057.89	5701.97
1062.3	4775.9
1066.71	4577.78
1071.12	4654.15
1075.53	4144.49
1079.93	4039.74
1084.33	4405.62
1088.73	3588.93
1093.13	3100.22
1097.52	2623.79
1101.91	1906.78
1106.3	1706.04
1110.68	1189.44
1115.07	674.764
1119.45	705.484
1123.83	620.354
1128.2	62.207
1132.57	152.172
1136.94	181.846
1141.31	42.9258
1145.68	290.711
1150.04	89.3281
1154.4	45.5723
1158.76	23.1152
1163.11	88.8008
1167.47	78.2969
1171.82	124.193
1176.16	185.842
1180.51	69.8496
1184.85	62.7969
1189.19	20.5234
1193.53	177.549
1197.87	88.2734
1202.2	22.0039
1206.53	122.254
1210.86	206.049
1215.18	164.168
1219.51	92.5879
1223.83	50.2773
1228.15	132.152
1232.46	97.6269
1236.77	242.988
1241.09	111.18
1245.39	270.094
1249.7	493.881
1254	208.516
1258.3	203.066
1262.6	157.318
1266.9	182.408
1271.19	427.039
1275.48	280.67
1279.77	243.996
1284.05	251.871
1288.34	439.969
1292.62	298.703
1296.9	454.543
1301.17	466.178
1305.44	277.475
1309.72	458.981
1313.98	311.074
1318.25	281.566
1322.51	122.057
1326.78	423.033
1331.03	338.728
1335.29	155.121
1339.54	38.2207
1343.8	319.043
1348.04	416.615
1352.29	164.516
1356.53	237.359
1360.78	386.334
1365.02	247.072
1369.25	344.424
1373.49	240.973
1377.72	79.1445
1381.95	430.678
1386.17	191.777
1390.4	267.9
1394.62	326.342
1398.84	136.703
1403.06	281.852
1407.27	99.416
1411.48	325.023
1415.69	305.92
1419.9	194.662
1424.1	163.172
1428.31	22.6777
1432.51	706.582
1436.7	849.221
1440.9	413.334
1445.09	306.188
1449.28	385.176
1453.47	470.519
1457.65	350.334
1461.84	470.494
1466.02	278.463
1470.2	448.856
1474.37	227.791
1478.55	301.234
1482.72	402.236
1486.88	326.129
1491.05	389.203
1495.21	279.473
1499.38	313.49
1503.54	203.51
1507.69	461.34
1511.85	416.344
1516	258.541
1520.15	305.93
1524.29	215.06
1528.44	382.615
1532.58	194.168
1536.72	297.672
1540.86	535.025
1544.99	297.373
1549.12	775.074
1553.25	260.31
1557.38	470.445
1561.51	314.291
1565.63	323.135
1569.75	196.959
