Measurement: Raman, 514 nm, ccw, Raman Data Processed
Mineral: Laverovite
Rruff sample: R060216
Ideal chemistry: K_2_NaMn^2+^_7_Zr^4+^_2_(Si_4_O_12_)_2_O_2_(OH)_4_F
Locality: Desourdy Quarry, Mont Saint-Hilaire, Rouville County, Quebec, Canada
Source: Royal Ontario Museum
Description: Brown fragment showing lamellar habit. Type sample
Measured chemistry: (K_1.74_Na_0.18_[box]_0.08_)_Σ=2_(Na_0.92_Ca_0.08_)_Σ=1_(Mn_4.09_Fe^2+^_2.67_Mg_0.24_)_Σ=7_(Zr_1.42_Ti_0.58_)_Σ=2_(Si_7.86_Al_0.14_)_Σ=8_O_26_((OH)_3.14_O_0.86_)_Σ=4_
Pin_id: L00725
Orientation: Laser parallel to c* (0 0 1). Fiducial mark perpendicular to laser is parallel to a [1 0 0]
Raman shift (cm-1)	intensity
148.867	0
153.775	772.932
158.681	65.8496
163.585	1613.9
168.486	3681.38
173.385	3198.95
178.282	1784.91
183.176	989.193
188.067	2182.85
192.956	2017.36
197.843	3395.18
202.727	6151.21
207.609	2230.25
212.489	3655.42
217.366	6054.81
222.24	7748.75
227.112	9219.92
231.982	10470.2
236.849	10776.8
241.714	9882.17
246.577	7748.89
251.437	4956.85
256.294	3254.99
261.149	3504.38
266.002	1691.16
270.852	647.231
275.7	139.131
280.545	111.174
285.388	270.861
290.229	82.3398
295.067	266.961
299.902	805.062
304.735	872.066
309.566	1050.75
314.394	1818.14
319.22	2587.5
324.043	4071.81
328.864	4159.06
333.682	4432.35
338.498	4714.18
343.311	5056.82
348.122	4588.5
352.931	4557.41
357.737	4853.5
362.54	5306.52
367.341	5397.69
372.14	5100.85
376.936	5220.84
381.73	5201.63
386.521	4377.28
391.31	3553.85
396.096	2540.41
400.88	2060.04
405.661	1621.84
410.44	1057.92
415.216	707.592
419.99	450.549
424.761	710.469
429.53	103.211
434.297	91.4512
439.061	392.619
443.822	500.154
448.581	390.578
453.337	270.367
458.091	203.127
462.843	244.756
467.592	327.158
472.338	872.361
477.082	1088.48
481.824	1083.13
486.563	1448.83
491.3	1460.23
496.034	1425.87
500.765	1313.84
505.494	1601.25
510.221	1467.26
514.945	1340.98
519.666	1149.48
524.385	1057.84
529.102	1230.11
533.816	1359.38
538.527	1900.01
543.236	2581.64
547.943	4087.8
552.647	5773.17
557.348	7429.83
562.047	6975.39
566.744	6187.63
571.438	5102.9
576.129	4344.73
580.818	3902.46
585.504	3790.08
590.188	3929.89
594.87	3745.21
599.549	3751.53
604.225	3571.61
608.899	3644.15
613.57	3894.52
618.239	4390.24
622.905	5102.35
627.569	6575.86
632.23	7217.81
636.889	9671.19
641.545	13810
646.198	21480.4
650.849	32180.2
655.498	34791.5
660.144	25042.3
664.787	16844.7
669.428	13138.5
674.067	12075.2
678.703	12542.7
683.336	13806.9
687.967	15375.6
692.595	15645.1
697.221	15895.6
701.844	15810.1
706.465	15969.1
711.083	16562.6
715.698	16537
720.311	14718.8
724.922	12080.4
729.53	9762.5
734.135	8168.09
738.738	6911.88
743.338	5857.76
747.936	5065.62
752.531	4591.79
757.124	4181.43
761.714	4167.49
766.302	3607.98
770.887	2963.85
775.469	2372.06
780.049	2221.59
784.626	1573.39
789.201	1503.43
793.773	1106.66
798.343	743.062
802.91	301.584
807.475	0.802734
812.037	248.185
816.596	196.568
821.153	302.914
825.707	272.279
830.259	308.682
834.808	381.877
839.355	348.844
843.899	269.059
848.441	74.3848
852.98	201.178
857.516	407.353
862.05	603.25
866.581	1015.82
871.11	1319.01
875.636	2058.81
880.159	2332.18
884.68	2915.1
889.199	3236.73
893.714	3803.74
898.228	4231.56
902.738	4912.85
907.246	5698.51
911.752	6350.97
916.255	7020.04
920.755	7964.45
925.253	8418.75
929.748	8668.4
934.241	8975.71
938.731	8900.66
943.218	8713.95
947.703	8785.18
952.186	8668.63
956.665	7163.43
961.142	5677.58
965.617	4395.03
970.089	3177.31
974.558	2749.51
979.025	2347.2
983.489	2105.58
987.951	2266.98
992.41	2199.86
996.866	2707.89
1001.32	3173.09
1005.77	3663.78
1010.22	4706.4
1014.67	5726.27
1019.11	7429.11
1023.55	9161.47
1027.99	10325.9
1032.42	10509.7
1036.86	9277.42
1041.29	7231.9
1045.72	5694.54
1050.14	4423.14
1054.56	3532.14
1058.98	2879.12
1063.4	2722.74
1067.82	2609.14
1072.23	2516.73
1076.64	2368.01
1081.05	2429.21
1085.45	2456.79
1089.85	2644.8
1094.25	2566.19
1098.65	2448.61
1103.04	1970.88
1107.43	1490.35
1111.82	1168.41
1116.21	682.697
1120.59	947.584
1124.97	505.435
1129.35	415.688
1133.73	135.644
1138.1	124.383
1142.47	131.385
1146.84	127.769
1151.21	233.055
1155.57	137.043
1159.93	192.56
1164.29	96.2891
1168.64	20.1309
1172.99	62.6172
1177.34	22.6602
1181.69	98.0781
1186.04	73.8438
1190.38	59.6367
1194.72	52.3867
1199.05	45.5957
1203.39	18.9023
1207.72	78.6816
1212.05	98.9609
1216.37	168.99
1220.7	93.8574
1225.02	124.213
1229.34	98.1328
1233.65	158.299
1237.97	401.191
1242.28	155.127
1246.59	247.982
1250.89	259.131
1255.19	270.869
1259.49	304.625
1263.79	130.668
1268.09	328.857
1272.38	167.621
1276.67	498.102
1280.95	315.576
1285.24	334.297
1289.52	371.025
1293.8	308.182
1298.08	110.863
1302.35	285.742
1306.62	82.834
1310.89	257.635
1315.15	110.451
1319.42	241.344
1323.68	171.539
1327.94	313.342
1332.19	237.203
1336.44	140.441
1340.69	325.428
1344.94	274.769
1349.19	347.32
1353.43	128.961
1357.67	171.853
1361.9	206.654
1366.14	182.648
1370.37	175.486
1374.6	58.1777
1378.83	114.119
1383.05	68.3203
1387.27	102.082
1391.49	89.3945
1395.7	120.391
1399.92	30.8125
1404.13	64.5762
1408.34	22.6875
1412.54	178.191
1416.74	211.539
1420.94	64.5527
1425.14	2.23828
1429.34	151.082
1433.53	196.668
1437.72	124.678
1441.9	127.375
1446.09	92.8594
1450.27	247.109
1454.45	35.8262
1458.63	262.031
1462.8	23.5215
1466.97	220.268
1471.14	138.293
1475.31	223.941
1479.47	119.129
1483.63	224.443
1487.79	234.916
1491.94	123.75
1496.09	106.209
1500.24	169.475
1504.39	403.137
1508.54	128.121
1512.68	242.705
1516.82	196.611
1520.95	198.121
1525.09	238.469
1529.22	151.17
1533.35	239.69
1537.47	93.959
1541.6	29.8398
