Measurement: Raman, 514 nm, ccw, Raman Data Processed
Mineral: Laverovite
Rruff sample: R060216
Ideal chemistry: K_2_NaMn^2+^_7_Zr^4+^_2_(Si_4_O_12_)_2_O_2_(OH)_4_F
Locality: Desourdy Quarry, Mont Saint-Hilaire, Rouville County, Quebec, Canada
Source: Royal Ontario Museum
Description: Brown fragment showing lamellar habit. Type sample
Measured chemistry: (K_1.74_Na_0.18_[box]_0.08_)_Σ=2_(Na_0.92_Ca_0.08_)_Σ=1_(Mn_4.09_Fe^2+^_2.67_Mg_0.24_)_Σ=7_(Zr_1.42_Ti_0.58_)_Σ=2_(Si_7.86_Al_0.14_)_Σ=8_O_26_((OH)_3.14_O_0.86_)_Σ=4_
Pin_id: L01682
Orientation: Laser parallel to (0 -1 -1). Fiducial mark perpendicular to laser is parallel to a [1 0 0]
Raman shift (cm-1)	intensity
159.908	0
164.811	1363.56
169.711	2928.64
174.61	1871.04
179.505	1471.38
184.399	1817.88
189.29	2955.83
194.178	3538.61
199.064	4848.81
203.948	4856.35
208.829	339.789
213.708	46.7217
218.585	223.178
223.459	776.93
228.33	1356.46
233.199	1468.26
238.066	2039.82
242.93	1994.15
247.792	2158
252.651	1015.19
257.508	863.916
262.363	365.921
267.215	262.872
272.064	194.661
276.912	314.033
281.756	85.4424
286.598	91
291.438	152.059
296.276	23.1348
301.111	112.181
305.943	133.232
310.773	301.601
315.601	303.128
320.426	281.784
325.248	410.941
330.068	496.04
334.886	768.7
339.701	804.474
344.514	952.821
349.324	974.994
354.132	912.936
358.938	958.144
363.741	1163.23
368.541	1008.87
373.339	1064.19
378.135	1151.47
382.928	1250.12
387.718	1236.92
392.506	1156.4
397.292	791.865
402.075	602.382
406.856	470.913
411.634	394.415
416.41	146.587
421.183	403.265
425.954	68.5059
430.722	131.897
435.488	115.591
440.251	148.102
445.012	179.422
449.77	191.645
454.526	494.825
459.28	209.566
464.03	482.024
468.779	707.346
473.525	874.43
478.268	701.883
483.009	697.746
487.747	650.352
492.483	600.471
497.217	604.906
501.948	481.319
506.676	389.095
511.402	256.013
516.125	98.1426
520.846	24.0693
525.565	209.173
530.281	170.823
534.994	31.627
539.705	336.734
544.413	505.251
549.119	916.139
553.822	1590.32
558.523	1998.95
563.222	2385.76
567.917	1975.98
572.611	1629.34
577.302	1083.11
581.99	1049.68
586.676	1044.38
591.359	908.399
596.04	1035.64
600.718	1176.87
605.394	1828.94
610.067	1706.4
614.737	2208.51
619.406	2610.02
624.071	3311.21
628.734	3849.15
633.395	4683.83
638.053	5853.28
642.708	7483.49
647.361	10164.5
652.012	13041.2
656.66	13057.7
661.305	10704.7
665.948	10200.7
670.588	7219.43
675.226	6945.08
679.861	7001.73
684.494	7341.99
689.124	7750
693.752	7850.58
698.377	8100.76
702.999	7677.31
707.619	7389.4
712.237	7069.97
716.852	6758.64
721.464	6120.98
726.074	5357.15
730.681	4746.1
735.286	4101.55
739.888	3631.25
744.488	3148.17
749.085	2941.28
753.68	2476.58
758.272	2458.04
762.861	2049.64
767.448	1916.35
772.033	1561.18
776.614	1211.09
781.194	1076.07
785.77	825.104
790.345	663.173
794.916	414.262
799.485	449.358
804.052	188.449
808.616	33.5127
813.177	51.4853
817.736	65.8457
822.292	20.5732
826.846	174.129
831.397	219.091
835.945	137.86
840.491	28.5977
845.035	77.5723
849.576	150.919
854.114	123.141
858.65	125.879
863.183	176.574
867.713	259.042
872.241	393.274
876.767	499.268
881.29	787.019
885.81	784.537
890.328	1025.83
894.843	1105.88
899.356	1283.7
903.866	1425.28
908.373	1602.63
912.878	1645.78
917.38	1925.8
921.88	2120.77
926.377	2268.28
930.872	2172.4
935.364	2186.02
939.853	2407.49
944.34	2573.04
948.824	2569.42
953.306	2598.14
957.785	2264.53
962.261	1975.61
966.735	1747.53
971.207	1624.45
975.675	1274.43
980.141	1304.56
984.605	1371.42
989.066	1379.47
993.524	1528.23
997.98	1619.95
1002.43	1808.64
1006.88	1972.93
1011.33	2455.27
1015.78	2929.43
1020.22	3083.09
1024.66	2795.52
1029.1	2714.59
1033.53	2549.77
1037.97	2152.36
1042.4	2049.42
1046.82	1831.88
1051.25	1792.81
1055.67	1849.71
1060.09	1518.23
1064.51	1422.94
1068.92	1539.01
1073.33	1488.56
1077.74	1556.35
1082.15	1300.19
1086.55	1407.53
1090.95	1239.15
1095.35	1103.65
1099.75	890.562
1104.14	880.829
1108.53	643.06
1112.92	565.179
1117.31	533.314
1121.69	325.181
1126.07	382.985
1130.45	198.981
1134.82	140.938
1139.19	138.935
1143.57	89.8769
1147.93	22.7246
1152.3	133.447
1156.66	5.94727
1161.02	24.4453
1165.38	49.8867
1169.73	0.922852
1174.08	18.9277
1178.43	72.1797
1182.78	86.8682
1187.12	34.1426
1191.46	318.088
1195.8	67.9473
1200.14	7.39648
1204.47	100.564
1208.8	8.54883
1213.13	60.2432
1217.46	174.391
1221.78	177.545
1226.1	70.8477
1230.42	12.2832
1234.73	61.4326
1239.04	143.98
1243.35	4.26269
1247.66	330.103
1251.97	203.227
1256.27	163.893
1260.57	374.4
1264.86	280.074
1269.16	327.516
1273.45	302.613
1277.74	601.985
1282.03	502.634
1286.31	516.346
1290.59	453.185
1294.87	580.024
1299.14	588.714
1303.42	530.581
1307.69	540.914
1311.95	611.63
1316.22	452.702
1320.48	707.613
1324.74	323.505
1329	312.415
1333.26	400.285
1337.51	401.278
1341.76	274.083
1346	128.885
1350.25	312.798
1354.49	57.0156
1358.73	73.3955
1362.96	4.33984
1367.2	105.422
1371.43	93.6572
1375.66	67.4023
1379.88	135.94
1384.11	92.5703
1388.33	1.8584
1392.54	45.0234
1396.76	32.8477
1400.97	51.6699
1405.18	200.367
1409.39	115.902
1413.59	49.3545
1417.8	33.1777
1421.99	141.66
1426.19	105.19
1430.38	189.044
1434.58	44.7305
1438.77	183.605
1442.95	100.309
1447.13	201.206
1451.32	358.426
1455.49	276.547
1459.67	203.037
1463.84	196.657
1468.01	127.075
1472.18	178.248
1476.35	83.3672
1480.51	225.968
1484.67	56.2539
1488.83	181.169
1492.98	97.1231
1497.13	99.6914
1501.28	146.403
1505.43	125.461
1509.57	91.0898
1513.71	44.8613
1517.85	349.884
1521.99	156.82
1526.12	201.561
1530.25	170.742
1534.38	320.402
1538.5	194.897
1542.62	258.062
1546.74	87.1231
1550.86	213.772
1554.98	45.5596
1559.09	217.651
1563.2	199.843
1567.31	30.002
