Measurement: Raman, 514 nm, ccw, Raman Data Processed
Mineral: Laverovite
Rruff sample: R060216
Ideal chemistry: K_2_NaMn^2+^_7_Zr^4+^_2_(Si_4_O_12_)_2_O_2_(OH)_4_F
Locality: Desourdy Quarry, Mont Saint-Hilaire, Rouville County, Quebec, Canada
Source: Royal Ontario Museum
Description: Brown fragment showing lamellar habit. Type sample
Measured chemistry: (K_1.74_Na_0.18_[box]_0.08_)_Σ=2_(Na_0.92_Ca_0.08_)_Σ=1_(Mn_4.09_Fe^2+^_2.67_Mg_0.24_)_Σ=7_(Zr_1.42_Ti_0.58_)_Σ=2_(Si_7.86_Al_0.14_)_Σ=8_O_26_((OH)_3.14_O_0.86_)_Σ=4_
Pin_id: L01682
Orientation: Laser parallel to (0 -1 -1). Fiducial mark perpendicular to laser is parallel to a [1 0 0]
Raman shift (cm-1)	intensity
159.908	0
164.811	1663.66
169.711	2396.39
174.61	1770.73
179.505	1614.12
184.399	1980.55
189.29	2859.85
194.178	3879.07
199.064	5030.77
203.948	4725.73
208.829	264.055
213.708	147.564
218.585	115.12
223.459	139.81
228.33	820.255
233.199	865.563
238.066	1008.88
242.93	1111.69
247.792	1273.2
252.651	1416.96
257.508	1810.09
262.363	2052.26
267.215	1785.82
272.064	1238.66
276.912	749.249
281.756	319.632
286.598	100.21
291.438	129.994
296.276	40.8828
301.111	157.409
305.943	17.5566
310.773	381.754
315.601	129.861
320.426	366.343
325.248	212.83
330.068	458.167
334.886	565.734
339.701	609
344.514	812.531
349.324	838.843
354.132	912.511
358.938	784.208
363.741	754.656
368.541	706.114
373.339	633.218
378.135	738.39
382.928	701.083
387.718	722.874
392.506	789.159
397.292	660.744
402.075	521.257
406.856	738.211
411.634	517.971
416.41	664.511
421.183	913.451
425.954	717.026
430.722	664.235
435.488	231.339
440.251	85.4404
445.012	102.323
449.77	157.109
454.526	34.2559
459.28	185.653
464.03	268.466
468.779	362.551
473.525	189.672
478.268	299.37
483.009	301.104
487.747	287.462
492.483	175.459
497.217	179.353
501.948	157.789
506.676	10.7744
511.402	90.8389
516.125	67.3975
520.846	67.708
525.565	229.06
530.281	56.2549
534.994	133.25
539.705	131.25
544.413	326.94
549.119	598.731
553.822	911.744
558.523	1188.44
563.222	1274.78
567.917	1123.47
572.611	933.416
577.302	880.391
581.99	577.825
586.676	728.901
591.359	790.87
596.04	904.248
600.718	963.871
605.394	1089.24
610.067	1255.39
614.737	1436.81
619.406	1671.52
624.071	2018.3
628.734	2514.14
633.395	2919.05
638.053	3508.03
642.708	4402.86
647.361	6381.06
652.012	7342.66
656.66	7260.65
661.305	6114.4
665.948	4943.36
670.588	4270.9
675.226	3772.95
679.861	3754.12
684.494	4170.67
689.124	4082.63
693.752	4343.21
698.377	4358.4
702.999	4346.28
707.619	4180.57
712.237	4045.34
716.852	3966.22
721.464	3516.45
726.074	3071.6
730.681	2534.5
735.286	2279.34
739.888	1975.49
744.488	1814.72
749.085	1532.98
753.68	1422.06
758.272	1521.4
762.861	1209.94
767.448	1109.3
772.033	968.475
776.614	614.476
781.194	667.307
785.77	601.991
790.345	401.907
794.916	196.946
799.485	187.192
804.052	95.7109
808.616	41.374
813.177	48.4297
817.736	124.876
822.292	84.7754
826.846	178.774
831.397	56.1338
835.945	161.746
840.491	1.33984
845.035	95.0869
849.576	159.983
854.114	193.713
858.65	479.334
863.183	485.854
867.713	622.274
872.241	1003.59
876.767	1153.81
881.29	1506.92
885.81	1720.95
890.328	2124.91
894.843	2495.82
899.356	2827.71
903.866	3054.65
908.373	3598.81
912.878	4309.39
917.38	4661.57
921.88	4881.32
926.377	5043.08
930.872	5307.3
935.364	5461.59
939.853	5901.63
944.34	6271.15
948.824	6445.6
953.306	6072.02
957.785	4969.73
962.261	3931.56
966.735	2989.14
971.207	2282.66
975.675	1837.89
980.141	1801.68
984.605	1610.08
989.066	1553.6
993.524	1655.62
997.98	1706.93
1002.43	1777.52
1006.88	2034.76
1011.33	2290.56
1015.78	2531.01
1020.22	2663.13
1024.66	2951.2
1029.1	2841.49
1033.53	2640.4
1037.97	2296.04
1042.4	2344.45
1046.82	1859.24
1051.25	1647.88
1055.67	1497.37
1060.09	1519.08
1064.51	1453.38
1068.92	1437.94
1073.33	1465.03
1077.74	1428.24
1082.15	1249.33
1086.55	1065.41
1090.95	1046.74
1095.35	943.439
1099.75	941.19
1104.14	755.872
1108.53	630.547
1112.92	686.559
1117.31	484.521
1121.69	588.864
1126.07	679.291
1130.45	442.493
1134.82	141.733
1139.19	164.649
1143.57	170.234
1147.93	17.3984
1152.3	26.835
1156.66	71.1318
1161.02	5.24902
1165.38	77.75
1169.73	2.28516
1174.08	39.2139
1178.43	209.316
1182.78	17.9092
1187.12	40.8779
1191.46	30
1195.8	47.1895
1200.14	54.1309
1204.47	0.823242
1208.8	34.9746
1213.13	82.8018
1217.46	17.3818
1221.78	23.7422
1226.1	141.657
1230.42	50.9014
1234.73	156.079
1239.04	127.799
1243.35	136.45
1247.66	97.2227
1251.97	146.546
1256.27	277.713
1260.57	156.925
1264.86	194.068
1269.16	366.023
1273.45	136.221
1277.74	185.178
1282.03	413.558
1286.31	447.121
1290.59	524.389
1294.87	303.271
1299.14	505.248
1303.42	238.496
1307.69	303.243
1311.95	315.562
1316.22	262.31
1320.48	397.525
1324.74	401.477
1329	327.699
1333.26	258.705
1337.51	156.802
1341.76	227.877
1346	198.997
1350.25	208.985
1354.49	357.255
1358.73	98.0664
1362.96	195.852
1367.2	151.322
1371.43	60.1641
1375.66	19.752
1379.88	60.1211
1384.11	476.126
1388.33	279.644
1392.54	30.4727
1396.76	184.4
1400.97	104.257
1405.18	60.0898
1409.39	131.022
1413.59	50.4111
1417.8	227.366
1421.99	345.162
1426.19	151.446
1430.38	214.04
1434.58	196.438
1438.77	372.363
1442.95	247.341
1447.13	322.519
1451.32	149.72
1455.49	296.818
1459.67	25.6631
1463.84	319.925
1468.01	66.1064
1472.18	62.9023
1476.35	109.435
1480.51	374.738
1484.67	118.349
1488.83	55.1084
1492.98	163.962
1497.13	7.31934
1501.28	45.8926
1505.43	321.851
1509.57	211.852
1513.71	215.018
1517.85	89.4619
1521.99	229.481
1526.12	354.122
1530.25	268.948
1534.38	65.9805
1538.5	213.932
1542.62	237.032
1546.74	267.721
1550.86	256.618
1554.98	145.893
1559.09	206.737
1563.2	172.764
1567.31	63.7637
