Measurement: Raman, 514 nm, ccw, Raman Data Processed
Mineral: Laverovite
Rruff sample: R060216
Ideal chemistry: K_2_NaMn^2+^_7_Zr^4+^_2_(Si_4_O_12_)_2_O_2_(OH)_4_F
Locality: Desourdy Quarry, Mont Saint-Hilaire, Rouville County, Quebec, Canada
Source: Royal Ontario Museum
Description: Brown fragment showing lamellar habit. Type sample
Measured chemistry: (K_1.74_Na_0.18_[box]_0.08_)_Σ=2_(Na_0.92_Ca_0.08_)_Σ=1_(Mn_4.09_Fe^2+^_2.67_Mg_0.24_)_Σ=7_(Zr_1.42_Ti_0.58_)_Σ=2_(Si_7.86_Al_0.14_)_Σ=8_O_26_((OH)_3.14_O_0.86_)_Σ=4_
Pin_id: M00393
Orientation: Laser parallel to a* (1 0 0). Fiducial mark perpendicular to laser is parallel to b [0 1 0]
Raman shift (cm-1)	intensity
121.827	0
126.749	613.432
131.668	480.398
136.585	849.324
141.5	204.541
146.412	283.447
151.321	267.428
156.229	100.74
161.134	637.488
166.036	1057.62
170.936	1269.36
175.834	1024.16
180.729	734.49
185.622	589.932
190.512	1113.19
195.4	1292.13
200.286	2290.65
205.169	757.838
210.049	1281.05
214.928	1893.24
219.803	2716.35
224.677	2995.19
229.548	3317.05
234.416	3202.96
239.282	3207.94
244.146	2299.98
249.007	1647.12
253.866	1328.63
258.722	872.102
263.576	635.154
268.427	394.787
273.276	160.846
278.123	160.205
282.967	39.4492
287.809	26.6465
292.648	49.4609
297.485	390.412
302.319	279.6
307.151	316.746
311.98	486.826
316.807	990.963
321.631	1052.29
326.454	1380.33
331.273	1460.4
336.09	1363.06
340.905	1286.32
345.717	1515.16
350.527	1257.29
355.334	1353.26
360.139	1408.35
364.941	1313.6
369.741	1419.32
374.538	1599.53
379.333	1469.24
384.126	1316.46
388.916	1017.23
393.703	750.551
398.488	247.453
403.271	486.957
408.051	364.092
412.828	62.1895
417.603	135.781
422.376	127.201
427.146	117.074
431.914	64.6562
436.679	34.3164
441.442	240.551
446.202	72.6406
450.96	102.356
455.715	151.197
460.467	16.3438
465.218	73.4531
469.965	266.935
474.711	393.93
479.454	318.664
484.194	659.584
488.932	764.639
493.667	728.531
498.4	692.281
503.13	507.91
507.858	512.428
512.583	520.854
517.306	175.201
522.026	930.484
526.744	451.865
531.459	553.334
536.172	347.123
540.882	910.479
545.59	959.959
550.295	1688.82
554.998	2049.12
559.698	2312.38
564.396	2073.21
569.091	1466.28
573.784	1364.05
578.474	973.756
583.162	1120.1
587.847	1143.86
592.529	1194.63
597.209	1020.91
601.887	998.918
606.562	1178.7
611.235	1312.55
615.905	1251.02
620.572	1305.92
625.237	1410.85
629.9	1786.2
634.56	2307.85
639.217	3099.8
643.872	4791.03
648.524	7518.56
653.174	9251.38
657.821	7691.5
662.466	5084.32
667.108	3659.45
671.748	2943.6
676.385	3180.83
681.02	3288.09
685.652	3501.66
690.281	3931.76
694.908	4314.2
699.533	4440.14
704.155	4316.59
708.774	4780
713.391	4447.96
718.005	4449.52
722.617	3830.55
727.226	3366.57
731.833	2867.91
736.437	2559.3
741.039	2033.91
745.638	1867.51
750.234	1684.04
754.828	1591.36
759.419	1634.79
764.008	1234
768.595	980.086
773.178	876.051
777.759	391.129
782.338	593.559
786.914	234.086
791.488	153.457
796.059	156.652
800.627	33.6406
805.193	155.113
809.756	131.809
814.317	44.0273
818.875	207.84
823.431	184.195
827.984	36.3516
832.534	157.129
837.082	49.4453
841.627	177.176
846.17	222.168
850.71	21.7539
855.248	136.754
859.783	267.824
864.316	391.625
868.846	238.148
873.373	548.398
877.898	670.18
882.42	770.086
886.94	586.688
891.457	825.035
895.971	857.148
900.483	1036.3
904.993	751.551
909.5	1117.59
914.004	1192.4
918.505	1171.96
923.004	1546.35
927.501	1218.79
931.995	1403.32
936.486	1443.15
940.975	1508.34
945.461	1292.38
949.945	1407.09
954.426	953.461
958.904	909.055
963.38	814.656
967.853	611.285
972.324	736.09
976.792	441.852
981.258	706.066
985.72	721.637
990.181	695.875
994.639	775.043
999.094	915.09
1003.55	1361.54
1008	1518.13
1012.44	2058.88
1016.89	2420.21
1021.33	2797.3
1025.77	3282.55
1030.21	3472.42
1034.64	2982.78
1039.07	2499.4
1043.5	1937.36
1047.93	1585.48
1052.35	1574.68
1056.78	1332.29
1061.19	948.996
1065.61	878.832
1070.02	740.723
1074.43	653.098
1078.84	1029.34
1083.25	693.805
1087.65	1001.72
1092.05	1075.11
1096.45	1002.32
1100.85	483.504
1105.24	535.406
1109.63	221.047
1114.02	169.094
1118.4	334.332
1122.78	319.926
1127.16	388.742
1131.54	489.762
1135.92	313.094
1140.29	230.641
1144.66	127.336
1149.02	136.102
1153.39	101.922
1157.75	72.0156
1162.11	37.9453
1166.46	27.2344
1170.82	10.0977
1175.17	172.512
1179.52	155.043
1183.86	113.66
1188.21	199.758
1192.55	136.144
1196.89	237.211
1201.22	66.0469
1205.55	174.523
1209.88	422.078
1214.21	88.6953
1218.54	185.922
1222.86	300.648
1227.18	169.387
1231.5	367.137
1235.81	371.164
1240.12	201.875
1244.43	633.535
1248.74	125.16
1253.04	306.684
1257.34	486.215
1261.64	364.18
1265.94	465.305
1270.23	312.508
1274.52	170.238
1278.81	279.91
1283.1	378.719
1287.38	153.695
1291.66	271.445
1295.94	364.012
1300.21	179.016
1304.48	393.242
1308.75	405.465
1313.02	213.824
1317.29	334.211
1321.55	300.789
1325.81	256.25
1330.06	188.527
1334.32	331.32
1338.57	347.106
1342.82	495.07
1347.06	140.715
1351.31	621.5
1355.55	410.918
1359.79	25.3164
1364.02	273.379
1368.26	265.992
1372.49	139.16
1376.71	512.285
1380.94	258.133
1385.16	14.9141
1389.38	73.6836
1393.6	154.559
1397.81	88.3086
1402.02	421.953
1406.23	27.1914
1410.44	36.2266
1414.64	189.547
1418.85	68.1406
1423.04	0.246094
1427.24	219.516
1431.43	274.488
1435.62	369.566
1439.81	211.305
1444	428.531
1448.18	236.082
1452.36	50.0703
1456.54	237.394
1460.71	148
1464.89	509.172
1469.06	179.984
1473.22	125.184
1477.39	428.387
1481.55	40.9336
1485.71	171.711
1489.86	365.32
1494.02	299.027
1498.17	165.121
1502.32	331.82
1506.46	264.606
1510.61	77.3281
1514.75	156.426
1518.88	281.688
1523.02	331.293
1527.15	228.918
1531.28	62.6641
1535.41	171.027
1539.53	219.074
1543.66	415.727
1547.78	451.324
1551.89	511.66
1556.01	336.316
1560.12	538.137
1564.23	349.973
1568.33	524.246
