Measurement: Raman, 514 nm, ccw, Raman Data Processed
Mineral: Laverovite
Rruff sample: R060216
Ideal chemistry: K_2_NaMn^2+^_7_Zr^4+^_2_(Si_4_O_12_)_2_O_2_(OH)_4_F
Locality: Desourdy Quarry, Mont Saint-Hilaire, Rouville County, Quebec, Canada
Source: Royal Ontario Museum
Description: Brown fragment showing lamellar habit. Type sample
Measured chemistry: (K_1.74_Na_0.18_[box]_0.08_)_Σ=2_(Na_0.92_Ca_0.08_)_Σ=1_(Mn_4.09_Fe^2+^_2.67_Mg_0.24_)_Σ=7_(Zr_1.42_Ti_0.58_)_Σ=2_(Si_7.86_Al_0.14_)_Σ=8_O_26_((OH)_3.14_O_0.86_)_Σ=4_
Pin_id: L01682
Orientation: Laser parallel to (0 -1 -1). Fiducial mark perpendicular to laser is parallel to a [1 0 0]
Raman shift (cm-1)	intensity
159.908	0
164.811	1496.32
169.711	2457.46
174.61	1676.78
179.505	1497.95
184.399	1837.47
189.29	2448.57
194.178	3705.09
199.064	4702.53
203.948	4740.47
208.829	231.69
213.708	481.389
218.585	679.47
223.459	1215.76
228.33	1296.13
233.199	1383.03
238.066	1129.9
242.93	1174.94
247.792	783.261
252.651	400.185
257.508	314.107
262.363	388.172
267.215	270.394
272.064	204.3
276.912	93.2256
281.756	112.32
286.598	147.894
291.438	31.8154
296.276	319.062
301.111	497.123
305.943	714.46
310.773	1071.59
315.601	1284.14
320.426	1470.11
325.248	1698.04
330.068	1813.28
334.886	1818.28
339.701	1932.44
344.514	1949.85
349.324	1781.88
354.132	1896.26
358.938	2176.44
363.741	2162.57
368.541	2258.74
373.339	2136.51
378.135	2015.04
382.928	1788.37
387.718	1767.53
392.506	1571.46
397.292	1240.97
402.075	1200.46
406.856	816.039
411.634	568.247
416.41	419.26
421.183	178.682
425.954	229.29
430.722	165.504
435.488	55.1377
440.251	138.25
445.012	115.769
449.77	183.296
454.526	13.3691
459.28	33.7022
464.03	86.2793
468.779	160.629
473.525	477.89
478.268	416.19
483.009	382.602
487.747	455.185
492.483	474.994
497.217	596.188
501.948	318.07
506.676	424.374
511.402	297.179
516.125	273.578
520.846	349.611
525.565	246.309
530.281	357.022
534.994	904.82
539.705	576.784
544.413	783.841
549.119	1056.7
553.822	1546.33
558.523	2071.45
563.222	1908.31
567.917	1714.99
572.611	1523.9
577.302	1370.55
581.99	1496
586.676	1409.19
591.359	1406.03
596.04	1562.58
600.718	1779.82
605.394	1697.04
610.067	2011.8
614.737	2120.11
619.406	2563.42
624.071	2801.3
628.734	3277.19
633.395	3676.85
638.053	4485.96
642.708	6040.37
647.361	8310.26
652.012	10712.6
656.66	10597.6
661.305	8337.88
665.948	6163.76
670.588	4981.15
675.226	4086.41
679.861	4268.7
684.494	4644.38
689.124	4927.77
693.752	4906.87
698.377	4898.6
702.999	5064.29
707.619	5166.08
712.237	5271.28
716.852	5190.07
721.464	4617.55
726.074	3760.99
730.681	3295.49
735.286	2872.85
739.888	2544.65
744.488	2269.69
749.085	1925.89
753.68	1860.17
758.272	1779.53
762.861	1642.94
767.448	1488.39
772.033	1332.87
776.614	1069.56
781.194	954.879
785.77	883.361
790.345	589.047
794.916	532.545
799.485	399.578
804.052	449.131
808.616	220.218
813.177	179.236
817.736	96.8906
822.292	81.8066
826.846	243.367
831.397	153.915
835.945	26.3691
840.491	120.505
845.035	48.9912
849.576	17.5225
854.114	116.213
858.65	287.615
863.183	398.806
867.713	346.826
872.241	586.661
876.767	689.308
881.29	785.76
885.81	1209.02
890.328	1221.13
894.843	1345.11
899.356	1417.9
903.866	1567.64
908.373	1887.35
912.878	2148.98
917.38	2400.64
921.88	2776.72
926.377	2733.67
930.872	2768.43
935.364	2926.32
939.853	3257.33
944.34	3339.47
948.824	3393.03
953.306	3637.58
957.785	3077.76
962.261	2526.63
966.735	2346.69
971.207	2022.02
975.675	1901
980.141	2024.91
984.605	1978.77
989.066	2078.66
993.524	2352.24
997.98	2405.1
1002.43	2720.16
1006.88	2793.42
1011.33	3293.89
1015.78	3490.56
1020.22	4050.46
1024.66	4795.67
1029.1	5098.99
1033.53	5384.86
1037.97	4353.75
1042.4	3933.21
1046.82	2999.52
1051.25	2570.07
1055.67	2304.32
1060.09	1974.02
1064.51	1902.57
1068.92	1795.26
1073.33	1663.36
1077.74	1592.08
1082.15	1461.3
1086.55	1725.44
1090.95	1298.11
1095.35	1177.46
1099.75	1066.13
1104.14	1021.05
1108.53	839.691
1112.92	768.566
1117.31	1293.96
1121.69	2297.64
1126.07	1665.72
1130.45	598.649
1134.82	508.072
1139.19	269.992
1143.57	69.0869
1147.93	97.3018
1152.3	98.5283
1156.66	43.6094
1161.02	131.656
1165.38	60.335
1169.73	40.2783
1174.08	33.3477
1178.43	33.6357
1182.78	179.278
1187.12	76.3555
1191.46	128.469
1195.8	18.6377
1200.14	8.07812
1204.47	10.1113
1208.8	70.4268
1213.13	193.043
1217.46	126.19
1221.78	68.4356
1226.1	142.169
1230.42	215.295
1234.73	58.4053
1239.04	194.457
1243.35	248.254
1247.66	235.285
1251.97	347.325
1256.27	180.921
1260.57	204.265
1264.86	256.026
1269.16	239.51
1273.45	231.233
1277.74	265.398
1282.03	336.34
1286.31	297.556
1290.59	370.464
1294.87	446.144
1299.14	366.468
1303.42	242.793
1307.69	259.522
1311.95	506.894
1316.22	233.791
1320.48	333.747
1324.74	418.858
1329	187.769
1333.26	383.217
1337.51	371.763
1341.76	144.144
1346	274.349
1350.25	239.435
1354.49	190.416
1358.73	86.5547
1362.96	221.648
1367.2	156.587
1371.43	202.851
1375.66	153.099
1379.88	145.007
1384.11	186.582
1388.33	270.72
1392.54	307.86
1396.76	177.837
1400.97	1.75977
1405.18	101.821
1409.39	95.4102
1413.59	36.1455
1417.8	108.61
1421.99	128.795
1426.19	86.2754
1430.38	202.499
1434.58	221.727
1438.77	132.426
1442.95	133.697
1447.13	247.247
1451.32	216.088
1455.49	290.487
1459.67	320.402
1463.84	250.927
1468.01	443.912
1472.18	270.267
1476.35	272.055
1480.51	236.439
1484.67	343.828
1488.83	239.04
1492.98	102.978
1497.13	84.4473
1501.28	56.8545
1505.43	139.238
1509.57	202.173
1513.71	280.154
1517.85	28.4219
1521.99	322.183
1526.12	140.067
1530.25	225.868
1534.38	211.026
1538.5	8.49121
1542.62	19.0654
1546.74	257.856
1550.86	319.291
1554.98	237.719
1559.09	102.754
1563.2	22.9473
1567.31	39.2373
