Measurement: Raman, 514 nm, ccw, Raman Data Processed
Mineral: Laverovite
Rruff sample: R060216
Ideal chemistry: K_2_NaMn^2+^_7_Zr^4+^_2_(Si_4_O_12_)_2_O_2_(OH)_4_F
Locality: Desourdy Quarry, Mont Saint-Hilaire, Rouville County, Quebec, Canada
Source: Royal Ontario Museum
Description: Brown fragment showing lamellar habit. Type sample
Measured chemistry: (K_1.74_Na_0.18_[box]_0.08_)_Σ=2_(Na_0.92_Ca_0.08_)_Σ=1_(Mn_4.09_Fe^2+^_2.67_Mg_0.24_)_Σ=7_(Zr_1.42_Ti_0.58_)_Σ=2_(Si_7.86_Al_0.14_)_Σ=8_O_26_((OH)_3.14_O_0.86_)_Σ=4_
Pin_id: L00587
Orientation: Laser parallel to -b* (0 -1 0). Fiducial mark perpendicular to laser is parallel to -c [0 0 -1]
Raman shift (cm-1)	intensity
225.964	0
229.628	245.562
233.291	470.033
236.953	693.391
240.613	926.531
244.271	1049.76
247.928	980.305
251.584	1179.85
255.237	1611.44
258.89	2078.28
262.54	1585.78
266.19	1481.06
269.837	708.586
273.483	530.186
277.128	556.99
280.771	231.394
284.412	204.221
288.052	456.496
291.691	463.256
295.328	695.951
298.963	693.379
302.597	508.809
306.229	356.256
309.86	122.6
313.489	56.4629
317.117	113.877
320.743	65.3731
324.367	65.0156
327.99	180.121
331.612	248.613
335.232	800.91
338.85	1251.36
342.467	1832.77
346.083	2182.56
349.697	2244.9
353.309	2454.34
356.92	2581.76
360.529	2692.16
364.137	2801.46
367.743	2965.12
371.348	3188.61
374.951	2315.92
378.552	2116.99
382.153	1762.7
385.751	1553.01
389.348	1388.29
392.944	1489.93
396.538	1522.25
400.13	1411.83
403.721	1200.61
407.311	1131.62
410.899	1146.87
414.485	1289.33
418.07	1560.76
421.653	1486.58
425.235	1428.79
428.816	1014.39
432.394	615.232
435.972	424.32
439.547	92.6797
443.122	148.879
446.694	179.685
450.266	241.826
453.835	127.404
457.404	37.4609
460.97	194.795
464.535	239.621
468.099	110.133
471.661	256.566
475.222	385.516
478.781	288.473
482.339	386.25
485.895	354.676
489.449	398.549
493.003	342.781
496.554	271.631
500.104	302.17
503.653	144.406
507.2	164.315
510.745	76.8769
514.289	263.1
517.832	17.1094
521.373	166.094
524.913	69.7617
528.451	110.857
531.987	32.4102
535.522	182.428
539.056	328.221
542.588	694.018
546.118	1057.79
549.647	1586.52
553.175	2167.54
556.701	2596.78
560.225	2604.11
563.748	2296.01
567.27	1984.08
570.79	1644.52
574.308	1328.65
577.825	1138.33
581.341	1070.6
584.855	1302.61
588.368	1291.12
591.879	1260.32
595.388	1381.72
598.896	1296.39
602.403	1051.3
605.908	1188.14
609.412	1294.49
612.914	1340.86
616.414	1639.44
619.913	1719.51
623.411	2065.34
626.907	2241.87
630.402	2582.04
633.895	2879.03
637.387	3409.62
640.877	4162.39
644.366	5457.27
647.853	7216.44
651.339	9413.58
654.823	9581.15
658.306	7850.85
661.787	5971.81
665.267	4805.72
668.745	4300.56
672.222	4038.62
675.697	4480.95
679.171	4668.06
682.643	5325.93
686.114	5901.42
689.584	6335.03
693.052	6740.34
696.518	7095.74
699.983	7255.73
703.447	7403.79
706.909	7572.18
710.369	7535.03
713.828	7904.04
717.286	7820.14
720.742	7350.22
724.197	6827.62
727.65	6577.59
731.102	5828.22
734.552	5455.57
738.001	4897.52
741.448	4573.91
744.894	4198.61
748.338	3972.3
751.781	3895.99
755.222	3911.62
758.662	3669.2
762.101	3514.72
765.538	3784.16
768.973	2938.53
772.407	2686.84
775.84	2351.11
779.271	1894.32
782.701	1622.51
786.129	1791.67
789.556	1702.81
792.981	1125.91
796.405	841.986
799.827	590.062
803.248	391.117
806.667	272.164
810.085	18.1855
813.502	162.92
816.917	225.815
820.33	118.684
823.743	335.252
827.153	203.014
830.562	297.07
833.97	181.441
837.376	191.85
840.781	123.977
844.185	42.9355
847.587	132.555
850.987	129.125
854.386	410.668
857.784	779.533
861.18	932.76
864.574	1140.31
867.968	1309.87
871.359	1727.58
874.75	2264.97
878.138	2437.5
881.526	2979.03
884.912	3157.58
888.296	3622.26
891.679	3791.06
895.061	4457.21
898.441	4749.58
901.82	5191.77
905.197	5638.91
908.573	6062.08
911.947	6277.31
915.32	6674.65
918.691	6841.07
922.061	7095.61
925.43	7083.22
928.797	6891.9
932.163	6559.72
935.527	6419.7
938.89	6142.97
942.251	6045.4
945.611	6127.66
948.969	5724.92
952.326	5337.1
955.682	4863.74
959.036	3874.65
962.389	3111.57
965.74	2389.87
969.09	1918.55
972.438	1591.95
975.785	1444.57
979.131	1293.66
982.475	1504.63
985.817	1356.71
989.159	1495.86
992.498	1838.33
995.837	1961.64
999.174	2350.28
1002.51	2645.88
1005.84	3061.88
1009.18	3826.22
1012.51	4663.92
1015.84	5629
1019.16	6676.98
1022.49	7671.03
1025.82	8556.97
1029.14	9222.66
1032.46	9074.68
1035.79	8142.98
1039.11	6831.4
1042.42	5712.13
1045.74	4570.9
1049.06	3837.72
1052.37	3191.35
1055.68	2962.31
1058.99	2670.82
1062.3	2465.21
1065.61	2494.44
1068.92	2358.05
1072.22	2134.3
1075.53	2237.72
1078.83	2087.73
1082.13	1912.44
1085.43	1778.03
1088.73	1772.11
1092.03	1370.71
1095.32	1179.17
1098.62	962.59
1101.91	1003.21
1105.2	844.449
1108.49	726.221
1111.78	529.008
1115.07	473.098
1118.35	439.715
1121.64	431.455
1124.92	428.375
1128.2	345.168
1131.48	194.795
1134.76	188.84
1138.04	174.402
1141.31	150.713
1144.59	181.035
1147.86	5.01172
1151.13	121.941
1154.4	66.832
1157.67	47.3691
1160.94	45.1133
1164.2	32.5469
1167.47	121.609
1170.73	443.56
1173.99	18.4824
1177.25	72.3672
1180.51	57.0918
1183.77	105.836
1187.02	92.3398
1190.28	13.9219
1193.53	128.42
1196.78	165.135
1200.03	263.092
1203.28	89.8496
1206.53	261.074
1209.78	4.63672
1213.02	64.6328
1216.27	20.4121
1219.51	66.8711
1222.75	135.107
1225.99	177.029
1229.22	85.0137
1232.46	33.0371
1235.7	82.0469
1238.93	127.994
1242.16	515.971
1245.39	28.8379
1248.62	160.256
1251.85	163.762
1255.08	180.029
1258.3	173.6
1261.53	196.758
1264.75	39.2305
1267.97	352.111
1271.19	39.1074
1274.41	187.367
1277.62	180.307
1280.84	231.059
1284.05	413.711
1287.27	202.664
1290.48	191.471
1293.69	280.023
1296.9	437.945
1300.1	285.924
1303.31	313.553
1306.51	175.523
1309.72	223.41
1312.92	245.213
1316.12	522.877
1319.32	360.871
1322.51	171.838
1325.71	112.533
1328.9	165.268
1332.1	290.353
1335.29	181.24
1338.48	185.31
1341.67	326.121
1344.86	244.775
1348.04	217.721
1351.23	348.869
1354.41	197.451
1357.6	165.547
1360.78	369.818
1363.95	206.5
1367.13	316.678
1370.31	158.701
1373.49	272.902
1376.66	15.1484
1379.83	278.834
1383	73.9512
1386.17	290.961
1389.34	186.152
1392.51	56.2578
1395.67	285.57
1398.84	159.695
1402	203.555
1405.16	113.596
1408.32	163.965
1411.48	157.123
1414.64	210.76
1417.8	152.197
1420.95	283.932
1424.1	182.451
1427.26	56.0234
1430.41	423.842
1433.56	335.627
1436.7	311.434
1439.85	397.25
1443	302.17
1446.14	313.152
1449.28	298.959
1452.42	248.791
1455.56	204.607
1458.7	282.691
1461.84	166.353
1464.97	321.394
1468.11	204.033
1471.24	302.625
1474.37	79.1797
1477.5	255.467
1480.63	449.609
1483.76	481.875
1486.88	283.283
1490.01	190.256
1493.13	377.373
1496.26	330.139
1499.38	259.141
1502.49	181.893
1505.61	309.363
1508.73	145.713
1511.85	280.769
1514.96	229.654
1518.07	152.049
1521.18	158.707
1524.29	211.959
1527.4	324.33
1530.51	176.926
1533.61	46.9902
1536.72	271.475
1539.82	0
