Measurement: Raman, 514 nm, ccw, Raman Data Processed
Mineral: Laverovite
Rruff sample: R060216
Ideal chemistry: K_2_NaMn^2+^_7_Zr^4+^_2_(Si_4_O_12_)_2_O_2_(OH)_4_F
Locality: Desourdy Quarry, Mont Saint-Hilaire, Rouville County, Quebec, Canada
Source: Royal Ontario Museum
Description: Brown fragment showing lamellar habit. Type sample
Measured chemistry: (K_1.74_Na_0.18_[box]_0.08_)_Σ=2_(Na_0.92_Ca_0.08_)_Σ=1_(Mn_4.09_Fe^2+^_2.67_Mg_0.24_)_Σ=7_(Zr_1.42_Ti_0.58_)_Σ=2_(Si_7.86_Al_0.14_)_Σ=8_O_26_((OH)_3.14_O_0.86_)_Σ=4_
Pin_id: L01980
Orientation: Laser parallel to (1 1 0). Fiducial mark perpendicular to laser is parallel to c [0 0 1]
Raman shift (cm-1)	intensity
116.539	0
121.487	512.867
126.431	1149.45
131.373	2613.36
136.312	4687.77
141.248	9216.02
146.182	9964.11
151.113	6353.82
156.041	4629.72
160.966	4863.37
165.888	6591.67
170.808	5370.99
175.725	2632.7
180.639	607.389
185.55	66.4688
190.459	3.48242
195.365	548.99
200.268	1762.08
205.168	1197.72
210.066	949.352
214.96	1920.68
219.852	1704.64
224.742	1937.76
229.628	2184.25
234.512	2328.17
239.393	2714.85
244.271	2681.17
249.147	2880.61
254.02	2618.03
258.89	2518.07
263.757	1913.44
268.622	1270.7
273.483	927.793
278.342	889.346
283.199	966.658
288.052	1296.92
292.903	1626.54
297.751	1878.58
302.597	1958.42
307.439	1831.03
312.279	1767.38
317.117	1723.75
321.951	2069.32
326.783	2782.69
331.612	3801.67
336.438	4836.77
341.262	6037.93
346.083	6654.85
350.901	6506.97
355.716	5590.84
360.529	5110.48
365.339	4342.71
370.146	3608.68
374.951	3378.42
379.753	3165.19
384.552	2755.89
389.348	2561.26
394.142	2249.24
398.933	1773.05
403.721	1485.4
408.507	1141.34
413.29	1073.05
418.07	1045.48
422.847	1208.49
427.622	712.285
432.394	396.633
437.164	226.018
441.93	270.94
446.694	318.225
451.456	380.412
456.214	39.4629
460.97	205.535
465.724	70.375
470.474	153.312
475.222	174.357
479.967	120.982
484.71	282.191
489.449	37.3555
494.187	58.0527
498.921	65.1035
503.653	52.5293
508.382	75.5254
513.108	180.514
517.832	20.3086
522.553	36.1016
527.271	34.8906
531.987	296.519
536.7	751.01
541.411	1356.56
546.118	2236.26
550.823	3594.16
555.526	4758.6
560.225	4467.27
564.922	4081.74
569.617	3457.98
574.308	2971.12
578.998	2762.8
583.684	2956.3
588.368	3149.61
593.049	3475.97
597.727	3735.96
602.403	3901.13
607.076	4571.93
611.746	5073.84
616.414	5888.25
621.079	6684.85
625.742	7787.64
630.402	8654.33
635.059	10091.4
639.714	11916.8
644.366	14752.6
649.015	18005.8
653.662	18159.4
658.306	15665.6
662.947	13275.8
667.586	12559.6
672.222	13019.6
676.855	14230.9
681.486	15500.7
686.114	16687.9
690.74	17766
695.363	18424.2
699.983	19057.5
704.601	19367.7
709.216	19183.3
713.828	18931.6
718.438	17756.3
723.045	16653.4
727.65	15239.3
732.252	13268.7
736.851	11975.3
741.448	11100.1
746.042	10294.4
750.633	9756.22
755.222	9606.56
759.809	9017.05
764.392	8540.48
768.973	7643.24
773.552	7101.75
778.128	6610.16
782.701	5825.45
787.271	5363.7
791.839	4547.74
796.405	3477.41
800.968	2335.98
805.528	1873.33
810.085	1003.17
814.64	488.408
819.193	348.969
823.743	51.8379
828.29	148.9
832.834	383.508
837.376	408.406
841.916	460.955
846.453	342.551
850.987	281.869
855.519	77.9297
860.048	493.065
864.574	636.264
869.098	1295.8
873.62	1617.02
878.138	2353.89
882.655	3255.19
887.168	3891.42
891.679	4655.61
896.188	5426.59
900.694	6344.29
905.197	7150.35
909.698	7924.74
914.196	8603.43
918.691	9034.52
923.184	9091.08
927.675	8895.02
932.163	8610.41
936.648	8190.72
941.131	7696.05
945.611	7426.69
950.089	6399.62
954.564	5453.16
959.036	4418.57
963.506	3573.6
967.973	2671.72
972.438	2293.2
976.901	2171.47
981.36	2267.55
985.817	2622.54
990.272	3403.09
994.724	4051.36
999.174	5314.09
1003.62	7419.82
1008.07	10100.7
1012.51	12644.4
1016.95	16294.7
1021.38	20024.1
1025.82	21941
1030.25	22071
1034.68	20356.8
1039.11	16689.8
1043.53	12838.5
1047.95	10188.8
1052.37	8174.41
1056.79	6417.04
1061.2	6122.55
1065.61	4842.58
1070.02	4898.15
1074.43	4548.6
1078.83	4127.57
1083.23	3673.7
1087.63	3427.25
1092.03	2766.18
1096.42	1994.53
1100.81	1628.15
1105.2	974.109
1109.59	630.129
1113.97	529.359
1118.35	238.328
1122.73	10.4531
1127.11	447.824
1131.48	82.8477
1135.85	72.1094
1140.22	133.789
1144.59	8.30859
1148.95	95.9805
1153.31	5.20312
1157.67	59.9844
1162.03	110.582
1166.38	7.78906
1170.73	145.695
1175.08	88.707
1179.42	5.71484
1183.77	66.8047
1188.11	33.2422
1192.45	424.273
1196.78	73.3555
1201.12	102.453
1205.45	63.3711
1209.78	251.137
1214.1	444.055
1218.43	267.223
1222.75	547.477
1227.07	366.926
1231.38	380.602
1235.7	531.434
1240.01	327.91
1244.32	491.41
1248.62	448.461
1252.93	622.332
1257.23	779.086
1261.53	505.766
1265.82	595.508
1270.12	304.898
1274.41	673.109
1278.7	593.973
1282.98	565.055
1287.27	874.734
1291.55	727.871
1295.83	660.066
1300.1	785.898
1304.38	569.332
1308.65	617.512
1312.92	868.348
1317.18	708.273
1321.45	746.562
1325.71	775.82
1329.97	919.82
1334.23	780.738
1338.48	980.688
1342.73	992.441
1346.98	815.871
1351.23	924.309
1355.47	870.121
1359.72	1101.44
1363.95	904.844
1368.19	1097.75
1372.43	911.012
1376.66	1049.51
1380.89	1047.1
1385.12	847.266
1389.34	932.504
1393.56	809.301
1397.78	800.555
1402	747.262
1406.22	577.262
1410.43	557.438
1414.64	435.492
1418.85	468.106
1423.05	615.469
1427.26	237.133
1431.46	243.871
1435.65	327.391
1439.85	115.012
1444.04	47.2773
1448.23	137.844
1452.42	286.867
1456.61	285.277
1460.79	134.914
1464.97	150.731
1469.15	74.7852
1473.33	149.461
1477.5	84.0664
1481.67	248.012
1485.84	70.3438
1490.01	333.016
1494.17	228.781
1498.34	130.59
1502.49	242.731
1506.65	90.3203
