Measurement: Raman, 514 nm, ccw, Raman Data Processed
Mineral: Laverovite
Rruff sample: R060216
Ideal chemistry: K_2_NaMn^2+^_7_Zr^4+^_2_(Si_4_O_12_)_2_O_2_(OH)_4_F
Locality: Desourdy Quarry, Mont Saint-Hilaire, Rouville County, Quebec, Canada
Source: Royal Ontario Museum
Description: Brown fragment showing lamellar habit. Type sample
Measured chemistry: (K_1.74_Na_0.18_[box]_0.08_)_Σ=2_(Na_0.92_Ca_0.08_)_Σ=1_(Mn_4.09_Fe^2+^_2.67_Mg_0.24_)_Σ=7_(Zr_1.42_Ti_0.58_)_Σ=2_(Si_7.86_Al_0.14_)_Σ=8_O_26_((OH)_3.14_O_0.86_)_Σ=4_
Pin_id: L01980
Orientation: Laser parallel to (1 1 0). Fiducial mark perpendicular to laser is parallel to c [0 0 1]
Raman shift (cm-1)	intensity
159.735	0
164.658	3068.84
169.578	3971.87
174.496	2308.82
179.411	970.74
184.323	601.35
189.232	272.365
194.138	484.176
199.042	203.397
203.943	898.332
208.841	1581.13
213.737	1452.05
218.63	2370.92
223.52	3270.78
228.407	4723.61
233.291	5574.44
238.173	6139.08
243.052	6179.02
247.928	5944.98
252.802	4931.15
257.672	4529.5
262.54	3928.86
267.406	3798.48
272.268	2946.39
277.128	2237.4
281.985	1866.23
286.839	2408.88
291.691	2845.4
296.54	3344.83
301.386	3212.72
306.229	2974.31
311.07	2700.75
315.908	2457.34
320.743	2603.83
325.575	2878.22
330.405	3337.6
335.232	4535.59
340.056	5496.59
344.878	6323.16
349.697	6496.5
354.513	6998.8
359.326	7139.93
364.137	7279.94
368.945	6956.46
373.75	6487.94
378.552	5971.01
383.352	5498.14
388.149	5142.98
392.944	4664.72
397.735	4255.71
402.524	4056.9
407.311	3622
412.094	3934.47
416.875	4178.22
421.653	4308.29
426.429	3190.77
431.202	2165.73
435.972	862.232
440.739	660.824
445.504	530.055
450.266	521.207
455.025	299.731
459.782	320.549
464.535	67.8731
469.287	295.891
474.035	229.865
478.781	315.129
483.524	338.65
488.265	372.658
493.003	202.93
497.738	87.3125
502.47	139.397
507.2	4.45508
511.927	20.6035
516.651	143.973
521.373	0.503906
526.092	159.223
530.808	265.481
535.522	695.533
540.233	1287.71
544.942	2758.68
549.647	4658.53
554.35	6550.05
559.051	7033.48
563.748	6264.9
568.443	4831.91
573.136	4346.79
577.825	3690.24
582.513	3836.28
587.197	4295.36
591.879	4243.37
596.558	3701.97
601.234	4004.8
605.908	3948.89
610.579	4240.96
615.248	5039.57
619.913	5767.33
624.577	6343.98
629.237	7857.18
633.895	9557.46
638.55	12201.3
643.203	17051.1
647.853	24285.8
652.5	29221.4
657.145	25332.5
661.787	18075.9
666.426	14281.3
671.063	13497.7
675.697	14354.8
680.329	16046.9
684.957	18009.5
689.584	19792.9
694.207	21098.4
698.828	22057.9
703.447	23010.6
708.062	23334.9
712.675	23612.2
717.286	23024.7
721.894	20857.4
726.499	18584.4
731.102	16314.4
735.702	14289.3
740.299	12467
744.894	11214.8
749.486	10046.9
754.075	9408.13
758.662	9191.05
763.247	8517.81
767.828	7957.68
772.407	6691.47
776.984	6461.2
781.558	5443.93
786.129	4629.06
790.698	4167.97
795.264	3066.55
799.827	2200.03
804.388	1416.26
808.946	714.178
813.502	8.66406
818.055	176.594
822.605	383.129
827.153	511.879
831.699	552.148
836.241	376.852
840.781	409.34
845.319	114.728
849.854	163.967
854.386	630.133
858.916	1359.87
863.443	2343.18
867.968	3245.05
872.49	4697.52
877.009	5759.61
881.526	7714.3
886.04	8857.61
890.552	10312.6
895.061	12006.7
899.567	14139
904.071	16257
908.573	18474.6
913.071	20184.9
917.568	21452.9
922.061	21656.8
926.552	22137.4
931.041	21135.7
935.527	19811
940.01	18519.3
944.491	17493.1
948.969	16321.5
953.445	14408.2
957.918	10919.4
962.389	7940.3
966.857	5703.02
971.322	4242.93
975.785	3276.28
980.246	2989.53
984.703	3149
989.159	3631.11
993.611	4306.34
998.062	5351.67
1002.51	6984.1
1006.95	8948.24
1011.4	12164
1015.84	16028.6
1020.27	19874.3
1024.71	23521.2
1029.14	25361.1
1033.57	24113
1038	20590
1042.42	15847.5
1046.85	12104.5
1051.27	9464.56
1055.68	7498.46
1060.1	6371.52
1064.51	5868.24
1068.92	5298.48
1073.33	5467.55
1077.73	5038.8
1082.13	4550.56
1086.53	3969.54
1090.93	3531.24
1095.32	3211.17
1099.71	2612.56
1104.1	1836.5
1108.49	1212.98
1112.88	833.424
1117.26	701.019
1121.64	626.406
1126.01	391.285
1130.39	73.8613
1134.76	170.289
1139.13	45.5449
1143.49	121.424
1147.86	144.672
1152.22	100.58
1156.58	61.3008
1160.94	206.385
1165.29	132.594
1169.64	118.533
1173.99	66.7793
1178.34	144.635
1182.68	133.81
1187.02	13.4141
1191.36	21.4082
1195.7	35.1543
1200.03	75.3418
1204.37	86.499
1208.69	197.446
1213.02	129.963
1217.35	232.547
1221.67	169.125
1225.99	168.019
1230.3	684.401
1234.62	236.321
1238.93	231.675
1243.24	211.026
1247.55	428.7
1251.85	238.252
1256.15	228.397
1260.45	254.644
1264.75	516.674
1269.04	294.479
1273.34	380.052
1277.62	282.96
1281.91	340.871
1286.2	398.046
1290.48	258.173
1294.76	461.567
1299.03	365.116
1303.31	390.193
1307.58	586.902
1311.85	429.867
1316.12	240.986
1320.38	141.467
1324.64	244.447
1328.9	108.945
1333.16	603.76
1337.42	220.391
1341.67	137.316
1345.92	237.369
1350.17	4.45117
1354.41	122.049
1358.66	172.469
1362.9	191.191
1367.13	108.102
1371.37	216.42
1375.6	152.228
1379.83	102.914
1384.06	236.672
1388.29	239.807
1392.51	288.031
1396.73	61.0879
1400.95	188.562
1405.16	233.408
1409.38	158.012
1413.59	130.955
1417.8	213.295
1422	271.279
1426.21	395.037
1430.41	466.172
1434.61	731.834
1438.8	803.141
1443	950.219
1447.19	1076.17
1451.38	1002.85
1455.56	791.533
1459.75	600.598
1463.93	752.051
1468.11	622.705
1472.29	454.861
1476.46	514.219
1480.63	383.609
1484.8	385.688
1488.97	443.572
1493.13	396.486
1497.3	326.68
1501.46	326.59
1505.61	438.266
1509.77	418.312
1513.92	324.045
1518.07	330.857
1522.22	280.596
1526.37	372.15
1530.51	94.0762
1534.65	236.43
1538.79	395.389
1542.92	373.658
1547.06	367.908
1551.19	339.096
1555.32	1.56641
1559.44	432
1563.57	486.857
1567.69	267.576
