Measurement: Raman, 514 nm, ccw, Raman Data Processed
Mineral: Laverovite
Rruff sample: R060216
Ideal chemistry: K_2_NaMn^2+^_7_Zr^4+^_2_(Si_4_O_12_)_2_O_2_(OH)_4_F
Locality: Desourdy Quarry, Mont Saint-Hilaire, Rouville County, Quebec, Canada
Source: Royal Ontario Museum
Description: Brown fragment showing lamellar habit. Type sample
Measured chemistry: (K_1.74_Na_0.18_[box]_0.08_)_Σ=2_(Na_0.92_Ca_0.08_)_Σ=1_(Mn_4.09_Fe^2+^_2.67_Mg_0.24_)_Σ=7_(Zr_1.42_Ti_0.58_)_Σ=2_(Si_7.86_Al_0.14_)_Σ=8_O_26_((OH)_3.14_O_0.86_)_Σ=4_
Pin_id: L00587
Orientation: Laser parallel to -b* (0 -1 0). Fiducial mark perpendicular to laser is parallel to -c [0 0 -1]
Raman shift (cm-1)	intensity
159.735	0
164.658	1965.71
169.578	2374.51
174.496	1210.19
179.411	719.951
184.323	439.83
189.232	1034.36
194.138	2124.71
199.042	3611.62
203.943	3862.5
208.841	136.06
213.737	438.955
218.63	909.293
223.52	1578.84
228.407	2538.41
233.291	3416.79
238.173	4156.78
243.052	4143.77
247.928	2861.4
252.802	1997.17
257.672	1409.74
262.54	935.312
267.406	604.252
272.268	155.938
277.128	398.484
281.985	27.5859
286.839	203.117
291.691	113.678
296.54	179.281
301.386	73.3125
306.229	30.8926
311.07	291.356
315.908	404.963
320.743	596.793
325.575	952.057
330.405	825.672
335.232	1146.08
340.056	1473.34
344.878	2009.47
349.697	1556.63
354.513	1675.82
359.326	1905.12
364.137	1815.87
368.945	1882.76
373.75	1942.07
378.552	1464.86
383.352	1891.7
388.149	1705.05
392.944	1345.53
397.735	1362.95
402.524	1051.15
407.311	829.672
412.094	577.731
416.875	609.606
421.653	646.988
426.429	364.383
431.202	169.705
435.972	15.8262
440.739	39.5312
445.504	149.481
450.266	136.623
455.025	285.721
459.782	283.115
464.535	1048.13
469.287	1363.79
474.035	1474.99
478.781	1276.54
483.524	1029.39
488.265	1031.07
493.003	639.113
497.738	540.18
502.47	219.859
507.2	128.842
511.927	197.973
516.651	37.4805
521.373	287.213
526.092	50.6133
530.808	100.43
535.522	143.428
540.233	585.582
544.942	1300.63
549.647	2459.49
554.35	3731.62
559.051	4445.17
563.748	4343.44
568.443	3717.05
573.136	2531.56
577.825	1926.36
582.513	1984.58
587.197	2232.53
591.879	2420.3
596.558	2183.19
601.234	2140.09
605.908	2000.99
610.579	2423.77
615.248	2538.39
619.913	3002.86
624.577	3513.19
629.237	3806.4
633.895	4536.51
638.55	5693.53
643.203	7538.47
647.853	10849.4
652.5	15063.9
657.145	13839.8
661.787	9661.34
666.426	7613.25
671.063	6700.24
675.697	7340.27
680.329	8338.48
684.957	9365.31
689.584	10733.1
694.207	11596.5
698.828	12303.5
703.447	12839.6
708.062	13053
712.675	13123.5
717.286	12806.3
721.894	12185.6
726.499	11068.4
731.102	9834.59
735.702	8727.33
740.299	7344.09
744.894	6723.93
749.486	6059.85
754.075	5569.7
758.662	5572.6
763.247	4951.82
767.828	4228.35
772.407	3429.17
776.984	2651.26
781.558	1896.62
786.129	1567.25
790.698	1276.19
795.264	974.447
799.827	545.082
804.388	389.113
808.946	103.051
813.502	65.7188
818.055	30.9922
822.605	161.293
827.153	119.062
831.699	206.211
836.241	158.443
840.781	12.2578
845.319	109.592
849.854	74.0254
854.386	18.2598
858.916	375.266
863.443	313.275
867.968	730.307
872.49	764.352
877.009	1051.41
881.526	1167.48
886.04	1313.75
890.552	1560.67
895.061	1800.81
899.567	2158.12
904.071	2581.51
908.573	2471.96
913.071	2718.64
917.568	2983.5
922.061	3019.4
926.552	2876.42
931.041	3063.5
935.527	2664.65
940.01	2832.85
944.491	2498.53
948.969	2440.45
953.445	2465.01
957.918	1906.73
962.389	1590.4
966.857	1079.31
971.322	1197.71
975.785	1159.96
980.246	915.832
984.703	1101.31
989.159	943.58
993.611	1266.94
998.062	1659.11
1002.51	1832.76
1006.95	2325.9
1011.4	2811.56
1015.84	3268.8
1020.27	4391.53
1024.71	4014.78
1029.14	4278.31
1033.57	4163.88
1038	3686.64
1042.42	3009.67
1046.85	2697.57
1051.27	2272.89
1055.68	2246.51
1060.1	2646.95
1064.51	2367.45
1068.92	2411.88
1073.33	2321.68
1077.73	2494.3
1082.13	2438.6
1086.53	2020.94
1090.93	1443.15
1095.32	1362.18
1099.71	1224.63
1104.1	828.004
1108.49	707.367
1112.88	748.119
1117.26	577.396
1121.64	522.596
1126.01	540.293
1130.39	293.277
1134.76	314.475
1139.13	143.164
1143.49	174.6
1147.86	173.596
1152.22	143.35
1156.58	11.7305
1160.94	38.0918
1165.29	152.648
1169.64	16.6172
1173.99	148.309
1178.34	135.357
1182.68	15.9902
1187.02	59.8145
1191.36	74.4844
1195.7	17.791
1200.03	384.25
1204.37	154.111
1208.69	111.256
1213.02	112.562
1217.35	21.248
1221.67	97.4766
1225.99	133.252
1230.3	42.4551
1234.62	265.328
1238.93	236.697
1243.24	240.66
1247.55	87.0781
1251.85	207.414
1256.15	156.203
1260.45	199.906
1264.75	258.32
1269.04	538.801
1273.34	353.68
1277.62	305.856
1281.91	582.691
1286.2	434.473
1290.48	388.83
1294.76	312.807
1299.03	204.996
1303.31	361.447
1307.58	433.768
1311.85	256.781
1316.12	267.574
1320.38	339.779
1324.64	94.6348
1328.9	415.244
1333.16	305
1337.42	319.727
1341.67	356.188
1345.92	30.5098
1350.17	85.7324
1354.41	323.193
1358.66	275.518
1362.9	308.518
1367.13	223.072
1371.37	69.1875
1375.6	284.174
1379.83	264.428
1384.06	256.182
1388.29	325.934
1392.51	275.147
1396.73	338.799
1400.95	398.482
1405.16	191.332
1409.38	163.463
1413.59	228.603
1417.8	258.359
1422	81.2637
1426.21	100.125
1430.41	337.842
1434.61	443.199
1438.8	461.09
1443	437.69
1447.19	427.607
1451.38	528.17
1455.56	181.486
1459.75	433.217
1463.93	75.1055
1468.11	390.715
1472.29	230.582
1476.46	91.7656
1480.63	308.59
1484.8	161.047
1488.97	176.227
1493.13	308.199
1497.3	309.027
1501.46	313.012
1505.61	236.238
1509.77	81.1484
1513.92	483.938
1518.07	198.875
1522.22	417.894
1526.37	328.711
1530.51	118.551
1534.65	127.348
1538.79	341.793
1542.92	408.961
1547.06	27.7383
1551.19	145.203
1555.32	465.812
1559.44	562.098
1563.57	57.0352
1567.69	8.67969
