Measurement: Raman, 514 nm, ccw, Raman Data Processed
Mineral: Laverovite
Rruff sample: R060216
Ideal chemistry: K_2_NaMn^2+^_7_Zr^4+^_2_(Si_4_O_12_)_2_O_2_(OH)_4_F
Locality: Desourdy Quarry, Mont Saint-Hilaire, Rouville County, Quebec, Canada
Source: Royal Ontario Museum
Description: Brown fragment showing lamellar habit. Type sample
Measured chemistry: (K_1.74_Na_0.18_[box]_0.08_)_Σ=2_(Na_0.92_Ca_0.08_)_Σ=1_(Mn_4.09_Fe^2+^_2.67_Mg_0.24_)_Σ=7_(Zr_1.42_Ti_0.58_)_Σ=2_(Si_7.86_Al_0.14_)_Σ=8_O_26_((OH)_3.14_O_0.86_)_Σ=4_
Pin_id: L00725
Orientation: Laser parallel to c* (0 0 1). Fiducial mark perpendicular to laser is parallel to a [1 0 0]
Raman shift (cm-1)	intensity
114.44	0
119.365	345.684
124.288	1766.57
129.209	2168.3
134.127	989.248
139.043	58.1543
143.956	0.626953
148.867	1447.92
153.775	1445.17
158.681	2263.11
163.585	5566.92
168.486	8621.35
173.385	7648.35
178.282	4510.4
183.176	2819.31
188.067	2761.89
192.956	3110.66
197.843	4836.62
202.727	7436.61
207.609	3841.13
212.489	4004.22
217.366	4857.73
222.24	6130
227.112	7384.59
231.982	9241.75
236.849	11017.2
241.714	11872.8
246.577	9460.73
251.437	6040.11
256.294	3961.2
261.149	5087.19
266.002	2139.71
270.852	1586.86
275.7	761.701
280.545	89.1191
285.388	14.1172
290.229	11.5098
295.067	219.865
299.902	444.33
304.735	593.064
309.566	662.09
314.394	900.186
319.22	1276.7
324.043	2101.47
328.864	2281.77
333.682	2865.79
338.498	3513.65
343.311	3565.07
348.122	3812.88
352.931	4086.32
357.737	4037.62
362.54	4131.85
367.341	4001.9
372.14	3588.15
376.936	3893.28
381.73	4144.6
386.521	3946.03
391.31	3084.06
396.096	2321.82
400.88	1696.4
405.661	1271.86
410.44	692.547
415.216	515.215
419.99	312.478
424.761	71.3164
429.53	429.227
434.297	702.736
439.061	790.908
443.822	513.719
448.581	317.721
453.337	40.9238
458.091	946.434
462.843	2010.6
467.592	3112.37
472.338	3360.85
477.082	2811.52
481.824	2614.29
486.563	2294.25
491.3	1913.53
496.034	1372.31
500.765	946.723
505.494	792.916
510.221	348.992
514.945	297.041
519.666	91.5781
524.385	161.461
529.102	369.023
533.816	576.936
538.527	1198.29
543.236	2290.18
547.943	4636.98
552.647	8015.49
557.348	10341
562.047	10035.7
566.744	8326.68
571.438	6954.79
576.129	5561.57
580.818	4595.9
585.504	4343.06
590.188	4594.61
594.87	4616.67
599.549	4563.19
604.225	4695.76
608.899	5424.66
613.57	6410.87
618.239	7299.41
622.905	8422.31
627.569	10048.6
632.23	11758.3
636.889	14651.5
641.545	19394.2
646.198	27409.3
650.849	38591
655.498	41485.2
660.144	33344.8
664.787	26021.1
669.428	23699.8
674.067	24998.1
678.703	27355.9
683.336	30858.4
687.967	33781.6
692.595	35209.8
697.221	35638.6
701.844	34997
706.465	33975.4
711.083	32476.5
715.698	30154.5
720.311	27389.5
724.922	24494.2
729.53	21583.4
734.135	18486
738.738	15910.1
743.338	13815.5
747.936	12429
752.531	11424.8
757.124	10213.6
761.714	9373.5
766.302	8062.4
770.887	6610.24
775.469	5599.97
780.049	4718.53
784.626	3815.85
789.201	3323.58
793.773	2584.57
798.343	2032.84
802.91	1168.65
807.475	847.91
812.037	536.576
816.596	76.5742
821.153	226.815
825.707	287.84
830.259	399.986
834.808	593.592
839.355	437.393
843.899	203.168
848.441	368.266
852.98	142.103
857.516	162.041
862.05	176.043
866.581	611.453
871.11	779.461
875.636	1313.92
880.159	1722.92
884.68	2283.49
889.199	2949.1
893.714	3617.31
898.228	3863.03
902.738	4507.29
907.246	5056.09
911.752	5841.31
916.255	5967.03
920.755	6930.12
925.253	7161.65
929.748	7316.04
934.241	7388.94
938.731	7371.53
943.218	7210.29
947.703	7084.18
952.186	7751.15
956.665	5890.06
961.142	4722.72
965.617	3558.58
970.089	2805.5
974.558	2245.59
979.025	2129.6
983.489	2083.92
987.951	1802.01
992.41	2008.96
996.866	2520.65
1001.32	3009.38
1005.77	3707.18
1010.22	4799.02
1014.67	6236.48
1019.11	7437.43
1023.55	8252.67
1027.99	8182.23
1032.42	7953.74
1036.86	7200.59
1041.29	6040.84
1045.72	5364.74
1050.14	4856.16
1054.56	4569.5
1058.98	4070.31
1063.4	3994.14
1067.82	3983.85
1072.23	3968.59
1076.64	3987.98
1081.05	3625
1085.45	3314.06
1089.85	2842.62
1094.25	2440.64
1098.65	2048.44
1103.04	1559.73
1107.43	1199.16
1111.82	735.756
1116.21	679.396
1120.59	375.545
1124.97	179.725
1129.35	468.353
1133.73	218.744
1138.1	89.4531
1142.47	23.2695
1146.84	22.502
1151.21	173.133
1155.57	2.61328
1159.93	33.5527
1164.29	205.828
1168.64	81.9746
1172.99	8.0625
1177.34	71.5273
1181.69	37.7344
1186.04	118.822
1190.38	106.248
1194.72	46.9785
1199.05	6.30273
1203.39	222.309
1207.72	81.4297
1212.05	156.603
1216.37	75.0019
1220.7	266.629
1225.02	180.236
1229.34	206.555
1233.65	476.783
1237.97	296.498
1242.28	224.654
1246.59	263.769
1250.89	217.93
1255.19	434.037
1259.49	322.594
1263.79	416.912
1268.09	206.992
1272.38	534.111
1276.67	470.955
1280.95	318.148
1285.24	346.397
1289.52	384.674
1293.8	538.893
1298.08	470.256
1302.35	213.059
1306.62	485.625
1310.89	283.705
1315.15	402.609
1319.42	269.031
1323.68	220.455
1327.94	328.147
1332.19	265.203
1336.44	679.824
1340.69	239.518
1344.94	194.684
1349.19	93.2676
1353.43	271.1
1357.67	280.469
1361.9	116.424
1366.14	10.7734
1370.37	111.721
1374.6	206.414
1378.83	63.082
1383.05	129.955
1387.27	111.061
1391.49	273.693
1395.7	26.2461
1399.92	115.856
1404.13	32.6758
1408.34	88.5273
1412.54	330.984
1416.74	97.3281
1420.94	237.488
1425.14	261.658
1429.34	125.434
1433.53	32.8867
1437.72	8.10742
1441.9	91.4473
1446.09	207.473
1450.27	263.188
1454.45	26.8633
1458.63	62.6055
1462.8	222.707
1466.97	219.807
1471.14	241.978
1475.31	131.744
1479.47	262.09
1483.63	279.853
1487.79	105.9
1491.94	93.1016
1496.09	39.1699
1500.24	187.43
1504.39	123.805
1508.54	189.223
1512.68	280.647
1516.82	305.328
1520.95	58.0195
1525.09	55.6465
1529.22	205.897
1533.35	5.9082
1537.47	51.8535
1541.6	147.162
