Measurement: Raman, 514 nm, ccw, Raman Data Processed
Mineral: Laverovite
Rruff sample: R060216
Ideal chemistry: K_2_NaMn^2+^_7_Zr^4+^_2_(Si_4_O_12_)_2_O_2_(OH)_4_F
Locality: Desourdy Quarry, Mont Saint-Hilaire, Rouville County, Quebec, Canada
Source: Royal Ontario Museum
Description: Brown fragment showing lamellar habit. Type sample
Measured chemistry: (K_1.74_Na_0.18_[box]_0.08_)_Σ=2_(Na_0.92_Ca_0.08_)_Σ=1_(Mn_4.09_Fe^2+^_2.67_Mg_0.24_)_Σ=7_(Zr_1.42_Ti_0.58_)_Σ=2_(Si_7.86_Al_0.14_)_Σ=8_O_26_((OH)_3.14_O_0.86_)_Σ=4_
Pin_id: M00393
Orientation: Laser parallel to a* (1 0 0). Fiducial mark perpendicular to laser is parallel to b [0 1 0]
Raman shift (cm-1)	intensity
121.827	0
126.749	150.164
131.668	63.3457
136.585	552.576
141.5	264.141
146.412	336.533
151.321	1381.96
156.229	1872.09
161.134	3914.68
166.036	5984.83
170.936	6985.56
175.834	5625.82
180.729	4004.38
185.622	2765.48
190.512	2416.55
195.4	1952.55
200.286	2795.84
205.169	1383.03
210.049	1658.89
214.928	1725.61
219.803	1664.22
224.677	1319.18
229.548	1180.19
234.416	1007.99
239.282	745.326
244.146	786.174
249.007	745.881
253.866	636.791
258.722	419.375
263.576	561.211
268.427	582.227
273.276	463.631
278.123	424.754
282.967	14.2168
287.809	162.025
292.648	169.69
297.485	299.004
302.319	151.916
307.151	271.426
311.98	506.41
316.807	226.893
321.631	385.549
326.454	472.682
331.273	562.619
336.09	830.494
340.905	975.512
345.717	1010.79
350.527	999.193
355.334	969.961
360.139	888.041
364.941	937.164
369.741	813.045
374.538	549.289
379.333	360.752
384.126	296.793
388.916	331.984
393.703	79.8965
398.488	1.48633
403.271	172.525
408.051	11.9941
412.828	48.1328
417.603	32.7695
422.376	36.082
427.146	85.2812
431.914	148.973
436.679	212.725
441.442	9.98242
446.202	206.805
450.96	156.281
455.715	94.8516
460.467	211.285
465.218	289.328
469.965	362.281
474.711	317.775
479.454	465.99
484.194	124.434
488.932	24.1309
493.667	206.096
498.4	108.367
503.13	41.0215
507.858	102.156
512.583	149.725
517.306	112.613
522.026	96.9434
526.744	131.414
531.459	115.439
536.172	294.062
540.882	474.098
545.59	791.422
550.295	1146.39
554.998	1374.82
559.698	1975.88
564.396	1243.92
569.091	971.561
573.784	861.32
578.474	694.531
583.162	844.297
587.847	1124.55
592.529	1405.21
597.209	1378.07
601.887	2711.45
606.562	1948.33
611.235	2021.75
615.905	2923.57
620.572	3040.69
625.237	3487.71
629.9	3855.19
634.56	4252.9
639.217	5150.22
643.872	5670.6
648.524	6989.98
653.174	7427.28
657.821	7040.37
662.466	6608.78
667.108	6174.19
671.748	5871.02
676.385	6569.4
681.02	7036.78
685.652	7873.4
690.281	8166.44
694.908	8707.74
699.533	9265.73
704.155	9320.01
708.774	9474.25
713.391	9811.81
718.005	9915.09
722.617	9237.19
727.226	8555.19
731.833	8167.94
736.437	7799.72
741.039	6945.52
745.638	6716.77
750.234	6596.64
754.828	6475.77
759.419	6198.09
764.008	6360.78
768.595	5930.73
773.178	5685.17
777.759	5326.88
782.338	4892.92
786.914	4479.38
791.488	3390.39
796.059	2833.09
800.627	1949.35
805.193	1664.11
809.756	1363.25
814.317	1087.63
818.875	646.223
823.431	572.504
827.984	266.953
832.534	88.9688
837.082	148.699
841.627	130.113
846.17	363.75
850.71	101.324
855.248	288.312
859.783	561.449
864.316	58.0703
868.846	143.223
873.373	14.7773
877.898	50.2148
882.42	74.3984
886.94	115.84
891.457	143.211
895.971	200.617
900.483	478.07
904.993	397.465
909.5	300.797
914.004	336.121
918.505	580.535
923.004	893.176
927.501	487.894
931.995	541.777
936.486	652.691
940.975	1033.46
945.461	1037.12
949.945	1231.65
954.426	1143.09
958.904	1115.39
963.38	1162.53
967.853	1097.66
972.324	1243.99
976.792	1497
981.258	1561.93
985.72	1883.55
990.181	2675.07
994.639	3184.79
999.094	4195.26
1003.55	5696.66
1008	7158.88
1012.44	9570.27
1016.89	12863.5
1021.33	15341.1
1025.77	17503.9
1030.21	18779.4
1034.64	17095.4
1039.07	13461
1043.5	10346.8
1047.93	7668.9
1052.35	5982.74
1056.78	4747.58
1061.19	4250.73
1065.61	3946.57
1070.02	3502.08
1074.43	3066.67
1078.84	2853.88
1083.25	2492.09
1087.65	1892.11
1092.05	1819.86
1096.45	1502.12
1100.85	896.664
1105.24	770.043
1109.63	376.375
1114.02	368.742
1118.4	197
1122.78	269.973
1127.16	277.352
1131.54	32.8047
1135.92	83.3203
1140.29	124.914
1144.66	225.176
1149.02	133.555
1153.39	3.28125
1157.75	115.199
1162.11	262.871
1166.46	112.785
1170.82	157.711
1175.17	52.4805
1179.52	103.035
1183.86	49.0156
1188.21	137.019
1192.55	84.8047
1196.89	36.6758
1201.22	149.422
1205.55	31.457
1209.88	184.981
1214.21	200.055
1218.54	12.0117
1222.86	152.727
1227.18	138.609
1231.5	111.644
1235.81	33.4453
1240.12	430.527
1244.43	230.848
1248.74	361.981
1253.04	566.926
1257.34	511.898
1261.64	74.6328
1265.94	191.75
1270.23	611.023
1274.52	315.492
1278.81	497.484
1283.1	487.098
1287.38	274.824
1291.66	409.277
1295.94	549.07
1300.21	385.606
1304.48	619.809
1308.75	648.062
1313.02	458.481
1317.29	616.426
1321.55	599.602
1325.81	583.144
1330.06	525.68
1334.32	617.672
1338.57	303.863
1342.82	553.106
1347.06	380.195
1351.31	524.637
1355.55	388.34
1359.79	651.617
1364.02	408.648
1368.26	442.398
1372.49	639.457
1376.71	244.773
1380.94	135.133
1385.16	404.449
1389.38	479.594
1393.6	169.977
1397.81	211.293
1402.02	124.402
1406.23	385.606
1410.44	232.406
1414.64	62.0352
1418.85	322.293
1423.04	898.516
1427.24	95.8359
1431.43	90.6953
1435.62	173.391
1439.81	176.363
1444	342.57
1448.18	12.9766
1452.36	216.938
1456.54	51.6367
1460.71	351.242
1464.89	311.496
1469.06	183.805
1473.22	128.844
1477.39	83.1875
1481.55	708
1485.71	93.3711
1489.86	234.078
1494.02	541.828
1498.17	529.266
1502.32	360.027
1506.46	336.359
1510.61	134.094
1514.75	614.301
1518.88	322.371
1523.02	424.418
1527.15	464.668
1531.28	215.914
1535.41	484.891
1539.53	415.195
1543.66	317.383
1547.78	168.203
1551.89	289.422
1556.01	305.312
1560.12	343.949
1564.23	90.1641
1568.33	363.945
