Measurement: Raman, 514 nm, ccw, Raman Data Processed
Mineral: Laverovite
Rruff sample: R060216
Ideal chemistry: K_2_NaMn^2+^_7_Zr^4+^_2_(Si_4_O_12_)_2_O_2_(OH)_4_F
Locality: Desourdy Quarry, Mont Saint-Hilaire, Rouville County, Quebec, Canada
Source: Royal Ontario Museum
Description: Brown fragment showing lamellar habit. Type sample
Measured chemistry: (K_1.74_Na_0.18_[box]_0.08_)_Σ=2_(Na_0.92_Ca_0.08_)_Σ=1_(Mn_4.09_Fe^2+^_2.67_Mg_0.24_)_Σ=7_(Zr_1.42_Ti_0.58_)_Σ=2_(Si_7.86_Al_0.14_)_Σ=8_O_26_((OH)_3.14_O_0.86_)_Σ=4_
Pin_id: L00627
Orientation: Laser parallel to (1 0 1). Fiducial mark perpendicular to laser is parallel to b [0 1 0]
Raman shift (cm-1)	intensity
217.366	0
222.24	0.005859
227.112	635.865
231.982	597.354
236.849	950.041
241.714	711.424
246.577	691.998
251.437	1091.45
256.294	1070.62
261.149	1030.92
266.002	705.953
270.852	611.756
275.7	621.99
280.545	314.934
285.388	39.5781
290.229	47.7109
295.067	114.43
299.902	56.8574
304.735	168.242
309.566	21.6348
314.394	246.049
319.22	333.613
324.043	161.084
328.864	305.812
333.682	554.381
338.498	205.562
343.311	365.461
348.122	243.356
352.931	225.258
357.737	285.24
362.54	352.111
367.341	292.824
372.14	359.809
376.936	405.445
381.73	382.734
386.521	310.42
391.31	247.644
396.096	226.943
400.88	374.582
405.661	202.389
410.44	173.234
415.216	367.303
419.99	99.9238
424.761	161.691
429.53	98.5156
434.297	10.8359
439.061	220.816
443.822	107.139
448.581	352.873
453.337	45.1328
458.091	123.357
462.843	130.707
467.592	346.203
472.338	302.481
477.082	479.656
481.824	576.254
486.563	842.4
491.3	430.834
496.034	568.898
500.765	377.348
505.494	316.994
510.221	203.324
514.945	216.193
519.666	277.248
524.385	216.58
529.102	290.109
533.816	505.277
538.527	663.269
543.236	1000.29
547.943	1308.83
552.647	1765.72
557.348	1752.64
562.047	2147.87
566.744	2168.69
571.438	2150.93
576.129	2200.93
580.818	1944.75
585.504	1988.13
590.188	2088.11
594.87	1933.55
599.549	2042.04
604.225	2172.28
608.899	2058.18
613.57	2548.16
618.239	2308.4
622.905	2703.95
627.569	3282.81
632.23	4006.97
636.889	5173.42
641.545	6783.18
646.198	8238.22
650.849	9308.52
655.498	9071.08
660.144	7484.92
664.787	6079.03
669.428	5041.43
674.067	4068.56
678.703	3666.1
683.336	3529.4
687.967	3398.74
692.595	3380.78
697.221	3246.85
701.844	3228.26
706.465	3350.61
711.083	3218.11
715.698	3012.84
720.311	2834.99
724.922	2591.59
729.53	2390.54
734.135	2294.04
738.738	2040.47
743.338	1904.77
747.936	2141.18
752.531	1886.72
757.124	1653.35
761.714	1812.72
766.302	1830.84
770.887	1562.68
775.469	1538.24
780.049	1212.5
784.626	1099.45
789.201	774.078
793.773	687.365
798.343	200.303
802.91	275.873
807.475	47.0605
812.037	3.16211
816.596	33.3984
821.153	95.0254
825.707	150.715
830.259	304.143
834.808	221.207
839.355	26.0566
843.899	50.2969
848.441	109.211
852.98	284.102
857.516	304.451
862.05	737.242
866.581	906.451
871.11	1124.07
875.636	1151.74
880.159	1638.53
884.68	1944.58
889.199	2060.07
893.714	2414.29
898.228	2624.26
902.738	2907.89
907.246	3136.27
911.752	3691.14
916.255	3833.33
920.755	3772.91
925.253	3978.01
929.748	4533.13
934.241	4682.78
938.731	4976.73
943.218	4701
947.703	4793.23
952.186	4454.84
956.665	4096.52
961.142	3942.87
965.617	3706.77
970.089	3207.32
974.558	3304.84
979.025	3323.08
983.489	3139.14
987.951	3254.97
992.41	3405.72
996.866	3259.73
1001.32	3534.88
1005.77	3524.43
1010.22	3616.46
1014.67	3889.28
1019.11	3900.36
1023.55	3789.52
1027.99	3552.45
1032.42	3205.36
1036.86	3384.18
1041.29	2812.64
1045.72	2694.11
1050.14	2366.52
1054.56	2110.17
1058.98	2020.18
1063.4	1890.5
1067.82	1856.63
1072.23	1651.3
1076.64	1428.13
1081.05	1470.88
1085.45	1285.21
1089.85	1180.22
1094.25	1000.7
1098.65	1020.77
1103.04	662.553
1107.43	611.416
1111.82	570.606
1116.21	527.856
1120.59	690.193
1124.97	438.707
1129.35	164.041
1133.73	21.9648
1138.1	151.719
1142.47	29.9863
1146.84	62.1816
1151.21	56.1465
1155.57	15.1543
1159.93	214.623
1164.29	96.6738
1168.64	148.744
1172.99	26.7891
1177.34	46.1191
1181.69	135.682
1186.04	55.6445
1190.38	147.875
1194.72	42.5586
1199.05	169.185
1203.39	60.1777
1207.72	28.0664
1212.05	274.158
1216.37	10.5117
1220.7	194.459
1225.02	49.5078
1229.34	171.853
1233.65	273.691
1237.97	46.6328
1242.28	267.445
1246.59	147.752
1250.89	165.367
1255.19	268.205
1259.49	138.518
1263.79	80.1172
1268.09	299.865
1272.38	162.9
1276.67	319.486
1280.95	230.113
1285.24	269.857
1289.52	252.045
1293.8	451.197
1298.08	311.541
1302.35	272.049
1306.62	40.5371
1310.89	352.334
1315.15	430.371
1319.42	544.436
1323.68	108.107
1327.94	196.451
1332.19	186.178
1336.44	491.777
1340.69	156.658
1344.94	112.875
1349.19	350.422
1353.43	401.041
1357.67	93.2949
1361.9	319.143
1366.14	311.303
1370.37	85.9141
1374.6	18.373
1378.83	315.805
1383.05	357.998
1387.27	472.428
1391.49	134.445
1395.7	458.119
1399.92	61.4414
1404.13	196.283
1408.34	216.047
1412.54	236.15
1416.74	405.783
1420.94	182.363
1425.14	236.08
1429.34	164.791
1433.53	263.9
1437.72	295.787
1441.9	342.969
1446.09	139.394
1450.27	90.1504
1454.45	221.881
1458.63	94.9688
1462.8	228.863
1466.97	108.037
1471.14	201.955
1475.31	237.996
1479.47	74.0019
1483.63	161.648
1487.79	210.555
1491.94	271.998
1496.09	287.838
1500.24	229.928
1504.39	152.34
1508.54	193.93
1512.68	239.266
1516.82	122.234
1520.95	369.611
1525.09	91.5977
1529.22	145.344
1533.35	177.703
1537.47	329.938
1541.6	35.0059
1545.72	52.498
1549.83	175.002
1553.95	168.385
1558.06	201.262
1562.17	61.1543
1566.28	181.967
1570.38	266.644
