Measurement: Raman, 514 nm, ccw, Raman Data Processed
Mineral: Laverovite
Rruff sample: R060216
Ideal chemistry: K_2_NaMn^2+^_7_Zr^4+^_2_(Si_4_O_12_)_2_O_2_(OH)_4_F
Locality: Desourdy Quarry, Mont Saint-Hilaire, Rouville County, Quebec, Canada
Source: Royal Ontario Museum
Description: Brown fragment showing lamellar habit. Type sample
Measured chemistry: (K_1.74_Na_0.18_[box]_0.08_)_Σ=2_(Na_0.92_Ca_0.08_)_Σ=1_(Mn_4.09_Fe^2+^_2.67_Mg_0.24_)_Σ=7_(Zr_1.42_Ti_0.58_)_Σ=2_(Si_7.86_Al_0.14_)_Σ=8_O_26_((OH)_3.14_O_0.86_)_Σ=4_
Pin_id: L00587
Orientation: Laser parallel to -b* (0 -1 0). Fiducial mark perpendicular to laser is parallel to -c [0 0 -1]
Raman shift (cm-1)	intensity
146.182	0
151.113	845.799
156.041	1615.14
160.966	4051.03
165.888	8402.19
170.808	9235.93
175.725	6271.23
180.639	5482.3
185.55	4569.59
190.459	3320.97
195.365	2613.71
200.268	3282.39
205.168	1115.99
210.066	344.99
214.96	633.023
219.852	453.109
224.742	1375.56
229.628	2552.39
234.512	2684.35
239.393	2410.98
244.271	1983.44
249.147	1338.98
254.02	928.201
258.89	933.031
263.757	802.602
268.622	1010.52
273.483	1385.12
278.342	2178.16
283.199	2446.67
288.052	2857.76
292.903	3080.34
297.751	3097.65
302.597	2378.17
307.439	1964.9
312.279	1732.87
317.117	1303.47
321.951	1336.3
326.783	1391.91
331.612	1811.49
336.438	2724.81
341.262	2572.85
346.083	3170.37
350.901	3708.38
355.716	4396.22
360.529	5278.81
365.339	5950.65
370.146	6281.52
374.951	6005.71
379.753	5084.07
384.552	3940.82
389.348	3462.38
394.142	3618.01
398.933	3460.97
403.721	2847.87
408.507	1944.88
413.29	1847.62
418.07	1179.77
422.847	985.799
427.622	520.574
432.394	383.497
437.164	156.463
441.93	175.474
446.694	190.471
451.456	278.952
456.214	286.697
460.97	184.736
465.724	208.156
470.474	5.92578
475.222	66.4824
479.967	39.7441
484.71	261.235
489.449	290.242
494.187	317.639
498.921	192.444
503.653	323.495
508.382	247.632
513.108	277.695
517.832	298.711
522.553	323.708
527.271	409.075
531.987	626.93
536.7	977.281
541.411	1452.87
546.118	2537.84
550.823	4022.54
555.526	5221.56
560.225	4813.35
564.922	4080.34
569.617	3312.78
574.308	2648.83
578.998	2528.48
583.684	2550.67
588.368	3132.68
593.049	3314.08
597.727	3400.87
602.403	3116.69
607.076	3447.33
611.746	3746.98
616.414	3943.83
621.079	4607.18
625.742	5367.35
630.402	6135.43
635.059	7533.38
639.714	9442.32
644.366	13071.5
649.015	18706.5
653.662	21317.5
658.306	16136.5
662.947	11420.2
667.586	9438.11
672.222	9237.16
676.855	9835.12
681.486	11252
686.114	12725.8
690.74	13405.7
695.363	14342
699.983	14957.5
704.601	15077.9
709.216	15640.9
713.828	16032.1
718.438	15557.6
723.045	14554.9
727.65	13301.8
732.252	11814.6
736.851	10355.5
741.448	9315.25
746.042	8569.6
750.633	8523.38
755.222	8376.05
759.809	8278.54
764.392	7664.51
768.973	6762.88
773.552	6025.59
778.128	5113.63
782.701	4404.99
787.271	3739.97
791.839	3143.52
796.405	2417.62
800.968	1754.95
805.528	1011.47
810.085	568.174
814.64	260.049
819.193	4.03711
823.743	97.0781
828.29	237.156
832.834	298.272
837.376	429.205
841.916	384.791
846.453	90.1562
850.987	172.211
855.519	74.6504
860.048	251.967
864.574	373.322
869.098	618.738
873.62	1135.21
878.138	1296.69
882.655	1659.17
887.168	1721.58
891.679	1891
896.188	2163.42
900.694	2460.81
905.197	2863.15
909.698	3193.43
914.196	3481.74
918.691	4006.14
923.184	3757.56
927.675	3901.03
932.163	3712.6
936.648	3801.6
941.131	3828.49
945.611	4141.74
950.089	4036.69
954.564	3669.64
959.036	3204.52
963.506	2392.49
967.973	2211.72
972.438	1838.45
976.901	1944.33
981.36	2009.22
985.817	2649.25
990.272	3211.95
994.724	3704.4
999.174	5070.87
1003.62	6424.38
1008.07	8624.42
1012.51	11429.3
1016.95	14778.2
1021.38	18533.8
1025.82	21912.1
1030.25	23430.2
1034.68	21183.7
1039.11	16686.5
1043.53	12293.1
1047.95	8987.19
1052.37	6953.1
1056.79	7097.22
1061.2	4913.19
1065.61	4399.62
1070.02	3990.13
1074.43	3737.36
1078.83	3467.63
1083.23	3459.55
1087.63	2745.9
1092.03	2230.61
1096.42	1676.48
1100.81	1261.88
1105.2	1008.27
1109.59	821.945
1113.97	452.287
1118.35	389.891
1122.73	195.004
1127.11	428.94
1131.48	149.606
1135.85	228.103
1140.22	59.4492
1144.59	143.475
1148.95	144.531
1153.31	83.2383
1157.67	89.5195
1162.03	82.4219
1166.38	36.709
1170.73	57.4629
1175.08	17.6699
1179.42	149.303
1183.77	341.5
1188.11	13.1641
1192.45	66.7519
1196.78	73.9316
1201.12	1.82227
1205.45	144.018
1209.78	29.8125
1214.1	190.887
1218.43	178.44
1222.75	54.7109
1227.07	247.611
1231.38	22.9492
1235.7	111.139
1240.01	255.232
1244.32	142.906
1248.62	233.361
1252.93	203.221
1257.23	167.191
1261.53	219.478
1265.82	352.535
1270.12	325.69
1274.41	202.209
1278.7	372.258
1282.98	252.023
1287.27	260.143
1291.55	343.023
1295.83	76.0098
1300.1	244.982
1304.38	233.125
1308.65	335.582
1312.92	256.139
1317.18	413.422
1321.45	394.836
1325.71	142.379
1329.97	338.139
1334.23	156.295
1338.48	237.424
1342.73	166.5
1346.98	7.19922
1351.23	81.5391
1355.47	359.846
1359.72	134.324
1363.95	188.262
1368.19	129.018
1372.43	147.307
1376.66	37.5664
1380.89	234.328
1385.12	202.438
1389.34	150.24
1393.56	350.769
1397.78	331.553
1402	156.416
1406.22	239.025
1410.43	237.488
1414.64	344.119
1418.85	358.236
1423.05	77.5488
1427.26	267.451
1431.46	58.8145
1435.65	312.631
1439.85	15.8398
1444.04	537.688
1448.23	178.191
1452.42	345.699
1456.61	359.1
1460.79	97.1269
1464.97	176.535
1469.15	227.654
1473.33	84.5742
1477.5	394.301
1481.67	99.0332
1485.84	299.096
1490.01	196.809
1494.17	405.373
1498.34	200.652
1502.49	198.457
1506.65	256.883
1510.81	190.357
1514.96	325.283
1519.11	304.117
1523.26	135.383
1527.4	292.578
1531.54	194.758
1535.68	213.926
1539.82	0
