Measurement: Raman, 514 nm, ccw, Raman Data Processed
Mineral: Laverovite
Rruff sample: R060216
Ideal chemistry: K_2_NaMn^2+^_7_Zr^4+^_2_(Si_4_O_12_)_2_O_2_(OH)_4_F
Locality: Desourdy Quarry, Mont Saint-Hilaire, Rouville County, Quebec, Canada
Source: Royal Ontario Museum
Description: Brown fragment showing lamellar habit. Type sample
Measured chemistry: (K_1.74_Na_0.18_[box]_0.08_)_Σ=2_(Na_0.92_Ca_0.08_)_Σ=1_(Mn_4.09_Fe^2+^_2.67_Mg_0.24_)_Σ=7_(Zr_1.42_Ti_0.58_)_Σ=2_(Si_7.86_Al_0.14_)_Σ=8_O_26_((OH)_3.14_O_0.86_)_Σ=4_
Pin_id: M00393
Orientation: Laser parallel to a* (1 0 0). Fiducial mark perpendicular to laser is parallel to b [0 1 0]
Raman shift (cm-1)	intensity
121.827	0
126.749	367.717
131.668	542.234
136.585	1463.53
141.5	765.672
146.412	125.857
151.321	319.055
156.229	15.5781
161.134	1080.42
166.036	1832.84
170.936	2301.98
175.834	1825.79
180.729	1270.21
185.622	1023.91
190.512	1386.26
195.4	1097.76
200.286	2098.81
205.169	371.775
210.049	351.391
214.928	624.402
219.803	581.336
224.677	467.115
229.548	677.834
234.416	639.502
239.282	477.758
244.146	72.0644
249.007	134.516
253.866	91.7969
258.722	65.207
263.576	88.7715
268.427	264.797
273.276	233.107
278.123	420.996
282.967	365.978
287.809	536.826
292.648	623.57
297.485	554.484
302.319	698.365
307.151	691.686
311.98	637.457
316.807	531.621
321.631	618.227
326.454	780.703
331.273	349.25
336.09	642.543
340.905	630.781
345.717	856.137
350.527	779.982
355.334	902.771
360.139	876.426
364.941	1154.91
369.741	1326.4
374.538	1310.12
379.333	975.826
384.126	1020.87
388.916	806.002
393.703	1013
398.488	556.602
403.271	596.494
408.051	496.129
412.828	136.236
417.603	278.912
422.376	180.045
427.146	164.498
431.914	156.795
436.679	299.504
441.442	277.959
446.202	296.035
450.96	60.1758
455.715	194.693
460.467	71.8242
465.218	92.1016
469.965	225.641
474.711	189.617
479.454	102.049
484.194	147.037
488.932	69.1113
493.667	92.3008
498.4	89.7617
503.13	21.5898
507.858	214.742
512.583	11.0977
517.306	44.4102
522.026	74.0625
526.744	112.93
531.459	0.730469
536.172	196.113
540.882	506.621
545.59	285.809
550.295	826.648
554.998	917.914
559.698	749.539
564.396	1001.77
569.091	906.644
573.784	569.801
578.474	568.926
583.162	594.578
587.847	740.723
592.529	751.488
597.209	1075.29
601.887	1166.6
606.562	1100.42
611.235	1293.84
615.905	1337.74
620.572	1509.27
625.237	1769.56
629.9	1845.84
634.56	2144.75
639.217	2818.22
643.872	3151.91
648.524	4322.98
653.174	5015.4
657.821	4322.02
662.466	3380.59
667.108	3043.88
671.748	2712.08
676.385	2966.46
681.02	3400.96
685.652	3498.51
690.281	3881.99
694.908	3989.12
699.533	4106.62
704.155	4593.49
708.774	4545.48
713.391	4519.73
718.005	4514.87
722.617	4322.31
727.226	4006.66
731.833	3436.45
736.437	3223.12
741.039	2960.36
745.638	2927.17
750.234	3018.22
754.828	2613.26
759.419	2540.36
764.008	2556.46
768.595	2605.65
773.178	2381.84
777.759	1987.03
782.338	1968.14
786.914	1624.23
791.488	1460.33
796.059	1028.57
800.627	601.875
805.193	522.113
809.756	199.269
814.317	279.273
818.875	145.969
823.431	147.426
827.984	138.348
832.534	69.7305
837.082	103.746
841.627	44.2148
846.17	33.4297
850.71	136.113
855.248	40.0195
859.783	62.6523
864.316	304.938
868.846	110.41
873.373	513.762
877.898	251.027
882.42	326.172
886.94	325.188
891.457	492.293
895.971	661.449
900.483	843.512
904.993	1035.57
909.5	958.512
914.004	809.582
918.505	948.75
923.004	1181
927.501	1337.2
931.995	1223.29
936.486	1000.59
940.975	1591.09
945.461	1561.64
949.945	1725.82
954.426	1449.9
958.904	982.856
963.38	978.934
967.853	1084.37
972.324	604.969
976.792	898.144
981.258	943.316
985.72	1230.14
990.181	1076.06
994.639	1459.28
999.094	1923.58
1003.55	2784.29
1008	3252.17
1012.44	4273.8
1016.89	5576.03
1021.33	7352.84
1025.77	8006.33
1030.21	8589.59
1034.64	7937.13
1039.07	6426.22
1043.5	5056.64
1047.93	3447.41
1052.35	3144.75
1056.78	2156.43
1061.19	1931.32
1065.61	2047.9
1070.02	1610.61
1074.43	1593.69
1078.84	1671.14
1083.25	1329.78
1087.65	1350.63
1092.05	1453.65
1096.45	679.922
1100.85	751.523
1105.24	183.582
1109.63	657.535
1114.02	437.418
1118.4	399.039
1122.78	489.262
1127.16	569.801
1131.54	237.102
1135.92	124.859
1140.29	58.1172
1144.66	403.648
1149.02	39.6758
1153.39	49.6133
1157.75	120.328
1162.11	192.102
1166.46	24.8789
1170.82	447.824
1175.17	155.754
1179.52	251.156
1183.86	155.836
1188.21	257.203
1192.55	428.57
1196.89	31.9844
1201.22	99.7656
1205.55	111.055
1209.88	211.356
1214.21	138.816
1218.54	504.324
1222.86	345.867
1227.18	263.43
1231.5	495.004
1235.81	504.586
1240.12	397.16
1244.43	672.707
1248.74	724.215
1253.04	115.652
1257.34	619.992
1261.64	503.246
1265.94	414.391
1270.23	234.973
1274.52	522.973
1278.81	514.438
1283.1	557.301
1287.38	747.836
1291.66	783.769
1295.94	859.961
1300.21	720.742
1304.48	908.656
1308.75	692.914
1313.02	774.41
1317.29	792.352
1321.55	770.203
1325.81	895.316
1330.06	473.316
1334.32	677.293
1338.57	773.309
1342.82	436.898
1347.06	603.297
1351.31	492.75
1355.55	875.004
1359.79	763.242
1364.02	322.469
1368.26	603.688
1372.49	220.883
1376.71	560.188
1380.94	307.824
1385.16	695.379
1389.38	405.492
1393.6	256.117
1397.81	419.203
1402.02	419.094
1406.23	294.856
1410.44	210.301
1414.64	420.102
1418.85	467.793
1423.04	151.074
1427.24	54
1431.43	48
1435.62	15.4258
1439.81	181.57
1444	293.688
1448.18	111.023
1452.36	171.066
1456.54	355.59
1460.71	242.785
1464.89	11.0352
1469.06	39.1445
1473.22	155.328
1477.39	410.578
1481.55	372.988
1485.71	290.484
1489.86	528.402
1494.02	471.262
1498.17	466.152
1502.32	315.609
1506.46	390.383
1510.61	465.699
1514.75	474.168
1518.88	189.379
1523.02	265.047
1527.15	107.547
1531.28	172.062
1535.41	189.344
1539.53	3.82031
1543.66	237.727
1547.78	228.289
1551.89	916.547
1556.01	35.3359
1560.12	358.801
1564.23	456.934
1568.33	368.852
