Measurement: Raman, 514 nm, ccw, Raman Data Processed
Mineral: Laverovite
Rruff sample: R060216
Ideal chemistry: K_2_NaMn^2+^_7_Zr^4+^_2_(Si_4_O_12_)_2_O_2_(OH)_4_F
Locality: Desourdy Quarry, Mont Saint-Hilaire, Rouville County, Quebec, Canada
Source: Royal Ontario Museum
Description: Brown fragment showing lamellar habit. Type sample
Measured chemistry: (K_1.74_Na_0.18_[box]_0.08_)_Σ=2_(Na_0.92_Ca_0.08_)_Σ=1_(Mn_4.09_Fe^2+^_2.67_Mg_0.24_)_Σ=7_(Zr_1.42_Ti_0.58_)_Σ=2_(Si_7.86_Al_0.14_)_Σ=8_O_26_((OH)_3.14_O_0.86_)_Σ=4_
Pin_id: L00627
Orientation: Laser parallel to (1 0 1). Fiducial mark perpendicular to laser is parallel to b [0 1 0]
Raman shift (cm-1)	intensity
217.366	0
222.24	414.387
227.112	29.7324
231.982	341.871
236.849	556.273
241.714	368.19
246.577	119.967
251.437	463.318
256.294	367.875
261.149	356.734
266.002	256.533
270.852	252.107
275.7	80.0039
280.545	37.6855
285.388	3.31445
290.229	297.873
295.067	441.375
299.902	378.404
304.735	139.535
309.566	548.396
314.394	619.67
319.22	739.652
324.043	1014.93
328.864	1539.51
333.682	1880.09
338.498	2069.33
343.311	2320.85
348.122	2208.94
352.931	2227.7
357.737	2110.78
362.54	2180.87
367.341	1807.88
372.14	1631.87
376.936	1575.46
381.73	1313.65
386.521	1042.77
391.31	1262.62
396.096	736.844
400.88	746.568
405.661	474.228
410.44	774.266
415.216	458.736
419.99	261.248
424.761	33.3711
429.53	125.008
434.297	39.2188
439.061	55.498
443.822	140.191
448.581	193.928
453.337	57.2871
458.091	152.852
462.843	22.0605
467.592	110.522
472.338	74.2461
477.082	31.332
481.824	136.695
486.563	191.617
491.3	361.644
496.034	68.5234
500.765	107.201
505.494	2.25
510.221	86.1406
514.945	79.4688
519.666	245.91
524.385	356.619
529.102	636.816
533.816	880.406
538.527	1102.62
543.236	1596.58
547.943	2254.25
552.647	2931.54
557.348	2987.92
562.047	3340.19
566.744	3438
571.438	3758.08
576.129	4004.36
580.818	4311.44
585.504	4570.74
590.188	4878.64
594.87	5305.03
599.549	5890.34
604.225	5983.08
608.899	6577.91
613.57	7254.34
618.239	7868.14
622.905	8762.45
627.569	9243.19
632.23	10054.1
636.889	11160.9
641.545	12915.9
646.198	14270.2
650.849	14992.2
655.498	14992.5
660.144	13567.1
664.787	12702
669.428	11744.1
674.067	11387.6
678.703	11144.3
683.336	10843.6
687.967	11050.2
692.595	10433.1
697.221	10416.3
701.844	10159
706.465	9668.83
711.083	9293.63
715.698	8703.83
720.311	8390.47
724.922	7888.48
729.53	7127.73
734.135	6508.92
738.738	6021.13
743.338	5669.88
747.936	5170.48
752.531	4686.32
757.124	4502.47
761.714	4073.83
766.302	3673.35
770.887	3378.99
775.469	2889.78
780.049	2496.76
784.626	1972.92
789.201	1616.29
793.773	1315.79
798.343	974.404
802.91	865.129
807.475	290.951
812.037	178.859
816.596	133.84
821.153	224.008
825.707	120.738
830.259	275.644
834.808	338.643
839.355	261.869
843.899	302.211
848.441	98.7207
852.98	119.332
857.516	259.494
862.05	233.18
866.581	662.732
871.11	959.117
875.636	961.34
880.159	1300.53
884.68	1471.63
889.199	1664.01
893.714	1877.92
898.228	2140.75
902.738	2399.31
907.246	2664.69
911.752	2853.28
916.255	3256.42
920.755	3703.32
925.253	4108.53
929.748	4216.27
934.241	4339.58
938.731	4749.61
943.218	4914.24
947.703	5302.44
952.186	5755.34
956.665	5871.23
961.142	6150.23
965.617	6352.59
970.089	6651.17
974.558	7021.16
979.025	7465.84
983.489	8090.85
987.951	8858.92
992.41	9555.36
996.866	10294.6
1001.32	10848.5
1005.77	11767.7
1010.22	12166.7
1014.67	12942.9
1019.11	13518.7
1023.55	13276.2
1027.99	13229.5
1032.42	11982.5
1036.86	10703.1
1041.29	9762.31
1045.72	8210.96
1050.14	7288.18
1054.56	6155.96
1058.98	5285.45
1063.4	4922.68
1067.82	4078.46
1072.23	3619.56
1076.64	3199.86
1081.05	2884.01
1085.45	2489.21
1089.85	2031.46
1094.25	1672.14
1098.65	1458.15
1103.04	1094.64
1107.43	947.324
1111.82	815.002
1116.21	606.801
1120.59	609.924
1124.97	529.014
1129.35	454.486
1133.73	172.977
1138.1	33.875
1142.47	108.701
1146.84	96.8965
1151.21	69.4902
1155.57	172.903
1159.93	44.21
1164.29	124.758
1168.64	47.377
1172.99	123.405
1177.34	3.96777
1181.69	72.1289
1186.04	75.6387
1190.38	10.7725
1194.72	85.7666
1199.05	60.333
1203.39	198.602
1207.72	216.019
1212.05	122.542
1216.37	283.259
1220.7	153.55
1225.02	608.451
1229.34	344.222
1233.65	252.967
1237.97	269.279
1242.28	426.629
1246.59	430.731
1250.89	356.266
1255.19	346.397
1259.49	159.423
1263.79	520.275
1268.09	232.288
1272.38	413.399
1276.67	341.396
1280.95	477.869
1285.24	347.533
1289.52	363.875
1293.8	308.429
1298.08	383.094
1302.35	156.595
1306.62	426.086
1310.89	364.664
1315.15	417.688
1319.42	500.741
1323.68	345.367
1327.94	171.439
1332.19	191.207
1336.44	391.943
1340.69	339.754
1344.94	339.608
1349.19	357.327
1353.43	421.812
1357.67	313.103
1361.9	128.224
1366.14	269.356
1370.37	186.958
1374.6	251.718
1378.83	258.608
1383.05	257.043
1387.27	139.176
1391.49	402.398
1395.7	152.518
1399.92	55.7891
1404.13	192.106
1408.34	147.368
1412.54	272.231
1416.74	11.376
1420.94	259.098
1425.14	161.98
1429.34	80.5088
1433.53	266.827
1437.72	43.1992
1441.9	62.9688
1446.09	4.29297
1450.27	44.9023
1454.45	166.198
1458.63	109.846
1462.8	73.2305
1466.97	191.65
1471.14	184.704
1475.31	116.353
1479.47	103.31
1483.63	251.282
1487.79	104.516
1491.94	189.628
1496.09	53.9688
1500.24	164.598
1504.39	143.685
1508.54	210.998
1512.68	62.9746
1516.82	25.5215
1520.95	123.411
1525.09	79.5889
1529.22	193.997
1533.35	146.028
1537.47	236.967
1541.6	234.98
1545.72	110.311
1549.83	224.691
1553.95	312.861
1558.06	209.784
1562.17	381.098
1566.28	150.202
1570.38	13.208
