Measurement: Raman, 514 nm, ccw, Raman Data Processed
Mineral: Laverovite
Rruff sample: R060216
Ideal chemistry: K_2_NaMn^2+^_7_Zr^4+^_2_(Si_4_O_12_)_2_O_2_(OH)_4_F
Locality: Desourdy Quarry, Mont Saint-Hilaire, Rouville County, Quebec, Canada
Source: Royal Ontario Museum
Description: Brown fragment showing lamellar habit. Type sample
Measured chemistry: (K_1.74_Na_0.18_[box]_0.08_)_Σ=2_(Na_0.92_Ca_0.08_)_Σ=1_(Mn_4.09_Fe^2+^_2.67_Mg_0.24_)_Σ=7_(Zr_1.42_Ti_0.58_)_Σ=2_(Si_7.86_Al_0.14_)_Σ=8_O_26_((OH)_3.14_O_0.86_)_Σ=4_
Pin_id: L00725
Orientation: Laser parallel to c* (0 0 1). Fiducial mark perpendicular to laser is parallel to a [1 0 0]
Raman shift (cm-1)	intensity
114.44	0
119.365	785.902
124.288	1370.09
129.209	2241.66
134.127	1984.62
139.043	739.275
143.956	18.6211
148.867	1087.07
153.775	830.096
158.681	539.795
163.585	2351.82
168.486	4026.89
173.385	3773.71
178.282	1946.25
183.176	1303.13
188.067	1440.38
192.956	2063.04
197.843	3415.79
202.727	5916.72
207.609	1509.79
212.489	1954.81
217.366	2985.41
222.24	4237.41
227.112	5545.48
231.982	6918.62
236.849	8665.84
241.714	10627.2
246.577	11270.7
251.437	12039.8
256.294	13891.8
261.149	18788.3
266.002	13946.4
270.852	9216.31
275.7	5037.61
280.545	2563.09
285.388	1318.63
290.229	685.231
295.067	564.471
299.902	141.678
304.735	79.5977
309.566	58.4043
314.394	75.3359
319.22	51.2617
324.043	359.621
328.864	817.449
333.682	1404.8
338.498	1273.64
343.311	1315.92
348.122	1377.61
352.931	1425.69
357.737	1825.94
362.54	1908.14
367.341	1933.52
372.14	1800.61
376.936	2198
381.73	2582.45
386.521	2452.68
391.31	2735.14
396.096	2892.83
400.88	3171.17
405.661	3162.62
410.44	3588.73
415.216	4445.02
419.99	4880.46
424.761	4482.84
429.53	3515.95
434.297	2123.77
439.061	750.816
443.822	50.5645
448.581	340.565
453.337	590.123
458.091	30.8848
462.843	592.639
467.592	1069.11
472.338	1126.04
477.082	1126.33
481.824	889.207
486.563	833.854
491.3	780.801
496.034	509.553
500.765	235.961
505.494	18.0215
510.221	226.715
514.945	25.8887
519.666	17.084
524.385	27.6582
529.102	79.6211
533.816	50.9688
538.527	60.5488
543.236	1459.94
547.943	1829.99
552.647	3778.34
557.348	4910
562.047	4925.82
566.744	4163.95
571.438	3219.21
576.129	2759.44
580.818	2318.64
585.504	2468.35
590.188	2396.23
594.87	2577.73
599.549	2364.27
604.225	2618.25
608.899	2747
613.57	3119.09
618.239	3863.46
622.905	4429.12
627.569	5270.07
632.23	6192.32
636.889	7970.87
641.545	10443.6
646.198	15732.5
650.849	23116.7
655.498	25352.4
660.144	19508.1
664.787	14264.1
669.428	12184.1
674.067	12525.4
678.703	13674.5
683.336	15585.5
687.967	17116.5
692.595	17900.3
697.221	18253.1
701.844	17865.2
706.465	17517
711.083	16949.8
715.698	16261.1
720.311	14526.1
724.922	12686
729.53	11071.2
734.135	9185.18
738.738	7974.89
743.338	6855.13
747.936	6148.27
752.531	5482.31
757.124	5160.24
761.714	4549.08
766.302	4049.82
770.887	3307.64
775.469	2707.05
780.049	1875.55
784.626	1587
789.201	1391.41
793.773	1056.78
798.343	603.164
802.91	287.594
807.475	38.2891
812.037	198.076
816.596	306.082
821.153	279.283
825.707	316.809
830.259	261.141
834.808	226.123
839.355	218.701
843.899	171.379
848.441	300.297
852.98	913.197
857.516	1494.12
862.05	2172.06
866.581	3272.05
871.11	4179.05
875.636	5432.15
880.159	6825.33
884.68	8346.95
889.199	10110.3
893.714	11369.3
898.228	13286.6
902.738	15633.7
907.246	17857.2
911.752	20351.1
916.255	22925.7
920.755	25127.7
925.253	26393.1
929.748	27237.9
934.241	27204
938.731	26767.7
943.218	26152.8
947.703	25767
952.186	24418.4
956.665	20212.7
961.142	14939.7
965.617	10332.4
970.089	7335.51
974.558	5423.33
979.025	3959.14
983.489	3199.79
987.951	3200.61
992.41	2878.09
996.866	2810.24
1001.32	3080.03
1005.77	3629.76
1010.22	4360.68
1014.67	5630.95
1019.11	6445.76
1023.55	7265.68
1027.99	7380.19
1032.42	7228.18
1036.86	6626.22
1041.29	5305.29
1045.72	4270.84
1050.14	3842.85
1054.56	3115.17
1058.98	2658.54
1063.4	2729.57
1067.82	2707.03
1072.23	2529.67
1076.64	2791.86
1081.05	2779.37
1085.45	2442.46
1089.85	2492.59
1094.25	2209.29
1098.65	1710.62
1103.04	1393.15
1107.43	1069.48
1111.82	676.402
1116.21	610.789
1120.59	590.949
1124.97	483.213
1129.35	239.525
1133.73	33.5801
1138.1	143.016
1142.47	30.1836
1146.84	11.2207
1151.21	45.7266
1155.57	15.8047
1159.93	101.494
1164.29	148.19
1168.64	33.252
1172.99	81.2305
1177.34	33.8926
1181.69	59.9199
1186.04	47.2734
1190.38	44.4004
1194.72	94.4102
1199.05	24.1328
1203.39	81.2676
1207.72	106.658
1212.05	128.506
1216.37	163.295
1220.7	80.6172
1225.02	257.775
1229.34	182.102
1233.65	343.832
1237.97	228.652
1242.28	17.4453
1246.59	88.2559
1250.89	448.535
1255.19	321.293
1259.49	358.766
1263.79	304.801
1268.09	427.644
1272.38	430.117
1276.67	299.424
1280.95	430.762
1285.24	628.199
1289.52	547.641
1293.8	585.019
1298.08	463.641
1302.35	507.324
1306.62	362.672
1310.89	386.481
1315.15	170.387
1319.42	514.188
1323.68	206.273
1327.94	351.955
1332.19	202.512
1336.44	361.156
1340.69	238.734
1344.94	152.272
1349.19	263.685
1353.43	156.559
1357.67	435.449
1361.9	197.264
1366.14	397.805
1370.37	111.67
1374.6	166.084
1378.83	241.053
1383.05	78.334
1387.27	252.088
1391.49	24.5645
1395.7	168.33
1399.92	202.697
1404.13	95.6016
1408.34	293.838
1412.54	160.322
1416.74	71.6348
1420.94	385.557
1425.14	443.074
1429.34	185.147
1433.53	243.377
1437.72	303.65
1441.9	264.582
1446.09	334.404
1450.27	285.783
1454.45	503.418
1458.63	194.953
1462.8	315.83
1466.97	530.713
1471.14	236.316
1475.31	153.635
1479.47	168.623
1483.63	273.012
1487.79	287.769
1491.94	171.58
1496.09	277.992
1500.24	0
