Measurement: Raman, 514 nm, ccw, Raman Data Processed
Mineral: Laverovite
Rruff sample: R060216
Ideal chemistry: K_2_NaMn^2+^_7_Zr^4+^_2_(Si_4_O_12_)_2_O_2_(OH)_4_F
Locality: Desourdy Quarry, Mont Saint-Hilaire, Rouville County, Quebec, Canada
Source: Royal Ontario Museum
Description: Brown fragment showing lamellar habit. Type sample
Measured chemistry: (K_1.74_Na_0.18_[box]_0.08_)_Σ=2_(Na_0.92_Ca_0.08_)_Σ=1_(Mn_4.09_Fe^2+^_2.67_Mg_0.24_)_Σ=7_(Zr_1.42_Ti_0.58_)_Σ=2_(Si_7.86_Al_0.14_)_Σ=8_O_26_((OH)_3.14_O_0.86_)_Σ=4_
Pin_id: L00627
Orientation: Laser parallel to (1 0 1). Fiducial mark perpendicular to laser is parallel to b [0 1 0]
Raman shift (cm-1)	intensity
217.366	0
222.24	5.05859
227.112	232.184
231.982	424.984
236.849	430.303
241.714	442.174
246.577	280.565
251.437	159.42
256.294	155.328
261.149	249.014
266.002	229.478
270.852	97.834
275.7	263.953
280.545	96.6602
285.388	362.935
290.229	514.266
295.067	436.438
299.902	609.041
304.735	536.287
309.566	777.676
314.394	866.742
319.22	908.189
324.043	1042.33
328.864	1039.72
333.682	1242.62
338.498	1417.77
343.311	1331.52
348.122	1508.93
352.931	1547.19
357.737	1618.45
362.54	1432.04
367.341	1276.26
372.14	1500.8
376.936	1247.29
381.73	1018.62
386.521	1004.27
391.31	820.891
396.096	764.633
400.88	762.844
405.661	484.519
410.44	287.598
415.216	213.397
419.99	111.369
424.761	25.8945
429.53	57.8203
434.297	127.324
439.061	77.2852
443.822	34.0078
448.581	193.201
453.337	73.9941
458.091	174.818
462.843	53.4492
467.592	166.713
472.338	272.174
477.082	174.49
481.824	218.703
486.563	386.697
491.3	43.2949
496.034	129.965
500.765	38.5957
505.494	10.1602
510.221	6.7832
514.945	7.76562
519.666	64.8535
524.385	101.562
529.102	197.992
533.816	651.318
538.527	699.703
543.236	878.504
547.943	1450.57
552.647	1432.56
557.348	1726.88
562.047	2022.42
566.744	2327.06
571.438	1909.38
576.129	2290.99
580.818	2395
585.504	2146.22
590.188	2395.53
594.87	2400.69
599.549	2697.07
604.225	2872.62
608.899	3260.33
613.57	3185.32
618.239	3504.03
622.905	3936.99
627.569	4259.74
632.23	4854.4
636.889	5845.81
641.545	7133.42
646.198	7968.85
650.849	8622.48
655.498	8265.49
660.144	7443
664.787	6392.22
669.428	5673.1
674.067	5343.18
678.703	5273.28
683.336	4707.04
687.967	4642.86
692.595	4568.37
697.221	4464.79
701.844	4195.84
706.465	4178.2
711.083	3971.11
715.698	3917.05
720.311	3828.17
724.922	3277.42
729.53	2980.69
734.135	3098.3
738.738	2665.81
743.338	2611.91
747.936	2475.57
752.531	1932.77
757.124	2131.5
761.714	1820.76
766.302	1861.56
770.887	1722.91
775.469	1533.81
780.049	1099.28
784.626	1028.31
789.201	941.586
793.773	467.111
798.343	396.885
802.91	129.234
807.475	2.1543
812.037	68.5156
816.596	192.051
821.153	227.141
825.707	219.31
830.259	247.398
834.808	35.4941
839.355	21.8457
843.899	38.4121
848.441	81.1973
852.98	355.529
857.516	779.402
862.05	558.809
866.581	865.736
871.11	1417.29
875.636	1461.13
880.159	1767.61
884.68	1848.77
889.199	2061.64
893.714	2626.45
898.228	2845.08
902.738	3134.4
907.246	3506.57
911.752	3643.57
916.255	3912.37
920.755	4088.9
925.253	4215.41
929.748	4710.62
934.241	4861.53
938.731	5191.1
943.218	5032.61
947.703	5277.19
952.186	4967.92
956.665	4795.95
961.142	4885.4
965.617	4787.39
970.089	4810.44
974.558	4591.48
979.025	4851.64
983.489	4910.97
987.951	5160.85
992.41	5520.28
996.866	5416.25
1001.32	5911.77
1005.77	6327.76
1010.22	6349.93
1014.67	6768.58
1019.11	6684.17
1023.55	6954.77
1027.99	6665.85
1032.42	6345.38
1036.86	5733.31
1041.29	5031.99
1045.72	4465.09
1050.14	4104.32
1054.56	3775.53
1058.98	3070.58
1063.4	3072.35
1067.82	2420.15
1072.23	2446.62
1076.64	1966.38
1081.05	1789.13
1085.45	1669.29
1089.85	1697.88
1094.25	1307.46
1098.65	1089.8
1103.04	885.373
1107.43	1006.73
1111.82	685.682
1116.21	546.287
1120.59	782.354
1124.97	598.582
1129.35	242.59
1133.73	95.4297
1138.1	131.783
1142.47	13.207
1146.84	197.674
1151.21	117.525
1155.57	90.5566
1159.93	8.28711
1164.29	8.76758
1168.64	79.9863
1172.99	53.543
1177.34	103.322
1181.69	56.9082
1186.04	69.6894
1190.38	96.9981
1194.72	196.471
1199.05	194.375
1203.39	7.97656
1207.72	219.947
1212.05	28.0293
1216.37	118.488
1220.7	166.582
1225.02	240.516
1229.34	185.283
1233.65	234.106
1237.97	164.43
1242.28	137.535
1246.59	422.385
1250.89	166.047
1255.19	338.723
1259.49	131.293
1263.79	321.371
1268.09	273.367
1272.38	13.0449
1276.67	345.918
1280.95	222.963
1285.24	321.498
1289.52	411.533
1293.8	316.031
1298.08	481.693
1302.35	503.924
1306.62	323.295
1310.89	472.754
1315.15	263.658
1319.42	300.414
1323.68	308.791
1327.94	446.967
1332.19	200.738
1336.44	410.498
1340.69	370.809
1344.94	309.301
1349.19	261.565
1353.43	303.074
1357.67	262.639
1361.9	465.068
1366.14	289.168
1370.37	525.846
1374.6	282.168
1378.83	369.459
1383.05	272.312
1387.27	354.111
1391.49	275.066
1395.7	81.1973
1399.92	132.031
1404.13	206.394
1408.34	316.918
1412.54	109.781
1416.74	297.162
1420.94	203.029
1425.14	80.7109
1429.34	381.453
1433.53	231.959
1437.72	233.633
1441.9	186.506
1446.09	255.613
1450.27	148.522
1454.45	161.898
1458.63	77.8223
1462.8	165.359
1466.97	200.435
1471.14	83.7832
1475.31	135.18
1479.47	67.9356
1483.63	113.17
1487.79	193.5
1491.94	223.451
1496.09	206.381
1500.24	156.363
1504.39	284.246
1508.54	171.533
1512.68	152.863
1516.82	78.1328
1520.95	210.481
1525.09	113.562
1529.22	123.652
1533.35	219.865
1537.47	111.519
1541.6	127.195
1545.72	95.7539
1549.83	199.211
1553.95	119.234
1558.06	156.945
1562.17	51.6914
1566.28	131.019
1570.38	0.576172
