Measurement: Raman, 514 nm, ccw, Raman Data Processed
Mineral: Lawsonite
Rruff sample: R050042
Ideal chemistry: CaAl_2_Si_2_O_7_(OH)_2_H_2_O
Locality: California, USA
Source: University of Arizona Mineral Museum
Description: White to colorless fragments
Measured chemistry: (Ca_0.98_Fe^2+^_0.02_)Al_2.00_Si_2.00_O_7_(OH)_2_Â·H_2_O
Pin_id: L00444
Orientation: Laser parallel to a* (1 0 0). Fiducial mark perpendicular to laser is parallel to b [0 1 0]
Raman shift (cm-1)	intensity
138.268	0
142.429	180.092
146.589	577.781
150.746	796.54
154.901	1092.24
159.055	1258.94
163.206	1421.16
167.355	1401.46
171.503	1543.8
175.648	1510.08
179.792	1519.22
183.933	1435.44
188.072	1286.6
192.21	980.109
196.345	622.435
200.479	533.312
204.61	394.114
208.74	144.338
212.867	69.98
216.993	29.897
221.116	106.161
225.238	128.737
229.357	130.491
233.475	59.333
237.591	1.625
241.705	168.077
245.816	342.157
249.926	584.18
254.034	900.996
258.14	1315.3
262.244	1846.39
266.346	2701.18
270.446	4015.88
274.544	5241.1
278.64	5645.74
282.734	4320.91
286.826	2925.61
290.916	1946.8
295.004	1265.48
299.091	743.839
303.175	576.777
307.257	415.151
311.338	366.82
315.416	316.386
319.493	380.301
323.568	433.252
327.64	539.746
331.711	543.712
335.78	591.504
339.847	761.027
343.912	871.551
347.975	1203.82
352.036	1548.8
356.095	2053.86
360.152	2695.14
364.208	3105
368.261	3440.19
372.313	3665.66
376.362	3614.91
380.41	3228.06
384.455	2821.85
388.499	2602.94
392.541	2280.01
396.581	1892.43
400.619	1763.1
404.655	1658.82
408.689	1577.4
412.722	1513.49
416.752	1451.73
420.781	1300.13
424.807	1177.69
428.832	973.438
432.855	838.411
436.875	971.617
440.894	1352.05
444.911	1691.71
448.927	2149.58
452.94	2831.14
456.951	3686.95
460.961	3864.01
464.968	2543.27
468.974	1722.02
472.978	1053.81
476.98	782.653
480.98	780.942
484.978	833.911
488.974	978.312
492.968	1126.64
496.961	1303.84
500.952	1489.64
504.94	1633.21
508.927	1550.45
512.912	1281.84
516.895	1083.32
520.876	852.933
524.856	756.718
528.833	814.668
532.809	750.82
536.782	754.193
540.754	933.857
544.724	1358.93
548.692	1754.54
552.659	2526.77
556.623	4037.54
560.586	5856.71
564.546	6406.09
568.505	4745.55
572.462	3595.04
576.417	3114.54
580.37	2924.05
584.322	2123.55
588.271	1421.04
592.219	828.524
596.165	606.994
600.109	417.443
604.051	263.867
607.991	98.262
611.93	69.405
615.866	91.42
619.801	116.973
623.734	85.101
627.665	142.877
631.594	155.236
635.522	84.218
639.447	5.706
643.371	13.5
647.293	86.559
651.213	180.26
655.131	282.258
659.048	482.613
662.962	546.816
666.875	786.137
670.786	1069.57
674.695	1511.44
678.602	2223.65
682.508	3427.73
686.412	5718.14
690.313	10072.7
694.213	16069.2
698.112	15393.6
702.008	9668.01
705.902	5302.3
709.795	3176.51
713.686	2064.62
717.575	1453.64
721.463	1032.57
725.348	720.4
729.232	557.133
733.114	524.77
736.994	442.312
740.872	379.76
744.748	342.114
748.623	321.376
752.496	276.307
756.367	264.968
760.236	274.628
764.104	185.537
767.969	219.083
771.833	243.743
775.695	314.063
779.556	216.872
783.414	277.395
787.271	226.372
791.126	162.849
794.979	149.653
798.831	172.842
802.68	100.026
806.528	142.601
810.374	62.867
814.218	87.437
818.061	88.884
821.901	2.118
825.74	1.181
829.577	82.612
833.413	94.555
837.246	48.428
841.078	137.392
844.908	126.776
848.736	4.387
852.563	44.436
856.388	25.559
860.211	294.737
864.032	380.052
867.851	296.482
871.669	227.019
875.485	260.648
879.299	408.383
883.112	377.203
886.922	630.106
890.731	675.095
894.538	889.179
898.344	1224.37
902.147	1712.66
905.949	2146.05
909.749	2759.54
913.548	3353.14
917.344	3426.85
921.139	4110.71
924.932	5134.88
928.724	7459.44
932.514	11024.4
936.301	14909.7
940.088	15325.5
943.872	11831.6
947.655	7948.11
951.436	5384.84
955.215	3921.7
958.993	2998.02
962.768	2248.71
966.542	1831.25
970.315	1578.03
974.085	1338.49
977.854	1305.89
981.621	1031.44
985.387	927.291
989.15	756.843
992.912	776.987
996.672	827.965
1000.43	850.466
1004.19	768.739
1007.94	825.628
1011.7	799.443
1015.45	743.428
1019.2	734.466
1022.95	820.834
1026.69	870.774
1030.44	1017.94
1034.18	982.195
1037.92	1374.54
1041.66	2044.98
1045.4	3277.48
1049.13	4208.38
1052.87	3719.28
1056.6	2750.61
1060.33	1802.16
1064.06	1283.46
1067.79	927.003
1071.52	742.594
1075.24	630.004
1078.96	593.407
1082.68	716.904
1086.4	429.702
1090.12	214.859
1093.84	147.049
1097.55	286.08
1101.26	246.962
1104.97	184.384
1108.68	158.634
1112.39	123.578
1116.1	25.693
1119.8	21.509
1123.5	200.836
1127.2	146.562
1130.9	79.763
1134.6	127.827
1138.3	25.089
1141.99	71.25
1145.68	46.975
1149.37	49.228
1153.06	14.26
1156.75	133.844
1160.43	137.204
1164.12	8.457
1167.8	9.68
1171.48	31.506
1175.16	28.431
1178.84	72.791
1182.51	55.856
1186.19	194.444
1189.86	288.951
1193.53	224.832
1197.2	198.259
1200.87	66.213
1204.53	45.907
1208.19	110.642
1211.86	208.683
1215.52	119.641
1219.18	186.535
1222.83	254.069
1226.49	187.48
1230.14	21.567
1233.8	88.177
1237.45	84.051
1241.1	222.722
1244.74	240.647
1248.39	223.352
1252.03	248.836
1255.68	265.143
1259.32	105.367
1262.96	232.29
1266.59	137.1
1270.23	96.676
1273.86	278.376
1277.5	224.146
1281.13	78.223
1284.76	135.237
1288.38	67.52
1292.01	115.46
1295.63	27.492
1299.26	34.617
1302.88	82.331
1306.5	83.169
1310.12	117.53
1313.73	106.041
1317.35	156.243
1320.96	104.133
1324.57	70.098
1328.18	42.001
1331.79	68.04
1335.4	4.48
1339	106.84
1342.61	144.562
1346.21	242.084
1349.81	178.946
1353.41	185.791
1357	202.506
1360.6	8.736
1364.19	134.883
1367.78	121.208
1371.37	2.493
1374.96	122.224
1378.55	179
1382.14	284.881
1385.72	305.201
1389.3	264.174
1392.88	333.682
1396.46	232.946
1400.04	211.111
1403.62	88.521
1407.19	135.524
1410.76	220.34
1414.34	257.026
1417.9	256.692
1421.47	268.438
1425.04	303.68
1428.6	140.949
1432.17	208.508
1435.73	71.271
1439.29	81.908
1442.85	150.719
1446.4	121.029
1449.96	143.893
1453.51	239.689
1457.07	285.853
1460.62	374.732
1464.16	371.182
1467.71	267.386
1471.26	303.223
1474.8	307.737
1478.35	274.932
1481.89	91.854
1485.43	20.154
1488.96	129.072
1492.5	248.305
1496.04	288.105
1499.57	359.084
1503.1	291.571
1506.63	304.33
1510.16	330.184
1513.69	219.594
1517.21	4.321
1520.74	16.823
