Measurement: Raman, 514 nm, ccw, Raman Data Processed
Mineral: Lawsonite
Rruff sample: R050042
Ideal chemistry: CaAl_2_Si_2_O_7_(OH)_2_H_2_O
Locality: California, USA
Source: University of Arizona Mineral Museum
Description: White to colorless fragments
Measured chemistry: (Ca_0.98_Fe^2+^_0.02_)Al_2.00_Si_2.00_O_7_(OH)_2_Â·H_2_O
Pin_id: L00291
Orientation: Laser parallel to c* (0 0 1). Fiducial mark perpendicular to laser is parallel to a [1 0 0]
Raman shift (cm-1)	intensity
81.195	0
85.384	849.243
89.571	1665.37
93.755	2383.33
97.938	1801.58
102.119	502.226
106.298	241.001
110.474	626.37
114.649	707.931
118.822	1293.47
122.993	1615.41
127.161	1778.77
131.328	1793.57
135.493	1247.74
139.655	605.161
143.816	115.046
147.975	76.373
152.131	83.682
156.286	171.255
160.439	177.743
164.589	155.314
168.738	60.405
172.885	69.111
177.029	78.805
181.172	5.38
185.313	40.883
189.452	17.307
193.588	122.823
197.723	53.994
201.856	132.318
205.987	74.482
210.116	86.201
214.243	98.304
218.367	88.001
222.49	73.616
226.611	14.292
230.73	60.322
234.847	222.234
238.962	448.993
243.075	701.333
247.186	993.649
251.296	1519.02
255.403	2205.57
259.508	3088.32
263.611	4334.83
267.712	6774.69
271.812	10505.9
275.909	14339.9
280.005	13625.2
284.098	9730.9
288.19	6452.87
292.279	4521.28
296.367	3580.01
300.452	3147.24
304.536	3077.99
308.618	3103.25
312.698	3486.53
316.776	4416.27
320.851	6238.55
324.925	8852
328.998	9553.57
333.068	6901.25
337.136	4274.86
341.202	2808.41
345.266	2292.91
349.329	1995.9
353.389	1868.06
357.448	1839.64
361.504	1767.62
365.559	1624.15
369.612	1432.19
373.663	1096.58
377.712	871.413
381.758	653.53
385.804	457.13
389.847	344.589
393.888	318.19
397.927	390.302
401.965	396.979
406	330.717
410.034	313.509
414.065	360.217
418.095	577.159
422.123	1026.71
426.149	1611.77
430.173	1871.49
434.195	1841.98
438.215	1816.32
442.234	1845.62
446.25	2015
450.265	2322.28
454.277	2899.55
458.288	3558.36
462.297	3745.39
466.304	3380.99
470.309	2784.18
474.312	1960.23
478.313	1348.06
482.313	1001.68
486.31	830.145
490.306	696.823
494.299	708.1
498.291	751.647
502.281	790.587
506.269	880.601
510.256	852.765
514.24	997.143
518.222	1086.8
522.203	1282.83
526.182	1408.24
530.159	1741.08
534.134	2120.26
538.107	2762.8
542.078	3441.2
546.047	4437.99
550.015	6186.41
553.98	9434.64
557.944	14485.6
561.906	19046.8
565.866	17767.7
569.824	14308.3
573.781	10829.4
577.735	7542.36
581.688	4925.29
585.639	3349.1
589.588	2204.8
593.535	1519.4
597.48	996.929
601.423	605.399
605.365	385.826
609.304	237.22
613.242	155.592
617.178	45.941
621.112	35.791
625.045	105.906
628.975	142.657
632.904	218.245
636.831	195.85
640.756	172.342
644.679	126.676
648.6	55.663
652.519	61.07
656.437	68.27
660.353	117.654
664.267	289.1
668.179	593.613
672.089	895.196
675.998	1292.85
679.904	2131.58
683.809	3740.38
687.712	6748.26
691.614	12047.2
695.513	15046.3
699.411	11405.4
703.306	6399.62
707.2	3335.01
711.092	1918.56
714.983	1043.27
718.871	714.125
722.758	437.149
726.643	347.347
730.526	307.748
734.407	191.29
738.287	248.974
742.164	262.801
746.04	359.779
749.914	461.914
753.787	550.211
757.657	694.678
761.526	843.321
765.393	1027.14
769.258	1251.97
773.121	1449.13
776.982	1666.55
780.842	1941.73
784.7	2254.18
788.556	2533.47
792.411	2763.42
796.263	3086.06
800.114	3218.48
803.963	3288.51
807.81	3318.08
811.656	3336.67
815.499	3052.71
819.341	2743.69
823.181	2394.13
827.019	2000.43
830.856	1661.17
834.691	1380.4
838.524	1009.12
842.355	801.347
846.185	650.063
850.012	463.256
853.838	443.907
857.662	262.025
861.485	229.586
865.305	140.579
869.124	110.001
872.941	103.854
876.757	106.143
880.57	77.844
884.382	140.953
888.192	197.472
892	435.402
895.807	756.73
899.612	1211.46
903.415	2010.59
907.216	3245.12
911.016	5061.05
914.814	6725.37
918.61	6903.08
922.404	6871.18
926.196	8619.67
929.987	12009.3
933.776	17871.5
937.564	22312.4
941.349	20094.7
945.133	14879.5
948.915	11246.1
952.696	10275
956.474	11210.3
960.251	11271.7
964.027	9314.17
967.8	7028.19
971.572	5032.56
975.342	3726.58
979.11	2767.27
982.877	2096.28
986.641	1782
990.404	1576.21
994.166	1259.18
997.925	1071.88
1001.68	919.79
1005.44	834.285
1009.19	813.687
1012.95	784.778
1016.7	633.726
1020.45	594.729
1024.19	635.844
1027.94	457.001
1031.68	483.84
1035.43	421.273
1039.17	371.874
1042.91	391.24
1046.64	319.668
1050.38	265.657
1054.11	168.42
1057.85	142.183
1061.58	89.13
1065.31	82.202
1069.03	89.465
1072.76	29.466
1076.48	26.553
1080.2	38.556
1083.92	7.451
1087.64	9.847
1091.36	18.13
1095.08	27.973
1098.79	42.384
1102.5	90.122
1106.21	51.187
1109.92	21.904
1113.63	43.735
1117.33	19.793
1121.04	94.317
1124.74	73.696
1128.44	49.48
1132.14	39.562
1135.83	13.55
1139.53	1.601
1143.22	67.332
1146.91	6.911
1150.6	44.623
1154.29	4.08
1157.98	56.072
1161.66	22.259
1165.35	86.266
1169.03	85.299
1172.71	125.913
1176.39	73.304
1180.06	121.818
1183.74	59.242
1187.41	158.406
1191.08	93.693
1194.75	105.896
1198.42	109.072
1202.09	175.521
1205.75	154.849
1209.42	160.097
1213.08	118.958
1216.74	161.582
1220.4	172.087
1224.05	175.346
1227.71	151.99
1231.36	190.757
1235.01	184.261
1238.66	143.38
1242.31	154.031
1245.96	152.08
1249.6	155.368
1253.25	157.459
1256.89	155.889
1260.53	179.516
1264.17	188.966
1267.81	103.011
1271.44	150.745
1275.08	61.056
1278.71	118.707
1282.34	84.497
1285.97	80.098
1289.59	50.04
1293.22	103.083
1296.84	107.349
1300.46	90.464
1304.09	87.672
1307.7	22.799
1311.32	70.756
1314.94	18.826
1318.55	67.79
1322.16	33.728
1325.78	15.176
1329.38	47.087
1332.99	118.913
1336.6	90.089
1340.2	38.627
1343.81	59.193
1347.41	46.309
1351.01	108.619
1354.61	116.624
1358.2	89.909
1361.8	87.578
1365.39	106.004
1368.98	68.306
1372.57	105.589
1376.16	63.246
1379.75	77.223
1383.33	127.709
1386.91	90.941
1390.5	49.495
1394.08	83.057
1397.65	98.169
1401.23	113.363
1404.81	81.088
1408.38	124.825
1411.95	52.227
1415.53	53.699
1419.09	34.149
1422.66	51.475
1426.23	52.252
1429.79	37.586
1433.36	40.563
1436.92	66.789
1440.47	71.207
1444.03	73.108
1447.59	54.469
1451.14	74.014
1454.7	30.823
1458.25	55.13
1461.8	64.253
1465.35	23.087
1468.89	9.854
1472.44	140.139
1475.98	16.802
1479.53	16.163
1483.07	99.311
1486.61	103.079
1490.14	49.881
1493.68	38.204
1497.21	49.016
1500.75	60.487
1504.28	5.32
1507.81	0.127
1511.34	0.3
