Measurement: Raman, 514 nm, ccw, Raman Data Processed
Mineral: Lawsonite
Rruff sample: R050042
Ideal chemistry: CaAl_2_Si_2_O_7_(OH)_2_H_2_O
Locality: California, USA
Source: University of Arizona Mineral Museum
Description: White to colorless fragments
Measured chemistry: (Ca_0.98_Fe^2+^_0.02_)Al_2.00_Si_2.00_O_7_(OH)_2_Â·H_2_O
Pin_id: L00478
Orientation: Laser parallel to -b* (0 -1 0). Fiducial mark perpendicular to laser is parallel to c [0 0 1]
Raman shift (cm-1)	intensity
138.268	0
142.429	338.118
146.589	772.218
150.746	1021.31
154.901	1163.02
159.055	1190.35
163.206	1214.3
167.355	1032.9
171.503	1041.71
175.648	950.337
179.792	1026.96
183.933	1030.6
188.072	1200.31
192.21	964.064
196.345	857.981
200.479	654.852
204.61	365.148
208.74	275.786
212.867	5.314
216.993	52.081
221.116	143.356
225.238	124.737
229.357	90.705
233.475	131.052
237.591	51.567
241.705	12.933
245.816	11.097
249.926	305.98
254.034	333.474
258.14	363.217
262.244	631.147
266.346	945.438
270.446	1539.4
274.544	2202.33
278.64	2575.24
282.734	2248.44
286.826	1822.12
290.916	1396.3
295.004	1020.97
299.091	616.12
303.175	553.272
307.257	626.216
311.338	629.068
315.416	690.28
319.493	709.278
323.568	945.942
327.64	1199.68
331.711	1340.41
335.78	1468.4
339.847	1923.53
343.912	2484.51
347.975	3290.75
352.036	4313.2
356.095	5823.65
360.152	7402.84
364.208	8809.83
368.261	9724.21
372.313	10316
376.362	10257.4
380.41	9290.52
384.455	8360.26
388.499	7327.81
392.541	6420
396.581	5589.84
400.619	5150.18
404.655	4571.81
408.689	3862.95
412.722	3378.56
416.752	2886.18
420.781	2654.74
424.807	2434.44
428.832	2228.86
432.855	2101.94
436.875	2385.24
440.894	2888.75
444.911	3882.48
448.927	4486.42
452.94	5170.55
456.951	5384.87
460.961	4719.86
464.968	2697.51
468.974	1488.65
472.978	670.332
476.98	559.897
480.98	399.329
484.978	456.19
488.974	365.531
492.968	293.143
496.961	376.732
500.952	382.086
504.94	434.648
508.927	466.886
512.912	509.184
516.895	421.537
520.876	383.955
524.856	636.516
528.833	799.296
532.809	942.234
536.782	1115.41
540.754	1419.01
544.724	2063.1
548.692	2877.79
552.659	4163.02
556.623	6608.8
560.586	9405.08
564.546	10311.6
568.505	8388.36
572.462	7095.19
576.417	7372.08
580.37	7489
584.322	5885.94
588.271	4182.85
592.219	2599.75
596.165	1746.6
600.109	1313.42
604.051	830.203
607.991	566.938
611.93	223.622
615.866	10.254
619.801	36.809
623.734	13.239
627.665	110.557
631.594	144.855
635.522	169.813
639.447	145.654
643.371	52.485
647.293	149.947
651.213	97.968
655.131	16.332
659.048	130.934
662.962	236.536
666.875	391.826
670.786	725.607
674.695	1257.22
678.602	2081.4
682.508	3421.87
686.412	6147.91
690.313	11329.7
694.213	18845.6
698.112	18797.3
702.008	11699.3
705.902	6300.24
709.795	3551.06
713.686	2191.8
717.575	1662.45
721.463	1023.02
725.348	633.493
729.232	453.877
733.114	594.169
736.994	424.372
740.872	274.484
744.748	364.51
748.623	334.45
752.496	264.308
756.367	414.085
760.236	343.784
764.104	303.406
767.969	152.955
771.833	221.954
775.695	420.993
779.556	517.214
783.414	472.213
787.271	451.563
791.126	433.293
794.979	267.981
798.831	249.349
802.68	276.059
806.528	193.731
810.374	67.165
814.218	16.443
818.061	195.755
821.901	85.372
825.74	24.936
829.577	14.532
833.413	105.832
837.246	106.324
841.078	33.058
844.908	172.515
848.736	41.966
852.563	28.546
856.388	150.999
860.211	220.636
864.032	260.426
867.851	250.33
871.669	80.342
875.485	270.474
879.299	310.729
883.112	211.103
886.922	371.603
890.731	452.231
894.538	583.001
898.344	763.915
902.147	944.971
905.949	1296.18
909.749	1857.55
913.548	2199.07
917.344	2706.17
921.139	3392.58
924.932	4534.58
928.724	7186.74
932.514	11159.1
936.301	16181.8
940.088	17684.9
943.872	14558.5
947.655	10005.2
951.436	7329.98
955.215	5466.51
958.993	4392.15
962.768	3511.87
966.542	2711.13
970.315	2479.65
974.085	2082.31
977.854	1856.53
981.621	1725.15
985.387	1294.34
989.15	1192.93
992.912	1020.31
996.672	998.706
1000.43	1061.77
1004.19	808.971
1007.94	967.529
1011.7	679.479
1015.45	849.852
1019.2	698.86
1022.95	648.4
1026.69	608.965
1030.44	738.851
1034.18	529.05
1037.92	509.499
1041.66	450.208
1045.4	542.044
1049.13	723.075
1052.87	734.265
1056.6	786.178
1060.33	368.922
1064.06	280.87
1067.79	212.518
1071.52	174.478
1075.24	266.305
1078.96	248.207
1082.68	220.232
1086.4	182.335
1090.12	34.815
1093.84	62.96
1097.55	129.652
1101.26	162.396
1104.97	104.969
1108.68	37.142
1112.39	129.399
1116.1	58.573
1119.8	4.15
1123.5	228.468
1127.2	250.54
1130.9	22.948
1134.6	126.314
1138.3	1.826
1141.99	33.786
1145.68	24.94
1149.37	16.762
1153.06	3.656
1156.75	129.977
1160.43	358.326
1164.12	105.505
1167.8	173.58
1171.48	3.148
1175.16	218.788
1178.84	157.809
1182.51	154.352
1186.19	343.182
1189.86	432.129
1193.53	446.87
1197.2	398.623
1200.87	68.848
1204.53	41.307
1208.19	121.644
1211.86	261.051
1215.52	300.885
1219.18	369.383
1222.83	436.654
1226.49	535.078
1230.14	486.108
1233.8	195.863
1237.45	303.774
1241.1	348.422
1244.74	223.747
1248.39	429.605
1252.03	463.731
1255.68	498.683
1259.32	329.599
1262.96	38.993
1266.59	143.485
1270.23	327.446
1273.86	270.606
1277.5	311.331
1281.13	293.559
1284.76	424.408
1288.38	103.878
1292.01	233.692
1295.63	162.385
1299.26	202.838
1302.88	89.779
1306.5	104.146
1310.12	280.048
1313.73	216.654
1317.35	301.522
1320.96	196.976
1324.57	191.764
1328.18	54.062
1331.79	50.495
1335.4	2.465
1339	204.004
1342.61	376.045
1346.21	327.189
1349.81	377.049
1353.41	477.389
1357	427.754
1360.6	230.904
1364.19	340.357
1367.78	169.748
1371.37	18.719
1374.96	47.037
1378.55	224.42
1382.14	525.209
1385.72	601.877
1389.3	468.07
1392.88	594.355
1396.46	446.854
1400.04	332.064
1403.62	243.066
1407.19	173.498
1410.76	277.701
1414.34	490.859
1417.9	354.785
1421.47	499.473
1425.04	470.16
1428.6	272.1
1432.17	437.871
1435.73	198.531
1439.29	92.982
1442.85	130.355
1446.4	211.434
1449.96	140.203
1453.51	385.543
1457.07	291.568
1460.62	608.248
1464.16	632.639
1467.71	534.613
1471.26	337.258
1474.8	368.797
1478.35	394.221
1481.89	299.266
1485.43	15.508
1488.96	111.312
1492.5	208.686
1496.04	356.809
1499.57	356.566
1503.1	348.088
1506.63	580.088
1510.16	606.51
1513.69	437.07
1517.21	141.742
1520.74	40.814
