Measurement: Raman, 514 nm, ccw, Raman Data Processed
Mineral: Lawsonite
Rruff sample: R050042
Ideal chemistry: CaAl_2_Si_2_O_7_(OH)_2_H_2_O
Locality: California, USA
Source: University of Arizona Mineral Museum
Description: White to colorless fragments
Measured chemistry: (Ca_0.98_Fe^2+^_0.02_)Al_2.00_Si_2.00_O_7_(OH)_2_Â·H_2_O
Pin_id: L00291
Orientation: Laser parallel to c* (0 0 1). Fiducial mark perpendicular to laser is parallel to a [1 0 0]
Raman shift (cm-1)	intensity
81.195	0
85.384	487.086
89.571	2304.48
93.755	3175.22
97.938	3792.85
102.119	3946.49
106.298	4328.02
110.474	3737.14
114.649	3943.02
118.822	4391.74
122.993	4897.23
127.161	5097.4
131.328	4153.3
135.493	2117.58
139.655	224.332
143.816	254.014
147.975	102.299
152.131	107.92
156.286	366.989
160.439	465.16
164.589	450.993
168.738	454.214
172.885	389.616
177.029	299.537
181.172	247.266
185.313	140.098
189.452	55.974
193.588	27.773
197.723	80.545
201.856	117.74
205.987	163.287
210.116	118.371
214.243	115.865
218.367	44.984
222.49	24.366
226.611	36.09
230.73	83.203
234.847	124.916
238.962	156.366
243.075	236.948
247.186	278.546
251.296	429.93
255.403	557.608
259.508	771.983
263.611	1131.46
267.712	1730.5
271.812	2805.58
275.909	4085.76
280.005	4376.79
284.098	4013.8
288.19	3522.27
292.279	3054.21
296.367	2808.94
300.452	2659.84
304.536	2664.65
308.618	2576.05
312.698	2559.68
316.776	2727.64
320.851	2924.38
324.925	3248.87
328.998	3508.26
333.068	3561.44
337.136	3613.48
341.202	3632.26
345.266	3923.53
349.329	4258.94
353.389	4560.2
357.448	4657.05
361.504	4737.58
365.559	4620.28
369.612	4081.68
373.663	3228.93
377.712	2471.57
381.758	1776.23
385.804	1274.77
389.847	801.714
393.888	583.704
397.927	399.896
401.965	287.202
406	194.943
410.034	24.649
414.065	64.638
418.095	51.773
422.123	53.987
426.149	51.188
430.173	242.028
434.195	476.156
438.215	850.313
442.234	1325.68
446.25	1481.3
450.265	1517.2
454.277	1428.46
458.288	1379.14
462.297	1298.28
466.304	943.952
470.309	679.492
474.312	345.401
478.313	179.506
482.313	149.657
486.31	153.959
490.306	136.5
494.299	154.421
498.291	285.815
502.281	447.808
506.269	650.867
510.256	775.047
514.24	1094.38
518.222	1489.01
522.203	1839.11
526.182	2288.79
530.159	3006.12
534.134	3941.16
538.107	5242.9
542.078	6984.19
546.047	9427.9
550.015	14112
553.98	22696.3
557.944	36119.7
561.906	46382
565.866	39973.5
569.824	27753.2
573.781	18874
577.735	13746.5
581.688	10002.2
585.639	7206.15
589.588	5128.74
593.535	3696.99
597.48	2815.62
601.423	1997.02
605.365	1510.75
609.304	1207.56
613.242	893.462
617.178	616.469
621.112	462.59
625.045	296.832
628.975	228.201
632.904	131.695
636.831	58.172
640.756	4.572
644.679	12.195
648.6	10.971
652.519	26.497
656.437	17.377
660.353	97.388
664.267	276.539
668.179	475.831
672.089	827.265
675.998	1305.84
679.904	2106.55
683.809	3776.4
687.712	6934.38
691.614	12342.5
695.513	15340.7
699.411	11289
703.306	6022.49
707.2	3068.05
711.092	1656.71
714.983	807.496
718.871	417.414
722.758	167.479
726.643	20.715
730.526	101.904
734.407	135.678
738.287	144.726
742.164	75.149
746.04	51.875
749.914	94.799
753.787	35.97
757.657	53.8
761.526	101.672
765.393	200.675
769.258	288.809
773.121	333.077
776.982	368.482
780.842	468.024
784.7	557.705
788.556	550.527
792.411	584.492
796.263	624.135
800.114	598.833
803.963	575.778
807.81	619.812
811.656	598.611
815.499	531.617
819.341	445.814
823.181	349.179
827.019	334.713
830.856	201.449
834.691	230.428
838.524	217.669
842.355	169.176
846.185	195.976
850.012	241.024
853.838	326.272
857.662	381.73
861.485	379.385
865.305	455.234
869.124	514.28
872.941	618.541
876.757	694.987
880.57	827.517
884.382	1018.87
888.192	1381.39
892	1926.45
895.807	2705.94
899.612	4137.74
903.415	6222.18
907.216	10166.3
911.016	15710.5
914.814	19936
918.61	18411.8
922.404	15817.8
926.196	17054.1
929.987	22230.6
933.776	32877.2
937.564	41294.2
941.349	37831.3
945.133	27758.7
948.915	19716.3
952.696	14984.2
956.474	12502.9
960.251	10983.4
964.027	9224.34
967.8	7676.53
971.572	6168.01
975.342	5110.26
979.11	4254.81
982.877	3682.38
986.641	3267.19
990.404	2897.42
994.166	2654.83
997.925	2358.38
1001.68	2113.95
1005.44	1875.47
1009.19	1893.39
1012.95	1819.06
1016.7	1670.79
1020.45	1460.12
1024.19	1424.8
1027.94	1221.41
1031.68	1138.38
1035.43	1011.36
1039.17	914.543
1042.91	808.024
1046.64	682.639
1050.38	589.644
1054.11	448.433
1057.85	381.701
1061.58	322.031
1065.31	290.582
1069.03	250.015
1072.76	175.793
1076.48	95.52
1080.2	66.884
1083.92	108.449
1087.64	97.789
1091.36	62.022
1095.08	40.83
1098.79	4.881
1102.5	21.333
1106.21	35.175
1109.92	24.253
1113.63	31.082
1117.33	11.352
1121.04	113.584
1124.74	13.483
1128.44	24.261
1132.14	68.481
1135.83	53.981
1139.53	45.388
1143.22	40.271
1146.91	11.738
1150.6	7.056
1154.29	9.987
1157.98	27.473
1161.66	47.892
1165.35	0.781
1169.03	0.924
1172.71	54.376
1176.39	12.909
1180.06	39.864
1183.74	6.166
1187.41	15.535
1191.08	31.332
1194.75	43.021
1198.42	45.582
1202.09	48.585
1205.75	84.642
1209.42	53.166
1213.08	94.299
1216.74	43.266
1220.4	45.765
1224.05	84.035
1227.71	66.023
1231.36	85.879
1235.01	105.504
1238.66	54.73
1242.31	84.687
1245.96	56.333
1249.6	62.317
1253.25	69.238
1256.89	85.751
1260.53	53.732
1264.17	82.053
1267.81	102.77
1271.44	70.638
1275.08	77.835
1278.71	61.487
1282.34	68.261
1285.97	44.217
1289.59	1.623
1293.22	45.249
1296.84	65.166
1300.46	17.873
1304.09	29.236
1307.7	5.611
1311.32	19.012
1314.94	1.228
1318.55	32.652
1322.16	19.379
1325.78	34.261
1329.38	53.004
1332.99	86.445
1336.6	50.974
1340.2	25.329
1343.81	50.208
1347.41	27.352
1351.01	50.216
1354.61	95.629
1358.2	67.019
1361.8	104.748
1365.39	112.603
1368.98	125.836
1372.57	92.545
1376.16	64.093
1379.75	89.199
1383.33	101.192
1386.91	112.017
1390.5	107.577
1394.08	106.517
1397.65	127.61
1401.23	99.18
1404.81	109.641
1408.38	136.961
1411.95	83.146
1415.53	74.139
1419.09	54.833
1422.66	68.944
1426.23	33.561
1429.79	37.676
1433.36	95.552
1436.92	84.341
1440.47	72.089
1444.03	123.428
1447.59	104.163
1451.14	72.382
1454.7	2.932
1458.25	52.142
1461.8	12.307
1465.35	44.877
1468.89	77.73
1472.44	63.571
1475.98	68.429
1479.53	66.884
1483.07	64.552
1486.61	46.131
1490.14	112.528
1493.68	83.305
1497.21	91.107
1500.75	45.086
1504.28	9.387
1507.81	12.916
1511.34	59.799
1514.86	21.404
1518.39	57.556
1521.91	0.34
