Measurement: Raman, 514 nm, ccw, Raman Data Processed
Mineral: Lawsonite
Rruff sample: R050042
Ideal chemistry: CaAl_2_Si_2_O_7_(OH)_2_H_2_O
Locality: California, USA
Source: University of Arizona Mineral Museum
Description: White to colorless fragments
Measured chemistry: (Ca_0.98_Fe^2+^_0.02_)Al_2.00_Si_2.00_O_7_(OH)_2_Â·H_2_O
Pin_id: L00444
Orientation: Laser parallel to a* (1 0 0). Fiducial mark perpendicular to laser is parallel to b [0 1 0]
Raman shift (cm-1)	intensity
138.268	0
142.429	497.886
146.589	976.571
150.746	1265.97
154.901	1416.75
159.055	1587.66
163.206	1522.13
167.355	1328.55
171.503	1251.02
175.648	1155.32
179.792	1080.59
183.933	1193.92
188.072	1134.7
192.21	990.828
196.345	641.707
200.479	519.243
204.61	390.008
208.74	73.318
212.867	12.154
216.993	6.582
221.116	87.273
225.238	132.656
229.357	102.201
233.475	36.514
237.591	40.794
241.705	14.188
245.816	107.047
249.926	286.963
254.034	332.791
258.14	474.099
262.244	663.126
266.346	1081.14
270.446	1571.38
274.544	2248.18
278.64	2740.33
282.734	2192.07
286.826	1580.43
290.916	1187.41
295.004	903.009
299.091	662.199
303.175	634.658
307.257	687.011
311.338	737.604
315.416	726.085
319.493	858.067
323.568	1060.34
327.64	1291.4
331.711	1442.3
335.78	1663.35
339.847	2012.05
343.912	2525.53
347.975	3399.23
352.036	4357.91
356.095	5968.66
360.152	7778.68
364.208	9187.77
368.261	10266.2
372.313	10785.7
376.362	10639
380.41	9641.76
384.455	8701.04
388.499	7575.43
392.541	6632.03
396.581	5643.59
400.619	4821.38
404.655	4473.08
408.689	3811.49
412.722	3392.31
416.752	2955.83
420.781	2799.66
424.807	2549.02
428.832	2421.66
432.855	2317.59
436.875	2470.46
440.894	3191.38
444.911	4076.23
448.927	4643.37
452.94	5480.79
456.951	5658.48
460.961	4816.44
464.968	2737.19
468.974	1563.13
472.978	757.12
476.98	557.361
480.98	418.919
484.978	327.257
488.974	381.034
492.968	433.569
496.961	394.94
500.952	386.919
504.94	469.594
508.927	530.359
512.912	524.279
516.895	481.41
520.876	492.76
524.856	646.329
528.833	817.126
532.809	936.154
536.782	991.535
540.754	1532.33
544.724	2165.62
548.692	3043.5
552.659	4301.96
556.623	6723.97
560.586	9506.46
564.546	10319.2
568.505	8402.14
572.462	7165.18
576.417	7418.33
580.37	7501.55
584.322	6054.81
588.271	4068.12
592.219	2757.47
596.165	1759.86
600.109	1238.27
604.051	858.7
607.991	571.149
611.93	198.609
615.866	100.072
619.801	77.534
623.734	6.974
627.665	136.723
631.594	170.771
635.522	110.51
639.447	139.059
643.371	126.381
647.293	90.346
651.213	54.91
655.131	1.187
659.048	240.323
662.962	296.682
666.875	481.623
670.786	685.985
674.695	1300.12
678.602	2202.59
682.508	3547.82
686.412	6217.14
690.313	11607.2
694.213	19230.2
698.112	19608.9
702.008	11828.9
705.902	6527.47
709.795	3725.97
713.686	2371.39
717.575	1600.72
721.463	1045.97
725.348	846.119
729.232	500.176
733.114	641.139
736.994	529.006
740.872	342.776
744.748	351.451
748.623	243.031
752.496	263.515
756.367	472.903
760.236	387.196
764.104	306.396
767.969	288.502
771.833	374.516
775.695	614.437
779.556	562.517
783.414	480.792
787.271	494.151
791.126	388.027
794.979	330.892
798.831	285.467
802.68	253.007
806.528	136.711
810.374	73.201
814.218	2.865
818.061	32.525
821.901	61.905
825.74	72.781
829.577	51.633
833.413	91.532
837.246	5.5
841.078	111.516
844.908	118.549
848.736	8.582
852.563	27.36
856.388	28.69
860.211	146.781
864.032	222.913
867.851	197.091
871.669	126.319
875.485	289.659
879.299	338.083
883.112	370.562
886.922	382.102
890.731	557.705
894.538	658.377
898.344	916.123
902.147	1118.94
905.949	1527.84
909.749	2221.81
913.548	2578.87
917.344	2936.01
921.139	3663.24
924.932	4920.56
928.724	7597.96
932.514	11635.5
936.301	16303.2
940.088	17751.2
943.872	14389.7
947.655	10038.7
951.436	7318.63
955.215	5358.5
958.993	4238.74
962.768	3335.06
966.542	2775.12
970.315	2406.32
974.085	2055.82
977.854	1880.33
981.621	1615.01
985.387	1338.23
989.15	1143.73
992.912	1165.11
996.672	1074.23
1000.43	1168.27
1004.19	1001.83
1007.94	968.16
1011.7	769.344
1015.45	895.891
1019.2	837.677
1022.95	812.677
1026.69	813.647
1030.44	886.621
1034.18	724.896
1037.92	809.307
1041.66	1002.78
1045.4	1433.9
1049.13	1902.8
1052.87	1686.67
1056.6	1308.8
1060.33	831.994
1064.06	532.273
1067.79	399.866
1071.52	372.218
1075.24	312.554
1078.96	287.841
1082.68	183.115
1086.4	103.973
1090.12	119.99
1093.84	38.339
1097.55	104.796
1101.26	139.616
1104.97	101.236
1108.68	22.602
1112.39	57.184
1116.1	37.259
1119.8	22.056
1123.5	90.418
1127.2	69.423
1130.9	54.861
1134.6	21.273
1138.3	38.691
1141.99	38.16
1145.68	50.046
1149.37	44.112
1153.06	61.317
1156.75	95.297
1160.43	204.718
1164.12	71.789
1167.8	39.008
1171.48	100.093
1175.16	137.291
1178.84	127.791
1182.51	190.231
1186.19	302.807
1189.86	281.316
1193.53	200.455
1197.2	306.53
1200.87	83.191
1204.53	89.053
1208.19	234.217
1211.86	230.231
1215.52	207.668
1219.18	135.087
1222.83	255.201
1226.49	284.445
1230.14	92.949
1233.8	55.604
1237.45	221.846
1241.1	306.794
1244.74	213.573
1248.39	326.677
1252.03	176.908
1255.68	257.014
1259.32	135.779
1262.96	3.934
1266.59	68.554
1270.23	172.466
1273.86	191.636
1277.5	147.43
1281.13	118.629
1284.76	81.555
1288.38	76.808
1292.01	3.955
1295.63	50.974
1299.26	9.736
1302.88	21.815
1306.5	131.47
1310.12	146.413
1313.73	225.596
1317.35	139.657
1320.96	77.488
1324.57	19.09
1328.18	63.229
1331.79	32.265
1335.4	75.468
1339	136.725
1342.61	182.888
1346.21	238.796
1349.81	260.301
1353.41	283.795
1357	141.744
1360.6	113.208
1364.19	132.632
1367.78	124.304
1371.37	123.992
1374.96	49.115
1378.55	167.28
1382.14	317.493
1385.72	412.611
1389.3	256.764
1392.88	276.274
1396.46	181.571
1400.04	232.056
1403.62	245.633
1407.19	160.378
1410.76	255.082
1414.34	331.86
1417.9	217.048
1421.47	280.62
1425.04	311.032
1428.6	189.126
1432.17	189.944
1435.73	87.379
1439.29	42.642
1442.85	120.574
1446.4	59.017
1449.96	202.267
1453.51	271.143
1457.07	209.176
1460.62	416.073
1464.16	351.935
1467.71	378.365
1471.26	325.345
1474.8	311.63
1478.35	300.934
1481.89	148.22
1485.43	5.439
1488.96	163.897
1492.5	283.266
1496.04	353.427
1499.57	385.174
1503.1	308.332
1506.63	376.274
1510.16	389.771
1513.69	225.425
1517.21	0
