Measurement: Raman, 514 nm, ccw, Raman Data Processed
Mineral: Lawsonite
Rruff sample: R050042
Ideal chemistry: CaAl_2_Si_2_O_7_(OH)_2_H_2_O
Locality: California, USA
Source: University of Arizona Mineral Museum
Description: White to colorless fragments
Measured chemistry: (Ca_0.98_Fe^2+^_0.02_)Al_2.00_Si_2.00_O_7_(OH)_2_Â·H_2_O
Pin_id: L00444
Orientation: Laser parallel to a* (1 0 0). Fiducial mark perpendicular to laser is parallel to b [0 1 0]
Raman shift (cm-1)	intensity
139.655	0
143.816	152.254
147.975	378.838
152.131	460.395
156.286	468.81
160.439	552.025
164.589	533.179
168.738	715.36
172.885	465.536
177.029	601.511
181.172	677.104
185.313	694.366
189.452	625.157
193.588	468.235
197.723	451.608
201.856	318.267
205.987	182.633
210.116	151.546
214.243	74.481
218.367	34.019
222.49	130.516
226.611	78.065
230.73	0.095
234.847	191.04
238.962	516.048
243.075	1127.28
247.186	1698.93
251.296	2613.7
255.403	3756.5
259.508	5258.08
263.611	7448.46
267.712	10792.7
271.812	15345.6
275.909	18776.7
280.005	17029.9
284.098	12452.3
288.19	8197.98
292.279	5132.63
296.367	3366.87
300.452	2156.75
304.536	1663.84
308.618	1145.25
312.698	850.663
316.776	750.499
320.851	686.981
324.925	905.751
328.998	615.458
333.068	579.232
337.136	547.251
341.202	451.417
345.266	474.958
349.329	634.895
353.389	762.155
357.448	737.765
361.504	685.378
365.559	707.506
369.612	785.688
373.663	522.336
377.712	333.258
381.758	235.543
385.804	187.408
389.847	15.099
393.888	127.699
397.927	27.558
401.965	14.173
406	23.588
410.034	131.285
414.065	192.202
418.095	70.247
422.123	219.87
426.149	317.014
430.173	512.424
434.195	695.785
438.215	1142.19
442.234	1495.01
446.25	2227.54
450.265	3545.88
454.277	5433.76
458.288	7800.88
462.297	8397.9
466.304	6411.55
470.309	4088.59
474.312	2568.79
478.313	1690.45
482.313	1315.29
486.31	1070.43
490.306	868.436
494.299	760.661
498.291	750.731
502.281	769.38
506.269	754.752
510.256	728.828
514.24	797.403
518.222	860.899
522.203	967.271
526.182	975.485
530.159	1162.58
534.134	1474.95
538.107	1792.42
542.078	2260.41
546.047	2746.21
550.015	3817.59
553.98	5871.64
557.944	9283.99
561.906	12136.6
565.866	10301.5
569.824	6787.62
573.781	4221.23
577.735	2817.77
581.688	1726.5
585.639	1148.2
589.588	700.815
593.535	587.996
597.48	348.177
601.423	219.369
605.365	126.581
609.304	188.55
613.242	124.808
617.178	28.077
621.112	43.619
625.045	129.391
628.975	30.597
632.904	35.505
636.831	17.358
640.756	73.298
644.679	231.325
648.6	326.445
652.519	400.668
656.437	580.255
660.353	792.187
664.267	1132.89
668.179	1793.08
672.089	2308.86
675.998	3429.51
679.904	5152.85
683.809	8549.92
687.712	14863.4
691.614	26973.2
695.513	35416.9
699.411	27400.7
703.306	15404.8
707.2	8409.19
711.092	5073.99
714.983	2979.25
718.871	1865.04
722.758	1261.29
726.643	1017.97
730.526	775.032
734.407	472.349
738.287	314.903
742.164	204.678
746.04	307.652
749.914	251.817
753.787	206.175
757.657	131.725
761.526	121.475
765.393	228.416
769.258	266.876
773.121	356.146
776.982	303.882
780.842	272.306
784.7	307.688
788.556	332.216
792.411	362.648
796.263	223.312
800.114	154.211
803.963	55.346
807.81	13.283
811.656	38.239
815.499	49.897
819.341	118.262
823.181	173.409
827.019	84.586
830.856	2.698
834.691	99.363
838.524	1.665
842.355	135.796
846.185	26.975
850.012	180.021
853.838	263.368
857.662	406.962
861.485	330.818
865.305	305.01
869.124	349.473
872.941	544.275
876.757	699.362
880.57	664.688
884.382	920.242
888.192	976.026
892	1292.04
895.807	1578.28
899.612	2144.77
903.415	2771.49
907.216	3078.46
911.016	3785.66
914.814	4903.08
918.61	6530
922.404	8547.88
926.196	12086
929.987	17044.3
933.776	25613
937.564	31212
941.349	27541.2
945.133	18730.7
948.915	11780.4
952.696	7260.35
956.474	4850.46
960.251	3350.12
964.027	2545.03
967.8	1918.81
971.572	1629.16
975.342	1060
979.11	755.92
982.877	544.298
986.641	626.196
990.404	561.747
994.166	519.311
997.925	441.631
1001.68	470.161
1005.44	502.82
1009.19	505.708
1012.95	551.934
1016.7	552.271
1020.45	673.596
1024.19	751.052
1027.94	585.272
1031.68	639.549
1035.43	633.832
1039.17	938.515
1042.91	1343.17
1046.64	1828.1
1050.38	1955.48
1054.11	1432.21
1057.85	967.978
1061.58	823.354
1065.31	739.438
1069.03	584.954
1072.76	290.686
1076.48	376.563
1080.2	122.497
1083.92	208.529
1087.64	334.632
1091.36	200.244
1095.08	156.492
1098.79	152.412
1102.5	68.178
1106.21	93.768
1109.92	19.929
1113.63	26.548
1117.33	124.306
1121.04	160.618
1124.74	196.492
1128.44	16.539
1132.14	0.751
1135.83	122.159
1139.53	45.667
1143.22	144.014
1146.91	259.873
1150.6	195.614
1154.29	35.739
1157.98	122.65
1161.66	98.866
1165.35	96.253
1169.03	114.351
1172.71	300.54
1176.39	210.075
1180.06	193.86
1183.74	207.208
1187.41	113.817
1191.08	78.002
1194.75	1.035
1198.42	95.143
1202.09	298.559
1205.75	391.98
1209.42	235.691
1213.08	267.404
1216.74	281.001
1220.4	181.828
1224.05	112.964
1227.71	204.73
1231.36	286.606
1235.01	289.244
1238.66	178.852
1242.31	208.01
1245.96	227.267
1249.6	206.884
1253.25	105.514
1256.89	134.611
1260.53	223.382
1264.17	316.678
1267.81	305.638
1271.44	323.651
1275.08	216.384
1278.71	12.537
1282.34	31.141
1285.97	16.473
1289.59	99.979
1293.22	174.62
1296.84	223.09
1300.46	116.817
1304.09	140.154
1307.7	42.896
1311.32	2.46
1314.94	1.8
1318.55	50.266
1322.16	10.656
1325.78	111.3
1329.38	171.602
1332.99	271.293
1336.6	310.629
1340.2	127.271
1343.81	65.957
1347.41	122.781
1351.01	0.146
1354.61	117.675
1358.2	4.29
1361.8	251.271
1365.39	177.891
1368.98	134.051
1372.57	230.671
1376.16	106.735
1379.75	173.666
1383.33	192.405
1386.91	123.719
1390.5	44.471
1394.08	291.929
1397.65	211.35
1401.23	289.834
1404.81	373.146
1408.38	397.831
1411.95	238.983
1415.53	329.206
1419.09	206.742
1422.66	151.916
1426.23	88.114
1429.79	25.426
1433.36	166.216
1436.92	235.314
1440.47	344.453
1444.03	322.907
1447.59	341.553
1451.14	414.216
1454.7	185.25
1458.25	243.192
1461.8	210.436
1465.35	56.64
1468.89	207.789
1472.44	224.897
1475.98	261.94
1479.53	199.114
1483.07	356.621
1486.61	475.516
1490.14	355.283
1493.68	313.687
1497.21	282.81
1500.75	73.231
1504.28	24.588
1507.81	8.881
1511.34	3.302
1514.86	139.594
1518.39	152.238
1521.91	0
