Measurement: Raman, 514 nm, ccw, Raman Data Processed
Mineral: Lawsonite
Rruff sample: R050042
Ideal chemistry: CaAl_2_Si_2_O_7_(OH)_2_H_2_O
Locality: California, USA
Source: University of Arizona Mineral Museum
Description: White to colorless fragments
Measured chemistry: (Ca_0.98_Fe^2+^_0.02_)Al_2.00_Si_2.00_O_7_(OH)_2_Â·H_2_O
Pin_id: L00478
Orientation: Laser parallel to -b* (0 -1 0). Fiducial mark perpendicular to laser is parallel to c [0 0 1]
Raman shift (cm-1)	intensity
146.589	0
150.746	124.84
154.901	248.73
159.055	208.838
163.206	396.553
167.355	297.895
171.503	382.743
175.648	398.27
179.792	466.583
183.933	433.84
188.072	407.359
192.21	403.099
196.345	238.53
200.479	212.678
204.61	132.881
208.74	27.086
212.867	83.944
216.993	27.429
221.116	13.525
225.238	35.396
229.357	88.33
233.475	71.612
237.591	93.806
241.705	169.96
245.816	238.351
249.926	273.406
254.034	389.909
258.14	486.736
262.244	681.663
266.346	1042.25
270.446	1721.75
274.544	2679.6
278.64	3430.14
282.734	3165.38
286.826	2721.57
290.916	2473.12
295.004	2207.03
299.091	1839.42
303.175	1670.67
307.257	1625.48
311.338	1637.85
315.416	1734.93
319.493	1870.15
323.568	2207.37
327.64	2564.81
331.711	2484.84
335.78	2362.67
339.847	2474.63
343.912	2686.85
347.975	2897.92
352.036	3042.29
356.095	3247.28
360.152	3484.09
364.208	3415.79
368.261	3096.78
372.313	2597.49
376.362	2001.06
380.41	1461.56
384.455	980.344
388.499	725.818
392.541	531.321
396.581	476.916
400.619	488.851
404.655	520.932
408.689	284.978
412.722	50.902
416.752	80.87
420.781	139.258
424.807	56.064
428.832	79.82
432.855	99.659
436.875	345.46
440.894	829.235
444.911	1169.72
448.927	1202.33
452.94	1190.47
456.951	1256.5
460.961	1189.46
464.968	840.354
468.974	569.181
472.978	342.912
476.98	252.371
480.98	176.525
484.978	116.436
488.974	64.875
492.968	151.749
496.961	204.467
500.952	304.951
504.94	427.491
508.927	533.933
512.912	668.244
516.895	909.441
520.876	1094.54
524.856	1538.58
528.833	1901.58
532.809	2457.55
536.782	3203.54
540.754	4259.63
544.724	6055.79
548.692	8862.01
552.659	13588.2
556.623	22234.4
560.586	33610.6
564.546	38486.8
568.505	29362.7
572.462	18984.8
576.417	13334.9
580.37	9863.94
584.322	7115.02
588.271	5037.85
592.219	3455.45
596.165	2570.6
600.109	2030.22
604.051	1600.75
607.991	1071.24
611.93	779.679
615.866	527.085
619.801	417.458
623.734	350.8
627.665	301.111
631.594	63.396
635.522	21.482
639.447	18.776
643.371	4.335
647.293	16.706
651.213	41.256
655.131	9.16
659.048	185.214
662.962	236.268
666.875	360.34
670.786	542.437
674.695	907.562
678.602	1510.69
682.508	2585.59
686.412	4381.85
690.313	7807.13
694.213	12972.4
698.112	12877.9
702.008	7843.31
705.902	4028.77
709.795	2104.28
713.686	1053.84
717.575	690.467
721.463	282.148
725.348	136.894
729.232	108.262
733.114	126.614
736.994	10.593
740.872	78.181
744.748	27.996
748.623	106.908
752.496	66.981
756.367	64.898
760.236	150.859
764.104	49.918
767.969	122.08
771.833	122.347
775.695	459.724
779.556	537.213
783.414	426.818
787.271	577.543
791.126	451.391
794.979	519.368
798.831	376.581
802.68	506.855
806.528	446.755
810.374	280.544
814.218	205.945
818.061	333.901
821.901	214.078
825.74	191.409
829.577	37.914
833.413	26.335
837.246	60.396
841.078	101.738
844.908	104.07
848.736	95.616
852.563	65.34
856.388	183.253
860.211	357.354
864.032	325.632
867.851	420.092
871.669	332.739
875.485	601.572
879.299	642.595
883.112	747.792
886.922	1050.74
890.731	1430.59
894.538	1984.64
898.344	2725.13
902.147	3968.14
905.949	6432.93
909.749	10715
913.548	15387.9
917.344	16381.1
921.139	14744.4
924.932	13488
928.724	16521.8
932.514	22875.8
936.301	31990
940.088	35554.4
943.872	29649
947.655	20943.9
951.436	15089
955.215	11427.8
958.993	9543.45
962.768	7709.2
966.542	6139.85
970.315	5226.45
974.085	4242.86
977.854	3620.27
981.621	3191.97
985.387	2602.66
989.15	2345.88
992.912	2055.48
996.672	2006.9
1000.43	1818.18
1004.19	1624.26
1007.94	1554.79
1011.7	1443.28
1015.45	1392.02
1019.2	1191.32
1022.95	1120.7
1026.69	1120.35
1030.44	1049.96
1034.18	899.748
1037.92	699.801
1041.66	580.231
1045.4	570.832
1049.13	574.31
1052.87	525.573
1056.6	599.234
1060.33	411.749
1064.06	214.682
1067.79	186.492
1071.52	209.199
1075.24	232.212
1078.96	213.963
1082.68	115.789
1086.4	97.674
1090.12	50.114
1093.84	82.392
1097.55	24.406
1101.26	53.353
1104.97	88.948
1108.68	131.438
1112.39	53.522
1116.1	55.465
1119.8	0.551
1123.5	202.938
1127.2	166.309
1130.9	91.213
1134.6	11.771
1138.3	45.199
1141.99	43.67
1145.68	28.358
1149.37	9.857
1153.06	26.53
1156.75	87.702
1160.43	90.23
1164.12	20.226
1167.8	56.92
1171.48	40.84
1175.16	122.618
1178.84	72.646
1182.51	109.081
1186.19	79.476
1189.86	159.267
1193.53	159.21
1197.2	169.639
1200.87	0.955
1204.53	30.577
1208.19	39.282
1211.86	107.506
1215.52	226.149
1219.18	133.926
1222.83	191.286
1226.49	189.229
1230.14	219.218
1233.8	156.923
1237.45	126.363
1241.1	242.582
1244.74	208.253
1248.39	241.845
1252.03	285.663
1255.68	270.699
1259.32	195.487
1262.96	5.353
1266.59	89.665
1270.23	74.183
1273.86	86.454
1277.5	79.71
1281.13	181.95
1284.76	153.62
1288.38	123.392
1292.01	141.561
1295.63	12.437
1299.26	48.767
1302.88	120.77
1306.5	59.617
1310.12	189.237
1313.73	77.755
1317.35	245.789
1320.96	283.578
1324.57	121.026
1328.18	68.175
1331.79	124.882
1335.4	71.36
1339	27.487
1342.61	180.717
1346.21	243.702
1349.81	307.995
1353.41	252.177
1357	256.302
1360.6	171.155
1364.19	194.547
1367.78	87.802
1371.37	17.767
1374.96	58.294
1378.55	18.65
1382.14	299.973
1385.72	398.671
1389.3	376.322
1392.88	340.897
1396.46	296.718
1400.04	281.424
1403.62	205.246
1407.19	83.646
1410.76	42.564
1414.34	246.375
1417.9	122.668
1421.47	288.835
1425.04	359.858
1428.6	199.546
1432.17	318.103
1435.73	122.871
1439.29	121.822
1442.85	119.358
1446.4	131.047
1449.96	150.575
1453.51	237.355
1457.07	244.394
1460.62	329.745
1464.16	383.371
1467.71	436.341
1471.26	442.391
1474.8	307.839
1478.35	283.042
1481.89	239.516
1485.43	157.049
1488.96	175.594
1492.5	164.653
1496.04	275.311
1499.57	287.707
1503.1	312.38
1506.63	340.062
1510.16	472.22
1513.69	406.222
1517.21	204.454
