Measurement: Raman, 514 nm, ccw, Raman Data Processed
Mineral: Lawsonite
Rruff sample: R050042
Ideal chemistry: CaAl_2_Si_2_O_7_(OH)_2_H_2_O
Locality: California, USA
Source: University of Arizona Mineral Museum
Description: White to colorless fragments
Measured chemistry: (Ca_0.98_Fe^2+^_0.02_)Al_2.00_Si_2.00_O_7_(OH)_2_Â·H_2_O
Pin_id: L00478
Orientation: Laser parallel to -b* (0 -1 0). Fiducial mark perpendicular to laser is parallel to c [0 0 1]
Raman shift (cm-1)	intensity
143.816	0
147.975	118.92
152.131	185.396
156.286	370.146
160.439	282.19
164.589	346.205
168.738	346.532
172.885	340.509
177.029	338.874
181.172	353.206
185.313	466.024
189.452	475.247
193.588	343.86
197.723	393.359
201.856	233.609
205.987	149.517
210.116	63.57
214.243	35.884
218.367	77.92
222.49	112.118
226.611	80.135
230.73	57.544
234.847	9.877
238.962	23.204
243.075	48.242
247.186	138.603
251.296	222.792
255.403	236.484
259.508	301.484
263.611	511.568
267.712	941.391
271.812	1474.73
275.909	2350.31
280.005	3015.52
284.098	4178.59
288.19	6021.65
292.279	5854.75
296.367	3587.89
300.452	1944.07
304.536	1298.28
308.618	904.062
312.698	735.573
316.776	671.403
320.851	790.43
324.925	885.854
328.998	872.728
333.068	890.777
337.136	1034.7
341.202	1105.86
345.266	1357.29
349.329	1573.36
353.389	2408.9
357.448	2594.62
361.504	3100.28
365.559	3501.51
369.612	3760.19
373.663	3746.51
377.712	3510.57
381.758	3295.6
385.804	3058.52
389.847	3222.47
393.888	3855.7
397.927	5784.64
401.965	7580.46
406	6377.17
410.034	3825.72
414.065	2359.36
418.095	1632.62
422.123	1271.91
426.149	1041.84
430.173	908.292
434.195	865.076
438.215	1057.12
442.234	1390.13
446.25	1629.77
450.265	1774.02
454.277	1848.63
458.288	1691.8
462.297	1320.54
466.304	815.341
470.309	381.504
474.312	234.74
478.313	20.161
482.313	71.969
486.31	32.224
490.306	78.939
494.299	2.726
498.291	21.59
502.281	188.365
506.269	151.897
510.256	211.286
514.24	376.292
518.222	337.169
522.203	439.938
526.182	601.624
530.159	755.269
534.134	893.875
538.107	1239.5
542.078	1779.17
546.047	2333.92
550.015	3413.86
553.98	5603.94
557.944	9304.12
561.906	13154.3
565.866	12394.4
569.824	8874.52
573.781	6524.52
577.735	5344.41
581.688	4424.21
585.639	3223.86
589.588	2123.37
593.535	1549.73
597.48	1048.95
601.423	693.032
605.365	581.968
609.304	413.76
613.242	263.407
617.178	134.912
621.112	51.249
625.045	95.378
628.975	25.254
632.904	4.242
636.831	5.268
640.756	46.327
644.679	122.054
648.6	96.996
652.519	27.396
656.437	25.471
660.353	3.589
664.267	64.555
668.179	299.896
672.089	443.439
675.998	670.422
679.904	1074.94
683.809	1880.75
687.712	3564.5
691.614	6958.18
695.513	10035.9
699.411	8312.37
703.306	4748.48
707.2	2422.54
711.092	1485.85
714.983	889.085
718.871	476.414
722.758	405.506
726.643	160.527
730.526	273.482
734.407	116.374
738.287	49.203
742.164	35.977
746.04	73.698
749.914	33.37
753.787	32.996
757.657	98.581
761.526	144.127
765.393	172.64
769.258	251.122
773.121	355.383
776.982	282.523
780.842	318.076
784.7	394.647
788.556	367.771
792.411	399.999
796.263	488.373
800.114	405.1
803.963	332.35
807.81	266.117
811.656	412.814
815.499	306.599
819.341	168.973
823.181	122.227
827.019	65.57
830.856	59.016
834.691	122.599
838.524	86.339
842.355	70.17
846.185	75.869
850.012	91.886
853.838	82.089
857.662	196.153
861.485	70.278
865.305	114.522
869.124	11.114
872.941	103.375
876.757	148
880.57	212.779
884.382	377.694
888.192	422.747
892	537.931
895.807	713.268
899.612	1178.75
903.415	1894.38
907.216	2860.17
911.016	4046.11
914.814	5582.21
918.61	5678.46
922.404	5294.87
926.196	5921.44
929.987	7928.19
933.776	11805.4
937.564	15812.6
941.349	15890.1
945.133	12057.8
948.915	8695.93
952.696	6344.36
956.474	4975.26
960.251	4118.63
964.027	3381.9
967.8	2779.58
971.572	2279.99
975.342	1860.04
979.11	1620.23
982.877	1203.91
986.641	1278.04
990.404	1064.34
994.166	977.614
997.925	916.292
1001.68	782.693
1005.44	724.099
1009.19	543.781
1012.95	655.918
1016.7	607.883
1020.45	670.421
1024.19	643.686
1027.94	557.843
1031.68	450.887
1035.43	433.978
1039.17	357.093
1042.91	490.334
1046.64	514.054
1050.38	537.738
1054.11	361.881
1057.85	275.938
1061.58	239.928
1065.31	184.153
1069.03	138.289
1072.76	182.462
1076.48	206.667
1080.2	20.862
1083.92	114.982
1087.64	59.172
1091.36	13.468
1095.08	67.681
1098.79	131.906
1102.5	53.699
1106.21	171.006
1109.92	5.246
1113.63	100.603
1117.33	12.061
1121.04	42.48
1124.74	216.52
1128.44	21.286
1132.14	34.22
1135.83	130.269
1139.53	25.059
1143.22	60.465
1146.91	106.75
1150.6	97.562
1154.29	41.769
1157.98	107.752
1161.66	115.496
1165.35	67.236
1169.03	49.536
1172.71	116.199
1176.39	84.391
1180.06	242.474
1183.74	223.272
1187.41	176.565
1191.08	49.804
1194.75	91.713
1198.42	94.106
1202.09	269.59
1205.75	273.562
1209.42	254.52
1213.08	196.277
1216.74	257.643
1220.4	317.996
1224.05	238.628
1227.71	209.824
1231.36	230.054
1235.01	259.128
1238.66	238.398
1242.31	260.346
1245.96	235.608
1249.6	281.44
1253.25	279.12
1256.89	217.147
1260.53	258.807
1264.17	275.277
1267.81	221.868
1271.44	301.224
1275.08	206.944
1278.71	137.119
1282.34	211.533
1285.97	45.77
1289.59	7.412
1293.22	29.168
1296.84	165.155
1300.46	77.699
1304.09	119.188
1307.7	220.138
1311.32	101.433
1314.94	61.678
1318.55	38.573
1322.16	30.218
1325.78	20.907
1329.38	97.974
1332.99	156.629
1336.6	274.534
1340.2	102.238
1343.81	139.552
1347.41	186.391
1351.01	162.851
1354.61	179.165
1358.2	65.032
1361.8	180.8
1365.39	126.373
1368.98	71.795
1372.57	207.281
1376.16	192.896
1379.75	252.396
1383.33	294.011
1386.91	274.512
1390.5	235.263
1394.08	209.997
1397.65	248.791
1401.23	227.165
1404.81	281.634
1408.38	376.918
1411.95	336.543
1415.53	284.939
1419.09	161.621
1422.66	259.49
1426.23	157.924
1429.79	67.706
1433.36	110.962
1436.92	266.579
1440.47	252.812
1444.03	280.369
1447.59	213.745
1451.14	390.887
1454.7	407.46
1458.25	334.468
1461.8	187.553
1465.35	151.864
1468.89	147.714
1472.44	213.492
1475.98	179.162
1479.53	171.187
1483.07	297.137
1486.61	332.272
1490.14	208.148
1493.68	234.834
1497.21	332.947
1500.75	142.143
1504.28	183.288
1507.81	27.169
1511.34	4.897
1514.86	0.03
1518.39	0
