Measurement: Raman, 514 nm, ccw, Raman Data Processed
Mineral: Lawsonite
Rruff sample: R050042
Ideal chemistry: CaAl_2_Si_2_O_7_(OH)_2_H_2_O
Locality: California, USA
Source: University of Arizona Mineral Museum
Description: White to colorless fragments
Measured chemistry: (Ca_0.98_Fe^2+^_0.02_)Al_2.00_Si_2.00_O_7_(OH)_2_Â·H_2_O
Pin_id: L00291
Orientation: Laser parallel to c* (0 0 1). Fiducial mark perpendicular to laser is parallel to a [1 0 0]
Raman shift (cm-1)	intensity
82.592	0
86.78	176.234
90.966	731.701
95.15	1049.15
99.332	1361.06
103.512	1362.99
107.69	1531.07
111.866	1762.94
116.04	1956.55
120.212	1808.36
124.382	1377.77
128.55	950.815
132.716	338.53
136.88	54.409
141.042	45.959
145.202	397.421
149.36	630.396
153.516	936.956
157.67	1098.42
161.822	1039.46
165.972	972.697
170.121	849.714
174.267	807.176
178.411	701.085
182.553	525.677
186.693	498.404
190.831	372.889
194.967	317.346
199.101	161.603
203.233	132.794
207.363	65.68
211.492	0.602
215.618	90.024
219.742	53.742
223.864	148.075
227.985	115.73
232.103	34.888
236.219	281.506
240.334	638.85
244.446	1289.37
248.556	2139.21
252.665	3127.49
256.771	4297.12
260.876	5882.33
264.978	8536.21
269.079	12420.9
273.178	16632.5
277.275	18630.6
281.369	16045.6
285.462	10898.3
289.553	6978.56
293.642	4598.57
297.729	3249.3
301.814	2294.11
305.897	1738.67
309.978	1372.32
314.057	1293.2
318.134	1164.66
322.21	1252.56
326.283	1365.61
330.354	1397.64
334.424	1208.04
338.491	910.28
342.557	889.274
346.621	845.199
350.682	882.613
354.742	889.112
358.8	1010.65
362.856	959.813
366.91	911.632
370.962	787.911
375.012	610.317
379.061	504.069
383.107	334.73
387.151	150.917
391.194	58.837
395.235	38.157
399.273	14.096
403.31	6.363
407.345	37.721
411.378	54.695
415.409	154.619
419.438	207.481
423.465	368.342
427.49	464.275
431.514	710.353
435.535	911.641
439.555	1283.19
443.573	1938.05
447.588	2791.27
451.602	4141.85
455.614	6399.03
459.624	8317.41
463.633	7673.4
467.639	5262.28
471.643	3394.03
475.646	2303.01
479.647	1666
483.645	1226.59
487.642	922.866
491.637	814.761
495.63	783.299
499.622	730.183
503.611	686.019
507.598	700.991
511.584	703.348
515.568	819.872
519.549	948.773
523.529	977.522
527.508	1153.11
531.484	1482.2
535.458	1791.43
539.431	2171.66
543.401	2720.47
547.37	3681.6
551.337	5022.25
555.302	7417.48
559.265	10752
563.226	12207.6
567.186	9787.14
571.143	6434.05
575.099	4121.05
579.053	2765.38
583.005	1694.65
586.955	1159.53
590.903	757.891
594.85	517.035
598.794	308.744
602.737	194.165
606.678	189.586
610.617	75.149
614.554	28.477
618.49	68.295
622.423	98.396
626.355	34.906
630.285	79.794
634.213	84.04
638.139	31.511
642.063	100.959
645.986	107.495
649.907	232.107
653.825	317.803
657.743	559.594
661.658	821.499
665.571	1139.53
669.483	1606.7
673.392	2430.01
677.3	3750.45
681.206	5966.04
685.111	10157.8
689.013	18046.7
692.914	29165.7
696.812	31985
700.709	21084.5
704.604	11194.3
708.498	5950.3
712.389	3339.65
716.279	2144.36
720.167	1366.45
724.053	863.876
727.937	553.604
731.82	268.619
735.701	103.904
739.579	147.438
743.456	49.204
747.332	8.814
751.205	25.637
755.077	22.277
758.947	33.762
762.815	68.91
766.681	80.804
770.546	113.717
774.408	137.862
778.269	288.543
782.128	337.842
785.986	320.945
789.841	408.877
793.695	398.489
797.547	495.605
801.397	529.079
805.246	465.861
809.092	528.976
812.937	495.461
816.78	422.201
820.621	366.561
824.461	269.129
828.299	287.032
832.134	184.322
835.969	115.996
839.801	119.044
843.632	97.49
847.461	115.298
851.288	137.48
855.113	71.043
858.937	152.976
862.758	220.235
866.578	289.835
870.397	261.746
874.213	190.971
878.028	306.506
881.841	349.339
885.652	489.476
889.462	703.91
893.269	891.632
897.075	1137.64
900.88	1484.76
904.682	2020.29
908.483	2765.04
912.282	3727.88
916.079	4796.13
919.875	6377.66
923.668	8744.7
927.46	12802.1
931.251	19780
935.039	27128.3
938.826	28820.5
942.611	21749.8
946.394	14190.2
950.176	9406.81
953.955	7077.09
957.734	5986.25
961.51	5236.33
965.285	3810.72
969.057	2725.45
972.829	1993.59
976.598	1464.07
980.366	1099.22
984.132	900.496
987.896	621.491
991.658	546.267
995.419	491.264
999.178	417.436
1002.94	447.636
1006.69	428.453
1010.45	468.412
1014.2	327.411
1017.95	434.841
1021.7	390.908
1025.44	412.457
1029.19	429.138
1032.93	403.014
1036.67	367.804
1040.41	310.638
1044.15	307.926
1047.89	315.865
1051.62	364.194
1055.36	243.547
1059.09	143.74
1062.82	148.41
1066.55	54.236
1070.28	19.828
1074	57.998
1077.72	44.033
1081.44	12.316
1085.16	32.529
1088.88	11.893
1092.6	6.332
1096.31	75.383
1100.03	0.868
1103.74	29.163
1107.45	12.819
1111.16	29.184
1114.86	16.572
1118.57	39.547
1122.27	161.817
1125.97	27.072
1129.67	17.862
1133.37	70.658
1137.06	61.992
1140.76	15.901
1144.45	21.052
1148.14	40.756
1151.83	42.766
1155.52	24.678
1159.21	19.612
1162.89	90.779
1166.57	77.862
1170.25	103.249
1173.93	64.552
1177.61	68.249
1181.29	30.779
1184.96	97.727
1188.63	92.467
1192.31	137.006
1195.98	144.428
1199.64	121.101
1203.31	143.871
1206.97	76.367
1210.64	104.087
1214.3	101.648
1217.96	58.805
1221.62	79.594
1225.27	140.148
1228.93	135.499
1232.58	186.627
1236.23	41.92
1239.88	121.223
1243.53	96.526
1247.17	105.789
1250.82	142.251
1254.46	123.598
1258.1	160.13
1261.74	118.728
1265.38	59.278
1269.02	122.559
1272.65	73.294
1276.29	56.414
1279.92	104.191
1283.55	105.284
1287.17	127.265
1290.8	104.031
1294.43	64.846
1298.05	1.956
1301.67	9.309
1305.29	40.498
1308.91	14.733
1312.53	50.505
1316.14	80.028
1319.76	58.715
1323.37	112.238
1326.98	50.463
1330.59	44.731
1334.19	44.47
1337.8	64.672
1341.4	29.933
1345.01	102.556
1348.61	3.991
1352.21	134.949
1355.8	102
1359.4	150.368
1362.99	89.256
1366.59	129.229
1370.18	48.34
1373.77	89.374
1377.36	68.637
1380.94	79.596
1384.53	106.649
1388.11	107.8
1391.69	80.88
1395.27	121.828
1398.85	104.706
1402.42	101.48
1406	113.455
1409.57	27.781
1413.14	23.313
1416.71	6.245
1420.28	58.191
1423.85	59.669
1427.42	78
1430.98	88.127
1434.54	47.609
1438.1	56.256
1441.66	17.672
1445.22	1.25
1448.78	23.428
1452.33	61.54
1455.88	75.455
1459.43	71.939
1462.98	77.866
1466.53	94.836
1470.08	129.584
1473.62	97.302
1477.16	55.261
1480.71	80.824
1484.25	87.56
1487.79	47.919
1491.32	92.477
1494.86	34.015
1498.39	12.252
1501.92	27.863
1505.45	45.894
1508.98	122.394
1512.51	111.187
1516.04	120.639
1519.56	118.276
1523.08	0
