Measurement: Raman, 514 nm, ccw, Raman Data Processed
Mineral: Lazulite
Rruff sample: R050110
Ideal chemistry: MgAl_2_(PO_4_)_2_(OH)_2_
Locality: Rapid Creek, Yukon Territory, Canada
Source: Rock Currier
Description: Azure-blue stubby crystals with complex terminations
Measured chemistry: (Mg_0.84_Fe_0.16_)Al_2.00_(P_1.00_O_4_)_2_(OH)_2_
Pin_id: L00379
Orientation: Laser parallel to -c* (0 0 -1). Fiducial mark perpendicular to laser is parallel to a [1 0 0]
Raman shift (cm-1)	intensity
78.729	0
82.916	44.299
87.101	524.071
91.284	2330.21
95.465	8820.56
99.644	40060.4
103.82	24268
107.995	6550.26
112.168	3179.03
116.339	1799.88
120.508	657.996
124.675	456.9
128.84	239.06
133.003	119.218
137.164	164.297
141.323	70.082
145.48	43.261
149.635	37.972
153.788	8.527
157.939	90.115
162.088	275.137
166.235	1188.49
170.38	5082.26
174.523	8911.52
178.664	3683.63
182.803	5726.58
186.94	25294.9
191.076	57330
195.209	22961.4
199.34	5351.68
203.47	2075.42
207.597	1271.71
211.722	1028.61
215.846	979.149
219.967	1992.23
224.087	3677.82
228.204	2140.91
232.32	138.519
236.434	220.349
240.545	138.028
244.655	531.199
248.763	3340.01
252.869	11024.5
256.973	9828.34
261.075	2887.24
265.175	1354.79
269.273	792.87
273.369	848.315
277.463	1631.7
281.556	2619.17
285.646	1695.47
289.734	446.966
293.821	6.031
297.905	32.46
301.988	163.268
306.069	325.571
310.147	907.443
314.224	1816.21
318.299	4836.44
322.372	8544.59
326.443	6228.6
330.512	5929.26
334.579	8676.04
338.645	15809
342.708	33237.4
346.769	46967.5
350.829	30387.4
354.887	14460.6
358.942	8554.21
362.996	6880.51
367.048	7477.49
371.098	11206.2
375.146	20080.6
379.192	24903.6
383.236	14741.4
387.279	6523.92
391.319	3283.13
395.358	2003.59
399.394	1179.03
403.429	758.198
407.462	873.1
411.493	2685.04
415.522	2409.71
419.549	250.095
423.575	137.997
427.598	250.419
431.619	176.541
435.639	22.176
439.657	80.162
443.673	208.919
447.687	380.33
451.699	795.447
455.709	1933.37
459.717	3817.66
463.724	4814.3
467.728	4540.78
471.731	5438.6
475.732	8288.19
479.731	8936.62
483.728	4058.87
487.723	1427.91
491.716	480.778
495.708	172.455
499.697	104.935
503.685	136.204
507.671	151.263
511.655	212.125
515.637	309.827
519.617	491.383
523.596	515.802
527.572	724.09
531.547	865.541
535.52	1227.6
539.491	1297.56
543.46	1016.42
547.427	531.204
551.393	190.943
555.356	29.377
559.318	42.454
563.278	77.045
567.236	220.824
571.192	363.712
575.147	538.703
579.099	1067.2
583.05	879.365
586.999	397.677
590.946	377.256
594.891	641.17
598.834	1466.04
602.776	3194.16
606.715	5955.51
610.653	9751.68
614.589	10639
618.523	7253.62
622.456	6517.43
626.386	8704.33
630.315	13443.3
634.242	14797.2
638.167	10667.2
642.09	7448.27
646.012	5774.32
649.931	3526.4
653.849	1659.83
657.765	779.945
661.679	421.639
665.592	314.33
669.502	196.952
673.411	177.198
677.318	71.589
681.223	25.129
685.126	29.947
689.028	48.557
692.927	61.563
696.825	299.081
700.721	434.015
704.616	834.589
708.508	1291.25
712.399	1785.23
716.288	2452.91
720.175	3494.14
724.06	4891.67
727.944	7296.53
731.825	11041.2
735.705	16850.4
739.584	23451.5
743.46	25061.1
747.334	19453.6
751.207	12769.3
755.078	8087.46
758.947	5414.42
762.815	3778.64
766.68	2799.3
770.544	2021.26
774.406	1646.6
778.267	1311.92
782.125	1087.82
785.982	815.106
789.837	706.2
793.69	634.14
797.542	492.925
801.391	428.552
805.239	423.018
809.085	373.326
812.93	272.482
816.772	222.49
820.613	213.349
824.452	135.051
828.29	110.58
832.125	93.935
835.959	73.638
839.791	29.808
843.621	3.209
847.45	19.137
851.277	29.47
855.102	18.415
858.925	25.6
862.746	4.9
866.566	15.14
870.384	13.87
874.2	90.292
878.015	59.318
881.828	73.908
885.639	32.069
889.448	73.786
893.256	54.16
897.061	36.212
900.865	64.809
904.668	83.92
908.468	26.515
912.267	13.536
916.064	14.276
919.86	44.727
923.653	67.961
927.445	11.991
931.236	20.825
935.024	102.476
938.811	109.958
942.596	157.28
946.379	121.447
950.161	143.463
953.94	185.333
957.719	224.061
961.495	292.651
965.27	290.108
969.043	346.436
972.814	426.643
976.583	750.73
980.351	595.701
984.117	743.413
987.882	862.936
991.644	1092.92
995.405	1258.2
999.165	1597.44
1002.92	2012.96
1006.68	2463.26
1010.43	3183.18
1014.18	4289.4
1017.93	5922.84
1021.68	5670.68
1025.43	4393.75
1029.18	3894.12
1032.92	3786.55
1036.66	4133.7
1040.4	4959.19
1044.14	6705.82
1047.88	10287.4
1051.62	18123.9
1055.35	34631.3
1059.08	53859.3
1062.81	42529.2
1066.54	20430.5
1070.27	10380.5
1073.99	6352.09
1077.72	4739.93
1081.44	4121.02
1085.16	4146.71
1088.88	4401.72
1092.59	4837.89
1096.31	4852.18
1100.02	5630.62
1103.73	5391.19
1107.44	4069.86
1111.15	3259.67
1114.86	3135.6
1118.57	3325.79
1122.27	3918.09
1125.97	4772.39
1129.67	7227.82
1133.37	12633.3
1137.07	18511.1
1140.76	14176.5
1144.45	8217.46
1148.15	5333.01
1151.84	3921.64
1155.53	3151.77
1159.21	2625.49
1162.9	2390.59
1166.58	2245.08
1170.26	2215.06
1173.94	2131.12
1177.62	2210.64
1181.3	2136.7
1184.97	1835.99
1188.65	1444.28
1192.32	1154.12
1195.99	907.097
1199.66	850.548
1203.33	840.811
1206.99	974.263
1210.65	1062.22
1214.32	1020.26
1217.98	929.548
1221.64	814.101
1225.29	678.43
1228.95	639.316
1232.6	431.949
1236.26	236.039
1239.91	205.204
1243.56	69.678
1247.2	80.784
1250.85	60.269
1254.49	68.537
1258.13	73.312
1261.78	76.26
1265.41	15.908
1269.05	19.722
1272.69	8.973
1276.32	31.693
1279.95	39.52
1283.59	13.703
1287.21	6.144
1290.84	9.151
1294.47	38.396
1298.09	45.478
1301.72	25.614
1305.34	66.833
1308.96	36.112
1312.58	60.571
1316.19	22.544
1319.81	2.234
1323.42	0.74
1327.03	48.984
1330.64	52.993
1334.25	47.771
1337.86	23.386
1341.46	28.817
1345.07	13.061
1348.67	0.897
1352.27	81.956
1355.87	107.648
1359.46	110.185
1363.06	40.57
1366.65	97.808
1370.25	71.731
1373.84	27.066
1377.43	3.978
1381.02	25.707
1384.6	33.006
1388.18	88.118
1391.77	119.093
1395.35	149.757
1398.93	117.291
1402.51	80.736
1406.08	125.95
1409.66	135.531
1413.23	122.645
1416.8	109.178
1420.37	46.433
1423.94	34.545
1427.51	59.32
1431.08	66.552
1434.64	75.361
1438.2	78.769
1441.76	85.362
1445.32	106.641
1448.88	103.843
1452.43	23.597
1455.99	62.12
1459.54	65.707
1463.09	90.578
1466.64	55.377
1470.19	75.753
1473.74	65.299
1477.28	104.986
1480.83	113.593
1484.37	129.583
1487.91	122.207
1491.45	66.989
1494.98	23.703
1498.52	52.062
1502.05	23.784
1505.59	23.039
1509.12	45.503
1512.65	72.244
1516.17	58.066
1519.7	83.487
