Measurement: Raman, 514 nm, ccw, Raman Data Processed
Mineral: Lazulite
Rruff sample: R050110
Ideal chemistry: MgAl_2_(PO_4_)_2_(OH)_2_
Locality: Rapid Creek, Yukon Territory, Canada
Source: Rock Currier
Description: Azure-blue stubby crystals with complex terminations
Measured chemistry: (Mg_0.84_Fe_0.16_)Al_2.00_(P_1.00_O_4_)_2_(OH)_2_
Pin_id: L00543
Orientation: Laser parallel to (-1 0 -1). Fiducial mark perpendicular to laser is parallel to b [0 1 0]
Raman shift (cm-1)	intensity
77.333	0
81.521	18.337
85.706	161.626
89.89	1190.53
94.071	4612.85
98.251	24230.5
102.428	29910.1
106.604	9435.3
110.777	3699.75
114.949	2668.34
119.119	1049.35
123.286	453.204
127.452	267.115
131.615	507.079
135.777	359.655
139.937	534.688
144.094	667.625
148.25	725.306
152.403	491.591
156.555	710.119
160.705	715.483
164.853	1137.34
168.998	3949.25
173.142	8128.96
177.284	4782.01
181.424	4609.01
185.562	17192.2
189.698	43622.3
193.831	29562.6
197.963	7446.73
202.093	2740.81
206.221	1854.8
210.347	1551.71
214.472	1352.53
218.594	1891.21
222.714	3234.72
226.832	2409.08
230.948	342.271
235.063	220.702
239.175	251.932
243.286	201.588
247.394	1913.34
251.501	7598.68
255.605	10581
259.708	3835.62
263.808	1760.13
267.907	1141.45
272.004	655.667
276.099	944.311
280.192	1712.4
284.283	1404.12
288.372	337.222
292.459	138.572
296.544	4.519
300.627	9.597
304.709	294.209
308.788	651.959
312.865	1365.64
316.941	3477.25
321.015	6744.63
325.086	6395.06
329.156	5999.35
333.224	7488.59
337.29	11964.8
341.354	23848.8
345.416	39558.6
349.476	31058.1
353.534	15832
357.591	8900.5
361.645	6782.84
365.698	6624.01
369.748	8592.05
373.797	14773
377.844	21192.8
381.889	15300.4
385.932	7142.87
389.973	3695.13
394.012	2361.2
398.049	1538.84
402.084	844.196
406.118	768.243
410.15	1637.54
414.179	2532.05
418.207	446.491
422.233	166.295
426.257	222.316
430.279	261.128
434.299	145.757
438.318	33.763
442.334	181.432
446.349	292.379
450.361	559.135
454.372	1137.71
458.381	2530.72
462.388	3811.94
466.394	3784.82
470.397	4059.69
474.398	5879.4
478.398	7882.93
482.396	4533.29
486.391	1526.49
490.385	472.539
494.377	251.432
498.368	268.172
502.356	316.758
506.342	297.192
510.327	508.476
514.31	773.621
518.291	915.629
522.27	1064.51
526.247	1155.04
530.222	1258.85
534.196	1307.43
538.167	1445.11
542.137	1087.45
546.105	722.707
550.071	331.886
554.035	198.985
557.998	215.106
561.958	306.468
565.917	472.984
569.874	638.552
573.829	1013.19
577.782	1793.92
581.733	1983.25
585.683	1109.77
589.63	490.757
593.576	533.485
597.52	1208.33
601.462	3218.01
605.402	5852.64
609.341	8101.57
613.277	9394.3
617.212	6609.26
621.145	5165.35
625.076	6221.48
629.006	9790.61
632.933	11862.7
636.859	9505.83
640.783	6643.92
644.705	5273.99
648.625	3743.05
652.543	1881.08
656.46	920.083
660.375	568.067
664.288	553.025
668.199	405.957
672.108	215.949
676.016	126.214
679.921	50.933
683.825	60.925
687.727	64.163
691.628	25.182
695.526	54.646
699.423	261.054
703.318	616.913
707.211	1019.48
711.102	1541.8
714.992	2114.1
718.879	2598.43
722.765	3765.18
726.649	5271.66
730.532	7932.96
734.412	11888.3
738.291	17244.4
742.168	20542.3
746.043	17352.2
749.916	11679
753.788	7476.46
757.658	5001.21
761.526	3417.26
765.392	2560.04
769.257	1934.6
773.119	1430.93
776.98	1180.88
780.839	1055.32
784.697	925.199
788.552	746.057
792.406	699.259
796.258	630.182
800.108	565.888
803.957	475.376
807.804	346.645
811.649	352.691
815.492	326.514
819.333	222.112
823.173	134.485
827.011	157.629
830.847	90.541
834.681	165.204
838.514	85.397
842.345	45.263
846.174	22.291
850.001	41.024
853.827	53.299
857.651	36.229
861.473	13.137
865.293	118.122
869.112	22.091
872.928	28.331
876.744	89.286
880.557	47.886
884.369	31.095
888.178	55.252
891.987	25.494
895.793	35.457
899.598	29.735
903.401	63.558
907.202	28.341
911.001	25.585
914.799	26.271
918.595	34.642
922.389	51.244
926.182	7.608
929.972	20.737
933.761	78.651
937.549	6.365
941.334	117.876
945.118	194.204
948.9	137.355
952.681	151.336
956.459	137.152
960.236	202.809
964.012	265.311
967.785	296.898
971.557	377.908
975.327	428.934
979.095	494.925
982.862	563.145
986.627	802.348
990.39	962.431
994.152	1225.88
997.912	1471.88
1001.67	1930.39
1005.43	2347.05
1009.18	2767.03
1012.93	3532.26
1016.68	4594.32
1020.43	4937.81
1024.18	4355.43
1027.93	3931.64
1031.67	3714.54
1035.42	3937.06
1039.16	4448.99
1042.9	5690.59
1046.63	8138.72
1050.37	13599.5
1054.11	25205.8
1057.84	41675.1
1061.57	42269.3
1065.3	23528.8
1069.03	11762.6
1072.75	7271.46
1076.47	5249.17
1080.2	4401.42
1083.92	4116.31
1087.64	4097.1
1091.36	4191.47
1095.07	4683.01
1098.79	6145.74
1102.5	6942.58
1106.21	5285.54
1109.92	3973.62
1113.62	3722.82
1117.33	3831.53
1121.04	4408.56
1124.74	5105.26
1128.44	6314.2
1132.14	9805.78
1135.83	15305
1139.53	15059.4
1143.22	9961
1146.92	6645.88
1150.61	5036.25
1154.3	4042.16
1157.98	3464.15
1161.67	3058.9
1165.35	2909.18
1169.04	2873.14
1172.72	2618.05
1176.4	2628.27
1180.07	2482.79
1183.75	2272.76
1187.42	1903.24
1191.1	1660.87
1194.77	1452.86
1198.44	1332
1202.1	1508.76
1205.77	1677.81
1209.43	1953.28
1213.1	2042.55
1216.76	1793.19
1220.42	1609.59
1224.07	1499.55
1227.73	1073.23
1231.38	852.893
1235.04	564.367
1238.69	414.994
1242.34	308.665
1245.99	194.163
1249.63	123.903
1253.28	70.587
1256.92	25.126
1260.56	58.607
1264.2	28.849
1267.84	24.947
1271.48	23.659
1275.11	24.396
1278.74	3.311
1282.38	18.137
1286.01	31.553
1289.63	54.873
1293.26	80.778
1296.89	42.195
1300.51	19.74
1304.13	36.778
1307.75	11.428
1311.37	9.68
1314.99	14.513
1318.6	48.58
1322.22	60.451
1325.83	15.622
1329.44	2.925
1333.05	55.217
1336.66	30.251
1340.26	90.974
1343.87	84.448
1347.47	47.7
1351.07	36.754
1354.67	63.638
1358.27	37.373
1361.86	104.994
1365.46	71.548
1369.05	84.625
1372.64	110.064
1376.23	153.271
1379.82	188.859
1383.41	133.299
1386.99	138.575
1390.57	92.978
1394.16	112
1397.74	149.039
1401.32	192.511
1404.89	247.01
1408.47	271.072
1412.04	216.966
1415.61	241.054
1419.18	174.606
1422.75	161.568
1426.32	172.415
1429.89	23.806
1433.45	89.656
1437.01	62.974
1440.58	60.787
1444.13	137.075
1447.69	159.271
1451.25	158.252
1454.81	103.658
1458.36	155.897
1461.91	87.161
1465.46	47.891
1469.01	112.736
1472.56	88.114
1476.1	114.889
1479.64	94.95
1483.19	126.645
1486.73	173.917
1490.27	205.255
1493.81	162.615
1497.34	165.946
1500.88	119.975
1504.41	127.461
1507.94	117.52
1511.47	28.342
1515	0
