Measurement: Raman, 514 nm, ccw, Raman Data Processed
Mineral: Lazulite
Rruff sample: R060494
Ideal chemistry: MgAl_2_(PO_4_)_2_(OH)_2_
Locality: Champion mine, White Mountains, Mono County, California, USA
Source: Michael Scott
Description: Dark-blue coarsely crystalline mass
Measured chemistry: (Mg_0.67_Fe^2+^_0.33_)_Î£=1_Al_2.00_(P_1.00_O_4_)_2_(OH)_2_
Pin_id: M01648
Orientation: Laser parallel to b* (0 1 0). Fiducial mark perpendicular to laser is parallel to c [0 0 1]
Raman shift (cm-1)	intensity
140.698	0
145.622	318.32
150.544	170.898
155.463	130.075
160.38	21.6655
165.294	313.203
170.205	693.833
175.114	1202.43
180.02	2202.74
184.923	4093.8
189.824	6701.33
194.722	8860.22
199.618	10241.1
204.51	10826.1
209.4	9551
214.288	7535.5
219.173	5362.65
224.055	3858.93
228.935	2730.33
233.812	2037.29
238.686	1472.79
243.558	1366.87
248.427	1503.88
253.293	1727.07
258.157	1421.29
263.018	994.369
267.876	737.269
272.732	859.034
277.585	975.725
282.436	1198.46
287.284	611.867
292.129	169.796
296.971	26.5986
301.811	148.31
306.649	76.7495
311.483	23.5454
316.316	66.9365
321.145	108.09
325.972	195.969
330.796	40.4238
335.617	36.7788
340.436	97.3721
345.253	489.084
350.066	1514.72
354.877	2326.61
359.686	1360.53
364.491	383.473
369.294	620.03
374.095	888.335
378.893	884.334
383.688	628.023
388.48	411.584
393.27	262.205
398.058	563.189
402.842	972.307
407.624	2806.67
412.404	4665.34
417.181	3080
421.955	1400.51
426.726	1262.92
431.495	1206.44
436.261	998.271
441.025	1503.61
445.786	2516.74
450.545	5411.49
455.3	14801.1
460.053	28862.8
464.804	35602.4
469.552	19982.4
474.297	8521.89
479.04	4791.69
483.78	3109.14
488.517	1739.69
493.252	1362.4
497.984	898.204
502.714	719.085
507.441	667.04
512.165	615.078
516.887	703.634
521.606	357.495
526.322	223.888
531.036	182.724
535.748	148.618
540.456	153.431
545.162	134.6
549.866	148.105
554.566	72.2891
559.265	25.3467
563.96	15.8594
568.653	38.7803
573.343	168.068
578.031	205.032
582.716	238.073
587.399	94.9531
592.078	308.381
596.756	403.06
601.43	778.32
606.102	1023.78
610.772	1201.15
615.439	1382.85
620.103	1142.06
624.764	1300.28
629.423	1636.1
634.08	1883.09
638.734	1950.27
643.385	1956.04
648.033	1666.62
652.679	963.149
657.323	554.832
661.963	259.232
666.602	59.5596
671.237	4.80469
675.87	123.224
680.5	67.4482
685.128	75.5928
689.753	17.9062
694.376	13.3398
698.996	12.1211
703.613	22.0146
708.228	72.6523
712.84	55.2451
717.449	9.29785
722.056	37.9434
726.661	126.998
731.262	57.7353
735.862	140.186
740.458	246.431
745.052	185.471
749.643	199.301
754.232	42.915
758.818	111.289
763.402	104.422
767.983	106.315
772.561	83.9512
777.137	105.273
781.71	232.325
786.281	85.1211
790.849	253.663
795.414	364.958
799.977	378.007
804.538	497.839
809.095	595.625
813.65	372.656
818.203	386.272
822.753	207.122
827.3	433.251
831.845	307.69
836.387	332.684
840.926	431.166
845.463	370.252
849.998	351.744
854.53	405.978
859.059	555.67
863.585	523.657
868.109	421.025
872.631	321.897
877.15	334.044
881.666	209.848
886.18	267.565
890.691	333.469
895.2	336.435
899.706	317.987
904.209	304.773
908.71	231.304
913.208	337.804
917.704	283.427
922.197	300.328
926.687	142.265
931.175	244.102
935.661	127.973
940.144	186.769
944.624	25.582
949.102	71.0957
953.577	2.74121
958.049	45.1943
962.519	46.3643
966.986	13.2383
971.451	50.499
975.914	8.52637
980.373	27.5586
984.83	151.076
989.285	321.595
993.737	512.019
998.186	747.346
1002.63	778.648
1007.08	515.87
1011.52	304.99
1015.96	629.013
1020.39	437.94
1024.83	394.782
1029.26	527.551
1033.69	366.668
1038.12	801.874
1042.54	1053.45
1046.96	2151
1051.38	4324.5
1055.8	7211.95
1060.21	6674.73
1064.62	3586.72
1069.03	1796.35
1073.43	1271.73
1077.84	1875.38
1082.24	2737.16
1086.64	2663.37
1091.03	1744.89
1095.42	2022.45
1099.82	2524.01
1104.2	2087.5
1108.59	1126.06
1112.97	574.65
1117.35	591.025
1121.73	468.069
1126.11	604.142
1130.48	1281.25
1134.85	1804.4
1139.21	1468.62
1143.58	730.84
1147.94	506.141
1152.3	334.502
1156.66	550.929
1161.01	439.423
1165.37	200.99
1169.72	55.6348
1174.06	250.358
1178.41	103.166
1182.75	211.061
1187.09	110.049
1191.43	58.875
1195.76	29.9619
1200.09	27.3174
1204.42	101.296
1208.75	44.9307
1213.07	44.4522
1217.39	154.275
1221.71	25.1416
1226.03	125.269
1230.35	68.9775
1234.66	188.944
1238.97	120.545
1243.27	24.8975
1247.58	175.014
1251.88	230.248
1256.18	302.134
1260.47	158.395
1264.77	293.22
1269.06	382.445
1273.35	219.317
1277.63	210.352
1281.92	334.534
1286.2	270.852
1290.48	309.303
1294.75	537.903
1299.03	534.657
1303.3	530.57
1307.57	674.645
1311.83	600.898
1316.1	662.34
1320.36	580.708
1324.62	532.472
1328.87	448.375
1333.12	330.679
1337.38	327.977
1341.62	397.477
1345.87	349.485
1350.11	473.655
1354.35	287.153
1358.59	477.906
1362.83	297.279
1367.06	203.107
1371.29	295.908
1375.52	335.722
1379.75	212.062
1383.97	386.735
1388.19	239.52
1392.41	267.107
1396.62	347.986
1400.84	170.204
1405.05	160.465
1409.26	226
1413.46	250.061
1417.66	174.129
1421.86	157.928
1426.06	240.983
1430.26	292.302
1434.45	418.413
1438.64	656.294
1442.83	774.903
1447.02	626.981
1451.2	797.435
1455.38	841.421
1459.56	621.639
1463.73	512.806
1467.9	368.008
1472.08	258.538
1476.24	346.663
1480.41	159.579
1484.57	41.2988
1488.73	150.875
1492.89	199.244
1497.05	88.4072
1501.2	53.4199
1505.35	47.54
1509.5	174.046
1513.64	100.125
1517.79	362.554
1521.93	286.43
1526.06	192.664
1530.2	113.747
1534.33	20.1221
1538.46	0
