Measurement: Raman, 514 nm, ccw, Raman Data Processed
Mineral: Lazulite
Rruff sample: R050110
Ideal chemistry: MgAl_2_(PO_4_)_2_(OH)_2_
Locality: Rapid Creek, Yukon Territory, Canada
Source: Rock Currier
Description: Azure-blue stubby crystals with complex terminations
Measured chemistry: (Mg_0.84_Fe_0.16_)Al_2.00_(P_1.00_O_4_)_2_(OH)_2_
Pin_id: L00379
Orientation: Laser parallel to -c* (0 0 -1). Fiducial mark perpendicular to laser is parallel to a [1 0 0]
Raman shift (cm-1)	intensity
80.125	0
84.311	179.271
88.496	1234.92
92.678	2799.63
96.858	7245.55
101.036	19259.3
105.212	7222.49
109.387	2932.95
113.559	2895.16
117.729	1381.51
121.897	958.174
126.063	598.604
130.228	539.377
134.39	333.01
138.55	247.146
142.709	21.394
146.865	12.671
151.019	28.553
155.171	130.907
159.322	30.135
163.47	298.104
167.617	924.185
171.761	3211.46
175.904	3201.27
180.044	1644.62
184.183	4201.11
188.319	16903
192.454	29876.8
196.586	9985.2
200.717	2777.66
204.846	1041.34
208.972	591.079
213.097	416.591
217.22	884.869
221.341	2871.62
225.46	4677.99
229.577	1673.75
233.692	59.149
237.805	222.457
241.916	31.922
246.025	908.784
250.132	3366.78
254.237	8544.57
258.34	4319.27
262.442	1192.37
266.541	659.365
270.639	843.18
274.734	1682.03
278.828	4319.8
282.919	6807.76
287.009	3783.11
291.097	1140.9
295.183	292.866
299.266	0.277
303.348	116.885
307.428	10.308
311.507	326.083
315.583	1767.87
319.657	5451.27
323.729	6938.19
327.8	3414.61
331.868	2923.59
335.935	4131.64
339.999	7576.65
344.062	15265.7
348.123	18134.4
352.182	9621.21
356.239	4553.43
360.294	3056.07
364.347	2569.55
368.398	3211.4
372.448	5182.92
376.495	9398.48
380.54	10100.7
384.584	5216.39
388.626	2638.84
392.666	2195.35
396.704	1596.91
400.74	726.994
404.774	664.063
408.806	2882.67
412.836	11894.6
416.865	6392.95
420.891	2084.68
424.916	3299.83
428.939	4552.91
432.959	1743.02
436.978	566.635
440.996	325.864
445.011	331.692
449.024	502.169
453.036	853.361
457.045	1528.18
461.053	2324.25
465.059	2416
469.063	2314.16
473.065	3613.78
477.065	6692.26
481.063	6230.03
485.06	2572.05
489.054	929.184
493.047	685.301
497.038	603.294
501.027	168.153
505.014	122.209
508.999	144.695
512.982	71.96
516.964	12.816
520.944	140.161
524.921	324.32
528.897	457.694
532.871	557.912
536.844	681.369
540.814	695.979
544.783	419.593
548.749	261.757
552.714	88.796
556.677	35.757
560.638	133.221
564.597	284.368
568.555	557.695
572.511	1105.06
576.464	2563.49
580.416	4132.98
584.366	2528.54
588.315	1399.15
592.261	1267.79
596.206	1781.51
600.148	3653.22
604.089	6906.21
608.028	6724.18
611.965	6232.89
615.901	5836.56
619.834	6061.31
623.766	7256.41
627.696	6884.84
631.624	7430.35
635.551	6386.81
639.475	4743.14
643.398	4384.36
647.318	4823.45
651.237	3740.41
655.155	2063.23
659.07	1158.1
662.984	685.567
666.895	456.427
670.805	270.358
674.713	129.5
678.62	33.404
682.524	54.171
686.427	114.085
690.328	56.919
694.227	3.192
698.124	0.91
702.02	215.852
705.913	344.617
709.805	612.196
713.695	859.884
717.584	1350.63
721.47	1733.75
725.355	2550.2
729.238	4032.24
733.119	6251.22
736.998	9378.24
740.876	12249.8
744.752	12122.8
748.626	8479.38
752.498	5422.37
756.368	3504.74
760.237	2383.57
764.104	1696.07
767.969	1168.22
771.832	985.722
775.693	805.028
779.553	643.903
783.411	610.519
787.267	474.869
791.122	396.954
794.974	348.775
798.825	285.332
802.674	288.626
806.522	230.659
810.367	217.43
814.211	150.947
818.053	214.302
821.893	161.693
825.732	137.89
829.568	91.262
833.403	56.104
837.236	6.214
841.068	1.163
844.898	34.416
848.726	32.975
852.552	36.686
856.376	53.802
860.199	82.757
864.02	103.508
867.839	40.072
871.656	12.563
875.472	18.502
879.286	78.812
883.098	40.651
886.909	18.015
890.717	78.872
894.524	44.249
898.33	32.026
902.133	79.194
905.935	12.846
909.735	7.874
913.533	2.735
917.33	21.87
921.124	13.318
924.918	1.374
928.709	64.315
932.499	137.156
936.286	92.903
940.073	125.564
943.857	105.145
947.64	174.653
951.421	199.095
955.2	215.477
958.978	662.806
962.753	315.09
966.527	325.029
970.3	406.969
974.071	485.504
977.84	648.044
981.607	792.116
985.372	983.388
989.136	1149.27
992.898	1537.42
996.659	2056.1
1000.42	2899.56
1004.17	3732.32
1007.93	4567.77
1011.68	5709.37
1015.43	8781.19
1019.18	11641.8
1022.93	8775.45
1026.68	5855.75
1030.42	4752.71
1034.17	4486.22
1037.91	4853.79
1041.65	5875.04
1045.39	8099.75
1049.12	12894.4
1052.86	23050.8
1056.59	43828.8
1060.33	57966.4
1064.06	38099.7
1067.78	18028.7
1071.51	9664.22
1075.23	6549.08
1078.96	5311.27
1082.68	5095.67
1086.4	5622.29
1090.12	6948.1
1093.83	7225.11
1097.55	6614.3
1101.26	6825.69
1104.97	5682.27
1108.68	4023.05
1112.39	3269.02
1116.1	3171.2
1119.8	3482.56
1123.5	4399.53
1127.2	5751.52
1130.9	9322.37
1134.6	16660.8
1138.3	20330.5
1141.99	13615
1145.69	8032.75
1149.38	5035.15
1153.07	3627.72
1156.76	2896.33
1160.44	2449.19
1164.13	2107.33
1167.81	1956
1171.49	1674.51
1175.17	1582.09
1178.85	1573.53
1182.52	1512.61
1186.2	1227.19
1189.87	991.33
1193.54	878.374
1197.21	665.389
1200.88	622.89
1204.55	594.542
1208.21	716.643
1211.88	888.092
1215.54	864.966
1219.2	807.406
1222.86	749.978
1226.51	598.409
1230.17	385.584
1233.82	268.59
1237.47	217.533
1241.12	127.149
1244.77	145.796
1248.42	120.662
1252.06	95.572
1255.71	101.74
1259.35	45.436
1262.99	18.109
1266.63	72.229
1270.26	21.659
1273.9	32.149
1277.53	38.882
1281.16	7.31
1284.8	10.731
1288.42	9.748
1292.05	5.936
1295.68	54.381
1299.3	23.044
1302.92	23.238
1306.55	39.386
1310.16	12.99
1313.78	15.692
1317.4	17.604
1321.01	4.455
1324.62	4.086
1328.24	42.476
1331.85	27.237
1335.45	1.825
1339.06	75.671
1342.66	26.337
1346.27	67.798
1349.87	74.073
1353.47	106.167
1357.07	104.079
1360.66	65.557
1364.26	52.11
1367.85	64.5
1371.44	26.699
1375.04	0.397
1378.62	94.249
1382.21	67.775
1385.8	122.193
1389.38	119.488
1392.96	103.641
1396.54	128.689
1400.12	125.644
1403.7	103.806
1407.28	88.054
1410.85	49.295
1414.42	128.493
1417.99	137.971
1421.56	149.881
1425.13	127.814
1428.7	125.205
1432.26	123.41
1435.83	16.21
1439.39	21.081
1442.95	1.814
1446.51	29.811
1450.06	74.435
1453.62	59.53
1457.17	51.271
1460.73	136.118
1464.28	150.806
1467.83	115.958
1471.37	78.205
1474.92	113.26
1478.46	78.326
1482.01	24.912
1485.55	86.535
1489.09	92.203
1492.63	113.583
1496.16	143.945
1499.7	126.887
1503.23	47.875
1506.76	96.823
1510.29	98.654
1513.82	61.835
1517.35	26.19
1520.88	0
