Measurement: Raman, 514 nm, ccw, Raman Data Processed
Mineral: Lazulite
Rruff sample: R060494
Ideal chemistry: MgAl_2_(PO_4_)_2_(OH)_2_
Locality: Champion mine, White Mountains, Mono County, California, USA
Source: Michael Scott
Description: Dark-blue coarsely crystalline mass
Measured chemistry: (Mg_0.67_Fe^2+^_0.33_)_Î£=1_Al_2.00_(P_1.00_O_4_)_2_(OH)_2_
Pin_id: M01551
Orientation: Laser parallel to (1 0 1). Fiducial mark perpendicular to laser is parallel to b [0 1 0]
Raman shift (cm-1)	intensity
144.391	0
149.314	95.6003
154.234	12.7703
159.151	41.0188
164.066	284.928
168.978	555.351
173.887	1017.51
178.794	1563.3
183.698	4656.11
188.599	8729.15
193.498	12771.9
198.394	4895.67
203.287	1556.63
208.178	600.963
213.066	419.435
217.952	580.807
222.835	820.518
227.715	671.41
232.593	204.498
237.468	129.756
242.34	590.222
247.21	1675.88
252.077	3031.76
256.941	2928.26
261.803	951.308
266.662	510.471
271.518	1087.35
276.372	2143.94
281.223	3220.24
286.072	2425.27
290.918	798.609
295.761	116.375
300.602	80.4883
305.44	154.713
310.275	60.1299
315.108	515.409
319.938	1170.92
324.765	1418.52
329.59	1223.07
334.412	1889.45
339.232	3281.56
344.049	4852.37
348.863	4718.85
353.675	2389.94
358.484	1428.78
363.29	1379.67
368.094	2316.21
372.895	3907.82
377.693	5523.39
382.489	4345.24
387.282	2439.24
392.073	2045.68
396.861	1727.54
401.646	1878.82
406.429	5770.59
411.209	11182.1
415.987	12467.2
420.761	3209.89
425.534	2132.99
430.303	1665.37
435.07	696.01
439.834	244.073
444.596	218.996
449.355	281.775
454.112	674.882
458.865	1077.46
463.617	1390.34
468.365	1481.48
473.111	2201.89
477.854	2869.52
482.595	1958.38
487.333	651.432
492.069	259.677
496.802	196.097
501.532	23.3901
506.259	120.323
510.984	42.1665
515.707	31.4673
520.426	9.99268
525.144	198.461
529.858	343.267
534.57	361.706
539.279	443.259
543.986	363.249
548.69	196.649
553.391	249.763
558.09	202.192
562.786	203.3
567.48	376.817
572.171	331.443
576.859	540.217
581.545	534.915
586.228	584.542
590.909	679.918
595.587	1013.01
600.262	1564.67
604.935	2772.19
609.605	4450.6
614.272	6006.92
618.937	6920.09
623.599	7791.18
628.259	7100.25
632.916	6484.21
637.57	6117.06
642.222	5797.95
646.871	5024.1
651.518	3339.8
656.162	1654.64
660.803	955.592
665.442	485.278
670.078	320.975
674.712	230.178
679.343	123.356
683.971	17.5796
688.597	74.332
693.22	0.764648
697.841	50.9653
702.459	99.5073
707.074	173.556
711.687	202.316
716.297	333.822
720.905	579.078
725.51	836.079
730.112	1407.82
734.712	2216.3
739.309	3049.52
743.904	3344.51
748.496	2525.91
753.085	1730.35
757.672	1056.25
762.256	687.714
766.838	415.139
771.417	348.432
775.993	234.702
780.567	262.404
785.139	241.759
789.707	243.419
794.273	245.087
798.837	200.147
803.398	241.311
807.956	199.499
812.512	190.196
817.065	191.917
821.615	199.013
826.163	183.663
830.709	166.587
835.252	187.996
839.792	205.514
844.329	303.726
848.864	356.39
853.397	393.611
857.927	341.61
862.454	428.394
866.979	326.97
871.501	168.346
876.02	151.532
880.537	91.5337
885.052	25.2427
889.564	114.699
894.073	64.0396
898.579	34.1953
903.083	15.2124
907.585	11.3662
912.084	101.879
916.58	63.2036
921.074	68.0083
925.565	45.4795
930.054	76.6904
934.54	14.1987
939.023	71.8272
943.504	17.0332
947.982	2.58203
952.458	15.4658
956.931	29.4644
961.402	33.2002
965.87	143.607
970.335	108.693
974.798	147.01
979.259	343.447
983.716	414.961
988.171	747.562
992.624	1042.28
997.074	1485.12
1001.52	2086.2
1005.97	2311.47
1010.41	3018.91
1014.85	4708.44
1019.29	5325.03
1023.72	3529.3
1028.15	2510.39
1032.58	2205.14
1037.01	2627.82
1041.43	3877.66
1045.86	6809.66
1050.28	13951.3
1054.69	25057
1059.11	29311.1
1063.52	17431.4
1067.93	7595.39
1072.33	4155.27
1076.74	3037.12
1081.14	3137.37
1085.54	4061.57
1089.93	5749.08
1094.33	7580.35
1098.72	9178.89
1103.11	8155.78
1107.49	4729.17
1111.88	2714.93
1116.26	1973.85
1120.63	1927.94
1125.01	2272.52
1129.38	3813.88
1133.76	6355.13
1138.12	6772.27
1142.49	3836.21
1146.85	2106.16
1151.21	1303.38
1155.57	871.684
1159.93	762.649
1164.28	590.954
1168.63	468.931
1172.98	474.165
1177.32	486.724
1181.66	431.393
1186.01	293.736
1190.34	215.419
1194.68	161.523
1199.01	7.87646
1203.34	190.643
1207.67	178.45
1211.99	170.34
1216.32	312.635
1220.63	201.68
1224.95	200.39
1229.27	116.99
1233.58	8.1543
1237.89	35.2022
1242.2	39.627
1246.5	1.99023
1250.8	30.1362
1255.1	18.6738
1259.4	82.2856
1263.69	31.0894
1267.99	61.9712
1272.28	69.8687
1276.56	51.2148
1280.85	10.1055
1285.13	23.9351
1289.41	64.5654
1293.68	50.6392
1297.96	55.8462
1302.23	37.6606
1306.5	60.228
1310.77	71.8081
1315.03	161.337
1319.29	76.7925
1323.55	108.205
1327.81	46.5308
1332.06	51.6831
1336.31	205.727
1340.56	89.6641
1344.81	65.5107
1349.05	147.267
1353.29	109.936
1357.53	54.5249
1361.77	83.7246
1366	43.2183
1370.23	139.723
1374.46	164.733
1378.69	133.426
1382.91	97.6802
1387.13	45.3579
1391.35	44.5845
1395.57	112.496
1399.78	77.8359
1403.99	34.9849
1408.2	86.0762
1412.41	109.826
1416.61	70.9356
1420.82	26.8125
1425.01	4.86182
1429.21	129.694
1433.4	181.609
1437.59	215.426
1441.78	194.157
1445.97	205.151
1450.15	333.937
1454.33	288.977
1458.51	229.756
1462.69	246.623
1466.86	273.125
1471.03	110.025
1475.2	169.65
1479.37	92.3628
1483.53	196.75
1487.69	191.636
1491.85	39.0859
1496.01	134.8
1500.16	22.8433
1504.31	17.2231
1508.46	134.307
1512.61	64.4331
1516.75	48.3218
1520.89	85.1841
1525.03	98.1138
1529.16	87.8745
1533.3	72.8223
1537.43	94.6963
1541.56	51.3643
