Measurement: Raman, 514 nm, ccw, Raman Data Processed
Mineral: Lazulite
Rruff sample: R060494
Ideal chemistry: MgAl_2_(PO_4_)_2_(OH)_2_
Locality: Champion mine, White Mountains, Mono County, California, USA
Source: Michael Scott
Description: Dark-blue coarsely crystalline mass
Measured chemistry: (Mg_0.67_Fe^2+^_0.33_)_Î£=1_Al_2.00_(P_1.00_O_4_)_2_(OH)_2_
Pin_id: M01648
Orientation: Laser parallel to b* (0 1 0). Fiducial mark perpendicular to laser is parallel to c [0 0 1]
Raman shift (cm-1)	intensity
148.083	0
153.004	24.1956
157.922	4.17334
162.837	105.696
167.75	199.188
172.66	568.517
177.567	303.35
182.472	395.702
187.374	777.739
192.273	1651.54
197.17	682.548
202.064	609.79
206.956	245.521
211.845	334.899
216.731	566.023
221.614	1145.26
226.495	1116.06
231.373	323.442
236.249	206.963
241.122	204.728
245.992	289.856
250.86	718.891
255.725	921.251
260.588	242.776
265.447	189.403
270.304	215.097
275.159	265.86
280.011	437.699
284.86	315.631
289.707	27.6675
294.55	19.9795
299.392	9.33105
304.23	22.647
309.066	35.3003
313.9	21.3835
318.731	186.214
323.559	288.159
328.384	186.188
333.207	131.277
338.027	111.364
342.845	219.433
347.66	165.5
352.472	104.576
357.282	126.941
362.089	131.294
366.893	91.3833
371.695	57.6352
376.494	159.145
381.291	91.6182
386.084	64.9077
390.876	35.7605
395.664	91.4231
400.45	86.1487
405.234	270.944
410.014	959.046
414.792	1485.1
419.568	169.533
424.341	155.948
429.111	230.456
433.879	84.9954
438.644	2.39844
443.406	75.0984
448.166	54.0566
452.923	61.9028
457.677	67.1977
462.429	251.879
467.178	277.597
471.925	680.349
476.669	1231.13
481.41	940.953
486.149	334.804
490.885	105.687
495.619	61.6016
500.349	4.54028
505.078	37.8694
509.803	19.4761
514.526	72.4758
519.247	90.5073
523.965	65.5762
528.68	36.6897
533.392	57.8625
538.102	25.0727
542.81	0.038086
547.514	8.39355
552.216	51.2783
556.916	30.8105
561.613	36.968
566.307	5.91113
570.998	54.5188
575.687	88.9099
580.374	87.3154
585.058	109.771
589.739	1.69458
594.417	19.377
599.093	161.13
603.767	200.888
608.437	340.648
613.106	341.43
617.771	279.251
622.434	325.047
627.094	343.816
631.752	353.555
636.407	414.266
641.06	561.667
645.709	624.062
650.357	689.658
655.001	409.872
659.643	269.382
664.283	186.846
668.92	102.031
673.554	52.7256
678.186	122.793
682.815	21.5723
687.441	26.252
692.065	11.7588
696.686	28.241
701.305	20.2683
705.921	54.1199
710.534	58.3491
715.145	95.321
719.753	98.6038
724.359	173.426
728.962	151.285
733.562	303.814
738.16	401.721
742.755	554.917
747.348	492.456
751.938	294.868
756.526	208.456
761.111	106.663
765.693	179.005
770.272	217.234
774.85	110.152
779.424	96.0215
783.996	88.6916
788.565	111.329
793.132	75.8872
797.696	84.3481
802.258	64.3838
806.817	30.5498
811.373	35.4504
815.927	30.3648
820.478	130.741
825.027	31.9741
829.573	78.4006
834.116	123.086
838.657	52.9587
843.195	144.592
847.731	24.1008
852.264	98.6856
856.794	92.1594
861.322	92.5181
865.848	83.749
870.371	104.883
874.891	46.9158
879.408	76.8193
883.923	42.3999
888.436	13.1475
892.946	83.6621
897.453	33.8171
901.958	51.0132
906.46	29.1211
910.959	45.1387
915.456	94.0745
919.951	36.9329
924.443	13.7173
928.932	77.4172
933.418	84.0552
937.903	12.4387
942.384	12.9775
946.863	18.043
951.339	27.6006
955.813	64.7402
960.284	32.3325
964.753	47.9482
969.219	46.7031
973.683	8.74121
978.144	38.895
982.602	42.6641
987.058	133.959
991.511	149.733
995.962	270.918
1000.41	351.875
1004.86	435.856
1009.3	308.755
1013.74	264.326
1018.18	323.021
1022.61	293.363
1027.05	231.439
1031.47	272.554
1035.9	248.55
1040.33	357.473
1044.75	739.73
1049.17	1306.92
1053.59	2475.23
1058	3111.44
1062.41	2209.83
1066.82	928.158
1071.23	551.825
1075.64	335.35
1080.04	330.002
1084.44	381.832
1088.83	369.894
1093.23	418.996
1097.62	516.19
1102.01	586.34
1106.4	350.089
1110.78	350.339
1115.16	261.269
1119.54	232.55
1123.92	192.385
1128.29	339.651
1132.66	643.251
1137.03	703.487
1141.4	567.468
1145.76	436.555
1150.12	311.732
1154.48	302.054
1158.84	317.488
1163.19	289.062
1167.54	337.941
1171.89	296.606
1176.24	415.372
1180.58	401.034
1184.92	278.945
1189.26	173.7
1193.59	142.12
1197.93	62.2295
1202.26	99.0532
1206.59	124.36
1210.91	64.52
1215.23	114.059
1219.56	80.7207
1223.87	103.494
1228.19	20.3389
1232.5	9.31104
1236.81	55.7476
1241.12	15.1172
1245.42	43.1045
1249.73	14.9995
1254.03	9.20801
1258.33	55.5059
1262.62	8.80176
1266.91	11.7217
1271.2	42.0855
1275.49	36.8242
1279.78	41.5894
1284.06	59.6372
1288.34	129.51
1292.62	2.68994
1296.89	79.3706
1301.16	106.041
1305.43	8.74072
1309.7	87.3906
1313.96	12.8086
1318.23	154.947
1322.49	96.7085
1326.74	2.55225
1331	145.15
1335.25	13.146
1339.5	12.5298
1343.75	115.129
1347.99	88.666
1352.23	93.3672
1356.47	59.8355
1360.71	120.231
1364.94	183.596
1369.18	103.853
1373.41	134.581
1377.63	115.856
1381.86	238.06
1386.08	89.0063
1390.3	24.9385
1394.52	31.0483
1398.73	70.0674
1402.94	98.7676
1407.15	33.9048
1411.36	32.4834
1415.56	100.694
1419.76	65.5332
1423.96	150.25
1428.16	0.980957
1432.36	2.22168
1436.55	140.211
1440.74	89.1699
1444.92	131.378
1449.11	97.5498
1453.29	203.732
1457.47	30.7183
1461.64	139.944
1465.82	71.4688
1469.99	119.268
1474.16	103.403
1478.33	157.842
1482.49	133.191
1486.65	61.8457
1490.81	74.3672
1494.97	101.597
1499.12	5.19824
1503.27	87.8023
1507.42	95.1201
1511.57	67.8276
1515.71	75.8809
1519.86	76.4634
1523.99	58.459
1528.13	118.333
1532.27	0.097168
1536.4	71.1699
1540.53	0
