Measurement: Raman, 514 nm, ccw, Raman Data Processed
Mineral: Lazulite
Rruff sample: R060494
Ideal chemistry: MgAl_2_(PO_4_)_2_(OH)_2_
Locality: Champion mine, White Mountains, Mono County, California, USA
Source: Michael Scott
Description: Dark-blue coarsely crystalline mass
Measured chemistry: (Mg_0.67_Fe^2+^_0.33_)_Î£=1_Al_2.00_(P_1.00_O_4_)_2_(OH)_2_
Pin_id: M01007
Orientation: Laser parallel to c* (0 0 1). Fiducial mark perpendicular to laser is parallel to -a [-1 0 0]
Raman shift (cm-1)	intensity
139.466	0
144.391	143.243
149.314	462.911
154.234	189.395
159.151	114.111
164.066	1271.22
168.978	2582.54
173.887	4815.75
178.794	4098.55
183.698	11192.6
188.599	15482.6
193.498	19116.4
198.394	5964.2
203.287	3811.93
208.178	3515.76
213.066	6009.15
217.952	10092.5
222.835	12784.8
227.715	7874.76
232.593	3039.17
237.468	2211.13
242.34	3818.83
247.21	7972.68
252.077	11004.3
256.941	8954.61
261.803	3466.88
266.662	2684.2
271.518	2312.71
276.372	2975.56
281.223	2978.02
286.072	1337.8
290.918	78.9951
295.761	470.517
300.602	601
305.44	298.644
310.275	496.519
315.108	1619.43
319.938	2821.19
324.765	3658.7
329.59	4289.84
334.412	6315.14
339.232	9176.13
344.049	12116.2
348.863	11199.6
353.675	6983.73
358.484	4898.62
363.29	4221.28
368.094	4154.28
372.895	4769.91
377.693	5254.54
382.489	4236.09
387.282	2644.94
392.073	2186.67
396.861	2057.41
401.646	2834.19
406.429	8483.76
411.209	11277.8
415.987	7735.59
420.761	1242.26
425.534	866.096
430.303	807.042
435.07	435.943
439.834	136.185
444.596	13.0469
449.355	103.752
454.112	341.19
458.865	1357.93
463.617	3516.04
468.365	7192.06
473.111	12573
477.854	14679
482.595	8339.01
487.333	2764.14
492.069	1221.42
496.802	739.866
501.532	896.521
506.259	1273.43
510.984	1926.77
515.707	2242.69
520.426	2312.22
525.144	2193.37
529.858	1810.12
534.57	1523.25
539.279	907.202
543.986	608.731
548.69	401.714
553.391	585.606
558.09	756.895
562.786	1163.29
567.48	1935.72
572.171	3355.09
576.859	5220.61
581.545	4836.1
586.228	2123.31
590.909	1399.81
595.587	3067.85
600.262	7340.43
604.935	11026.4
609.605	8096.15
614.272	5269.59
618.937	4284.56
623.599	4010.29
628.259	4211.57
632.916	4976.33
637.57	6229.66
642.222	7999.18
646.871	9778.81
651.518	6619.44
656.162	3924.54
660.803	2494.86
665.442	1844.38
670.078	1268.04
674.712	602.953
679.343	262.225
683.971	236.616
688.597	325.419
693.22	362.396
697.841	117.918
702.459	446.029
707.074	1083.2
711.687	1564.14
716.297	1794.82
720.905	2083.7
725.51	2712.34
730.112	3930.22
734.712	6016.37
739.309	8190.59
743.904	8614.53
748.496	6085.41
753.085	3859.92
757.672	2368.03
762.256	1616.16
766.838	1286.83
771.417	1072.93
775.993	1058.35
780.567	1125.74
785.139	1146.88
789.707	1037.43
794.273	919.151
798.837	968.523
803.398	862.75
807.956	847.066
812.512	752.92
817.065	618.154
821.615	665.571
826.163	502.767
830.709	397.148
835.252	216.629
839.792	194.449
844.329	318.718
848.864	265.08
853.397	237.897
857.927	362.765
862.454	192.518
866.979	152.138
871.501	158.594
876.02	115.872
880.537	55.168
885.052	48.0903
889.564	105.183
894.073	128.964
898.579	22.0942
903.083	74.6099
907.585	3.37647
912.084	69.1768
916.58	55.6538
921.074	2.60205
925.565	65.2388
930.054	7.72803
934.54	48.2993
939.023	10.6699
943.504	38.3442
947.982	113.587
952.458	36.271
956.931	42.5742
961.402	16.5557
965.87	25.7559
970.335	77.6748
974.798	107.191
979.259	310.467
983.716	557.616
988.171	850.523
992.624	1410.23
997.074	2105.54
1001.52	2757.69
1005.97	3386.33
1010.41	3811.05
1014.85	4310.17
1019.29	4595.28
1023.72	4957.65
1028.15	4662.43
1032.58	5108.42
1037.01	5876.46
1041.43	8365.83
1045.86	15368.8
1050.28	29333.9
1054.69	44957.6
1059.11	42174.3
1063.52	23845.6
1067.93	12280.6
1072.33	8115.2
1076.74	6431.47
1081.14	5834
1085.54	5892.49
1089.93	7437.31
1094.33	11576.7
1098.72	15568.2
1103.11	12307.4
1107.49	8045.33
1111.88	6450.91
1116.26	6152.13
1120.63	6512.78
1125.01	6938.96
1129.38	8749.98
1133.76	11650.1
1138.12	12783.9
1142.49	10628
1146.85	8536.44
1151.21	7480.08
1155.57	6921.98
1159.93	6514.05
1164.28	6320.73
1168.63	6293.21
1172.98	6741
1177.32	7065.18
1181.66	6570.63
1186.01	5153.93
1190.34	4162.94
1194.68	3350.34
1199.01	3212.09
1203.34	3613.54
1207.67	4081.37
1211.99	4224.22
1216.32	4061.89
1220.63	3675.73
1224.95	2792.49
1229.27	1943.64
1233.58	1118.21
1237.89	677.282
1242.2	270.539
1246.5	147.9
1250.8	195.61
1255.1	169.895
1259.4	28.6924
1263.69	68.2998
1267.99	46.1846
1272.28	14.1523
1276.56	136.129
1280.85	26.1133
1285.13	93.7461
1289.41	160.259
1293.68	76.8135
1297.96	8.86621
1302.23	27.0361
1306.5	70.6299
1310.77	91.918
1315.03	43.8193
1319.29	146.27
1323.55	157.162
1327.81	84.5352
1332.06	58.4199
1336.31	56.2471
1340.56	60.499
1344.81	4.34082
1349.05	187.109
1353.29	151.004
1357.53	142.369
1361.77	178.196
1366	267.498
1370.23	224.3
1374.46	257.603
1378.69	393.401
1382.91	200.606
1387.13	360.669
1391.35	231.906
1395.57	286.948
1399.78	285.974
1403.99	418.822
1408.2	327.974
1412.41	399.724
1416.61	250.912
1420.82	373.597
1425.01	167.428
1429.21	408.055
1433.4	221.953
1437.59	237.731
1441.78	291.763
1445.97	290.856
1450.15	562.414
1454.33	365.354
1458.51	402.247
1462.69	365.581
1466.86	347.698
1471.03	453.861
1475.2	195.878
1479.37	285.887
1483.53	204.707
1487.69	314.103
1491.85	233.914
1496.01	288.008
1500.16	193.471
1504.31	97.6465
1508.46	113.226
1512.61	74.665
1516.75	90.1152
1520.89	101.366
1525.03	25.5781
1529.16	140.155
1533.3	142.429
1537.43	165.93
1541.56	99.5078
1545.68	63.4824
