Measurement: Raman, 514 nm, ccw, Raman Data Processed
Mineral: Lazulite
Rruff sample: R060494
Ideal chemistry: MgAl_2_(PO_4_)_2_(OH)_2_
Locality: Champion mine, White Mountains, Mono County, California, USA
Source: Michael Scott
Description: Dark-blue coarsely crystalline mass
Measured chemistry: (Mg_0.67_Fe^2+^_0.33_)_Î£=1_Al_2.00_(P_1.00_O_4_)_2_(OH)_2_
Pin_id: M01648
Orientation: Laser parallel to b* (0 1 0). Fiducial mark perpendicular to laser is parallel to c [0 0 1]
Raman shift (cm-1)	intensity
164.066	0
168.978	61.5395
173.887	448.84
178.794	113.691
183.698	755.56
188.599	1442.42
193.498	1967.77
198.394	871.977
203.287	655.958
208.178	452.551
213.066	620.657
217.952	977.769
222.835	1496.6
227.715	808.127
232.593	237.318
237.468	149.698
242.34	311.983
247.21	545.144
252.077	1272.21
256.941	1070.02
261.803	424.419
266.662	277.252
271.518	310.418
276.372	484.699
281.223	634.96
286.072	221.254
290.918	125.87
295.761	10.4099
300.602	132.645
305.44	114.503
310.275	21.0801
315.108	144.333
319.938	316.746
324.765	354.893
329.59	196.346
334.412	265.835
339.232	286.234
344.049	421.616
348.863	345.356
353.675	263.529
358.484	261.866
363.29	297.693
368.094	302.302
372.895	425.735
377.693	312.321
382.489	238.864
387.282	161.816
392.073	118.864
396.861	320.992
401.646	391.272
406.429	1053.03
411.209	2373.09
415.987	1545.9
420.761	371.982
425.534	294.424
430.303	299.342
435.07	224.514
439.834	222.43
444.596	252.672
449.355	218.068
454.112	516.885
458.865	1183.13
463.617	1447.48
468.365	1139.81
473.111	1370.1
477.854	1799.36
482.595	1080.58
487.333	348.759
492.069	172.913
496.802	84.0435
501.532	18.1582
506.259	73.2583
510.984	107.349
515.707	158.434
520.426	121.526
525.144	140.645
529.858	86.8164
534.57	71.0606
539.279	39.6768
543.986	42.3369
548.69	68.582
553.391	48.4243
558.09	45.1304
562.786	90.2329
567.48	17.687
572.171	114.798
576.859	111.916
581.545	150.182
586.228	81.8071
590.909	90.3569
595.587	166.524
600.262	346.271
604.935	545.185
609.605	664.756
614.272	621.487
618.937	628.205
623.599	630.945
628.259	785.697
632.916	815.465
637.57	880.372
642.222	1034.09
646.871	1131.82
651.518	824.539
656.162	557.688
660.803	387.278
665.442	229.96
670.078	105.266
674.712	31.5571
679.343	101.488
683.971	23.2651
688.597	78.2602
693.22	48.6924
697.841	8.68848
702.459	74.9878
707.074	63.2256
711.687	84.6763
716.297	130.875
720.905	67.1445
725.51	183.058
730.112	245.024
734.712	436.894
739.309	654.692
743.904	717.87
748.496	436.785
753.085	422.308
757.672	186.627
762.256	215.827
766.838	184.94
771.417	141.342
775.993	168.14
780.567	160.095
785.139	170.988
789.707	159.209
794.273	139.674
798.837	106.222
803.398	198.269
807.956	97.1597
812.512	141.211
817.065	57.4282
821.615	73.4912
826.163	124.151
830.709	119.713
835.252	137.087
839.792	111.192
844.329	56.0034
848.864	115.889
853.397	192.43
857.927	132.835
862.454	177.107
866.979	85.4634
871.501	174.262
876.02	150.147
880.537	32.8921
885.052	39.4995
889.564	139.031
894.073	32.6587
898.579	0.484863
903.083	140.459
907.585	42.2671
912.084	154.821
916.58	84.355
921.074	14.771
925.565	156.038
930.054	21.7363
934.54	2.24853
939.023	32.3852
943.504	70.1069
947.982	5.71387
952.458	7.01758
956.931	93.9966
961.402	34.478
965.87	51.8662
970.335	49.9517
974.798	45.9839
979.259	36.1421
983.716	161.515
988.171	160.311
992.624	346.112
997.074	583.993
1001.52	662.864
1005.97	648.751
1010.41	620.604
1014.85	607.833
1019.29	533.365
1023.72	589.304
1028.15	489.265
1032.58	487.332
1037.01	535.389
1041.43	874.63
1045.86	1503.71
1050.28	3205.5
1054.69	5231.08
1059.11	5244.57
1063.52	2797.47
1067.93	1308.66
1072.33	844.043
1076.74	707.923
1081.14	668.144
1085.54	679.449
1089.93	753.972
1094.33	975.552
1098.72	1395.11
1103.11	1139.87
1107.49	641.539
1111.88	474.748
1116.26	456.097
1120.63	534.565
1125.01	572.398
1129.38	857.648
1133.76	1141.54
1138.12	1190.15
1142.49	893.142
1146.85	561.188
1151.21	490.319
1155.57	562.188
1159.93	411.568
1164.28	532.097
1168.63	433.069
1172.98	566.929
1177.32	573.938
1181.66	608.066
1186.01	425.308
1190.34	239.695
1194.68	175.208
1199.01	161.838
1203.34	179.161
1207.67	283.41
1211.99	66.6787
1216.32	153.093
1220.63	74.6133
1224.95	10.29
1229.27	151.172
1233.58	128.136
1237.89	21.2891
1242.2	25.4653
1246.5	50.9893
1250.8	8.69287
1255.1	72.5664
1259.4	0.740234
1263.69	117.971
1267.99	83.8906
1272.28	83.0801
1276.56	114.446
1280.85	143.862
1285.13	30.2515
1289.41	119.7
1293.68	91.2168
1297.96	152.235
1302.23	122.387
1306.5	48.1196
1310.77	143.895
1315.03	259.681
1319.29	179.524
1323.55	174.424
1327.81	113.339
1332.06	46.2798
1336.31	225.223
1340.56	159.212
1344.81	30.1904
1349.05	110.166
1353.29	157.188
1357.53	25.209
1361.77	20.4058
1366	159.52
1370.23	90.3804
1374.46	100.231
1378.69	94.7978
1382.91	22.7549
1387.13	37.2236
1391.35	102.137
1395.57	178.36
1399.78	115.356
1403.99	126.492
1408.2	162.269
1412.41	39.8027
1416.61	50.3481
1420.82	136.665
1425.01	42.1919
1429.21	274.74
1433.4	119.308
1437.59	162.534
1441.78	186.982
1445.97	216.427
1450.15	381.875
1454.33	212.328
1458.51	278.302
1462.69	287.029
1466.86	219.082
1471.03	174.779
1475.2	144.763
1479.37	148.935
1483.53	59.1509
1487.69	106.48
1491.85	102.018
1496.01	64.5586
1500.16	100.722
1504.31	58.061
1508.46	28.3516
1512.61	41.2378
1516.75	73.2124
1520.89	78.8872
1525.03	112.971
1529.16	143.094
1533.3	45.293
1537.43	31.1494
