Measurement: Raman, 514 nm, ccw, Raman Data Processed
Mineral: Lazulite
Rruff sample: R050110
Ideal chemistry: MgAl_2_(PO_4_)_2_(OH)_2_
Locality: Rapid Creek, Yukon Territory, Canada
Source: Rock Currier
Description: Azure-blue stubby crystals with complex terminations
Measured chemistry: (Mg_0.84_Fe_0.16_)Al_2.00_(P_1.00_O_4_)_2_(OH)_2_
Pin_id: L00471
Orientation: Laser parallel to -b* (0 -1 0). Fiducial mark perpendicular to laser is parallel to -c [0 0 -1]
Raman shift (cm-1)	intensity
81.521	0
85.706	9.264
89.89	193.379
94.071	817.554
98.251	3444.38
102.428	4569.7
106.604	1608.76
110.777	1112.09
114.949	998.095
119.119	611.793
123.286	481.617
127.452	468.957
131.615	540.717
135.777	338.456
139.937	339.752
144.094	94.502
148.25	60.122
152.403	42.633
156.555	80.259
160.705	63.829
164.853	28.023
168.998	75.231
173.142	84.428
177.284	192.363
181.424	562.78
185.562	3434.45
189.698	11929.1
193.831	9653.84
197.963	1982.16
202.093	485.386
206.221	46.302
210.347	57.726
214.472	102.302
218.594	72.836
222.714	688.068
226.832	1110.85
230.948	313.927
235.063	31.153
239.175	94.338
243.286	108.102
247.394	846.109
251.501	3538.09
255.605	5948.39
259.708	1855.03
263.808	794.84
267.907	779.695
272.004	1366.47
276.099	3388.28
280.192	7538.05
284.283	8441.55
288.372	4132.75
292.459	1627.48
296.544	728.432
300.627	344.032
304.709	204.338
308.788	110.468
312.865	114.25
316.941	600.622
321.015	1746.35
325.086	1305.58
329.156	418.73
333.224	50.333
337.29	24.161
341.354	20.754
345.416	168.644
349.476	120.148
353.534	165.308
357.591	275.116
361.645	494.207
365.698	974.946
369.748	2012.26
373.797	4483.59
377.844	7752.87
381.889	6154.44
385.932	2950.66
389.973	1491.5
394.012	1028.29
398.049	1006.45
402.084	1600.45
406.118	4574.86
410.15	20397.8
414.179	46496
418.207	14991.9
422.233	6378.69
426.257	7827.29
430.279	5643.75
434.299	2191.08
438.318	1097.32
442.334	774.453
446.349	561.535
450.361	639.554
454.372	597.49
458.381	731.386
462.388	684.231
466.394	785.247
470.397	1422.58
474.398	3551.67
478.398	6035.84
482.396	4418.51
486.391	1884.18
490.385	766.895
494.377	328.255
498.368	211.158
502.356	104.44
506.342	29.167
510.327	10.701
514.31	17.142
518.291	65.95
522.27	31.424
526.247	40.686
530.222	120.894
534.196	397.397
538.167	580.391
542.137	533.286
546.105	290.828
550.071	167.89
554.035	130.242
557.998	80.768
561.958	96.722
565.917	78.414
569.874	43.188
573.829	121.263
577.782	139.355
581.733	132.905
585.683	168.411
589.63	252.562
593.576	359.246
597.52	533.521
601.462	968.491
605.402	1923.78
609.341	4015.26
613.277	5941.63
617.212	4436.07
621.145	3049.73
625.076	3308.51
629.006	5094.21
632.933	7578.76
636.859	8530.22
640.783	9371.56
644.705	11410.8
648.625	11422.9
652.543	7140.81
656.46	3756.67
660.375	1976.42
664.288	1203.73
668.199	751.667
672.108	528.432
676.016	314.957
679.921	194.76
683.825	200.544
687.727	173.432
691.628	90.216
695.526	49.844
699.423	28.3
703.318	24.56
707.211	6.613
711.102	33.416
714.992	5.767
718.879	71.034
722.765	31.466
726.649	8.222
730.532	33.89
734.412	6.36
738.291	14.175
742.168	2.035
746.043	66.894
749.916	56.901
753.788	7.348
757.658	32.795
761.526	49.67
765.392	97.686
769.257	71.692
773.119	79.795
776.98	64.197
780.839	69.085
784.697	98.544
788.552	173.397
792.406	204.759
796.258	155.431
800.108	113.499
803.957	103.434
807.804	172.238
811.649	172.916
815.492	151.469
819.333	79.905
823.173	142.23
827.011	160.461
830.847	206.651
834.681	244.782
838.514	240.847
842.345	272.815
846.174	354.317
850.001	446.444
853.827	541.827
857.651	583.4
861.473	577.118
865.293	463.665
869.112	486.296
872.928	348.672
876.744	208.639
880.557	212.412
884.369	72.139
888.178	35.243
891.987	23.631
895.793	52.126
899.598	3.092
903.401	74.871
907.202	28.254
911.001	53.558
914.799	0.838
918.595	42.959
922.389	30.513
926.182	15.978
929.972	78.842
933.761	53.841
937.549	2.25
941.334	128.432
945.118	119.692
948.9	70.061
952.681	58.535
956.459	89.121
960.236	60.829
964.012	225.662
967.785	264.623
971.557	277.743
975.327	290.025
979.095	364.451
982.862	475.024
986.627	667.747
990.39	951.626
994.152	1421.69
997.912	1960.97
1001.67	2662.44
1005.43	2680.11
1009.18	1874.01
1012.93	1493.15
1016.68	1316.6
1020.43	1343.41
1024.18	1480.59
1027.93	1686.12
1031.67	2075.01
1035.42	2613.24
1039.16	3591.83
1042.9	5203.73
1046.63	8093.31
1050.37	14035.9
1054.11	26856.5
1057.84	46009.1
1061.57	46387.1
1065.3	25036.3
1069.03	11695.9
1072.75	6543.59
1076.47	4224.73
1080.2	3375.43
1083.92	3211.55
1087.64	3986.95
1091.36	5155.06
1095.07	8347.31
1098.79	14095.8
1102.5	16440
1106.21	11008.4
1109.92	6018.13
1113.62	3867.95
1117.33	2894.78
1121.04	2679.79
1124.74	3038.33
1128.44	3738.08
1132.14	6070.06
1135.83	9336.24
1139.53	8324.66
1143.22	4707.39
1146.92	2693.44
1150.61	1801.48
1154.3	1255.08
1157.98	907.555
1161.67	729.065
1165.35	630.981
1169.04	614.655
1172.72	537.31
1176.4	520.312
1180.07	426.41
1183.75	757.898
1187.42	839.357
1191.1	41.998
1194.77	22.792
1198.44	21.776
1202.1	191.131
1205.77	208.495
1209.43	241.295
1213.1	260.722
1216.76	149.638
1220.42	198.687
1224.07	102.527
1227.73	187.169
1231.38	172.239
1235.04	204.038
1238.69	76.171
1242.34	160.151
1245.99	18.863
1249.63	43.217
1253.28	7.566
1256.92	48.174
1260.56	73.066
1264.2	153.479
1267.84	76.879
1271.48	111.188
1275.11	54.353
1278.74	28.466
1282.38	2.153
1286.01	50.331
1289.63	39.905
1293.26	55.523
1296.89	98.766
1300.51	141.812
1304.13	175.684
1307.75	88.413
1311.37	50.009
1314.99	107.613
1318.6	48.447
1322.22	42.624
1325.83	7.989
1329.44	59.367
1333.05	119.532
1336.66	152.545
1340.26	144.437
1343.87	183.188
1347.47	0.67
1351.07	3.887
1354.67	34.456
1358.27	15.257
1361.86	127.96
1365.46	168.166
1369.05	175.43
1372.64	143.122
1376.23	191.239
1379.82	123.958
1383.41	108.781
1386.99	37.216
1390.57	23.414
1394.16	87.691
1397.74	104.636
1401.32	214.453
1404.89	248.243
1408.47	296.209
1412.04	322.037
1415.61	194.739
1419.18	136.087
1422.75	112.533
1426.32	92.242
1429.89	73.353
1433.45	30.068
1437.01	123.61
1440.58	211.417
1444.13	339.779
1447.69	308.439
1451.25	316.642
1454.81	300.083
1458.36	242.149
1461.91	115.025
1465.46	112.515
1469.01	85.149
1472.56	128.791
1476.1	114.752
1479.64	179.897
1483.19	242.999
1486.73	340.183
1490.27	369.139
1493.81	268.261
1497.34	222.417
1500.88	148.183
1504.41	100.436
1507.94	104.735
1511.47	12.059
1515	116.856
1518.53	0
