Measurement: Raman, 514 nm, ccw, Raman Data Processed
Mineral: Lazulite
Rruff sample: R060494
Ideal chemistry: MgAl_2_(PO_4_)_2_(OH)_2_
Locality: Champion mine, White Mountains, Mono County, California, USA
Source: Michael Scott
Description: Dark-blue coarsely crystalline mass
Measured chemistry: (Mg_0.67_Fe^2+^_0.33_)_Î£=1_Al_2.00_(P_1.00_O_4_)_2_(OH)_2_
Pin_id: M01822
Orientation: Laser parallel to a* (1 0 0). Fiducial mark perpendicular to laser is parallel to b [0 1 0]
Raman shift (cm-1)	intensity
139.466	0
144.391	71.9917
149.314	49.0234
154.234	39.1348
159.151	155.071
164.066	682.951
168.978	1406.3
173.887	3470.15
178.794	3033.06
183.698	5790.41
188.599	16316.7
193.498	22872.2
198.394	5287.29
203.287	2476.74
208.178	1113.99
213.066	993.164
217.952	1452.52
222.835	1568.49
227.715	550.703
232.593	176.174
237.468	268.815
242.34	590.51
247.21	1650.18
252.077	5747.76
256.941	4490.99
261.803	1645.8
266.662	752.217
271.518	603.275
276.372	465.024
281.223	703.576
286.072	114.832
290.918	175.218
295.761	107.954
300.602	39.2241
305.44	193.312
310.275	630.055
315.108	1225.79
319.938	2695.4
324.765	3671.8
329.59	4564.68
334.412	6906.99
339.232	11465.8
344.049	19710.2
348.863	17739.3
353.675	8923.03
358.484	5224.46
363.29	4349.77
368.094	5087.96
372.895	7698.79
377.693	10898.5
382.489	7461.97
387.282	3338.43
392.073	1906.76
396.861	1110.97
401.646	719.133
406.429	628.445
411.209	1289.15
415.987	894.186
420.761	105.809
425.534	68.2651
430.303	53.1836
435.07	26.5605
439.834	80.7842
444.596	153.036
449.355	266.738
454.112	514.554
458.865	1321.26
463.617	1924.85
468.365	2305.34
473.111	3541.73
477.854	4596.05
482.595	2525.32
487.333	717.533
492.069	285.712
496.802	217.866
501.532	411.008
506.259	544.165
510.984	857.67
515.707	1148.69
520.426	1188.09
525.144	1308.58
529.858	1266.16
534.57	1053.85
539.279	1163.77
543.986	863.58
548.69	569.987
553.391	579.107
558.09	529.248
562.786	629.056
567.48	704.239
572.171	850.836
576.859	849.561
581.545	720.574
586.228	158.02
590.909	90.02
595.587	526.178
600.262	1402.48
604.935	2813
609.605	4370.85
614.272	4871.1
618.937	3892.72
623.599	3951.64
628.259	5529.82
632.916	6702.32
637.57	5295.18
642.222	3847.45
646.871	2602.09
651.518	1369.93
656.162	726.904
660.803	398.025
665.442	364.281
670.078	341.705
674.712	161.428
679.343	4.79394
683.971	9.8623
688.597	173.007
693.22	203.306
697.841	8.31836
702.459	290.666
707.074	634.045
711.687	994.848
716.297	1426.84
720.905	1904.47
725.51	2654.63
730.112	4263.98
734.712	6166.82
739.309	8725.14
743.904	9501.27
748.496	7312.38
753.085	4637.35
757.672	3063.7
762.256	2109.99
766.838	1437.16
771.417	1286.61
775.993	869.302
780.567	753.909
785.139	653.82
789.707	650.729
794.273	572.79
798.837	489.666
803.398	408.139
807.956	408.944
812.512	443.804
817.065	248.873
821.615	177.78
826.163	184.175
830.709	213.297
835.252	217.291
839.792	164.875
844.329	155.078
848.864	153.859
853.397	219.22
857.927	101.152
862.454	138.641
866.979	89.6299
871.501	101.612
876.02	16.2856
880.537	17.7515
885.052	58.5752
889.564	28.8584
894.073	24.9844
898.579	71.7739
903.083	36.2554
907.585	6.47266
912.084	86.5957
916.58	26.2612
921.074	36.5449
925.565	32.1123
930.054	20.3726
934.54	16.8061
939.023	16.5674
943.504	76.5029
947.982	2.89209
952.458	43.4683
956.931	89.7026
961.402	145.236
965.87	128.119
970.335	175.08
974.798	139.914
979.259	242.626
983.716	385.344
988.171	481.274
992.624	721.406
997.074	1092.21
1001.52	1341.37
1005.97	1855.28
1010.41	2297.41
1014.85	3051.16
1019.29	3203.21
1023.72	2681.95
1028.15	2431.55
1032.58	2362.5
1037.01	2749.49
1041.43	3751.54
1045.86	6519.74
1050.28	12941
1054.69	23117.8
1059.11	23809
1063.52	13373.2
1067.93	6611.66
1072.33	3878.26
1076.74	3082.66
1081.14	2846.57
1085.54	2772.44
1089.93	3159.03
1094.33	3619.99
1098.72	4477.27
1103.11	4008.86
1107.49	2915.78
1111.88	2453.01
1116.26	2456.59
1120.63	2776.2
1125.01	3399.32
1129.38	4797.65
1133.76	7808.05
1138.12	8069.35
1142.49	5194.65
1146.85	3410.23
1151.21	2807.32
1155.57	2313.24
1159.93	2084.52
1164.28	1933.83
1168.63	1688.61
1172.98	1558.83
1177.32	1620.68
1181.66	1496.77
1186.01	1376.83
1190.34	1016.5
1194.68	922.587
1199.01	969.704
1203.34	1181.11
1207.67	1394.21
1211.99	1275.91
1216.32	1125.9
1220.63	992.222
1224.95	707.207
1229.27	567.513
1233.58	302.807
1237.89	223.161
1242.2	125.919
1246.5	52.6431
1250.8	32.0288
1255.1	74.9185
1259.4	54.0044
1263.69	51.8667
1267.99	82.0478
1272.28	67.6826
1276.56	10.3565
1280.85	56.0786
1285.13	80.5478
1289.41	17.7676
1293.68	6.3584
1297.96	25.874
1302.23	62.8379
1306.5	12.4019
1310.77	14.4492
1315.03	64.5566
1319.29	4.61426
1323.55	51.9605
1327.81	126.627
1332.06	21.3208
1336.31	26.7451
1340.56	151.125
1344.81	93.2417
1349.05	19.0879
1353.29	173.634
1357.53	130.933
1361.77	142.99
1366	94.7964
1370.23	182.357
1374.46	215.984
1378.69	157.414
1382.91	226.894
1387.13	205.854
1391.35	134.074
1395.57	190.431
1399.78	196.452
1403.99	215.92
1408.2	100.597
1412.41	199.365
1416.61	109.269
1420.82	133.98
1425.01	134.498
1429.21	57.8848
1433.4	35.646
1437.59	184.11
1441.78	97.4546
1445.97	200.216
1450.15	137.386
1454.33	137.92
1458.51	132.274
1462.69	110.744
1466.86	162.392
1471.03	132.199
1475.2	208.355
1479.37	159.003
1483.53	66.2812
1487.69	126.592
1491.85	91.2578
1496.01	106.186
1500.16	2.26807
1504.31	106.686
1508.46	35.272
1512.61	149.325
1516.75	9.78711
1520.89	40.854
1525.03	171.226
1529.16	95.0352
1533.3	99.6577
1537.43	11.9785
1541.56	62.1284
