Measurement: Raman, 514 nm, ccw, Raman Data Processed
Mineral: Lazulite
Rruff sample: R050110
Ideal chemistry: MgAl_2_(PO_4_)_2_(OH)_2_
Locality: Rapid Creek, Yukon Territory, Canada
Source: Rock Currier
Description: Azure-blue stubby crystals with complex terminations
Measured chemistry: (Mg_0.84_Fe_0.16_)Al_2.00_(P_1.00_O_4_)_2_(OH)_2_
Pin_id: L00543
Orientation: Laser parallel to (-1 0 -1). Fiducial mark perpendicular to laser is parallel to b [0 1 0]
Raman shift (cm-1)	intensity
77.333	0
81.521	1.396
85.706	223.84
89.89	737.972
94.071	2396.43
98.251	11536
102.428	14845.1
106.604	4426.07
110.777	1649.88
114.949	1368.74
119.119	482.439
123.286	30.121
127.452	36.688
131.615	12.618
135.777	25.991
139.937	187.968
144.094	174.047
148.25	114.171
152.403	190.564
156.555	159.242
160.705	76.363
164.853	672.274
168.998	2694.87
173.142	7771.06
177.284	3917.75
181.424	1895.88
185.562	5441.37
189.698	17284.8
193.831	14951.3
197.963	4101.7
202.093	1808.83
206.221	1548.68
210.347	1810.26
214.472	2934.58
218.594	7549.65
222.714	19397
226.832	22095.9
230.948	7449.39
235.063	2451.95
239.175	1355.51
243.286	1333.81
247.394	2708.43
251.501	8069.19
255.605	12902.4
259.708	5006.78
263.808	2333.48
267.907	1880.28
272.004	2343.54
276.099	4745.28
280.192	9520
284.283	10196.7
288.372	4863.42
292.459	1907.7
296.544	809.953
300.627	382.948
304.709	177.699
308.788	426.595
312.865	833.198
316.941	3342.2
321.015	9000.07
325.086	7537.06
329.156	2927.54
333.224	1583.82
337.29	1069.92
341.354	1051.83
345.416	1004.56
349.476	893.097
353.534	594.514
357.591	419.751
361.645	324.834
365.698	145.776
369.748	26.567
373.797	39.83
377.844	88.504
381.889	127.608
385.932	114.223
389.973	20.429
394.012	26.588
398.049	22.734
402.084	56.628
406.118	471.877
410.15	2368.73
414.179	5122.42
418.207	1256.94
422.233	1757.33
426.257	5994.57
430.279	6105.7
434.299	2473.73
438.318	1125.68
442.334	722.54
446.349	593.324
450.361	522.035
454.372	602.772
458.381	828.558
462.388	1167.36
466.394	2226.67
470.397	4977.66
474.398	11421.3
478.398	19067.9
482.396	13221.4
486.391	5452.9
490.385	2296.31
494.377	1274.66
498.368	791.954
502.356	447.192
506.342	309.377
510.327	165.514
514.31	278.602
518.291	261.649
522.27	321.66
526.247	338.142
530.222	536.336
534.196	580.603
538.167	800.071
542.137	695.512
546.105	458.296
550.071	215.038
554.035	20.499
557.998	8.549
561.958	15.604
565.917	127.625
569.874	203.944
573.829	482.519
577.782	1161.4
581.733	1581.56
585.683	877.924
589.63	375.507
593.576	295.295
597.52	637.294
601.462	1585.46
605.402	3492.75
609.341	3456.14
613.277	2835.57
617.212	1922.05
621.145	1866.55
625.076	2516.09
629.006	3633.65
632.933	3437.24
636.859	2120.86
640.783	2271.49
644.705	5037.13
648.625	7867.8
652.543	6704.47
656.46	4211.16
660.375	2514.86
664.288	1618.56
668.199	1071.38
672.108	601.275
676.016	421.526
679.921	172.213
683.825	89.042
687.727	79.948
691.628	63.051
695.526	9.423
699.423	47.338
703.318	162.646
707.211	322.313
711.102	583.934
714.992	879.767
718.879	1196.36
722.765	1780.05
726.649	2775.66
730.532	4313.09
734.412	6736.75
738.291	9881.58
742.168	11846
746.043	10084.4
749.916	6844.2
753.788	4381.05
757.658	2925.63
761.526	2059.57
765.392	1530.62
769.257	1135.9
773.119	867.673
776.98	671.314
780.839	585.694
784.697	483.497
788.552	415.993
792.406	358.909
796.258	344.523
800.108	335.264
803.957	253.702
807.804	189.979
811.649	201.093
815.492	172.044
819.333	96.832
823.173	124.452
827.011	86.905
830.847	56.183
834.681	65.274
838.514	55.165
842.345	49.956
846.174	25.182
850.001	4.96
853.827	58.558
857.651	68.241
861.473	29.726
865.293	22.008
869.112	0.893
872.928	12.98
876.744	49.443
880.557	89.4
884.369	52.01
888.178	82.272
891.987	64.137
895.793	17.492
899.598	27.316
903.401	23.642
907.202	18.232
911.001	33.548
914.799	35.966
918.595	16.38
922.389	56.591
926.182	51.678
929.972	93.649
933.761	76.512
937.549	88.273
941.334	147.935
945.118	127.505
948.9	184.987
952.681	161.387
956.459	240.708
960.236	271.957
964.012	313.138
967.785	420.257
971.557	482.236
975.327	598.279
979.095	772.982
982.862	855.346
986.627	1248.45
990.39	1659.35
994.152	2348.2
997.912	3270.93
1001.67	4828.08
1005.43	5567.74
1009.18	4874.51
1012.93	4319.01
1016.68	4513.38
1020.43	4650.94
1024.18	4212.37
1027.93	3990.9
1031.67	3882.87
1035.42	4220.98
1039.16	4901.68
1042.9	6387.29
1046.63	9271.12
1050.37	15516.6
1054.11	28943.4
1057.84	49845.4
1061.57	53218.3
1065.3	29664.8
1069.03	14023.6
1072.75	8015.92
1076.47	5412.56
1080.2	4257.36
1083.92	3548.44
1087.64	3105.68
1091.36	2921.09
1095.07	2973.67
1098.79	3605.43
1102.5	4135.35
1106.21	3246.45
1109.92	2408.72
1113.62	2151.17
1117.33	2277.73
1121.04	2596.95
1124.74	3348.68
1128.44	4392.58
1132.14	7360.81
1135.83	12672.8
1139.53	13691.9
1143.22	9495.56
1146.92	6302.46
1150.61	4808.09
1154.3	3961.33
1157.98	3502.7
1161.67	3329.11
1165.35	3314.02
1169.04	3427.14
1172.72	3984.15
1176.4	4667.67
1180.07	5018.36
1183.75	4304.45
1187.42	3103.4
1191.1	2028.04
1194.77	1332.05
1198.44	1066.66
1202.1	941.686
1205.77	896.294
1209.43	1061.4
1213.1	1017.92
1216.76	926.946
1220.42	911.88
1224.07	834
1227.73	695.681
1231.38	512.436
1235.04	339.186
1238.69	295.842
1242.34	152.537
1245.99	114.842
1249.63	77.964
1253.28	16.256
1256.92	22.218
1260.56	7.163
1264.2	25
1267.84	2.755
1271.48	9.534
1275.11	16.984
1278.74	10.436
1282.38	59.529
1286.01	53.74
1289.63	66.098
1293.26	19.492
1296.89	29.126
1300.51	39.839
1304.13	17.116
1307.75	16.922
1311.37	24.373
1314.99	39.703
1318.6	45.427
1322.22	15.615
1325.83	44.531
1329.44	53.886
1333.05	6.563
1336.66	31.847
1340.26	31.955
1343.87	31.889
1347.47	29.632
1351.07	14.193
1354.67	38.587
1358.27	16.825
1361.86	11.91
1365.46	17.848
1369.05	49.657
1372.64	79.364
1376.23	82.03
1379.82	85.75
1383.41	81.507
1386.99	81.138
1390.57	86.639
1394.16	61.957
1397.74	171.508
1401.32	125.948
1404.89	161.454
1408.47	147.108
1412.04	135.149
1415.61	156.662
1419.18	92.029
1422.75	87.24
1426.32	90.265
1429.89	41.434
1433.45	52.331
1437.01	41.348
1440.58	76.641
1444.13	78.2
1447.69	86.675
1451.25	24.512
1454.81	100.954
1458.36	108.14
1461.91	26.504
1465.46	39.518
1469.01	26.121
1472.56	236.121
1476.1	44.381
1479.64	107.463
1483.19	122.508
1486.73	116.907
1490.27	183.382
1493.81	140.857
1497.34	148.733
1500.88	93.876
1504.41	85.285
1507.94	52.428
1511.47	54.878
1515	37.407
1518.53	0.887
