Measurement: Raman, 514 nm, ccw, Raman Data Processed
Mineral: Lazulite
Rruff sample: R050110
Ideal chemistry: MgAl_2_(PO_4_)_2_(OH)_2_
Locality: Rapid Creek, Yukon Territory, Canada
Source: Rock Currier
Description: Azure-blue stubby crystals with complex terminations
Measured chemistry: (Mg_0.84_Fe_0.16_)Al_2.00_(P_1.00_O_4_)_2_(OH)_2_
Pin_id: L00379
Orientation: Laser parallel to -c* (0 0 -1). Fiducial mark perpendicular to laser is parallel to a [1 0 0]
Raman shift (cm-1)	intensity
77.333	0
81.521	103.452
85.706	61.26
89.89	354.825
94.071	556.525
98.251	1089.36
102.428	1221.08
106.604	394.783
110.777	1066.15
114.949	1068.83
119.119	528.94
123.286	423.784
127.452	319.927
131.615	297.556
135.777	132.536
139.937	200.67
144.094	21.147
148.25	29.141
152.403	16.76
156.555	35.457
160.705	30.974
164.853	32.875
168.998	445.304
173.142	1593.21
177.284	853.518
181.424	625.927
185.562	3086.17
189.698	12223.1
193.831	10610
197.963	2279.57
202.093	696.244
206.221	235.171
210.347	165.06
214.472	362.079
218.594	1368.92
222.714	4712.23
226.832	6461.61
230.948	2029.6
235.063	530.601
239.175	129.616
243.286	197.681
247.394	843.112
251.501	3549.97
255.605	6392.56
259.708	2215.74
263.808	1105.45
267.907	1163.61
272.004	2066.34
276.099	4830.75
280.192	11069.2
284.283	13365.1
288.372	6304.31
292.459	2436.11
296.544	1105.31
300.627	511.82
304.709	277.799
308.788	301.319
312.865	661.795
316.941	2724.98
321.015	8512.16
325.086	7198.58
329.156	2405.66
333.224	959.359
337.29	487.917
341.354	385.449
345.416	318.487
349.476	200.704
353.534	44.169
357.591	32.505
361.645	49.895
365.698	50.18
369.748	279.165
373.797	930.605
377.844	1987.88
381.889	1576.08
385.932	652.186
389.973	298.254
394.012	233.623
398.049	314.925
402.084	504.023
406.118	1916.04
410.15	9886.42
414.179	25950.8
418.207	8312.2
422.233	5372.32
426.257	10338.3
430.279	9409.44
434.299	3585.47
438.318	1817.51
442.334	1277.99
446.349	1161.41
450.361	1311.78
454.372	1558.12
458.381	2065.44
462.388	1979.76
466.394	1494.08
470.397	2037.11
474.398	4573.57
478.398	8444.17
482.396	6226.86
486.391	2653.66
490.385	1160.58
494.377	600.536
498.368	329.436
502.356	106.274
506.342	24.04
510.327	8.311
514.31	65.961
518.291	55.429
522.27	66.51
526.247	18.12
530.222	182.282
534.196	313.98
538.167	540.653
542.137	518.48
546.105	320.524
550.071	128.989
554.035	50.229
557.998	25.421
561.958	36.166
565.917	21.749
569.874	9.47
573.829	86.623
577.782	296.788
581.733	390.971
585.683	147.2
589.63	25.477
593.576	6.215
597.52	108.105
601.462	371.431
605.402	701.749
609.341	562.022
613.277	427.245
617.212	459.411
621.145	747.494
625.076	949.492
629.006	885.406
632.933	728.232
636.859	812.964
640.783	1762.24
644.705	3720.14
648.625	5613.57
652.543	4477.05
656.46	2822.39
660.375	1655.38
664.288	1027.59
668.199	631.934
672.108	430.076
676.016	263.702
679.921	177.665
683.825	111.918
687.727	60.34
691.628	35.878
695.526	20.259
699.423	18.436
703.318	40.493
707.211	14.437
711.102	75.649
714.992	203.318
718.879	247.929
722.765	501.903
726.649	792.012
730.532	1360.22
734.412	2235.67
738.291	3364.93
742.168	4155.54
746.043	3530.54
749.916	2378.91
753.788	1482.41
757.658	1029.39
761.526	698.124
765.392	513.614
769.257	388.238
773.119	299.409
776.98	232.46
780.839	180.393
784.697	175.207
788.552	125.906
792.406	144.489
796.258	124.958
800.108	118.316
803.957	92.563
807.804	81.699
811.649	94.725
815.492	70.645
819.333	18.468
823.173	14.22
827.011	41.959
830.847	21.729
834.681	5.461
838.514	44.071
842.345	44.448
846.174	38.384
850.001	74.243
853.827	122.853
857.651	148.196
861.473	166.768
865.293	139.752
869.112	146.693
872.928	78.662
876.744	17.675
880.557	22.345
884.369	38.528
888.178	25.978
891.987	34.673
895.793	49.651
899.598	28.939
903.401	46.505
907.202	33.348
911.001	16.38
914.799	31.442
918.595	23.807
922.389	22.854
926.182	56.476
929.972	43.087
933.761	64.69
937.549	79.289
941.334	112.89
945.118	112.495
948.9	180.11
952.681	122.738
956.459	141.383
960.236	195.904
964.012	252.479
967.785	257.178
971.557	351.359
975.327	429.327
979.095	479.839
982.862	592.426
986.627	734.761
990.39	1030.11
994.152	1370.7
997.912	1982.85
1001.67	2968.23
1005.43	3461.71
1009.18	3077.31
1012.93	3027.02
1016.68	3570.88
1020.43	3823.85
1024.18	3317.94
1027.93	3014.03
1031.67	3178.5
1035.42	3606.65
1039.16	4436.92
1042.9	6026.07
1046.63	8904.5
1050.37	14928.1
1054.11	28474.7
1057.84	50815.6
1061.57	56114.7
1065.3	30766
1069.03	14033.2
1072.75	7571.88
1076.47	4833.78
1080.2	3627.84
1083.92	3079.07
1087.64	2967.47
1091.36	3232.03
1095.07	3546.79
1098.79	4500.7
1102.5	4931.78
1106.21	3792.03
1109.92	2651.45
1113.62	2251.07
1117.33	2330.24
1121.04	2790.43
1124.74	3802.67
1128.44	5785.57
1132.14	10555.7
1135.83	18213.8
1139.53	17966.9
1143.22	10409.4
1146.92	5622.62
1150.61	3573.69
1154.3	2487.83
1157.98	1835.54
1161.67	1446.95
1165.35	1185.5
1169.04	1064.23
1172.72	950.572
1176.4	823.955
1180.07	677.498
1183.75	538.615
1187.42	359.93
1191.1	284.942
1194.77	254.172
1198.44	176.734
1202.1	181.43
1205.77	202.329
1209.43	255.479
1213.1	272.723
1216.76	262.052
1220.42	213.088
1224.07	178.298
1227.73	143.204
1231.38	177.851
1235.04	120.033
1238.69	71.167
1242.34	52.975
1245.99	44.262
1249.63	42.36
1253.28	30.448
1256.92	10.24
1260.56	22.662
1264.2	0.642
1267.84	13.956
1271.48	24.42
1275.11	6.76
1278.74	49.1
1282.38	19.031
1286.01	32.858
1289.63	4.037
1293.26	55.123
1296.89	6.073
1300.51	1.112
1304.13	12.726
1307.75	15.317
1311.37	27.204
1314.99	10.813
1318.6	23.493
1322.22	34.323
1325.83	18.462
1329.44	38.715
1333.05	20.958
1336.66	44.501
1340.26	50.943
1343.87	27.274
1347.47	64.523
1351.07	25.623
1354.67	22.616
1358.27	23.669
1361.86	45.28
1365.46	23.095
1369.05	37.653
1372.64	30.079
1376.23	38.37
1379.82	38.149
1383.41	19.117
1386.99	37.032
1390.57	23.823
1394.16	19.813
1397.74	38.252
1401.32	56.975
1404.89	40.225
1408.47	43.458
1412.04	42.951
1415.61	45.793
1419.18	72.921
1422.75	50.463
1426.32	21.074
1429.89	32.969
1433.45	51.58
1437.01	26.062
1440.58	50.429
1444.13	47.264
1447.69	72.744
1451.25	88.415
1454.81	74.426
1458.36	52.452
1461.91	51.064
1465.46	25.104
1469.01	52.68
1472.56	12.145
1476.1	30.086
1479.64	43.332
1483.19	42.348
1486.73	30.143
1490.27	42.193
1493.81	37.026
1497.34	31.352
1500.88	31.746
1504.41	3.801
1507.94	27.508
1511.47	3.343
1515	13.473
1518.53	0
