Measurement: Raman, 514 nm, ccw, Raman Data Processed
Mineral: Lazulite
Rruff sample: R050110
Ideal chemistry: MgAl_2_(PO_4_)_2_(OH)_2_
Locality: Rapid Creek, Yukon Territory, Canada
Source: Rock Currier
Description: Azure-blue stubby crystals with complex terminations
Measured chemistry: (Mg_0.84_Fe_0.16_)Al_2.00_(P_1.00_O_4_)_2_(OH)_2_
Pin_id: L00471
Orientation: Laser parallel to -b* (0 -1 0). Fiducial mark perpendicular to laser is parallel to -c [0 0 -1]
Raman shift (cm-1)	intensity
88.496	0
92.678	505.724
96.858	2338.74
101.036	6078.53
105.212	2368.94
109.387	850.534
113.559	1570.83
117.729	832.784
121.897	536.621
126.063	466.422
130.228	821.497
134.39	508.86
138.55	352.11
142.709	105.566
146.865	8.191
151.019	118.678
155.171	90.939
159.322	25.873
163.47	283.037
167.617	542.458
171.761	1109.49
175.904	679.483
180.044	530.438
184.183	1992.59
188.319	7353.72
192.454	11410.8
196.586	2721.82
200.717	548.097
204.846	261.05
208.972	46.584
213.097	98.933
217.22	854.418
221.341	2831.37
225.46	4141.42
229.577	1383.7
233.692	45.624
237.805	213.828
241.916	206.892
246.025	153.233
250.132	2483
254.237	4964.09
258.34	2684.61
262.442	666.467
266.541	526.722
270.639	791.542
274.734	1875.33
278.828	4551.33
282.919	6903.18
287.009	4084.34
291.097	1477.59
295.183	591.06
299.266	214.528
303.348	46.798
307.428	3.885
311.507	75.407
315.583	704.854
319.657	2102.12
323.729	2323.7
327.8	1003.45
331.868	519.87
335.935	390.127
339.999	482.546
344.062	652.378
348.123	673.887
352.182	496.383
356.239	469.245
360.294	651.916
364.347	773.883
368.398	1264.53
372.448	2476.28
376.495	4703.33
380.54	5187.25
384.584	2783.75
388.626	1356.91
392.666	968.239
396.704	936.392
400.74	1146.57
404.774	2664.84
408.806	11046
412.836	36462.2
416.865	19173.8
420.891	5653.14
424.916	5222.47
428.939	5505.42
432.959	2403.22
436.978	1123.72
440.996	721.023
445.011	598.445
449.024	577.059
453.036	772.946
457.045	1061.81
461.053	1458.51
465.059	1492.48
469.063	1997.61
473.065	3877.53
477.065	7203.7
481.063	6447.15
485.06	2979.89
489.054	1271.54
493.047	561.07
497.038	344.982
501.027	53.821
505.014	43.055
508.999	51.94
512.982	35.352
516.964	49.171
520.944	99.848
524.921	54.872
528.897	162.793
532.871	338.382
536.844	428.356
540.814	458.704
544.783	374.292
548.749	267.809
552.714	159.201
556.677	79.672
560.638	37.608
564.597	142.351
568.555	194.763
572.511	154.723
576.464	129.49
580.416	108.05
584.366	165.405
588.315	147.678
592.261	88.891
596.206	265.969
600.148	656.931
604.089	1478.8
608.028	3070.61
611.965	5305.48
615.901	4706.9
619.834	3018.17
623.766	2857.07
627.696	4220.41
631.624	6555.04
635.551	7291.4
639.475	7945.43
643.398	9670.06
647.318	11106.9
651.237	8194.23
655.155	4311.19
659.07	2165.68
662.984	1271.43
666.895	791.264
670.805	446.732
674.713	349.109
678.62	364.858
682.524	116.481
686.427	6.808
690.328	119.087
694.227	47.614
698.124	37.643
702.02	13.246
705.913	91.508
709.805	2.672
713.695	40.479
717.584	95.018
721.47	142.773
725.355	297.458
729.238	359.051
733.119	757.707
736.998	1154.12
740.876	1479.87
744.752	1427.07
748.626	933.781
752.498	557.088
756.368	409.894
760.237	274.408
764.104	156.658
767.969	117.169
771.832	122.714
775.693	116.666
779.553	184.201
783.411	146.989
787.267	111.38
791.122	91.638
794.974	79.289
798.825	126.992
802.674	125.425
806.522	68.595
810.367	78.427
814.211	77.001
818.053	115.366
821.893	77.519
825.732	84.451
829.568	53.162
833.403	62.651
837.236	94.872
841.068	240.876
844.898	526.066
848.726	211.443
852.552	218.433
856.376	269.504
860.199	320.506
864.02	409.983
867.839	333.37
871.656	200.416
875.472	33.292
879.286	10.269
883.098	22.821
886.909	76.343
890.717	29.294
894.524	91.98
898.33	92.583
902.133	42.444
905.935	5.479
909.735	63.18
913.533	16.615
917.33	49.596
921.124	56.955
924.918	49.893
928.709	128.143
932.499	91.902
936.286	25.897
940.073	11.692
943.857	24.158
947.64	42.099
951.421	136.07
955.2	196.333
958.978	215.517
962.753	153.544
966.527	244.634
970.3	275.614
974.071	431.041
977.84	610.296
981.607	762.642
985.372	991.885
989.136	1209.03
992.898	1841.4
996.659	2755.14
1000.42	4159.2
1004.17	4677.55
1007.93	3619.28
1011.68	2497.39
1015.43	2001.88
1019.18	1867.63
1022.93	1851.29
1026.68	2152.66
1030.42	2342.42
1034.17	2698.28
1037.91	3274.22
1041.65	4354.51
1045.39	6541.45
1049.12	10960
1052.86	20547.4
1056.59	38423.9
1060.33	47434.7
1064.06	30139.7
1067.78	14071.2
1071.51	7527.86
1075.23	4920.35
1078.96	3909.27
1082.68	3496.14
1086.4	3618.74
1090.12	4252.72
1093.83	6291.15
1097.55	10529.5
1101.26	14570.8
1104.97	11969.6
1108.68	7118.06
1112.39	4376.65
1116.1	3066.19
1119.8	2684.18
1123.5	3140.33
1127.2	3597.2
1130.9	5241.04
1134.6	8913.31
1138.3	9801.18
1141.99	6084.06
1145.69	3591.78
1149.38	2329.33
1153.07	1935.79
1156.76	1733.32
1160.44	1616.39
1164.13	1502.14
1167.81	1417.95
1171.49	1282.37
1175.17	1379.06
1178.85	1431.79
1182.52	1464.43
1186.2	1215.67
1189.87	943.423
1193.54	736.913
1197.21	465.208
1200.88	371.211
1204.55	356.559
1208.21	354.577
1211.88	503.396
1215.54	590.75
1219.2	550.287
1222.86	481.576
1226.51	389.539
1230.17	278.082
1233.82	45.458
1237.47	59.881
1241.12	77.124
1244.77	168.356
1248.42	238.271
1252.06	212.914
1255.71	197.184
1259.35	57.292
1262.99	69.44
1266.63	48.91
1270.26	85.98
1273.9	11.816
1277.53	102.71
1281.16	143.959
1284.8	198.981
1288.42	128.981
1292.05	20.554
1295.68	24.865
1299.3	148.696
1302.92	46.68
1306.55	10.578
1310.16	74.954
1313.78	181.13
1317.4	158.24
1321.01	200.042
1324.62	105.542
1328.24	5.802
1331.85	99.163
1335.45	90.387
1339.06	49.132
1342.66	98.474
1346.27	166.621
1349.87	293.591
1353.47	148.372
1357.07	205.018
1360.66	50.579
1364.26	29.864
1367.85	54.056
1371.44	53.326
1375.04	3.19
1378.62	181.308
1382.21	251.615
1385.8	373.546
1389.38	345.721
1392.96	223.885
1396.54	259.108
1400.12	185.25
1403.7	109.661
1407.28	2.187
1410.85	122.589
1414.42	193.705
1417.99	287.686
1421.56	350.658
1425.13	424.225
1428.7	319.631
1432.26	272.789
1435.83	218.03
1439.39	142.753
1442.95	40.891
1446.51	1.222
1450.06	88.126
1453.62	170.664
1457.17	213.524
1460.73	294.939
1464.28	462.525
1467.83	369.079
1471.37	406.566
1474.92	357.258
1478.46	191.792
1482.01	118.587
1485.55	140.563
1489.09	35.453
1492.63	123.042
1496.16	129.19
1499.7	275.572
1503.23	373.184
1506.76	440.828
1510.29	419.834
1513.82	303.785
1517.35	230.723
1520.88	0
