Measurement: Raman, 514 nm, ccw, Raman Data Processed
Mineral: Lazulite
Rruff sample: R050110
Ideal chemistry: MgAl_2_(PO_4_)_2_(OH)_2_
Locality: Rapid Creek, Yukon Territory, Canada
Source: Rock Currier
Description: Azure-blue stubby crystals with complex terminations
Measured chemistry: (Mg_0.84_Fe_0.16_)Al_2.00_(P_1.00_O_4_)_2_(OH)_2_
Pin_id: L00543
Orientation: Laser parallel to (-1 0 -1). Fiducial mark perpendicular to laser is parallel to b [0 1 0]
Raman shift (cm-1)	intensity
81.521	0
85.706	8.278
89.89	540.534
94.071	2283.86
98.251	11126.1
102.428	14401.5
106.604	4343.1
110.777	1894.41
114.949	1710.28
119.119	505.228
123.286	121.736
127.452	67.766
131.615	1.359
135.777	57.133
139.937	259.629
144.094	1102.98
148.25	402.899
152.403	234.824
156.555	184.417
160.705	158.907
164.853	232.515
168.998	2078.85
173.142	5682.74
177.284	3111.22
181.424	1799.25
185.562	5926.04
189.698	17097.8
193.831	14354.3
197.963	4031.76
202.093	1798.63
206.221	1378.58
210.347	1453.57
214.472	1982.6
218.594	4756.63
222.714	12215.6
226.832	14324.4
230.948	4772.12
235.063	1402.69
239.175	656.178
243.286	979.162
247.394	2175.16
251.501	5901.48
255.605	9448.73
259.708	3649.51
263.808	1677.71
267.907	1141.77
272.004	1189.16
276.099	2575.05
280.192	5637.88
284.283	6531.91
288.372	2957.05
292.459	808.851
296.544	183.236
300.627	172.028
304.709	253.358
308.788	111.61
312.865	386.484
316.941	2221.34
321.015	6301.01
325.086	5788.51
329.156	2732.86
333.224	2325.05
337.29	2744.09
341.354	4902.98
345.416	7657.74
349.476	5735.35
353.534	2980.83
357.591	1764.15
361.645	1258.84
365.698	1120.39
369.748	1311.94
373.797	2224.61
377.844	3147.47
381.889	2128.54
385.932	864.672
389.973	436.791
394.012	222.179
398.049	28.942
402.084	51.075
406.118	34.563
410.15	1513.86
414.179	3040.09
418.207	304.243
422.233	454.304
426.257	3184.27
430.279	3654.17
434.299	1244.99
438.318	364.748
442.334	86.452
446.349	64.05
450.361	72.499
454.372	172.889
458.381	496.001
462.388	908.743
466.394	1496.59
470.397	3175.98
474.398	7503.05
478.398	12977.4
482.396	9109.83
486.391	3632.23
490.385	1387.63
494.377	774.042
498.368	442.46
502.356	91.811
506.342	11.324
510.327	69.772
514.31	180.232
518.291	216.721
522.27	328.261
526.247	353.934
530.222	468.778
534.196	453.998
538.167	616.885
542.137	612.904
546.105	295.248
550.071	133.374
554.035	2.445
557.998	45.292
561.958	201.639
565.917	451.851
569.874	877.348
573.829	1890.01
577.782	4413.87
581.733	4952.51
585.683	2567.7
589.63	1408.07
593.576	1328.59
597.52	2389.26
601.462	5545.66
605.402	9679.23
609.341	6686.8
613.277	4392.54
617.212	2879.42
621.145	2457.54
625.076	3017.31
629.006	4168.74
632.933	4428.4
636.859	3145.02
640.783	2542.6
644.705	3991.14
648.625	5638.63
652.543	4632.06
656.46	2861.44
660.375	1729.76
664.288	1238.04
668.199	776.428
672.108	483.167
676.016	248.086
679.921	73.198
683.825	31.842
687.727	64.099
691.628	89.399
695.526	4.066
699.423	55.228
703.318	169.066
707.211	464.28
711.102	807.79
714.992	1034.8
718.879	1352.83
722.765	1855.11
726.649	2871.97
730.532	4336.2
734.412	6644.82
738.291	9772.41
742.168	11736.3
746.043	10384.6
749.916	6887.59
753.788	4389.48
757.658	2949.02
761.526	2012.35
765.392	1561.38
769.257	1179.4
773.119	912.057
776.98	717.977
780.839	634.854
784.697	601.923
788.552	491.686
792.406	487.159
796.258	464.344
800.108	388.238
803.957	347.841
807.804	338.153
811.649	284.173
815.492	241.902
819.333	184.339
823.173	210.48
827.011	151.322
830.847	105.85
834.681	146.062
838.514	80.304
842.345	53.659
846.174	13.673
850.001	23.12
853.827	34.869
857.651	14.401
861.473	31.115
865.293	57.177
869.112	29.305
872.928	23.051
876.744	35.999
880.557	47.51
884.369	48.584
888.178	62.231
891.987	78.423
895.793	52.136
899.598	49.388
903.401	42.124
907.202	14.354
911.001	11.982
914.799	18.017
918.595	44.986
922.389	14.309
926.182	37.034
929.972	19.549
933.761	31.738
937.549	87.786
941.334	76.707
945.118	104.507
948.9	182.194
952.681	162.775
956.459	171.256
960.236	170.646
964.012	252.952
967.785	365.18
971.557	407.178
975.327	468.178
979.095	627.357
982.862	834.295
986.627	1055.31
990.39	1445.89
994.152	2045.55
997.912	2804.3
1001.67	3994.33
1005.43	4777.76
1009.18	4587.58
1012.93	4969.79
1016.68	5952.09
1020.43	6135.45
1024.18	5077.99
1027.93	4287.41
1031.67	3939.41
1035.42	4154.71
1039.16	4556.83
1042.9	5865.79
1046.63	8475.02
1050.37	13682.4
1054.11	25537.3
1057.84	43157.6
1061.57	46152.5
1065.3	26074
1069.03	12690.2
1072.75	7587.62
1076.47	5400.56
1080.2	4503.48
1083.92	4182.5
1087.64	4138.18
1091.36	4399.05
1095.07	4825.11
1098.79	6111.37
1102.5	7194.84
1106.21	4910.5
1109.92	3492.37
1113.62	2950.66
1117.33	3034.93
1121.04	3318.4
1124.74	4110.66
1128.44	4949.88
1132.14	7851.05
1135.83	13032.9
1139.53	14208
1143.22	10292.1
1146.92	6865.51
1150.61	5239.91
1154.3	4289.4
1157.98	3871.31
1161.67	3509.28
1165.35	3395.53
1169.04	3371.86
1172.72	3693.41
1176.4	4140.99
1180.07	4316.98
1183.75	3758.24
1187.42	2896.54
1191.1	2002.88
1194.77	1545.45
1198.44	1332.19
1202.1	1279.22
1205.77	1353.38
1209.43	1606.18
1213.1	1628.01
1216.76	1636.5
1220.42	1625.89
1224.07	1576.41
1227.73	1166.9
1231.38	897.263
1235.04	571.638
1238.69	426.287
1242.34	328.308
1245.99	173.332
1249.63	148.954
1253.28	62.876
1256.92	74.771
1260.56	20.892
1264.2	11.736
1267.84	13.418
1271.48	15.094
1275.11	52.136
1278.74	13.842
1282.38	82.282
1286.01	23.061
1289.63	62.006
1293.26	63.227
1296.89	26.694
1300.51	49.31
1304.13	42.862
1307.75	13.272
1311.37	33.671
1314.99	40.357
1318.6	92.327
1322.22	81.606
1325.83	23.151
1329.44	4.053
1333.05	35.782
1336.66	44.41
1340.26	51.844
1343.87	71.058
1347.47	20.036
1351.07	35.79
1354.67	26.341
1358.27	44.706
1361.86	59.903
1365.46	127.935
1369.05	69.826
1372.64	144.962
1376.23	92.746
1379.82	159.117
1383.41	129.832
1386.99	70.662
1390.57	53.315
1394.16	117.537
1397.74	159.146
1401.32	237.549
1404.89	259.428
1408.47	204.5
1412.04	177.166
1415.61	201.183
1419.18	182.143
1422.75	164.83
1426.32	147.239
1429.89	84.317
1433.45	113.979
1437.01	72.052
1440.58	90.4
1444.13	90.002
1447.69	113.74
1451.25	158.557
1454.81	166.76
1458.36	127.053
1461.91	43.048
1465.46	12.396
1469.01	71.177
1472.56	133.377
1476.1	101.109
1479.64	98.048
1483.19	95.063
1486.73	133.758
1490.27	276.772
1493.81	222.195
1497.34	194.175
1500.88	110.344
1504.41	75.165
1507.94	86.125
1511.47	7.228
1515	0.311
1518.53	49.011
1522.05	0
