Measurement: Raman, 514 nm, ccw, Raman Data Processed
Mineral: Lazulite
Rruff sample: R050110
Ideal chemistry: MgAl_2_(PO_4_)_2_(OH)_2_
Locality: Rapid Creek, Yukon Territory, Canada
Source: Rock Currier
Description: Azure-blue stubby crystals with complex terminations
Measured chemistry: (Mg_0.84_Fe_0.16_)Al_2.00_(P_1.00_O_4_)_2_(OH)_2_
Pin_id: L00348
Orientation: Laser parallel to a* (1 0 0). Fiducial mark perpendicular to laser is parallel to b [0 1 0]
Raman shift (cm-1)	intensity
80.125	0
84.311	238.202
88.496	2015.98
92.678	3022.76
96.858	3893.83
101.036	8932.27
105.212	3628.4
109.387	1384.27
113.559	1131.26
117.729	947.389
121.897	856.87
126.063	932.205
130.228	776.337
134.39	556.372
138.55	351.77
142.709	129.062
146.865	24.953
151.019	4.74
155.171	17.729
159.322	83.482
163.47	235.273
167.617	50.715
171.761	196.986
175.904	461.809
180.044	727.678
184.183	3070.43
188.319	12314
192.454	19881.4
196.586	7520.55
200.717	2239.36
204.846	650.114
208.972	211.044
213.097	81.374
217.22	278.009
221.341	1066.83
225.46	2046.36
229.577	680.021
233.692	30.403
237.805	224.322
241.916	114.32
246.025	405.685
250.132	3032.81
254.237	7943.47
258.34	3635.68
262.442	861.824
266.541	327.371
270.639	406.086
274.734	1054.81
278.828	2590.7
282.919	4101.25
287.009	2526.01
291.097	968.448
295.183	364.063
299.266	136.91
303.348	21.139
307.428	73.454
311.507	80.813
315.583	613.068
319.657	1928.66
323.729	2372.51
327.8	955.861
331.868	524.248
335.935	564.453
339.999	930.213
344.062	1950.87
348.123	2421.93
352.182	1458.98
356.239	999.674
360.294	1024.34
364.347	1420.01
368.398	2407.61
372.448	4885.91
376.495	9067.99
380.54	9658.8
384.584	5234
388.626	3117.63
392.666	2717.49
396.704	2130.22
400.74	1452.61
404.774	1952.95
408.806	7101.48
412.836	24692.9
416.865	12839.5
420.891	3972.47
424.916	3984.7
428.939	4181.49
432.959	1630.44
436.978	742.843
440.996	473.751
445.011	375.207
449.024	477.269
453.036	642.988
457.045	1030.37
461.053	1314.14
465.059	1135.36
469.063	745.81
473.065	1024.61
477.065	2073.16
481.063	2063.03
485.06	929.156
489.054	364.446
493.047	261.693
497.038	207.034
501.027	24.861
505.014	60.987
508.999	106.184
512.982	60.855
516.964	56.964
520.944	61.562
524.921	187.673
528.897	313.409
532.871	555.695
536.844	732.108
540.814	766.031
544.783	607.918
548.749	433.857
552.714	340.187
556.677	350.483
560.638	355.749
564.597	371.704
568.555	474.411
572.511	572.988
576.464	660.409
580.416	751.735
584.366	651.011
588.315	686.288
592.261	792.599
596.206	1045.89
600.148	1637.11
604.089	2682.15
608.028	5105.21
611.965	8471.44
615.901	8916.07
619.834	8749.77
623.766	9595.5
627.696	8945.04
631.624	10384.6
635.551	10343.8
639.475	9758.02
643.398	10439
647.318	11157.6
651.237	7786.88
655.155	3922.52
659.07	1958.37
662.984	1153.65
666.895	759.375
670.805	506.018
674.713	301.181
678.62	160.463
682.524	116.775
686.427	32.034
690.328	4.471
694.227	53.191
698.124	52.321
702.02	31.964
705.913	33.087
709.805	44.682
713.695	17.212
717.584	28.812
721.47	65.206
725.355	166.066
729.238	326.506
733.119	587.209
736.998	930.586
740.876	1263.52
744.752	1321.99
748.626	909.637
752.498	654.946
756.368	409.995
760.237	289.276
764.104	207.418
767.969	131.548
771.832	145.958
775.693	98.68
779.553	139.184
783.411	117.476
787.267	152.556
791.122	139.43
794.974	136.102
798.825	129.574
802.674	142.851
806.522	138.939
810.367	99.846
814.211	107.586
818.053	130.199
821.893	90.749
825.732	75.275
829.568	76.762
833.403	131.982
837.236	77.25
841.068	114.634
844.898	125.019
848.726	169.355
852.552	190.187
856.376	200.073
860.199	180.294
864.02	153.976
867.839	123.371
871.656	58.441
875.472	16.2
879.286	13.444
883.098	10.625
886.909	28.99
890.717	49.579
894.524	18.477
898.33	65.628
902.133	53.042
905.935	26.634
909.735	2.588
913.533	20.331
917.33	11.362
921.124	7.986
924.918	8.211
928.709	40.029
932.499	47.19
936.286	46.35
940.073	85.734
943.857	60.266
947.64	97.768
951.421	127.385
955.2	163.252
958.978	182.077
962.753	204.392
966.527	303.665
970.3	390.641
974.071	396.502
977.84	581.363
981.607	710.448
985.372	891.688
989.136	1192.08
992.898	1601.63
996.659	2332.57
1000.42	3237.71
1004.17	3746.13
1007.93	3559.86
1011.68	3829.86
1015.43	5404.22
1019.18	6946.91
1022.93	5133.82
1026.68	3669.86
1030.42	3145.1
1034.17	3202.32
1037.91	3801.04
1041.65	4840.94
1045.39	7059.32
1049.12	11529.6
1052.86	21418.1
1056.59	40217.8
1060.33	51030.6
1064.06	32521.6
1067.78	15292.8
1071.51	8250.67
1075.23	5626.82
1078.96	4607.37
1082.68	4634.11
1086.4	5246.06
1090.12	6741.25
1093.83	8607.65
1097.55	12331.3
1101.26	16708.1
1104.97	13538.1
1108.68	7591.35
1112.39	4627.8
1116.1	3253.05
1119.8	2828.92
1123.5	3008.26
1127.2	3679.6
1130.9	5619.48
1134.6	9719.77
1138.3	10701.7
1141.99	6518.78
1145.69	3591.74
1149.38	2148.17
1153.07	1487.7
1156.76	1161.68
1160.44	969.991
1164.13	768.124
1167.81	695.621
1171.49	564.949
1175.17	474.533
1178.85	410.253
1182.52	345.413
1186.2	263.786
1189.87	201.974
1193.54	201.522
1197.21	133.005
1200.88	108.771
1204.55	89.562
1208.21	155.742
1211.88	285.877
1215.54	325.134
1219.2	418.033
1222.86	424.57
1226.51	375.362
1230.17	235.483
1233.82	105.512
1237.47	114.381
1241.12	75.674
1244.77	72.249
1248.42	40.637
1252.06	53.849
1255.71	77.694
1259.35	6.246
1262.99	2.495
1266.63	35.724
1270.26	18.715
1273.9	16.629
1277.53	11.655
1281.16	16.317
1284.8	4.349
1288.42	7.941
1292.05	19.675
1295.68	37.561
1299.3	12.887
1302.92	12.294
1306.55	41.764
1310.16	7.559
1313.78	17.456
1317.4	6.71
1321.01	27.937
1324.62	15.449
1328.24	6.825
1331.85	14.925
1335.45	18.818
1339.06	28.133
1342.66	72.957
1346.27	35.655
1349.87	16.229
1353.47	76.683
1357.07	48.03
1360.66	1.73
1364.26	10.392
1367.85	8.418
1371.44	26.376
1375.04	32.609
1378.62	23.144
1382.21	27.83
1385.8	67.412
1389.38	44.878
1392.96	49.536
1396.54	19.877
1400.12	66.779
1403.7	69.171
1407.28	56.62
1410.85	60.049
1414.42	93.076
1417.99	48.942
1421.56	46.901
1425.13	85.14
1428.7	39.385
1432.26	57.469
1435.83	84.428
1439.39	46.244
1442.95	57.905
1446.51	40.375
1450.06	53.129
1453.62	49.292
1457.17	81.29
1460.73	99.763
1464.28	108.298
1467.83	69.571
1471.37	103.997
1474.92	113.689
1478.46	47.238
1482.01	64.788
1485.55	49.87
1489.09	83.959
1492.63	81.629
1496.16	94.661
1499.7	81.892
1503.23	47.688
1506.76	61.382
1510.29	49.121
1513.82	43.625
1517.35	49.7
