Measurement: Raman, 514 nm, ccw, Raman Data Processed
Mineral: Lazulite
Rruff sample: R050110
Ideal chemistry: MgAl_2_(PO_4_)_2_(OH)_2_
Locality: Rapid Creek, Yukon Territory, Canada
Source: Rock Currier
Description: Azure-blue stubby crystals with complex terminations
Measured chemistry: (Mg_0.84_Fe_0.16_)Al_2.00_(P_1.00_O_4_)_2_(OH)_2_
Pin_id: L00348
Orientation: Laser parallel to a* (1 0 0). Fiducial mark perpendicular to laser is parallel to b [0 1 0]
Raman shift (cm-1)	intensity
81.521	0
85.706	191.959
89.89	811.996
94.071	2001.31
98.251	8460.77
102.428	8891.5
106.604	2485.48
110.777	4438.26
114.949	2267.44
119.119	477.628
123.286	156.954
127.452	41.144
131.615	67.799
135.777	44.203
139.937	286.094
144.094	300.037
148.25	398.834
152.403	203.695
156.555	359.514
160.705	80.421
164.853	244.627
168.998	1719.17
173.142	4424.98
177.284	1641.9
181.424	1383.77
185.562	5252.77
189.698	15779.3
193.831	10170.6
197.963	3421.33
202.093	1866.23
206.221	1594.93
210.347	1725.33
214.472	2573.53
218.594	6090.49
222.714	14647
226.832	12951.9
230.948	3644.24
235.063	1121.98
239.175	498.251
243.286	759.16
247.394	2012.55
251.501	7417.2
255.605	9681.92
259.708	3031.59
263.808	1514.71
267.907	1061.54
272.004	1013.62
276.099	1831.33
280.192	3802.85
284.283	3775.57
288.372	1352.64
292.459	217.82
296.544	66.749
300.627	337.969
304.709	319.206
308.788	144.975
312.865	88.576
316.941	1378.52
321.015	3684.72
325.086	2780.47
329.156	1513.27
333.224	1352.28
337.29	1441.76
341.354	1939.71
345.416	2710.26
349.476	2252.24
353.534	1524.34
357.591	1256.39
361.645	1139.13
365.698	973.013
369.748	1161.75
373.797	1747.47
377.844	2597.31
381.889	2113.34
385.932	1207.4
389.973	1062.48
394.012	1058.08
398.049	1020.83
402.084	1143.26
406.118	2861.45
410.15	12466.6
414.179	21488.2
418.207	5007.48
422.233	1840.26
426.257	2994.61
430.279	2429.55
434.299	861.106
438.318	481.305
442.334	395.111
446.349	329.498
450.361	428.471
454.372	716.967
458.381	1404.64
462.388	2079.27
466.394	2656.32
470.397	4546.61
474.398	9217.95
478.398	13885.2
482.396	8255.78
486.391	3104.26
490.385	1192.69
494.377	616.015
498.368	358.235
502.356	223.359
506.342	233.39
510.327	361.336
514.31	490.208
518.291	490.038
522.27	515.867
526.247	530.098
530.222	532.002
534.196	569.146
538.167	715.982
542.137	498.054
546.105	261.582
550.071	188.152
554.035	31.658
557.998	40.446
561.958	137.491
565.917	266.625
569.874	402.923
573.829	658.335
577.782	1213.82
581.733	1266.45
585.683	611.144
589.63	184.932
593.576	288.84
597.52	628.598
601.462	1787.41
605.402	3441.5
609.341	3617.34
613.277	4002.79
617.212	3416.1
621.145	3557.23
625.076	3779.54
629.006	4177.97
632.933	4609.12
636.859	4623.44
640.783	5608.68
644.705	8536.89
648.625	9655.32
652.543	6422.73
656.46	3551.6
660.375	1950.46
664.288	1323.08
668.199	862.183
672.108	538.444
676.016	278.685
679.921	89.916
683.825	44.15
687.727	98.823
691.628	153.831
695.526	97.778
699.423	64.118
703.318	117.193
707.211	209.115
711.102	539.274
714.992	688.491
718.879	646.971
722.765	850.13
726.649	1344.69
730.532	1970.71
734.412	3070.91
738.291	4483.47
742.168	5357.32
746.043	4423.72
749.916	2944.45
753.788	1813.15
757.658	1096.1
761.526	808.208
765.392	612.804
769.257	460.24
773.119	397.384
776.98	359.13
780.839	351.595
784.697	316.765
788.552	333.624
792.406	308.166
796.258	250.391
800.108	231.297
803.957	230.88
807.804	177.136
811.649	195.055
815.492	174.631
819.333	119.866
823.173	102.751
827.011	85.281
830.847	121.451
834.681	137.027
838.514	97.154
842.345	65.288
846.174	15.883
850.001	4.294
853.827	9.02
857.651	19.635
861.473	36.99
865.293	9.446
869.112	7.628
872.928	0.51
876.744	65.102
880.557	48.363
884.369	93.095
888.178	71.365
891.987	16.019
895.793	45.368
899.598	14.076
903.401	28.718
907.202	40.915
911.001	7.1
914.799	46.923
918.595	50.573
922.389	40.057
926.182	82.382
929.972	54.555
933.761	23.587
937.549	35.485
941.334	103.256
945.118	106.888
948.9	183.407
952.681	157.748
956.459	210.796
960.236	192.49
964.012	295.875
967.785	369.874
971.557	437.922
975.327	484.574
979.095	669.907
982.862	774.456
986.627	1072.83
990.39	1531.24
994.152	2200.99
997.912	3216.77
1001.67	4374.21
1005.43	4693.37
1009.18	4100.56
1012.93	3902.94
1016.68	4565.37
1020.43	4725.86
1024.18	3897.08
1027.93	3425.05
1031.67	3176.84
1035.42	3342.3
1039.16	3862.72
1042.9	5112.81
1046.63	7596.31
1050.37	12485.9
1054.11	23485.2
1057.84	39455.9
1061.57	39539.1
1065.3	21420
1069.03	10609.3
1072.75	6446.63
1076.47	4643.21
1080.2	4088.13
1083.92	3933.24
1087.64	4234.54
1091.36	4921.03
1095.07	6248.71
1098.79	9226.6
1102.5	10730.7
1106.21	7512.97
1109.92	4707.46
1113.62	3439.16
1117.33	3123.73
1121.04	3074.52
1124.74	3316.9
1128.44	4006.72
1132.14	5939.18
1135.83	8902.32
1139.53	9018.61
1143.22	6208.31
1146.92	4449.8
1150.61	3705.19
1154.3	3119.24
1157.98	2900.46
1161.67	2708.26
1165.35	2830.17
1169.04	3082.07
1172.72	3402.4
1176.4	3952.11
1180.07	4185.02
1183.75	3715.59
1187.42	2712.1
1191.1	1897.62
1194.77	1393.14
1198.44	1096.78
1202.1	1197.56
1205.77	1289.12
1209.43	1384.25
1213.1	1320.27
1216.76	1258.71
1220.42	1146.8
1224.07	993.939
1227.73	811.419
1231.38	646.97
1235.04	419.929
1238.69	322.907
1242.34	253.951
1245.99	106.651
1249.63	68.063
1253.28	28.282
1256.92	52.423
1260.56	25.496
1264.2	16.415
1267.84	30.11
1271.48	51.537
1275.11	20.359
1278.74	40.457
1282.38	69
1286.01	39.58
1289.63	87.518
1293.26	38.595
1296.89	9.458
1300.51	35.644
1304.13	4.516
1307.75	12.641
1311.37	25.046
1314.99	61.711
1318.6	16.695
1322.22	42.939
1325.83	7.477
1329.44	42.753
1333.05	82.785
1336.66	93.606
1340.26	47.179
1343.87	35.468
1347.47	89.526
1351.07	27.379
1354.67	12.025
1358.27	53.543
1361.86	69.654
1365.46	64.679
1369.05	126.562
1372.64	113.333
1376.23	111.153
1379.82	189.145
1383.41	115.261
1386.99	62.208
1390.57	96.981
1394.16	133.688
1397.74	181.603
1401.32	190.522
1404.89	262.557
1408.47	210.401
1412.04	396.2
1415.61	185.817
1419.18	136.338
1422.75	109.616
1426.32	75.19
1429.89	100.383
1433.45	85.409
1437.01	89.599
1440.58	105.224
1444.13	156.31
1447.69	144.143
1451.25	169.475
1454.81	178.34
1458.36	110.381
1461.91	68.136
1465.46	83.873
1469.01	40.688
1472.56	94.877
1476.1	110.253
1479.64	86.199
1483.19	131.123
1486.73	188.848
1490.27	138.52
1493.81	162.745
1497.34	151.119
1500.88	94.704
1504.41	83.365
1507.94	27.331
1511.47	29.433
1515	1.471
1518.53	0
