Measurement: Raman, 514 nm, ccw, Raman Data Processed
Mineral: Lazulite
Rruff sample: R060494
Ideal chemistry: MgAl_2_(PO_4_)_2_(OH)_2_
Locality: Champion mine, White Mountains, Mono County, California, USA
Source: Michael Scott
Description: Dark-blue coarsely crystalline mass
Measured chemistry: (Mg_0.67_Fe^2+^_0.33_)_Î£=1_Al_2.00_(P_1.00_O_4_)_2_(OH)_2_
Pin_id: M01007
Orientation: Laser parallel to c* (0 0 1). Fiducial mark perpendicular to laser is parallel to -a [-1 0 0]
Raman shift (cm-1)	intensity
127.141	0
132.073	80.6152
137.002	207.411
141.929	648.347
146.853	698.669
151.774	652.651
156.693	829.007
161.609	929.125
166.522	1928.55
171.433	3353.87
176.341	4423.4
181.246	7499.6
186.149	14015.9
191.049	26040.7
195.946	13344.7
200.841	3726.5
205.733	1856.56
210.623	1505.64
215.509	1657.63
220.394	1693.03
225.275	1243.32
230.154	371.489
235.03	64.4668
239.904	577.192
244.775	2126.53
249.643	4065.28
254.509	6909.38
259.372	2901.78
264.233	1212.45
269.09	848.353
273.946	558.839
278.798	547.532
283.648	337.214
288.495	135.278
293.34	265.136
298.182	117.244
303.021	115.125
307.858	419.682
312.692	1253.33
317.523	2283.76
322.352	3908.37
327.178	5048.83
332.002	7187.31
336.822	12172
341.641	18383.9
346.456	22016.9
351.269	14108.1
356.079	7244.44
360.887	5563.3
365.692	5769.04
370.495	8005.78
375.294	10888.5
380.092	10503.2
384.886	5477.78
389.678	2615.32
394.467	1505.78
399.254	921.154
404.038	683.606
408.819	931.459
413.598	1298.73
418.374	72.1968
423.148	154.651
427.919	130.333
432.687	113.722
437.453	48.3423
442.216	226.583
446.976	227.526
451.734	593.752
456.489	1218.47
461.241	1960
465.991	2646.57
470.739	3696.18
475.483	4868.62
480.225	3843.9
484.965	1479
489.701	385.937
494.435	196.698
499.167	329.294
503.896	428.754
508.622	925.091
513.346	1178.31
518.067	1467.93
522.785	1433.38
527.501	1405.24
532.214	1349.98
536.925	1262.62
541.633	961.813
546.338	634.482
551.041	427.435
555.741	366.047
560.439	614.144
565.134	510.013
569.826	645.929
574.515	760.496
579.203	784.361
583.887	340.996
588.569	202.648
593.248	452.498
597.925	1348.36
602.599	3012.25
607.27	4803.17
611.939	5772.28
616.605	5332.61
621.268	4694.28
625.929	5864.05
630.588	7502.84
635.244	7202.83
639.897	5249.93
644.547	3844.05
649.195	2327.35
653.84	1228.83
658.483	712.394
663.123	552.981
667.761	355.619
672.396	304.423
677.028	95.7188
681.658	33.522
686.285	116.948
690.909	123.474
695.531	17.1113
700.15	165.81
704.767	619.166
709.381	985.435
713.993	1516.55
718.601	2019.35
723.208	2795.36
727.811	4061.83
732.412	6212.68
737.011	8943.6
741.607	10788.9
746.2	9692.28
750.791	6740
755.379	4243.94
759.965	2829.11
764.547	1944.92
769.128	1391.05
773.706	1159.34
778.281	985.435
782.853	935.45
787.423	683.488
791.991	636.477
796.555	535.835
801.118	541.649
805.677	488.105
810.234	378.909
814.789	253.445
819.34	362.291
823.89	328.816
828.436	267.878
832.98	188.08
837.522	162.028
842.061	259.309
846.597	208.159
851.131	163.556
855.662	177.485
860.191	138.94
864.717	97.9014
869.24	100.364
873.761	95.3125
878.279	57.7295
882.795	15.5185
887.308	26.4282
891.818	72.6089
896.326	40.2534
900.832	50.1372
905.334	66.7329
909.835	41.0972
914.332	62.3477
918.827	10.9639
923.32	86.0723
927.81	31.0024
932.297	12.4951
936.782	68.4878
941.264	85.0586
945.744	58.686
950.221	23.2681
954.695	96.4941
959.167	18.4673
963.636	63.751
968.103	19.5767
972.567	108.888
977.029	204.283
981.488	173.395
985.944	487.084
990.398	673.654
994.849	1042.03
999.298	1478.74
1003.74	1930.13
1008.19	2233.21
1012.63	2485.33
1017.07	2997.68
1021.5	2925.08
1025.94	2882.89
1030.37	2872.24
1034.8	3285.88
1039.22	4266.38
1043.64	6798.63
1048.07	13277.5
1052.48	24170.3
1056.9	30491.2
1061.31	21365
1065.72	10697.2
1070.13	5921.73
1074.54	4151.13
1078.94	3449.73
1083.34	3211.17
1087.73	3388.11
1092.13	4516.1
1096.52	5455.99
1100.91	5830.43
1105.3	4243.54
1109.68	3477.99
1114.07	3252.92
1118.45	3593.07
1122.82	4153.18
1127.2	5684.25
1131.57	8186.76
1135.94	10391.3
1140.31	8131.11
1144.67	5388.08
1149.03	4029.98
1153.39	3438.1
1157.75	2987.82
1162.1	2643.89
1166.45	2617.34
1170.8	2316.29
1175.15	2075.91
1179.49	2026.73
1183.84	1847.26
1188.17	1498.44
1192.51	1378.85
1196.84	1272.16
1201.18	1512.99
1205.5	1662.41
1209.83	1910.22
1214.15	1731.72
1218.47	1598.01
1222.79	1273.59
1227.11	977.436
1231.42	522.248
1235.73	251.365
1240.04	132.454
1244.35	32.978
1248.65	66.1728
1252.95	21.2837
1257.25	70.7178
1261.55	1.02441
1265.84	26.3779
1270.13	65.9961
1274.42	28.9199
1278.7	72.272
1282.99	22.9873
1287.27	43.895
1291.55	104.041
1295.82	16.2129
1300.1	37.7695
1304.37	66.1265
1308.63	60.0171
1312.9	109.825
1317.16	192.416
1321.42	201.8
1325.68	160.005
1329.93	23.9922
1334.19	20.7651
1338.44	46.3325
1342.69	111.687
1346.93	24.6431
1351.17	204.165
1355.41	127.488
1359.65	49.5762
1363.89	127.41
1368.12	160.085
1372.35	95.2236
1376.58	114.596
1380.8	189.974
1385.03	174.152
1389.24	191.109
1393.46	121.643
1397.68	161.956
1401.89	123.136
1406.1	126.018
1410.31	170.061
1414.51	133.034
1418.71	206.273
1422.91	7.45703
1427.11	17.0425
1431.31	31.0889
1435.5	193.53
1439.69	214.747
1443.88	260.263
1448.06	355.668
1452.24	286.039
1456.42	294.776
1460.6	258.896
1464.78	227.024
1468.95	188.867
1473.12	142.247
1477.29	128.969
1481.45	123.142
1485.61	132.266
1489.77	12.3188
1493.93	131.852
1498.08	8.23779
1502.24	89.6196
1506.39	72.3794
1510.53	78.5923
