Measurement: Raman, 514 nm, ccw, Raman Data Processed
Mineral: Lazulite
Rruff sample: R060494
Ideal chemistry: MgAl_2_(PO_4_)_2_(OH)_2_
Locality: Champion mine, White Mountains, Mono County, California, USA
Source: Michael Scott
Description: Dark-blue coarsely crystalline mass
Measured chemistry: (Mg_0.67_Fe^2+^_0.33_)_Î£=1_Al_2.00_(P_1.00_O_4_)_2_(OH)_2_
Pin_id: M01822
Orientation: Laser parallel to a* (1 0 0). Fiducial mark perpendicular to laser is parallel to b [0 1 0]
Raman shift (cm-1)	intensity
124.674	0
129.608	19.7969
134.538	230.721
139.466	499.827
144.391	288.427
149.314	433.422
154.234	252.803
159.151	360.584
164.066	752.159
168.978	1266.49
173.887	1783.55
178.794	1689.96
183.698	3034.24
188.599	8669.2
193.498	12413.4
198.394	4581.07
203.287	2340.47
208.178	966.106
213.066	1029.69
217.952	1375.34
222.835	1760.72
227.715	984.53
232.593	594.781
237.468	308.394
242.34	653.312
247.21	1386.32
252.077	3881.27
256.941	3161.17
261.803	1258.04
266.662	687.881
271.518	685.784
276.372	1326.89
281.223	2144.17
286.072	1314.33
290.918	222.659
295.761	151.585
300.602	224.897
305.44	163.01
310.275	74.1709
315.108	106.568
319.938	873.104
324.765	1186.34
329.59	1298.35
334.412	2078.16
339.232	3128.8
344.049	5396.31
348.863	5083.7
353.675	2675
358.484	1807.74
363.29	1480.86
368.094	1746.26
372.895	2903.7
377.693	4546.18
382.489	3220.7
387.282	1720.23
392.073	1515.79
396.861	1075.38
401.646	762.025
406.429	1535
411.209	4860.45
415.987	4479.69
420.761	1003.41
425.534	954.233
430.303	552.045
435.07	78.7974
439.834	88.77
444.596	70.6172
449.355	43.5147
454.112	186.785
458.865	565.635
463.617	941.462
468.365	1433.26
473.111	2414.04
477.854	3754.8
482.595	2254.54
487.333	762.272
492.069	228.994
496.802	17.2891
501.532	114.413
506.259	197.153
510.984	334.957
515.707	449.826
520.426	549.758
525.144	630.754
529.858	725.138
534.57	723.922
539.279	792.418
543.986	736.792
548.69	406.364
553.391	459.432
558.09	581.788
562.786	673.356
567.48	788.381
572.171	904.488
576.859	914.268
581.545	881.493
586.228	543.826
590.909	428.199
595.587	716.835
600.262	1560.61
604.935	3271.35
609.605	4608.04
614.272	5819.75
618.937	5740.5
623.599	6019.25
628.259	5747.1
632.916	6107.1
637.57	5831.79
642.222	5808.86
646.871	5223.9
651.518	3325.91
656.162	1651.87
660.803	933.056
665.442	523.841
670.078	367.573
674.712	239.273
679.343	40.8589
683.971	22.7266
688.597	118.095
693.22	136.94
697.841	33.1777
702.459	98.105
707.074	186.573
711.687	385.71
716.297	420.536
720.905	564.165
725.51	805.844
730.112	1228.43
734.712	1794.91
739.309	2616.28
743.904	3086.62
748.496	2305.16
753.085	1611.9
757.672	910.648
762.256	696.911
766.838	548.93
771.417	409.079
775.993	387.034
780.567	424.214
785.139	397.332
789.707	375.709
794.273	325.08
798.837	401.717
803.398	313.665
807.956	298.544
812.512	268.412
817.065	248.04
821.615	275.172
826.163	199.479
830.709	225.437
835.252	181.804
839.792	214.314
844.329	220.483
848.864	313.82
853.397	270.756
857.927	298.299
862.454	222.448
866.979	130.208
871.501	42.5791
876.02	58.5361
880.537	42.0332
885.052	62.0312
889.564	24.4302
894.073	0.23584
898.579	104.56
903.083	9.77539
907.585	22.564
912.084	14.4102
916.58	49.2095
921.074	3.29492
925.565	28.041
930.054	19.1729
934.54	91.9834
939.023	46.0679
943.504	5.25928
947.982	6.04297
952.458	117.973
956.931	72.0229
961.402	9.82764
965.87	157.798
970.335	179.346
974.798	247.476
979.259	449.634
983.716	688.799
988.171	993.996
992.624	1443.24
997.074	2168.62
1001.52	2751.04
1005.97	2811.95
1010.41	3002.45
1014.85	3899.53
1019.29	4026.18
1023.72	2779.79
1028.15	2024.18
1032.58	2054.47
1037.01	2345.64
1041.43	3222.43
1045.86	5437.24
1050.28	11072.2
1054.69	20710.5
1059.11	22840.2
1063.52	13018.7
1067.93	6105.78
1072.33	3755.88
1076.74	2918.45
1081.14	2921.06
1085.54	3594.66
1089.93	4959.64
1094.33	6761.83
1098.72	9695.6
1103.11	8245.73
1107.49	4635.23
1111.88	2903.07
1116.26	2226.93
1120.63	2066.86
1125.01	2272.41
1129.38	3083.86
1133.76	4652.68
1138.12	4976.93
1142.49	3375.36
1146.85	2358.86
1151.21	1808.41
1155.57	1561.63
1159.93	1371.86
1164.28	1362.5
1168.63	1149.35
1172.98	1028.22
1177.32	985.949
1181.66	974.188
1186.01	923.011
1190.34	596.081
1194.68	572.28
1199.01	546.913
1203.34	640.248
1207.67	891.391
1211.99	783.553
1216.32	975.866
1220.63	836.051
1224.95	788.93
1229.27	500.645
1233.58	316.002
1237.89	149.126
1242.2	109.757
1246.5	4.26758
1250.8	4.23731
1255.1	49.207
1259.4	18.5977
1263.69	33.9116
1267.99	42.5273
1272.28	15.7095
1276.56	58.0063
1280.85	63.0063
1285.13	48.6919
1289.41	22.0283
1293.68	16.897
1297.96	8.70801
1302.23	6.08643
1306.5	6.33154
1310.77	6.08252
1315.03	5.23633
1319.29	51.0664
1323.55	128.653
1327.81	8.53467
1332.06	136.592
1336.31	94.3936
1340.56	21.9336
1344.81	135.189
1349.05	111.172
1353.29	38.8848
1357.53	121.313
1361.77	54.4853
1366	98.416
1370.23	121.115
1374.46	168.906
1378.69	184.656
1382.91	126.071
1387.13	222.72
1391.35	168.987
1395.57	82.897
1399.78	144.404
1403.99	86.4482
1408.2	85.6113
1412.41	127.244
1416.61	147.412
1420.82	136.627
1425.01	60.2324
1429.21	108.694
1433.4	69.4004
1437.59	66.3511
1441.78	173.182
1445.97	113.719
1450.15	84.5513
1454.33	69.4561
1458.51	189.721
1462.69	79.8667
1466.86	90.2002
1471.03	93.9507
1475.2	139.481
1479.37	60.8208
1483.53	56.604
1487.69	100.392
1491.85	114.661
1496.01	3.92432
1500.16	55.771
1504.31	59.3672
1508.46	128.494
1512.61	128.397
1516.75	116.017
1520.89	56.4355
1525.03	23.3032
1529.16	109.923
1533.3	0.19873
1537.43	87.0606
1541.56	0
