Measurement: Raman, 514 nm, ccw, Raman Data Processed
Mineral: Lazulite
Rruff sample: R060494
Ideal chemistry: MgAl_2_(PO_4_)_2_(OH)_2_
Locality: Champion mine, White Mountains, Mono County, California, USA
Source: Michael Scott
Description: Dark-blue coarsely crystalline mass
Measured chemistry: (Mg_0.67_Fe^2+^_0.33_)_Î£=1_Al_2.00_(P_1.00_O_4_)_2_(OH)_2_
Pin_id: M01551
Orientation: Laser parallel to (1 0 1). Fiducial mark perpendicular to laser is parallel to b [0 1 0]
Raman shift (cm-1)	intensity
133.306	0
138.234	54.635
143.16	51.791
148.083	23.2095
153.004	29.782
157.922	26.9002
162.837	78.8852
167.75	163.231
172.66	224.853
177.567	565.716
182.472	2630.13
187.374	5637.02
192.273	9888.31
197.17	3538.34
202.064	1018.11
206.956	211.439
211.845	158.304
216.731	294.535
221.614	684.378
226.495	764.983
231.373	386.405
236.249	256.921
241.122	463.404
245.992	1675.93
250.86	3217.51
255.725	4060.86
260.588	1496.57
265.447	1057.93
270.304	1780.89
275.159	3901.44
280.011	6440.97
284.86	5956.64
289.707	2580.24
294.55	927.17
299.392	385.824
304.23	95.2383
309.066	78.5942
313.9	416.788
318.731	987.738
323.559	1149.38
328.384	291.67
333.207	0.564697
338.027	1.01733
342.845	29.0252
347.66	0.374756
352.472	31.2219
357.282	129.534
362.089	568.45
366.893	1470.68
371.695	3140.28
376.494	5159.52
381.291	4682.52
386.084	2181.26
390.876	1129.3
395.664	1071.7
400.45	1938.43
405.234	8205.46
410.014	19491.8
414.792	26869.4
419.568	8446.34
424.341	4914.75
429.111	4141.56
433.879	1789.88
438.644	807.767
443.406	554.116
448.166	473.9
452.923	506.049
457.677	682.563
462.429	681.374
467.178	1016.44
471.925	2365.76
476.669	3835.32
481.41	3461.03
486.149	1527.3
490.885	513.36
495.619	242.056
500.349	103.936
505.078	49.0674
509.803	44.1748
514.526	112.498
519.247	30.3843
523.965	91.6187
528.68	224.688
533.392	365.856
538.102	569.112
542.81	456.446
547.514	287.849
552.216	163.214
556.916	72.2617
561.613	71.3174
566.307	116.29
570.998	60.7366
575.687	201.822
580.374	356.793
585.058	206.244
589.739	360.517
594.417	552.423
599.093	849.389
603.767	1861.51
608.437	3466.14
613.106	4840.25
617.771	3990.73
622.434	3754.32
627.094	4990.1
631.752	6963.71
636.407	8320.14
641.06	8964.52
645.709	9363.25
650.357	6981.29
655.001	3843.39
659.643	1811.17
664.283	967.232
668.92	598.557
673.554	392.709
678.186	220.657
682.815	79.4092
687.441	27.9429
692.065	74.8581
696.686	21.7664
701.305	26.2234
705.921	0.187744
710.534	6.5022
715.145	23.7014
719.753	22.6921
724.359	42.4285
728.962	113.124
733.562	105.418
738.16	103.335
742.755	84.9614
747.348	70.3223
751.938	77.4114
756.526	9.83984
761.111	106.45
765.693	50.3831
770.272	12.3274
774.85	64.0039
779.424	134.225
783.996	132.65
788.565	124.947
793.132	214.766
797.696	202.333
802.258	170.064
806.817	171.577
811.373	178.366
815.927	117.533
820.478	224.94
825.027	189.579
829.573	289.363
834.116	263.515
838.657	421.359
843.195	500.05
847.731	502.381
852.264	634.08
856.794	727.273
861.322	725.027
865.848	614.495
870.371	376.459
874.891	262.614
879.408	155.082
883.923	145.86
888.436	90.1499
892.946	153.48
897.453	66.2495
901.958	107.002
906.46	60.3398
910.959	18.5449
915.456	43.522
919.951	99.0942
924.443	2.64209
928.932	0.319336
933.418	10.0537
937.903	7.78711
942.384	24.4414
946.863	1.625
951.339	27.7061
955.813	137.265
960.284	46.3452
964.753	178.557
969.219	175.927
973.683	176.562
978.144	292.423
982.602	455.227
987.058	773.996
991.511	1208.29
995.962	1656.02
1000.41	2222.51
1004.86	2083.32
1009.3	1707.38
1013.74	1711.67
1018.18	1945.18
1022.61	1722.92
1027.05	1726.99
1031.47	1916.37
1035.9	2493.06
1040.33	4101.09
1044.75	7223.57
1049.17	14846.9
1053.59	29359.3
1058	38707.2
1062.41	25694.2
1066.82	11205.2
1071.23	5191.57
1075.64	3160.01
1080.04	2674.92
1084.44	3190.39
1088.83	4606.45
1093.23	7523.79
1097.62	12025.4
1102.01	12659.3
1106.4	7422.52
1110.78	3739.99
1115.16	2430.83
1119.54	1960.35
1123.92	2280.74
1128.29	3533.38
1132.66	6144.89
1137.03	7138.02
1141.4	4127.96
1145.76	2108.68
1150.12	1159.54
1154.48	859.605
1158.84	541.938
1163.19	372.889
1167.54	378.658
1171.89	177.888
1176.24	195.988
1180.58	78.4302
1184.92	12.1201
1189.26	38.7407
1193.59	25.4941
1197.93	93.7602
1202.26	47.1299
1206.59	102.648
1210.91	15.2793
1215.23	150.019
1219.56	154.908
1223.87	146.921
1228.19	87.9273
1232.5	157.583
1236.81	36.2197
1241.12	6.24219
1245.42	36.7895
1249.73	15.1841
1254.03	52.0332
1258.33	36.5142
1262.62	41.873
1266.91	80.4976
1271.2	9.78565
1275.49	72.9937
1279.78	185.313
1284.06	98.7944
1288.34	45.5185
1292.62	51.3984
1296.89	60.8247
1301.16	29.3599
1305.43	25.2383
1309.7	94.6294
1313.96	130.038
1318.23	144.027
1322.49	101.885
1326.74	188.984
1331	84.6655
1335.25	41.603
1339.5	99.3174
1343.75	56.4541
1347.99	120.533
1352.23	149.499
1356.47	67.3613
1360.71	33.0386
1364.94	98.8599
1369.18	32.7798
1373.41	26.6729
1377.63	33.2949
1381.86	64.7627
1386.08	55.0308
1390.3	16.083
1394.52	45.2231
1398.73	4.30811
1402.94	33.7632
1407.15	57.312
1411.36	49.8389
1415.56	6.70361
1419.76	49.4214
1423.96	23.9834
1428.16	82.6152
1432.36	133.122
1436.55	186.76
1440.74	265.494
1444.92	218.212
1449.11	387.841
1453.29	364.602
1457.47	324.932
1461.64	395.349
1465.82	237.908
1469.99	146.615
1474.16	241.015
1478.33	152.297
1482.49	144.493
1486.65	110.633
1490.81	148.379
1494.97	56.9473
1499.12	44.0732
1503.27	91.0244
1507.42	58.4853
1511.57	104.188
1515.71	84.3682
1519.86	60.4297
1523.99	67.624
1528.13	84.8174
1532.27	76.4717
1536.4	0.878418
1540.53	90.521
