Measurement: Raman, 514 nm, ccw, Raman Data Processed
Mineral: Lazulite
Rruff sample: R060494
Ideal chemistry: MgAl_2_(PO_4_)_2_(OH)_2_
Locality: Champion mine, White Mountains, Mono County, California, USA
Source: Michael Scott
Description: Dark-blue coarsely crystalline mass
Measured chemistry: (Mg_0.67_Fe^2+^_0.33_)_Î£=1_Al_2.00_(P_1.00_O_4_)_2_(OH)_2_
Pin_id: M01551
Orientation: Laser parallel to (1 0 1). Fiducial mark perpendicular to laser is parallel to b [0 1 0]
Raman shift (cm-1)	intensity
139.466	0
144.391	36.9126
149.314	71.3926
154.234	81.6458
159.151	108.748
164.066	923.824
168.978	1568.72
173.887	2972.04
178.794	3310.13
183.698	9125.44
188.599	15974.8
193.498	19258.3
198.394	5423.19
203.287	1603.11
208.178	926.696
213.066	819.515
217.952	1109.88
222.835	1375.45
227.715	919.26
232.593	142.144
237.468	132.236
242.34	906.599
247.21	2562.26
252.077	4774.23
256.941	4451.47
261.803	1363.97
266.662	688.702
271.518	570.654
276.372	674.818
281.223	777.782
286.072	491.668
290.918	22.821
295.761	6.93018
300.602	128.703
305.44	250.85
310.275	698.2
315.108	1541.49
319.938	2646.54
324.765	3494.21
329.59	4161.37
334.412	7047.94
339.232	12525.8
344.049	17731
348.863	16234.5
353.675	8459.08
358.484	4601.92
363.29	4077.76
368.094	5352.6
372.895	8093.48
377.693	10033.4
382.489	7145.35
387.282	3170.77
392.073	1408.36
396.861	698.399
401.646	448.496
406.429	557.713
411.209	946.14
415.987	721.109
420.761	55.0478
425.534	152
430.303	141.496
435.07	59.6121
439.834	56.1592
444.596	170.208
449.355	328.891
454.112	863.619
458.865	1555.37
463.617	2221.14
468.365	2715.91
473.111	3638.67
477.854	4125.41
482.595	2278.14
487.333	791.847
492.069	139.525
496.802	72.1758
501.532	79.7954
506.259	183.386
510.984	260.955
515.707	326.501
520.426	432.027
525.144	474.533
529.858	646.018
534.57	666.769
539.279	627.589
543.986	433.39
548.69	242.542
553.391	115.359
558.09	53.2024
562.786	133.958
567.48	97.0046
572.171	86.9265
576.859	129.36
581.545	149.029
586.228	73.7827
590.909	137.064
595.587	303.409
600.262	1154.82
604.935	2383.34
609.605	3946.03
614.272	4439.81
618.937	3653.73
623.599	4189.82
628.259	5716
632.916	6626.32
637.57	5235.82
642.222	3804.5
646.871	2348.53
651.518	1240.86
656.162	551.933
660.803	175.329
665.442	193.827
670.078	151.396
674.712	24.9673
679.343	15.4102
683.971	48.8777
688.597	50.706
693.22	17.9123
697.841	201.94
702.459	336.678
707.074	552.929
711.687	915.696
716.297	1345.01
720.905	2076.56
725.51	3066.44
730.112	4748.7
734.712	7327.88
739.309	9859.51
743.904	10156.8
748.496	7691.68
753.085	4868.7
757.672	3135.07
762.256	1963.01
766.838	1441.21
771.417	1026.26
775.993	795.354
780.567	613.041
785.139	593.989
789.707	498.318
794.273	428.387
798.837	390.737
803.398	306.942
807.956	273.273
812.512	234.845
817.065	241.648
821.615	187.728
826.163	120.578
830.709	168.097
835.252	84.6667
839.792	74.0383
844.329	138.173
848.864	131.057
853.397	152.679
857.927	140.033
862.454	128.13
866.979	46.9541
871.501	27.4785
876.02	24.6787
880.537	11.5649
885.052	17.7036
889.564	6.39722
894.073	16.9915
898.579	16.9036
903.083	14.544
907.585	6.98633
912.084	48.9785
916.58	7.1936
921.074	36.083
925.565	57.3533
930.054	25.8774
934.54	29.6973
939.023	13.1619
943.504	50.3386
947.982	37.3818
952.458	38.9363
956.931	60.4722
961.402	117.084
965.87	124.699
970.335	69.1287
974.798	191.463
979.259	209.751
983.716	308.947
988.171	413.248
992.624	533.137
997.074	760.203
1001.52	958.464
1005.97	1327.74
1010.41	1701.72
1014.85	2240.34
1019.29	2563.54
1023.72	1963.86
1028.15	2030.14
1032.58	1847.62
1037.01	2348.17
1041.43	3435.03
1045.86	6099.7
1050.28	12316.1
1054.69	21581.7
1059.11	23356.4
1063.52	13527.5
1067.93	6033.43
1072.33	3175.34
1076.74	2204.24
1081.14	2030.61
1085.54	2002.83
1089.93	2291.48
1094.33	2631.37
1098.72	2970.47
1103.11	2611.79
1107.49	1869.32
1111.88	1656.05
1116.26	1648.47
1120.63	1962.93
1125.01	2722.72
1129.38	4315.64
1133.76	7220.13
1138.12	7455.45
1142.49	4603.28
1146.85	2597.91
1151.21	1859.96
1155.57	1476.45
1159.93	1266.07
1164.28	1132.2
1168.63	965.498
1172.98	1062.84
1177.32	953.421
1181.66	975.69
1186.01	773.758
1190.34	634.165
1194.68	500.665
1199.01	436.91
1203.34	485.359
1207.67	535.74
1211.99	649.943
1216.32	506.917
1220.63	455.36
1224.95	369.548
1229.27	260.488
1233.58	165.934
1237.89	56.8765
1242.2	11.3501
1246.5	14.8579
1250.8	24.6589
1255.1	50.8323
1259.4	36.6501
1263.69	51.9426
1267.99	26.908
1272.28	58.8442
1276.56	68.5596
1280.85	47.8218
1285.13	2.56177
1289.41	13.7036
1293.68	55.0227
1297.96	84.6655
1302.23	2.20361
1306.5	11.8076
1310.77	41.2918
1315.03	12.3284
1319.29	65.895
1323.55	87.9397
1327.81	126.835
1332.06	61.615
1336.31	53.2634
1340.56	66.7144
1344.81	46.0166
1349.05	145.154
1353.29	58.1377
1357.53	36.979
1361.77	106.691
1366	120.282
1370.23	113.531
1374.46	65.2827
1378.69	53.5791
1382.91	95.5222
1387.13	132.419
1391.35	165.471
1395.57	62.7534
1399.78	63.563
1403.99	119.721
1408.2	4.40796
1412.41	131.06
1416.61	109.651
1420.82	12.6233
1425.01	112.973
1429.21	75.1826
1433.4	75.467
1437.59	129.882
1441.78	85.529
1445.97	205.584
1450.15	121.148
1454.33	230.508
1458.51	189.399
1462.69	47.9851
1466.86	80.019
1471.03	132.126
1475.2	116.58
1479.37	164.407
1483.53	78.1099
1487.69	69.3115
1491.85	102.048
1496.01	106.126
1500.16	100.573
1504.31	78.7766
1508.46	118.708
1512.61	56.3108
1516.75	14.8855
1520.89	35.8481
1525.03	166.122
1529.16	1.14722
1533.3	0
