Measurement: Raman, 514 nm, ccw, Raman Data Processed
Mineral: Lazulite
Rruff sample: R060494
Ideal chemistry: MgAl_2_(PO_4_)_2_(OH)_2_
Locality: Champion mine, White Mountains, Mono County, California, USA
Source: Michael Scott
Description: Dark-blue coarsely crystalline mass
Measured chemistry: (Mg_0.67_Fe^2+^_0.33_)_Î£=1_Al_2.00_(P_1.00_O_4_)_2_(OH)_2_
Pin_id: M01822
Orientation: Laser parallel to a* (1 0 0). Fiducial mark perpendicular to laser is parallel to b [0 1 0]
Raman shift (cm-1)	intensity
128.374	0
133.306	21.2588
138.234	73.6216
143.16	20.0537
148.083	80.9805
153.004	109.932
157.922	14.9751
162.837	97.2949
167.75	254.075
172.66	486.182
177.567	1012.14
182.472	3496.84
187.374	9849.1
192.273	17647.2
197.17	7352.19
202.064	2073.18
206.956	485.327
211.845	106.157
216.731	480.323
221.614	1247.25
226.495	1250.18
231.373	463.526
236.249	363.106
241.122	779.852
245.992	2208.89
250.86	6044.44
255.725	6943.22
260.588	2167.72
265.447	1442.92
270.304	2474.81
275.159	5312.62
280.011	9435.76
284.86	7944.24
289.707	3155.31
294.55	1057.59
299.392	216.498
304.23	68.5088
309.066	108.832
313.9	249.325
318.731	1126.19
323.559	1114.67
328.384	283.719
333.207	48.6997
338.027	42.3164
342.845	71.7974
347.66	62.7319
352.472	126.16
357.282	272.092
362.089	673.518
366.893	1870.18
371.695	4158.84
376.494	7350.38
381.291	6548.77
386.084	2884.57
390.876	1478.85
395.664	1214.57
400.45	2312.73
405.234	8387.31
410.014	24324.4
414.792	31248
419.568	9113.23
424.341	12428.4
429.111	4780.23
433.879	1858.58
438.644	729.569
443.406	316.378
448.166	381.782
452.923	355.005
457.677	512.201
462.429	783.045
467.178	1739.25
471.925	4116.8
476.669	7366.25
481.41	5773.05
486.149	2192.62
490.885	895.441
495.619	371.823
500.349	75.5068
505.078	91.5264
509.803	75.5801
514.526	33.1328
519.247	69.9468
523.965	245.982
528.68	428.246
533.392	729.722
538.102	843.395
542.81	789.252
547.514	513.896
552.216	321.007
556.916	288.627
561.613	345.768
566.307	255.191
570.998	294.066
575.687	229.561
580.374	289.699
585.058	287.191
589.739	496.922
594.417	707.683
599.093	1518.09
603.767	3103.78
608.437	6116.36
613.106	8905.81
617.771	7224.27
622.434	6674.67
627.094	8782.01
631.752	12735.4
636.407	15082.5
641.06	16064.3
645.709	15962.1
650.357	11979.4
655.001	5494.03
659.643	2798.7
664.283	1709.64
668.92	803.265
673.554	516.523
678.186	367.396
682.815	113.003
687.441	77.8887
692.065	19.3291
696.686	13.9678
701.305	61.4199
705.921	42.0161
710.534	162.492
715.145	35.9385
719.753	10.1025
724.359	72.9502
728.962	48.9502
733.562	82.1455
738.16	201.74
742.755	229.794
747.348	248.318
751.938	142.315
756.526	89.0635
761.111	77.8276
765.693	76.2437
770.272	92.437
774.85	216.035
779.424	187.458
783.996	358.962
788.565	283.677
793.132	293.35
797.696	379.036
802.258	453.731
806.817	276.121
811.373	358.63
815.927	350.573
820.478	365.967
825.027	448.798
829.573	569.707
834.116	581.86
838.657	740.726
843.195	979.983
847.731	1148.48
852.264	1115.69
856.794	1197.65
861.322	961.629
865.848	851.594
870.371	543.184
874.891	302.128
879.408	168.992
883.923	145.58
888.436	105.657
892.946	6.96094
897.453	82.1416
901.958	29.0864
906.46	49.272
910.959	112.001
915.456	96.2954
919.951	54.9531
924.443	51.4722
928.932	8.1709
933.418	17.3364
937.903	12.1016
942.384	32.1065
946.863	64.3672
951.339	68.7002
955.813	190.127
960.284	118.705
964.753	333.514
969.219	318.685
973.683	500.372
978.144	886.571
982.602	1180.07
987.058	1745.88
991.511	2830.32
995.962	4113.49
1000.41	4950.28
1004.86	4484.61
1009.3	3587.54
1013.74	3289.93
1018.18	3339.76
1022.61	2866.99
1027.05	2756.83
1031.47	3149.01
1035.9	4060.85
1040.33	6412.06
1044.75	11490.4
1049.17	23322.9
1053.59	44888
1058	54717.6
1062.41	34164.4
1066.82	15023.3
1071.23	7565.86
1075.64	5025.84
1080.04	4494.38
1084.44	5143.47
1088.83	7484.11
1093.23	12204
1097.62	19455.1
1102.01	20030.4
1106.4	11818.2
1110.78	6080.3
1115.16	4173.2
1119.54	3178.62
1123.92	3400.68
1128.29	4733.45
1132.66	7707.32
1137.03	8312.48
1141.4	5050.94
1145.76	2802.65
1150.12	1792.6
1154.48	1387.99
1158.84	1259.63
1163.19	1114.66
1167.54	900.454
1171.89	748.005
1176.24	548.086
1180.58	541.492
1184.92	251.642
1189.26	288.684
1193.59	209.548
1197.93	204.448
1202.26	174.036
1206.59	331.852
1210.91	386.33
1215.23	478.906
1219.56	449.894
1223.87	368.01
1228.19	346.996
1232.5	106.986
1236.81	51.4692
1241.12	29.7119
1245.42	59.9434
1249.73	74.7466
1254.03	34.606
1258.33	32.6567
1262.62	96.7139
1266.91	55.4473
1271.2	56.1289
1275.49	55.3101
1279.78	40.7769
1284.06	2.24805
1288.34	7.82373
1292.62	44.0664
1296.89	26.646
1301.16	0.171875
1305.43	17.4917
1309.7	54.7915
1313.96	24.7949
1318.23	14.4492
1322.49	113.052
1326.74	32.2783
1331	117.218
1335.25	102.887
1339.5	96.2969
1343.75	85.4287
1347.99	68.2617
1352.23	156.805
1356.47	126.088
1360.71	109.225
1364.94	111.343
1369.18	138.642
1373.41	144.9
1377.63	178.685
1381.86	183.312
1386.08	221.473
1390.3	48.8159
1394.52	48.606
1398.73	105.662
1402.94	86.3979
1407.15	151.261
1411.36	119.973
1415.56	126.508
1419.76	116.613
1423.96	129.222
1428.16	183.183
1432.36	155.306
1436.55	157.22
1440.74	155.866
1444.92	128.984
1449.11	159.831
1453.29	128.503
1457.47	181.228
1461.64	232.812
1465.82	210.026
1469.99	253.428
1474.16	134.927
1478.33	219.392
1482.49	171.633
1486.65	216.191
1490.81	224.801
1494.97	155.625
1499.12	127.62
1503.27	96.7329
1507.42	58.1289
1511.57	132.278
1515.71	111.215
1519.86	146.987
1523.99	71.6611
1528.13	171.682
1532.27	173.591
1536.4	43.7002
1540.53	56.6885
1544.65	0.334961
