Measurement: Raman, 514 nm, ccw, Raman Data Processed
Mineral: Lazulite
Rruff sample: R050110
Ideal chemistry: MgAl_2_(PO_4_)_2_(OH)_2_
Locality: Rapid Creek, Yukon Territory, Canada
Source: Rock Currier
Description: Azure-blue stubby crystals with complex terminations
Measured chemistry: (Mg_0.84_Fe_0.16_)Al_2.00_(P_1.00_O_4_)_2_(OH)_2_
Pin_id: L00348
Orientation: Laser parallel to a* (1 0 0). Fiducial mark perpendicular to laser is parallel to b [0 1 0]
Raman shift (cm-1)	intensity
84.311	0
88.496	107.01
92.678	1407.6
96.858	5821.68
101.036	15098.7
105.212	4458.47
109.387	4317.91
113.559	7667.79
117.729	1469.85
121.897	228.077
126.063	138.84
130.228	37.897
134.39	113.748
138.55	396.896
142.709	583.39
146.865	914.548
151.019	814.861
155.171	786.689
159.322	387.218
163.47	633.122
167.617	1924.44
171.761	6049.95
175.904	4366.51
180.044	1988.93
184.183	4523.09
188.319	14500.7
192.454	17669.3
196.586	4982.56
200.717	2635.99
204.846	2599.59
208.972	2829.11
213.097	3544.52
217.22	7045.79
221.341	18268.8
225.46	26756.4
229.577	9367.61
233.692	2689.62
237.805	1312.25
241.916	1079.13
246.025	1834.46
250.132	7261.78
254.237	15811.7
258.34	6607.98
262.442	2604.73
266.541	1947.57
270.639	1659.6
274.734	2304.67
278.828	4543.66
282.919	5881.21
287.009	2871.51
291.097	829.603
295.183	50.991
299.266	277.105
303.348	370.067
307.428	360.184
311.507	148.693
315.583	1000.7
319.657	3835.21
323.729	4423.26
327.8	2029.89
331.868	1629.32
335.935	1639.13
339.999	1822.36
344.062	2411.99
348.123	2461.05
352.182	1773.54
356.239	1524.48
360.294	1515.28
364.347	1304.91
368.398	908.093
372.448	730.162
376.495	671.312
380.54	595.548
384.584	595.239
388.626	717.523
392.666	885.112
396.704	891.768
400.74	1085.21
404.774	2275.11
408.806	8971.78
412.836	26113.3
416.865	9076.26
420.891	1946.76
424.916	2559.76
428.939	3436.67
432.959	1475.65
436.978	769.971
440.996	515.584
445.011	381.367
449.024	478.659
453.036	554.599
457.045	986.6
461.053	1760.42
465.059	2950.54
469.063	5337.4
473.065	11077.9
477.065	20326.1
481.063	16519.5
485.06	6870.72
489.054	2687.78
493.047	1183.69
497.038	726.435
501.027	536.031
505.014	577.485
508.999	676.806
512.982	753.006
516.964	837.098
520.944	974.127
524.921	1037.2
528.897	874.463
532.871	848.671
536.844	943.74
540.814	938.025
544.783	591.531
548.749	222.909
552.714	24.444
556.677	6.862
560.638	161.837
564.597	293.597
568.555	430.494
572.511	498.456
576.464	678.47
580.416	1036.56
584.366	346.731
588.315	44.041
592.261	136.921
596.206	61.821
600.148	740.877
604.089	1912.52
608.028	2099.25
611.965	1866.81
615.901	1700.24
619.834	1660.5
623.766	1859.55
627.696	2481.67
631.624	2724.94
635.551	2602.59
639.475	3754.18
643.398	7012.71
647.318	10866.2
651.237	9491.69
655.155	5613.5
659.07	3069.38
662.984	2026.25
666.895	1397.6
670.805	934.067
674.713	579.643
678.62	249.48
682.524	28.543
686.427	127.979
690.328	191.042
694.227	75.917
698.124	61.586
702.02	191.163
705.913	425.157
709.805	722.903
713.695	1019.95
717.584	1225.93
721.47	1365.64
725.355	1924.34
729.238	2789.74
733.119	4475.97
736.998	6470.19
740.876	8035.87
744.752	7619.27
748.626	5355.89
752.498	3259.41
756.368	2055.07
760.237	1392.43
764.104	942.725
767.969	776.49
771.832	621.713
775.693	565.729
779.553	511.451
783.411	536.596
787.267	490.366
791.122	382.768
794.974	339.801
798.825	327.463
802.674	357.753
806.522	200.667
810.367	203.193
814.211	247.331
818.053	225.079
821.893	167.423
825.732	142.153
829.568	127.869
833.403	47.96
837.236	92.056
841.068	103.758
844.898	45.272
848.726	25.33
852.552	77.097
856.376	42.555
860.199	52.613
864.02	32.69
867.839	13.376
871.656	51.45
875.472	59.922
879.286	12.065
883.098	5.28
886.909	27.9
890.717	11.655
894.524	61.9
898.33	15.669
902.133	29.706
905.935	11.003
909.735	9.878
913.533	38.231
917.33	33.878
921.124	53.285
924.918	109.467
928.709	57.434
932.499	151.187
936.286	126.737
940.073	88.097
943.857	99.275
947.64	148.278
951.421	174.116
955.2	243.795
958.978	198.823
962.753	247.722
966.527	250.497
970.3	319.82
974.071	408.323
977.84	526.655
981.607	661.739
985.372	837.962
989.136	1053.69
992.898	1563.61
996.659	2255.13
1000.42	3270.55
1004.17	3993.51
1007.93	3694.35
1011.68	3452.95
1015.43	3543.56
1019.18	3843.34
1022.93	3688.88
1026.68	3465.5
1030.42	3467.73
1034.17	3506.27
1037.91	3927.82
1041.65	4824.39
1045.39	6801.28
1049.12	11259.5
1052.86	20124.3
1056.59	36318.3
1060.33	43710.1
1064.06	27733.5
1067.78	13585.3
1071.51	7537.7
1075.23	5328.56
1078.96	4225.29
1082.68	3705.29
1086.4	3359.66
1090.12	3337.22
1093.83	3962.95
1097.55	5382.87
1101.26	7163.97
1104.97	6109.26
1108.68	4102.74
1112.39	3270.41
1116.1	2945.29
1119.8	2934.7
1123.5	3134.62
1127.2	3603.78
1130.9	4671.24
1134.6	7115.89
1138.3	8469.47
1141.99	6654.01
1145.69	5185.96
1149.38	4405.73
1153.07	4092.27
1156.76	3974.91
1160.44	3935.01
1164.13	3904.24
1167.81	4078.68
1171.49	4445.33
1175.17	5228.45
1178.85	6076.05
1182.52	6060.32
1186.2	4717.11
1189.87	3404.24
1193.54	2430.27
1197.21	1893.16
1200.88	1579.73
1204.55	1496.65
1208.21	1749
1211.88	1884.69
1215.54	1735.82
1219.2	1639.52
1222.86	1453.61
1226.51	1016.98
1230.17	731.679
1233.82	464.973
1237.47	359.269
1241.12	279.64
1244.77	152.213
1248.42	150.594
1252.06	149.029
1255.71	46.506
1259.35	13.958
1262.99	43.665
1266.63	45.553
1270.26	3.325
1273.9	47.893
1277.53	23.737
1281.16	67.291
1284.8	18.957
1288.42	10.775
1292.05	21.767
1295.68	147.025
1299.3	73.573
1302.92	40.391
1306.55	58.576
1310.16	13.155
1313.78	52.361
1317.4	64.399
1321.01	2.089
1324.62	35.561
1328.24	64.552
1331.85	58.862
1335.45	70.457
1339.06	19.369
1342.66	66.415
1346.27	86.96
1349.87	97.223
1353.47	60.246
1357.07	176.036
1360.66	48.615
1364.26	37.006
1367.85	78.247
1371.44	47.506
1375.04	108.657
1378.62	133.242
1382.21	176.387
1385.8	220.356
1389.38	230.137
1392.96	190.207
1396.54	234.639
1400.12	164.695
1403.7	180.876
1407.28	201.798
1410.85	248.344
1414.42	176.538
1417.99	201.16
1421.56	267.754
1425.13	253.179
1428.7	188.678
1432.26	138.947
1435.83	102.515
1439.39	27.036
1442.95	17.401
1446.51	72.32
1450.06	71.731
1453.62	86.755
1457.17	145.36
1460.73	202.228
1464.28	220.199
1467.83	152.679
1471.37	149.811
1474.92	118.41
1478.46	107.202
1482.01	109.776
1485.55	25.923
1489.09	53.392
1492.63	101.728
1496.16	195.967
1499.7	121.987
1503.23	174.753
1506.76	195.861
1510.29	146.208
1513.82	111.163
1517.35	61.769
