Measurement: Raman, 514 nm, ccw, Raman Data Processed
Mineral: Lazulite
Rruff sample: R050110
Ideal chemistry: MgAl_2_(PO_4_)_2_(OH)_2_
Locality: Rapid Creek, Yukon Territory, Canada
Source: Rock Currier
Description: Azure-blue stubby crystals with complex terminations
Measured chemistry: (Mg_0.84_Fe_0.16_)Al_2.00_(P_1.00_O_4_)_2_(OH)_2_
Pin_id: L00471
Orientation: Laser parallel to -b* (0 -1 0). Fiducial mark perpendicular to laser is parallel to -c [0 0 -1]
Raman shift (cm-1)	intensity
80.125	0
84.311	64.212
88.496	117.252
92.678	918.402
96.858	3203.88
101.036	7401.44
105.212	2633.19
109.387	1093.69
113.559	1328.52
117.729	723.548
121.897	172.22
126.063	60.742
130.228	104.135
134.39	13.709
138.55	89.722
142.709	114.652
146.865	181.546
151.019	173.913
155.171	131.156
159.322	37.625
163.47	25.027
167.617	460.35
171.761	1484.64
175.904	1076.8
180.044	676.756
184.183	2354.42
188.319	8354.21
192.454	11681.6
196.586	3133.47
200.717	1106.47
204.846	786.209
208.972	683.375
213.097	925.533
217.22	2138.7
221.341	5498.81
225.46	6914.71
229.577	2472.4
233.692	590.907
237.805	156.259
241.916	95.555
246.025	709.919
250.132	3654.4
254.237	7535.56
258.34	3231.67
262.442	1040.39
266.541	810.632
270.639	910.3
274.734	1951.05
278.828	4399.19
282.919	6333.95
287.009	3637.52
291.097	1249.99
295.183	342.096
299.266	19.386
303.348	138.369
307.428	221.689
311.507	55.005
315.583	591.007
319.657	2356.43
323.729	2608.53
327.8	1066.97
331.868	633.702
335.935	555.235
339.999	672.556
344.062	794.779
348.123	765.88
352.182	527.269
356.239	499.327
360.294	535.433
364.347	701.829
368.398	944.143
372.448	1828.44
376.495	3655.82
380.54	4026.34
384.584	2028.97
388.626	1028.64
392.666	826.062
396.704	718.732
400.74	1019.26
404.774	2601.27
408.806	10897.6
412.836	33424.6
416.865	16668.3
420.891	4838.48
424.916	4609.89
428.939	4920.48
432.959	2105.7
436.978	991.927
440.996	663.379
445.011	486.627
449.024	522.681
453.036	749.556
457.045	1144.91
461.053	1642.62
465.059	1815.27
469.063	2697.99
473.065	5189.7
477.065	9137.99
481.063	7631.96
485.06	3426.9
489.054	1298.96
493.047	619.021
497.038	263.992
501.027	156.87
505.014	106.65
508.999	95.314
512.982	147.854
516.964	200.304
520.944	200.223
524.921	246.431
528.897	296.068
532.871	411.429
536.844	460.083
540.814	444.924
544.783	404.17
548.749	175.947
552.714	67.436
556.677	26.979
560.638	49.394
564.597	51.645
568.555	152.788
572.511	126.795
576.464	53.225
580.416	23.574
584.366	7.25
588.315	50.8
592.261	100.739
596.206	249.082
600.148	602.863
604.089	1364.53
608.028	2866.12
611.965	4959.65
615.901	4293.1
619.834	2762.62
623.766	2784.63
627.696	4096.12
631.624	6162.1
635.551	6696.13
639.475	7221.22
643.398	9074.33
647.318	10767.4
651.237	7946.41
655.155	4353.78
659.07	2324.37
662.984	1399.89
666.895	845.666
670.805	554.427
674.713	342.599
678.62	168.562
682.524	75.825
686.427	61.672
690.328	87.976
694.227	14.062
698.124	27.695
702.02	13.111
705.913	28.546
709.805	182.56
713.695	259.255
717.584	326.018
721.47	401.206
725.355	559.334
729.238	798.125
733.119	1444.71
736.998	2128.32
740.876	2584.26
744.752	2491.56
748.626	1780.76
752.498	1082.71
756.368	717.839
760.237	478.676
764.104	334.953
767.969	240.656
771.832	213.26
775.693	237.465
779.553	162.663
783.411	189.441
787.267	165.996
791.122	134.323
794.974	82.423
798.825	131.288
802.674	116.925
806.522	90.33
810.367	94.491
814.211	71.423
818.053	153.124
821.893	117.625
825.732	48.919
829.568	56.956
833.403	59.734
837.236	63.749
841.068	121.828
844.898	164.122
848.726	153.178
852.552	190.313
856.376	227.08
860.199	281.834
864.02	248.07
867.839	218.356
871.656	93.612
875.472	35.781
879.286	34.853
883.098	31.792
886.909	58.523
890.717	74.008
894.524	21.956
898.33	70.15
902.133	111.52
905.935	95.312
909.735	99.487
913.533	27.271
917.33	74.916
921.124	3.826
924.918	35.318
928.709	22.064
932.499	13.751
936.286	44.318
940.073	6.87
943.857	55.395
947.64	51.637
951.421	149.184
955.2	176.335
958.978	171.408
962.753	154.103
966.527	248.22
970.3	335.632
974.071	481.208
977.84	583.039
981.607	752.488
985.372	985.119
989.136	1379.4
992.898	2003.58
996.659	3251.2
1000.42	4529.33
1004.17	5015.8
1007.93	3936.62
1011.68	2774.65
1015.43	2338.89
1019.18	2271.35
1022.93	2262.96
1026.68	2411.68
1030.42	2576.43
1034.17	2856.28
1037.91	3520.29
1041.65	4572.4
1045.39	6853.4
1049.12	11267
1052.86	20719.5
1056.59	38508.1
1060.33	46357.6
1064.06	28987.5
1067.78	13828.7
1071.51	7475.69
1075.23	5055.97
1078.96	4024.44
1082.68	3565.93
1086.4	3576.84
1090.12	4110.95
1093.83	6040.25
1097.55	9781.76
1101.26	13387.5
1104.97	10975.4
1108.68	6487.49
1112.39	4214.09
1116.1	3192.63
1119.8	2880.64
1123.5	3359.58
1127.2	3714.88
1130.9	5387.13
1134.6	8733.66
1138.3	9679.33
1141.99	6314.61
1145.69	3964.3
1149.38	2812.51
1153.07	2346.01
1156.76	2103.32
1160.44	2059.53
1164.13	1917.64
1167.81	1898.25
1171.49	1901.42
1175.17	2185.66
1178.85	2397.05
1182.52	2341.32
1186.2	1851.6
1189.87	1343.75
1193.54	899.592
1197.21	722.396
1200.88	549.318
1204.55	591.645
1208.21	709.15
1211.88	841.537
1215.54	778.459
1219.2	663.958
1222.86	507.538
1226.51	429.992
1230.17	287.943
1233.82	185.362
1237.47	170.922
1241.12	126.736
1244.77	141.708
1248.42	142.731
1252.06	166.473
1255.71	70.167
1259.35	23.314
1262.99	36.305
1266.63	15.543
1270.26	34.191
1273.9	94.095
1277.53	45.86
1281.16	54.395
1284.8	39.88
1288.42	39.104
1292.05	31.335
1295.68	68.765
1299.3	71.435
1302.92	32.332
1306.55	0.481
1310.16	116.107
1313.78	69.51
1317.4	67.632
1321.01	64.489
1324.62	7.945
1328.24	108.62
1331.85	69.586
1335.45	0.191
1339.06	41.775
1342.66	109.181
1346.27	114.403
1349.87	134.427
1353.47	143.341
1357.07	90.002
1360.66	74.503
1364.26	5.132
1367.85	60.085
1371.44	6.488
1375.04	90.139
1378.62	133.861
1382.21	192.124
1385.8	186.715
1389.38	246.155
1392.96	137.135
1396.54	153.805
1400.12	70.186
1403.7	57.769
1407.28	84.769
1410.85	201.816
1414.42	195.958
1417.99	225.767
1421.56	235.454
1425.13	294.495
1428.7	167.741
1432.26	135.423
1435.83	77.572
1439.39	109.478
1442.95	85.561
1446.51	106.646
1450.06	106.484
1453.62	142.201
1457.17	231.459
1460.73	259.168
1464.28	299.955
1467.83	274.292
1471.37	221.262
1474.92	242.225
1478.46	202.598
1482.01	87.214
1485.55	29.856
1489.09	186.82
1492.63	115.665
1496.16	197.606
1499.7	254.578
1503.23	214.398
1506.76	251.28
1510.29	203.062
1513.82	132.445
1517.35	93.817
1520.88	4.367
