Measurement: Raman, 514 nm, ccw, Raman Data Processed
Mineral: Lazulite
Rruff sample: R060494
Ideal chemistry: MgAl_2_(PO_4_)_2_(OH)_2_
Locality: Champion mine, White Mountains, Mono County, California, USA
Source: Michael Scott
Description: Dark-blue coarsely crystalline mass
Measured chemistry: (Mg_0.67_Fe^2+^_0.33_)_Î£=1_Al_2.00_(P_1.00_O_4_)_2_(OH)_2_
Pin_id: M01007
Orientation: Laser parallel to c* (0 0 1). Fiducial mark perpendicular to laser is parallel to -a [-1 0 0]
Raman shift (cm-1)	intensity
146.853	0
151.774	90.6338
156.693	96.7031
161.609	826.052
166.522	3006.74
171.433	4752.63
176.341	4420.67
181.246	5931.54
186.149	10410.4
191.049	15928.3
195.946	8787.13
200.841	4002.42
205.733	3553.83
210.623	5678.95
215.509	11537.2
220.394	15715
225.275	16140.3
230.154	6810.59
235.03	2963.01
239.904	2839.64
244.775	6671.84
249.643	10658
254.509	13231.7
259.372	5682.5
264.233	2973.47
269.09	2753.25
273.946	3987.95
278.798	4792.65
283.648	4132.59
288.495	1390.82
293.34	12.8975
298.182	437.669
303.021	555.712
307.858	199.453
312.692	746.874
317.523	1845.47
322.352	2850.79
327.178	2249.64
332.002	2235.84
336.822	2434.28
341.641	2998.99
346.456	3039.35
351.269	2459.67
356.079	2135.13
360.887	1829.92
365.692	1608.99
370.495	1070.14
375.294	828.832
380.092	665.943
384.886	707.467
389.678	915.358
394.467	1199.58
399.254	3285.12
404.038	7239.01
408.819	13499.8
413.598	18554.8
418.374	4945.6
423.148	1942.74
427.919	1978.18
432.687	1168.92
437.453	418.045
442.216	353.362
446.976	22.0322
451.734	145.82
456.489	862.689
461.241	2505.98
465.991	6352.35
470.739	13799.8
475.483	19424.4
480.225	16812.1
484.965	7053.99
489.701	2486.08
494.435	1145.4
499.167	698.972
503.896	833.804
508.622	1031.91
513.346	1219.37
518.067	1475.32
522.785	1271.83
527.501	1088.88
532.214	1049.48
536.925	725.613
541.633	557.286
546.338	118.627
551.041	75.3418
555.741	100.372
560.439	323.55
565.134	420.383
569.826	716.605
574.515	900.216
579.203	879.315
583.887	207.015
588.569	194.376
593.248	75.395
597.925	855.938
602.599	2057.7
607.27	2281.82
611.939	1621.39
616.605	1310.57
621.268	1584.27
625.929	1756.46
630.588	2156.12
635.244	3228.11
639.897	6207.42
644.547	9418.02
649.195	9134.93
653.84	6194.14
658.483	3584.5
663.123	2267.06
667.761	1419.96
672.396	892.093
677.028	304.266
681.658	21.7964
686.285	146.602
690.909	137.042
695.531	95.2305
700.15	228.699
704.767	492.874
709.381	923.174
713.993	1269.84
718.601	1700.01
723.208	2052.43
727.811	2988.28
732.412	4444.66
737.011	6439.86
741.607	7342.88
746.2	6211.17
750.791	4123.5
755.379	2541.58
759.965	1755.27
764.547	1252.34
769.128	913.282
773.706	787.397
778.281	745.471
782.853	620.544
787.423	692.083
791.991	648.782
796.555	580.773
801.118	457.123
805.677	526.914
810.234	405.431
814.789	414.761
819.34	313.303
823.89	377.337
828.436	162.66
832.98	162.377
837.522	143.661
842.061	160.992
846.597	81.3926
851.131	41.8403
855.662	109.307
860.191	17.7827
864.717	95.2417
869.24	36.2227
873.761	68.2402
878.279	69.2314
882.795	84.1641
887.308	42.1074
891.818	14.0601
896.326	100.056
900.832	14.4175
905.334	26.773
909.835	29.0591
914.332	10.4214
918.827	59.2241
923.32	2.06055
927.81	24.5679
932.297	26.9321
936.782	124.284
941.264	53.1719
945.744	14.1948
950.221	60.2437
954.695	6.50146
959.167	61.1631
963.636	128.693
968.103	224.622
972.567	183.539
977.029	268.977
981.488	395.325
985.944	714.466
990.398	1037.81
994.849	1463.8
999.298	2198.71
1003.74	2591.32
1008.19	2988.3
1012.63	3300.02
1017.07	3525.26
1021.5	3899.38
1025.94	3812.68
1030.37	3950.59
1034.8	4492.28
1039.22	5974.78
1043.64	10356.7
1048.07	20058.8
1052.48	35911.9
1056.9	43941.4
1061.31	30532.7
1065.72	14907
1070.13	8117.25
1074.54	5271.69
1078.94	4472.18
1083.34	3976.68
1087.73	3949.9
1092.13	5233.41
1096.52	7147.71
1100.91	7626.6
1105.3	5795.08
1109.68	4349.14
1114.07	3992.8
1118.45	3974.09
1122.82	4210
1127.2	5020.99
1131.57	6588.57
1135.94	8026.68
1140.31	7645.15
1144.67	6499.64
1149.03	5786.63
1153.39	5365.52
1157.75	5347.39
1162.1	5090.61
1166.45	5744.04
1170.8	6669.77
1175.15	7290.06
1179.49	7524.54
1183.84	5972.79
1188.17	4377.17
1192.51	3231.92
1196.84	2529.83
1201.18	2477.58
1205.5	2744.63
1209.83	2814.77
1214.15	2648.56
1218.47	2170.28
1222.79	1860.7
1227.11	1155.85
1231.42	906.922
1235.73	557.815
1240.04	177.775
1244.35	118.157
1248.65	103.637
1252.95	33.771
1257.25	106.123
1261.55	64.2197
1265.84	85.3691
1270.13	8.04932
1274.42	14.0303
1278.7	67.5776
1282.99	101.217
1287.27	81.144
1291.55	10.8589
1295.82	90.2539
1300.1	67.2744
1304.37	2.06445
1308.63	8.93896
1312.9	46.0967
1317.16	41.1274
1321.42	90.5537
1325.68	77.5493
1329.93	10.8916
1334.19	23.1465
1338.44	64.6973
1342.69	108.743
1346.93	146.262
1351.17	130.247
1355.41	117.748
1359.65	152.794
1363.89	208.403
1368.12	190.585
1372.35	131.339
1376.58	250.647
1380.8	333.543
1385.03	183.897
1389.24	241.789
1393.46	264.756
1397.68	300.995
1401.89	314.482
1406.1	212.584
1410.31	184.424
1414.51	324.615
1418.71	249.802
1422.91	195.43
1427.11	168.999
1431.31	139.744
1435.5	93.3594
1439.69	133.034
1443.88	61.7773
1448.06	315.381
1452.24	289.766
1456.42	373.549
1460.6	299.104
1464.78	200.914
1468.95	135.939
1473.12	185.708
1477.29	229.998
1481.45	187.037
1485.61	69.1728
1489.77	330.378
1493.93	126.994
1498.08	127.773
1502.24	149.01
1506.39	38.1538
1510.53	63.5366
1514.68	139.936
1518.82	64.6787
1522.96	42.9756
1527.1	132.956
1531.23	60.0063
1535.37	111.909
