Measurement: Raman, 514.5, ccw, Raman Data Processed
Mineral: Lecoqite-(Y)
Rruff sample: R141187
Ideal chemistry: Na_3_Y(CO_3_)_3_6H_2_O
Locality: Synthetic
Source: Amor Ben Ali
Description: Hydrothermal synthesis. Crystals grow in a Teflon lined Parr autoclave at 220 Â°C during 48 h.
Raman shift (cm-1)	intensity
43.1083	0
48.4796	13.7938
53.8688	8.8573
59.2579	22.7111
64.6292	17.3177
70.0095	57.8588
75.3809	65.7895
80.7433	103.958
86.1058	77.1844
91.4683	52.8805
96.8219	78.0444
102.167	63.8731
107.52	94.405
112.856	128.656
118.192	132.646
123.528	195.131
128.855	212.748
134.182	177.712
139.5	180.117
144.818	216.721
150.127	254.631
155.436	256.11
160.737	203.164
166.037	252.683
171.337	269.745
176.62	150.364
181.911	61.5475
187.194	37.2121
192.468	39.3187
197.741	70.7953
203.015	59.6063
208.28	27.7853
213.545	9.35877
218.801	24.3132
224.048	36.8723
229.304	32.904
234.542	13.1179
239.789	28.9611
245.018	116.734
250.257	190.048
255.477	107.648
260.706	34.3055
265.927	28.7701
271.138	24.7304
276.35	48.0673
281.561	56.3223
286.764	58.5671
291.958	27.7937
297.152	7.26379
302.345	5.46545
307.53	3.42053
312.715	1.67798
317.891	0.511536
323.067	11.9065
328.235	4.23413
333.402	1.04944
338.569	0.431702
343.718	0.339111
348.877	14.973
354.026	24.362
359.167	31.4977
364.316	34.3574
369.448	30.9678
374.579	19.3406
379.711	25.2277
384.834	27.5797
389.956	24.152
395.07	27.8383
400.184	26.0051
405.289	30.1917
410.394	14.8765
415.499	18.8338
420.595	10.8359
425.683	16.7114
430.77	3.76782
435.857	13.8155
440.936	12.7813
446.014	14.618
451.083	20.1086
456.153	8.69916
461.214	5.16418
466.274	19.2761
471.335	18.5806
476.387	13.9773
481.429	11.4283
486.472	8.97846
491.515	6.70514
496.549	7.37518
501.583	5.34888
506.608	10.9006
511.633	0.806091
516.65	5.4989
521.666	19.3707
526.673	11.0574
531.689	18.7664
536.688	8.55627
541.686	6.06207
546.685	15.7119
551.674	8.27844
556.664	15.0193
561.645	10.6736
566.626	8.36603
571.597	6.6853
576.569	1.21411
581.532	0.965271
586.495	2.10364
591.458	3.24902
596.412	2.89117
601.366	4.78955
606.312	2.6767
611.257	0.788086
616.193	7.88654
621.129	5.85211
626.066	4.10303
630.993	8.71027
635.912	12.9432
640.83	6.53516
645.749	12.5094
650.659	2.14459
655.568	9.05072
660.469	17.0756
665.37	14.1408
670.138	24.5964
675.109	52.4324
680.072	58.3596
685.035	42.127
689.998	27.9044
694.952	25.7003
699.898	35.5494
704.852	66.6392
709.788	107.801
714.733	202.001
719.67	114.365
724.597	57.4539
729.524	20.4205
734.452	16.5023
739.37	15.5031
744.289	2.49274
749.199	5.50043
754.108	0.502014
759.009	5.49085
763.91	1.50214
768.811	18.5309
773.703	16.5651
778.595	13.6045
783.478	10.6285
788.361	9.63257
793.244	3.6311
798.118	6.60657
802.983	1.89496
807.849	16.8676
812.714	8.8147
817.57	13.3317
822.427	23.3119
827.283	7.03839
832.131	13.0373
836.969	13.6395
841.808	10.6379
846.647	8.60559
851.477	10.5995
856.306	3.28595
861.136	10.2969
865.957	10.8768
870.769	5.42987
875.59	9.57324
880.393	11.768
885.205	7.79382
890.008	20.9947
894.803	16.0285
899.597	13.5247
904.391	14.5593
909.177	11.5578
913.962	24.533
918.739	4.48645
923.515	10.474
928.283	5.45544
933.059	4.40949
937.818	9.32855
942.577	12.9217
947.336	1.93213
952.094	20.6583
956.844	16.5144
961.585	9.34747
966.326	19.1632
971.067	7.9718
975.799	10.7487
980.531	12.907
985.264	11.6532
989.987	20.084
994.701	1.75794
999.424	16.4534
1004.13	12.7157
1008.84	7.30212
1013.55	13.688
1018.25	2.11231
1022.94	7.56879
1027.64	15.096
1032.33	9.43481
1037.02	22.563
1041.7	21.9102
1046.38	46.451
1051.05	45.9816
1055.73	121.52
1060.39	418.076
1065.06	3917.03
1069.72	491.087
1074.38	97.2193
1079.03	35.1817
1083.68	36.7415
1088.32	26.5876
1092.97	12.9102
1097.61	1.33459
1102.24	8.19513
1106.88	9.30609
1111.5	9.8125
1116.13	7.8288
1120.75	1.51953
1125.36	3.88867
1129.98	6.82532
1134.59	0.440186
1139.2	7.55194
1143.79	6.38391
1148.39	3.88788
1152.99	4.68762
1157.58	6.12726
1162.16	0.823303
1166.75	7.70972
1171.33	12.5461
1175.91	6.75177
1180.48	1.9892
1184.88	8.8844
1189.52	5.46191
1194.15	11.0568
1198.79	9.4331
1203.41	11.6281
1208.04	1.08612
1212.65	18.5356
1217.27	7.15674
1221.89	9.53577
1226.5	8.04169
1231.1	4.5484
1235.7	17.3024
1240.3	15.3773
1244.9	19.0402
1249.49	12.2867
1254.08	8.03442
1258.66	2.60669
1263.24	10.6802
1267.82	5.28155
1272.4	6.82593
1276.97	5.14923
1281.53	20.4498
1286.1	1.75195
1290.66	8.99756
1295.21	1.28973
1299.77	7.2688
1304.31	9.55701
1308.86	3.15369
1313.41	9.1156
1317.94	9.37604
1322.48	11.5804
1327.01	1.53949
1331.53	14.8119
1336.06	1.06689
1340.58	11.2351
1345.1	0.398743
1349.62	6.56256
1354.13	13.7426
1358.63	12.0313
1363.14	13.5682
1367.64	30.0269
1372.14	22.9927
1376.63	22.8809
1381.12	32.9512
1385.6	36.1585
1390.09	24.3742
1394.57	24.6052
1399.05	24.8505
1403.52	33.8383
1407.99	27.8915
1412.45	9.17987
1416.92	12.5068
1421.37	2.86987
1425.83	12.2426
1430.28	5.61578
1434.73	8.00134
1439.18	18.3767
1443.61	12.7687
1448.05	12.1954
1452.49	11.6446
1456.92	22.1113
1461.34	29.596
1465.77	31.0986
1470.2	37.6305
1474.61	43.2166
1479.02	29.4606
1483.43	32.5433
1487.85	44.348
1492.25	39.9489
1496.64	16.5212
1501.05	35.8961
1505.43	44.5873
1509.83	44.4149
1514.21	28.3229
1518.6	36.9987
1522.98	27.6764
1527.35	20.414
1531.73	3.11572
1536.1	9.82367
1540.46	3.35211
1544.83	9.36054
1549.19	0.488342
1553.55	15.2425
1557.9	2.83246
1562.25	5.18085
1566.59	16.2028
1570.93	6.08234
1575.27	22.1089
1579.6	2.18634
1583.94	7.94293
1588.27	6.69464
1592.59	15.2864
1596.92	2.06744
1601.23	5.74548
1605.55	15.3977
1609.86	13.347
1614.18	17.601
1618.48	19.3659
1622.78	21.7151
1627.08	26.3801
1631.37	32.2719
1635.66	21.9272
1639.98	27.5174
1644.34	24.8268
1648.69	33.3691
1653.04	3.91632
1657.39	9.41376
1661.74	10.9641
1666.08	9.53192
1670.41	10.1139
1674.75	10.7094
1679.08	10.5554
1683.41	16.2253
1687.73	24.8672
1692.05	8.57819
1696.37	16.3217
1700.69	12.1522
1704.99	6.0036
1709.3	0.105774
1713.6	9.83496
1717.91	18.7996
1722.21	8.22675
1726.5	27.9488
1730.79	17.7493
1735.08	29.5134
1739.36	28.4588
1743.65	23.3297
1747.93	26.378
1752.2	31.1754
1756.47	28.3496
1760.74	10.6429
1765	26.0017
1769.26	6.45746
1773.52	23.5623
1777.78	25.3508
1782.04	22.3036
1786.28	28.7042
1790.52	13.7368
1794.77	21.6589
