Measurement: Raman, 514 nm, ccw, Raman Data Processed
Mineral: Legrandite
Rruff sample: R040151
Ideal chemistry: Zn^2+^_2_As^5+^O_4_(OH)H_2_O
Locality: Mapimi, Durango, Mexico
Source: University of Arizona Mineral Museum
Description: Yellow crystal fragments; same material used in McLean et al. (1971) study
Measured chemistry: Zn_1.88_Fe^2+^_0.04_As_1.03_O_4_(OH)Â·H_2_O
Pin_id: M00409
Orientation: Laser parallel to -c* (0 0 -1). Fiducial mark perpendicular to laser is parallel to b [0 1 0]
Raman shift (cm-1)	intensity
56.488	0
60.668	16.604
64.846	181.038
69.022	129.25
73.196	135.601
77.368	201.568
81.538	788.342
85.707	581.76
89.873	764.803
94.038	577.693
98.201	292.691
102.362	641.942
106.521	41.524
110.678	104.71
114.833	374.059
118.987	844.164
123.138	308.019
127.288	791.518
131.436	2140.6
135.582	3691.21
139.726	2094.3
143.868	1243.69
148.008	737.419
152.147	45.484
156.284	75.72
160.418	167.792
164.551	1072.53
168.683	1882.24
172.812	853.181
176.939	86.371
181.065	32.817
185.188	517.516
189.31	204.342
193.43	130.051
197.549	512.998
201.665	529.159
205.779	221.509
209.892	48.04
214.003	376.734
218.112	326.572
222.219	177.68
226.324	338.138
230.428	833.447
234.529	799.155
238.629	710.055
242.727	1438.12
246.823	1867.39
250.917	1323.38
255.01	928.924
259.101	1036.93
263.189	1010.48
267.276	894.284
271.362	1405.39
275.445	1978.09
279.526	1813.05
283.606	1570.26
287.684	1593.7
291.76	1326.37
295.834	834.261
299.907	577.346
303.978	592.586
308.046	834.94
312.113	766.387
316.179	641.916
320.242	586.584
324.304	627.477
328.363	517.084
332.421	397.697
336.478	310.308
340.532	241.911
344.585	117.143
348.635	248.708
352.684	628.244
356.731	1138.75
360.777	1237.21
364.82	756.638
368.862	414.01
372.902	233.759
376.94	261.578
380.977	395.762
385.012	598.876
389.044	782.499
393.075	800.771
397.105	563.649
401.132	309.555
405.158	112.633
409.182	11.374
413.204	97.189
417.224	28.358
421.243	90.466
425.26	168.824
429.275	226.476
433.288	337.443
437.3	438.231
441.309	477.191
445.317	642.983
449.323	1054.25
453.328	1663.63
457.331	1940.73
461.331	1883.58
465.33	1670.57
469.328	1523.3
473.323	1163.61
477.317	899.709
481.309	764.322
485.3	943.669
489.288	1224.44
493.275	1318.83
497.26	947.925
501.243	789.759
505.225	928.335
509.205	987.65
513.183	955.699
517.159	1010.48
521.133	1129
525.106	1113.24
529.077	853.217
533.046	539.921
537.014	388.353
540.98	276.514
544.944	200.403
548.906	92.012
552.867	75.318
556.825	48.301
560.783	50.922
564.738	35.166
568.692	12.304
572.643	0.833
576.594	3.157
580.542	3.575
584.489	21.619
588.434	32.177
592.377	14.254
596.318	12.865
600.258	35.003
604.196	64.664
608.132	47.84
612.067	21.517
616	32.673
619.931	17.296
623.861	17.292
627.788	21.613
631.714	8.758
635.639	59.871
639.561	46.764
643.482	41.446
647.401	64.929
651.319	147.227
655.234	188.345
659.148	222.292
663.061	186.074
666.971	170.697
670.88	203.167
674.787	186.493
678.693	164.683
682.597	177.744
686.499	215.681
690.399	299.501
694.298	334.218
698.195	300.839
702.09	276.373
705.984	345.831
709.876	361.81
713.766	359.808
717.654	356.08
721.541	343.616
725.426	367.611
729.31	446.705
733.191	445.323
737.071	436.648
740.95	443.168
744.827	519.733
748.702	621.66
752.575	709.701
756.447	700.989
760.316	703.872
764.185	738.094
768.051	904.679
771.916	1046.32
775.78	1182.3
779.641	1423.33
783.501	1765.25
787.359	2163.13
791.216	2694.86
795.071	3556.81
798.924	4363.08
802.775	5006.95
806.625	5485.04
810.474	5731.33
814.32	5347.82
818.165	4867.53
822.008	4955.45
825.85	5311.59
829.69	5816.93
833.528	6744.92
837.364	8021.66
841.199	9829.86
845.033	11778.4
848.864	15027.5
852.694	23046.3
856.523	39236.2
860.349	58826.8
864.174	48157.1
867.998	25676.2
871.819	13427.4
875.639	9827.31
879.458	8270.54
883.274	6459.06
887.09	4843.87
890.903	3998
894.715	4031.48
898.525	5138.62
902.334	5619.02
906.14	4526.91
909.946	2788.34
913.749	1906.78
917.551	1539.28
921.352	1383.14
925.15	1257.77
928.947	1105.21
932.743	911.636
936.537	715.824
940.329	549.981
944.119	497.887
947.908	358.312
951.696	280.142
955.481	228.543
959.265	196.377
963.048	134.431
966.829	111.32
970.608	96.566
974.385	72.628
978.161	48.072
981.936	28.897
985.708	11.431
989.479	2.089
993.249	15.417
997.017	10.704
1000.78	2.199
1004.55	32.006
1008.31	15.512
1012.07	4.258
1015.83	30.283
1019.59	3.043
1023.35	36.224
1027.1	53.413
1030.86	49.79
1034.61	32.084
1038.36	75.274
1042.11	50.218
1045.85	31.493
1049.6	15.607
1053.34	13.717
1057.08	30.177
1060.82	18.35
1064.56	33.177
1068.3	33.73
1072.04	7.965
1075.77	19.793
1079.5	2.326
1083.23	15.346
1086.96	21.347
1090.69	6.388
1094.42	17.934
1098.14	15.43
1101.87	5.268
1105.59	9.974
1109.31	0.17
1113.03	5.088
1116.74	9.249
1120.46	14.259
1124.17	33.457
1127.88	24.416
1131.59	5.036
1135.3	10.753
1139.01	25.344
1142.71	11.511
1146.42	20.29
1150.12	60.507
1153.82	38.5
1157.52	23.543
1161.22	4.596
1164.92	49.204
1168.61	21.007
1172.3	27.874
1175.99	71.666
1179.68	74.378
1183.37	41.867
1187.06	57.18
1190.75	18.414
1194.43	44.423
1198.11	71.909
1201.79	69.915
1205.47	66.223
1209.15	81.524
1212.83	67.259
1216.5	103.287
1220.17	72.266
1223.84	87.423
1227.51	66.038
1231.18	63.818
1234.85	89.423
1238.51	103.939
1242.18	76.487
1245.84	106.429
1249.5	79.088
1253.16	68.931
1256.82	63.96
1260.47	75.523
1264.12	46.07
1267.78	88.467
1271.43	91.243
1275.08	82.998
1278.73	68.541
1282.37	76.87
1286.02	44.302
1289.66	80.551
1293.3	59.998
1296.94	40.957
1300.58	76.859
1304.22	75.227
1307.86	60.86
1311.49	63.047
1315.12	43.266
1318.76	58.285
1322.38	61.781
1326.01	52.418
1329.64	87.717
1333.27	66.696
1336.89	62.583
1340.51	68.882
1344.13	41.891
1347.75	62.946
1351.37	19.479
1354.98	21.241
1358.6	54.079
1362.21	29.02
1365.82	71.971
1369.43	54.989
1373.04	50.814
1376.65	44.484
1380.25	31.539
1383.86	24.65
1387.46	24.724
1391.06	11.191
1394.66	1.661
1398.26	30.27
1401.85	44.998
1405.45	62.672
1409.04	82.36
1412.63	65.133
1416.22	62.994
1419.81	4.827
1423.4	11.748
1426.99	23.76
1430.57	44.71
1434.15	11.682
1437.73	39.78
1441.32	50.943
1444.89	4.831
1448.47	63.773
1452.05	59.79
1455.62	45.878
1459.19	53.863
1462.76	29.845
1466.33	45.596
1469.9	19.769
1473.47	55.123
1477.03	72.955
1480.6	43.69
1484.16	51.079
1487.72	53.647
1491.28	76.102
1494.83	76.623
1498.39	23.493
1501.94	8.552
1505.5	30.795
1509.05	21.276
1512.6	11.882
1516.15	43.004
1519.69	38.548
1523.24	7.419
1526.79	39.823
1530.33	0
