Measurement: Raman, 514 nm, ccw, Raman Data Processed
Mineral: Legrandite
Rruff sample: R040151
Ideal chemistry: Zn^2+^_2_As^5+^O_4_(OH)H_2_O
Locality: Mapimi, Durango, Mexico
Source: University of Arizona Mineral Museum
Description: Yellow crystal fragments; same material used in McLean et al. (1971) study
Measured chemistry: Zn_1.88_Fe^2+^_0.04_As_1.03_O_4_(OH)Â·H_2_O
Pin_id: M00054
Orientation: Laser parallel to -b* (0 -1 0). Fiducial mark perpendicular to laser is parallel to c [0 0 1]
Raman shift (cm-1)	intensity
56.488	0
60.668	33.159
64.846	95.112
69.022	180.524
73.196	131.026
77.368	171.219
81.538	151.081
85.707	80.41
89.873	196.946
94.038	163.581
98.201	397.139
102.362	967.582
106.521	406.526
110.678	1104.61
114.833	1847.63
118.987	1907.46
123.138	2470
127.288	2702.18
131.436	2641.95
135.582	3135.26
139.726	1819.61
143.868	1121.83
148.008	697.03
152.147	415.196
156.284	666.177
160.418	1665.14
164.551	3538.25
168.683	4757.51
172.812	2636.93
176.939	1099.54
181.065	566.319
185.188	703.283
189.31	766.427
193.43	1263.75
197.549	1973.24
201.665	2050.9
205.779	1221.71
209.892	533.662
214.003	383.588
218.112	501.987
222.219	582.657
226.324	756.654
230.428	1210.19
234.529	1249.71
238.629	913.721
242.727	1344.88
246.823	1738.44
250.917	1285.6
255.01	919.965
259.101	954.443
263.189	877.145
267.276	667.038
271.362	739.104
275.445	952.34
279.526	845.757
283.606	540.333
287.684	505.064
291.76	440.963
295.834	356.009
299.907	239.194
303.978	368.499
308.046	435.902
312.113	401.39
316.179	389.965
320.242	423.669
324.304	472.474
328.363	421.365
332.421	332.304
336.478	177.273
340.532	132.256
344.585	103.244
348.635	134.234
352.684	273.216
356.731	474.183
360.777	385.128
364.82	130.047
368.862	30.064
372.902	68.279
376.94	88.718
380.977	54.628
385.012	6.011
389.044	56.514
393.075	112.986
397.105	106.745
401.132	89.535
405.158	84.27
409.182	121.116
413.204	237.446
417.224	424.49
421.243	722.851
425.26	877.199
429.275	802.795
433.288	686.351
437.3	565.161
441.309	412.066
445.317	320.45
449.323	271.895
453.328	343.449
457.331	434.551
461.331	397.6
465.33	395.673
469.328	402.261
473.323	364.324
477.317	260.628
481.309	197.171
485.3	176.965
489.288	219.482
493.275	235.461
497.26	290.705
501.243	318.343
505.225	538.285
509.205	716.872
513.183	784.493
517.159	897.954
521.133	1062.25
525.106	1021.39
529.077	748.601
533.046	496.573
537.014	305.261
540.98	229.837
544.944	149.845
548.906	85.91
552.867	20.005
556.825	5.065
560.783	39.661
564.738	30.22
568.692	21.601
572.643	11.809
576.594	15.837
580.542	77.692
584.489	55.406
588.434	20.978
592.377	7.387
596.318	7.595
600.258	26.573
604.196	9.657
608.132	21.146
612.067	29.905
616	2.081
619.931	2.179
623.861	4.695
627.788	20.469
631.714	13.464
635.639	38.724
639.561	1.695
643.482	11.114
647.401	21.849
651.319	15.32
655.234	8.619
659.148	55.979
663.061	20.502
666.971	26.918
670.88	53.271
674.787	19.561
678.693	33.793
682.597	43.972
686.499	24.111
690.399	61.319
694.298	76.674
698.195	98.167
702.09	106.743
705.984	107.29
709.876	129.159
713.766	146.127
717.654	177.014
721.541	165.063
725.426	179.08
729.31	242.139
733.191	256.2
737.071	274.345
740.95	312.772
744.827	356.634
748.702	443.364
752.575	495.319
756.447	532.663
760.316	537.392
764.185	527.228
768.051	525.401
771.916	501.895
775.78	507.132
779.641	495.426
783.501	526.342
787.359	608.188
791.216	846.782
795.071	1275.26
798.924	1779.16
802.775	2194.88
806.625	2194.44
810.474	2030.06
814.32	1904.18
818.165	2039.86
822.008	2426.52
825.85	2955.36
829.69	3962.37
833.528	4591.58
837.364	4863.96
841.199	5178.5
845.033	6289.24
848.864	8643.16
852.694	14700.3
856.523	28457.9
860.349	50865.4
864.174	49292.9
867.998	25660.7
871.819	13048.6
875.639	8486.71
879.458	6633.02
883.274	5377.52
887.09	4351.2
890.903	3986.04
894.715	4556.05
898.525	6792.22
902.334	10269
906.14	9238.57
909.946	5749.69
913.749	3597.01
917.551	2735.41
921.352	2138.8
925.15	1777.4
928.947	1581.41
932.743	1306.44
936.537	1110.69
940.329	896.156
944.119	745.894
947.908	579.199
951.696	480.927
955.481	341.894
959.265	318.375
963.048	276.085
966.829	220.73
970.608	183.909
974.385	162.179
978.161	88.147
981.936	75.986
985.708	47.56
989.479	25.791
993.249	60.659
997.017	3.414
1000.78	0.101
1004.55	11.855
1008.31	8.653
1012.07	11.151
1015.83	26.49
1019.59	37.847
1023.35	79.287
1027.1	35.217
1030.86	45.472
1034.61	62.331
1038.36	86.537
1042.11	43.074
1045.85	26.519
1049.6	0.25
1053.34	30.155
1057.08	25.361
1060.82	7.631
1064.56	1.547
1068.3	1.236
1072.04	17.479
1075.77	11.361
1079.5	19.725
1083.23	31.303
1086.96	2.779
1090.69	5.196
1094.42	11.92
1098.14	2.83
1101.87	27.623
1105.59	7.766
1109.31	4.794
1113.03	12.479
1116.74	0.704
1120.46	12.828
1124.17	0.415
1127.88	5.196
1131.59	2.663
1135.3	5.981
1139.01	57.294
1142.71	1.67
1146.42	45.307
1150.12	48.1
1153.82	17.384
1157.52	13.051
1161.22	30.422
1164.92	20.756
1168.61	15.971
1172.3	37.089
1175.99	48.944
1179.68	18.69
1183.37	52.291
1187.06	53.154
1190.75	33.514
1194.43	44.762
1198.11	73.898
1201.79	70.552
1205.47	84.441
1209.15	69.879
1212.83	59.281
1216.5	73.736
1220.17	83.581
1223.84	46.967
1227.51	111.938
1231.18	61.95
1234.85	80.881
1238.51	84.066
1242.18	122.056
1245.84	84.799
1249.5	84.984
1253.16	61.369
1256.82	91.899
1260.47	85.207
1264.12	72.951
1267.78	101.636
1271.43	95.002
1275.08	82.991
1278.73	60.602
1282.37	83.047
1286.02	89.719
1289.66	40.337
1293.3	61.172
1296.94	75.605
1300.58	26.419
1304.22	83.584
1307.86	49.128
1311.49	39.973
1315.12	32.937
1318.76	58.424
1322.38	73.934
1326.01	56.35
1329.64	96.512
1333.27	79.529
1336.89	66.812
1340.51	74.64
1344.13	30.61
1347.75	30.143
1351.37	19.88
1354.98	16.505
1358.6	33.016
1362.21	64.407
1365.82	100.559
1369.43	123.788
1373.04	111.317
1376.65	42.66
1380.25	38.693
1383.86	28.869
1387.46	37.268
1391.06	25.279
1394.66	38.835
1398.26	78.223
1401.85	58.64
1405.45	117.314
1409.04	78.84
1412.63	106.428
1416.22	23.996
1419.81	34.44
1423.4	103.918
1426.99	78.143
1430.57	52.094
1434.15	41.204
1437.73	63.777
1441.32	100.268
1444.89	108.417
1448.47	108.977
1452.05	136.271
1455.62	83.671
1459.19	55.499
1462.76	77.69
1466.33	74.297
1469.9	13.882
1473.47	17.441
1477.03	45.448
1480.6	90.68
1484.16	62.81
1487.72	87.872
1491.28	73.503
1494.83	128.098
1498.39	94.186
1501.94	92.76
1505.5	9.948
1509.05	27.736
1512.6	27.683
1516.15	24.17
1519.69	42.439
1523.24	51.739
1526.79	74.755
1530.33	0
