Measurement: Raman, 514 nm, ccw, Raman Data Processed
Mineral: Legrandite
Rruff sample: R040151
Ideal chemistry: Zn^2+^_2_As^5+^O_4_(OH)H_2_O
Locality: Mapimi, Durango, Mexico
Source: University of Arizona Mineral Museum
Description: Yellow crystal fragments; same material used in McLean et al. (1971) study
Measured chemistry: Zn_1.88_Fe^2+^_0.04_As_1.03_O_4_(OH)Â·H_2_O
Pin_id: M00379
Orientation: Laser parallel to (-1 0 -1). Fiducial mark perpendicular to laser is parallel to b [0 1 0]
Raman shift (cm-1)	intensity
56.488	0
60.668	34.103
64.846	272.553
69.022	253.938
73.196	5.317
77.368	9.821
81.538	506.873
85.707	62.944
89.873	329.432
94.038	162.358
98.201	233.352
102.362	319.186
106.521	326.681
110.678	311.565
114.833	251.057
118.987	56.813
123.138	181.114
127.288	724.965
131.436	524.832
135.582	939.782
139.726	783.867
143.868	843.104
148.008	304.415
152.147	183.701
156.284	558.099
160.418	1403.33
164.551	5354.72
168.683	6546.24
172.812	2551.2
176.939	1298.39
181.065	864.927
185.188	1201.8
189.31	1940.03
193.43	3022.59
197.549	2866.45
201.665	1541.6
205.779	642.043
209.892	289.756
214.003	598.735
218.112	1065.97
222.219	934.624
226.324	998.58
230.428	1854.1
234.529	2063.15
238.629	1350.21
242.727	1653.61
246.823	1891.31
250.917	1016.22
255.01	294.093
259.101	44.081
263.189	52.721
267.276	123.445
271.362	135.122
275.445	85.301
279.526	105.92
283.606	234.758
287.684	507.375
291.76	747.663
295.834	781.223
299.907	848.08
303.978	1118.19
308.046	894.509
312.113	620.06
316.179	374.872
320.242	274.904
324.304	320.145
328.363	406.048
332.421	261.952
336.478	243.007
340.532	282.232
344.585	476.563
348.635	827.995
352.684	1447.52
356.731	2491.14
360.777	2967.84
364.82	2320.63
368.862	1701.49
372.902	1478.41
376.94	1524.39
380.977	1853.42
385.012	2533.49
389.044	3020.59
393.075	2495.72
397.105	1749.88
401.132	1255.1
405.158	1188.47
409.182	1253.91
413.204	1441.85
417.224	1980.2
421.243	3213.19
425.26	4400.64
429.275	4627.04
433.288	4462.84
437.3	4421.24
441.309	3873.2
445.317	3384.55
449.323	3466.59
453.328	4520.31
457.331	6046.2
461.331	7067.55
465.33	7727.91
469.328	8238.66
473.323	7142.04
477.317	4756.32
481.309	2968.17
485.3	2088.28
489.288	1725.36
493.275	1611.03
497.26	1645
501.243	2114.01
505.225	2976
509.205	3345.84
513.183	2563.98
517.159	1686.9
521.133	1357.31
525.106	1143.79
529.077	803.099
533.046	606.875
537.014	433.155
540.98	404.382
544.944	343.458
548.906	237.307
552.867	140.163
556.825	104.626
560.783	168.892
564.738	174.957
568.692	53.818
572.643	53.462
576.594	53.883
580.542	16.071
584.489	23.051
588.434	29.052
592.377	11.667
596.318	26.128
600.258	53.207
604.196	2.1
608.132	89.799
612.067	80.031
616	6.807
619.931	8.884
623.861	37.86
627.788	88.034
631.714	45.702
635.639	41.831
639.561	31.43
643.482	56.476
647.401	4.08
651.319	50.338
655.234	102.32
659.148	102.047
663.061	13.593
666.971	9.036
670.88	2.147
674.787	68.162
678.693	64.006
682.597	15.329
686.499	13.163
690.399	28.519
694.298	91.73
698.195	59.801
702.09	18.755
705.984	12.403
709.876	27.328
713.766	51.942
717.654	42.481
721.541	9.818
725.426	15.775
729.31	26.431
733.191	84.619
737.071	90.32
740.95	80.061
744.827	19.916
748.702	96.237
752.575	151.129
756.447	203.821
760.316	186.983
764.185	227.682
768.051	293.794
771.916	468.694
775.78	627.445
779.641	906.335
783.501	1058.55
787.359	1072.92
791.216	1062.96
795.071	1073.83
798.924	1286.21
802.775	1434
806.625	1555.83
810.474	1694.89
814.32	1714.91
818.165	1771.88
822.008	2111.67
825.85	2351.32
829.69	2564.84
833.528	3058.81
837.364	3741.23
841.199	4762.92
845.033	6276.68
848.864	8617.99
852.694	14529.4
856.523	28161
860.349	52662.6
864.174	56574.6
867.998	30546.9
871.819	16039.4
875.639	11042.1
879.458	8725.05
883.274	7208.24
887.09	6670.67
890.903	7365.35
894.715	10489.3
898.525	18943.6
902.334	31768.2
906.14	30653
909.946	17778.3
913.749	9783.81
917.551	6567.73
921.352	5006.05
925.15	3961.77
928.947	3261.89
932.743	2500.36
936.537	2027.22
940.329	1592.42
944.119	1358.94
947.908	1114.92
951.696	969.571
955.481	781.363
959.265	568.961
963.048	469.186
966.829	438.505
970.608	415.343
974.385	366.556
978.161	298.963
981.936	238.294
985.708	204.941
989.479	265.231
993.249	217.062
997.017	241.472
1000.78	194.898
1004.55	217.077
1008.31	248.342
1012.07	179.259
1015.83	321.49
1019.59	439.22
1023.35	663.471
1027.1	874.301
1030.86	1141.53
1034.61	1152.48
1038.36	949.301
1042.11	668.459
1045.85	487.021
1049.6	314.405
1053.34	151.298
1057.08	107.366
1060.82	104.46
1064.56	56.458
1068.3	122.574
1072.04	18.552
1075.77	126.816
1079.5	50.804
1083.23	12.487
1086.96	12.236
1090.69	6.413
1094.42	18.633
1098.14	62.798
1101.87	20.139
1105.59	13.413
1109.31	28.357
1113.03	15.151
1116.74	32.612
1120.46	39.455
1124.17	39.946
1127.88	12.354
1131.59	31.96
1135.3	5.639
1139.01	44.571
1142.71	22.62
1146.42	56.78
1150.12	39.567
1153.82	15.085
1157.52	16.757
1161.22	46.289
1164.92	7.264
1168.61	12.817
1172.3	27.464
1175.99	67.889
1179.68	51.202
1183.37	36.547
1187.06	33.412
1190.75	13.968
1194.43	10.021
1198.11	13.295
1201.79	66.076
1205.47	87.076
1209.15	103.62
1212.83	32.873
1216.5	128.281
1220.17	77.045
1223.84	39.795
1227.51	75.936
1231.18	51.116
1234.85	172.486
1238.51	202.788
1242.18	99.765
1245.84	135.102
1249.5	64.036
1253.16	70.366
1256.82	107.798
1260.47	117.965
1264.12	178.434
1267.78	205.882
1271.43	197.453
1275.08	166.481
1278.73	124.707
1282.37	102.576
1286.02	67.821
1289.66	29.342
1293.3	130.046
1296.94	154.618
1300.58	127.763
1304.22	211.273
1307.86	28.456
1311.49	41.144
1315.12	43.361
1318.76	48.236
1322.38	90.335
1326.01	88.845
1329.64	108.324
1333.27	112.818
1336.89	203.563
1340.51	167.937
1344.13	138.365
1347.75	40.09
1351.37	64.246
1354.98	83.263
1358.6	60.277
1362.21	112.038
1365.82	207.684
1369.43	213.469
1373.04	161.107
1376.65	193.339
1380.25	63.732
1383.86	60.51
1387.46	90.192
1391.06	56.583
1394.66	96.434
1398.26	117.479
1401.85	117.581
1405.45	263.336
1409.04	228.102
1412.63	166.115
1416.22	148.182
1419.81	128.164
1423.4	42.094
1426.99	34.869
1430.57	30.831
1434.15	76.917
1437.73	89.715
1441.32	120.33
1444.89	201.19
1448.47	181.658
1452.05	176.281
1455.62	182.743
1459.19	136.99
1462.76	103.428
1466.33	12.147
1469.9	27.162
1473.47	64.158
1477.03	441.32
1480.6	154.673
1484.16	234.208
1487.72	284.638
1491.28	214.309
1494.83	289.572
1498.39	115.909
1501.94	155.299
1505.5	56.461
1509.05	13.379
1512.6	4.344
1516.15	31.837
1519.69	33.629
1523.24	61.246
1526.79	86.608
1530.33	66.537
