Measurement: Raman, 514 nm, ccw, Raman Data Processed
Mineral: Legrandite
Rruff sample: R040151
Ideal chemistry: Zn^2+^_2_As^5+^O_4_(OH)H_2_O
Locality: Mapimi, Durango, Mexico
Source: University of Arizona Mineral Museum
Description: Yellow crystal fragments; same material used in McLean et al. (1971) study
Measured chemistry: Zn_1.88_Fe^2+^_0.04_As_1.03_O_4_(OH)Â·H_2_O
Pin_id: M00379
Orientation: Laser parallel to (-1 0 -1). Fiducial mark perpendicular to laser is parallel to b [0 1 0]
Raman shift (cm-1)	intensity
56.488	0
60.668	53.218
64.846	236.193
69.022	326.018
73.196	68.15
77.368	189.353
81.538	557.067
85.707	79.584
89.873	609.255
94.038	1262.78
98.201	1206.4
102.362	1603.37
106.521	1855.51
110.678	2912.74
114.833	1340.92
118.987	106.812
123.138	61.723
127.288	13.445
131.436	66.829
135.582	117.443
139.726	116.261
143.868	304.626
148.008	611.214
152.147	626.204
156.284	347.661
160.418	506.399
164.551	2257.31
168.683	3138.43
172.812	1129.65
176.939	333.172
181.065	109.336
185.188	272.926
189.31	642.424
193.43	1236.3
197.549	1576.2
201.665	1858.34
205.779	1312.84
209.892	582.677
214.003	805.834
218.112	976.294
222.219	694.229
226.324	676.374
230.428	1109.69
234.529	1009.75
238.629	604.441
242.727	855.537
246.823	1095.07
250.917	628.306
255.01	292.063
259.101	346.109
263.189	437.416
267.276	644.092
271.362	1286.15
275.445	1996.62
279.526	1959.49
283.606	1410.29
287.684	1051.41
291.76	864.747
295.834	675.86
299.907	412.025
303.978	299.779
308.046	246.009
312.113	167.532
316.179	42.257
320.242	31.825
324.304	59.229
328.363	49.386
332.421	0.643
336.478	27.992
340.532	165.439
344.585	346.987
348.635	601.63
352.684	1122.36
356.731	1969.13
360.777	2342.98
364.82	1862.88
368.862	1251.85
372.902	887.85
376.94	832.894
380.977	1010.97
385.012	1432.06
389.044	1895.13
393.075	1833.16
397.105	1224.46
401.132	743.366
405.158	586.305
409.182	529.691
413.204	546.635
417.224	869.603
421.243	1434.41
425.26	2078.28
429.275	2135.1
433.288	2140.49
437.3	2143.28
441.309	2090.03
445.317	2149.91
449.323	2625.3
453.328	3741.17
457.331	4850.59
461.331	4932.15
465.33	4617.88
469.328	4414.48
473.323	3594.89
477.317	2554.46
481.309	1668.72
485.3	1295.19
489.288	1064.14
493.275	1009.52
497.26	927.811
501.243	1086.9
505.225	1522.79
509.205	1582.47
513.183	1273.94
517.159	780.194
521.133	665.233
525.106	581.052
529.077	530.657
533.046	490.03
537.014	569.171
540.98	585.082
544.944	459.76
548.906	287.203
552.867	185.41
556.825	87.376
560.783	103.084
564.738	61.525
568.692	6.67
572.643	5.479
576.594	5.063
580.542	39.001
584.489	11.339
588.434	52.174
592.377	46.569
596.318	36.569
600.258	18.814
604.196	5.358
608.132	85.114
612.067	30.512
616	22.43
619.931	40.846
623.861	47.824
627.788	34.39
631.714	13.583
635.639	19.194
639.561	30.455
643.482	22.458
647.401	109.239
651.319	157.814
655.234	233.186
659.148	329.361
663.061	212.344
666.971	103.141
670.88	115.758
674.787	58.201
678.693	82.476
682.597	22.589
686.499	16.546
690.399	82.352
694.298	106.014
698.195	51.539
702.09	62.933
705.984	57.202
709.876	76.352
713.766	85.773
717.654	94.818
721.541	66.452
725.426	61.435
729.31	106.931
733.191	178.713
737.071	155.007
740.95	118.224
744.827	120.05
748.702	159.168
752.575	236.114
756.447	273.665
760.316	284.515
764.185	305.186
768.051	438.961
771.916	584.471
775.78	764.284
779.641	1063.59
783.501	1297.27
787.359	1406.07
791.216	1518.88
795.071	1679.62
798.924	1854.25
802.775	1954.86
806.625	2123.64
810.474	2425.61
814.32	2488.8
818.165	2497.17
822.008	2693.76
825.85	2945.59
829.69	3359.64
833.528	4042.92
837.364	5131.39
841.199	6408.05
845.033	7872.94
848.864	10097
852.694	15331.4
856.523	27496
860.349	46030.8
864.174	44975.8
867.998	25121
871.819	14846.5
875.639	11672.2
879.458	9978.25
883.274	8304.55
887.09	6786.18
890.903	6718.11
894.715	8645.37
898.525	14353
902.334	21381.1
906.14	18169.6
909.946	10358.5
913.749	6057.51
917.551	4175.75
921.352	3444.14
925.15	2993.67
928.947	2594.53
932.743	1988.78
936.537	1455.11
940.329	1089.04
944.119	952.317
947.908	770.413
951.696	654.014
955.481	467.385
959.265	327.429
963.048	270.004
966.829	274.584
970.608	296.345
974.385	190.369
978.161	161.407
981.936	79.944
985.708	60.03
989.479	110.658
993.249	101.497
997.017	46.026
1000.78	61.127
1004.55	32.538
1008.31	63.895
1012.07	58.859
1015.83	166.897
1019.59	255.795
1023.35	375.197
1027.1	471.733
1030.86	564.293
1034.61	568.03
1038.36	460.587
1042.11	323.281
1045.85	274.584
1049.6	164.264
1053.34	37.944
1057.08	54.009
1060.82	7.749
1064.56	12.185
1068.3	33.441
1072.04	2.408
1075.77	19.988
1079.5	32.182
1083.23	2.327
1086.96	60.836
1090.69	77.932
1094.42	27.808
1098.14	27.346
1101.87	20.651
1105.59	7.939
1109.31	20.47
1113.03	64.517
1116.74	18.802
1120.46	38.262
1124.17	17.351
1127.88	2.067
1131.59	2.062
1135.3	20.575
1139.01	21.402
1142.71	29.345
1146.42	91.237
1150.12	76.216
1153.82	30.268
1157.52	49.776
1161.22	25.168
1164.92	36.421
1168.61	29.908
1172.3	4.809
1175.99	41.445
1179.68	85.329
1183.37	92.555
1187.06	56.584
1190.75	80.468
1194.43	0.926
1198.11	6.662
1201.79	35.368
1205.47	116.41
1209.15	113.975
1212.83	108.907
1216.5	151.728
1220.17	117.495
1223.84	86.495
1227.51	68.269
1231.18	73.638
1234.85	107.84
1238.51	180.291
1242.18	169.429
1245.84	139.67
1249.5	93.293
1253.16	59.82
1256.82	74.356
1260.47	72.22
1264.12	98.878
1267.78	144.13
1271.43	130.348
1275.08	182.763
1278.73	135.172
1282.37	88.282
1286.02	124.981
1289.66	43.019
1293.3	61.859
1296.94	82.061
1300.58	79.694
1304.22	134.688
1307.86	112.392
1311.49	97.756
1315.12	44.789
1318.76	65.168
1322.38	10.999
1326.01	66.73
1329.64	61.866
1333.27	83.865
1336.89	120.068
1340.51	141.876
1344.13	95.353
1347.75	60.595
1351.37	39.994
1354.98	31.106
1358.6	27.413
1362.21	58.489
1365.82	55.433
1369.43	113.895
1373.04	186.355
1376.65	132.844
1380.25	32.414
1383.86	41.385
1387.46	18.82
1391.06	74.179
1394.66	23.507
1398.26	36.28
1401.85	98
1405.45	141.899
1409.04	125.457
1412.63	192.807
1416.22	97.116
1419.81	127.83
1423.4	108.727
1426.99	21.151
1430.57	11.036
1434.15	24.256
1437.73	23.897
1441.32	40.818
1444.89	105.438
1448.47	196.106
1452.05	161.487
1455.62	217.035
1459.19	88.039
1462.76	65.446
1466.33	90.758
1469.9	32.816
1473.47	40.394
1477.03	103.705
1480.6	94.029
1484.16	53.802
1487.72	155.053
1491.28	141.564
1494.83	139.654
1498.39	161.707
1501.94	67.901
1505.5	71.591
1509.05	37.885
1512.6	26.921
1516.15	11.312
1519.69	31.135
1523.24	48.01
1526.79	100.81
1530.33	0
