Measurement: Raman, 514 nm, ccw, Raman Data Processed
Mineral: Legrandite
Rruff sample: R040151
Ideal chemistry: Zn^2+^_2_As^5+^O_4_(OH)H_2_O
Locality: Mapimi, Durango, Mexico
Source: University of Arizona Mineral Museum
Description: Yellow crystal fragments; same material used in McLean et al. (1971) study
Measured chemistry: Zn_1.88_Fe^2+^_0.04_As_1.03_O_4_(OH)Â·H_2_O
Pin_id: M00409
Orientation: Laser parallel to -c* (0 0 -1). Fiducial mark perpendicular to laser is parallel to b [0 1 0]
Raman shift (cm-1)	intensity
56.488	0
60.668	23.041
64.846	100.631
69.022	48.943
73.196	18.215
77.368	85.133
81.538	496.989
85.707	388.569
89.873	519.377
94.038	217.037
98.201	109.439
102.362	261.115
106.521	75.773
110.678	312.42
114.833	1151
118.987	2205.39
123.138	1377.47
127.288	2124.19
131.436	4359.47
135.582	7129.25
139.726	4076.39
143.868	2267.7
148.008	1375.05
152.147	416.501
156.284	253.691
160.418	539.005
164.551	1664.76
168.683	2837.66
172.812	1526.71
176.939	605.923
181.065	615.308
185.188	1393.86
189.31	891.586
193.43	776.471
197.549	1020.51
201.665	659.685
205.779	197.99
209.892	53.591
214.003	130.932
218.112	281.527
222.219	247.262
226.324	502.917
230.428	1010.41
234.529	1030.13
238.629	870.328
242.727	1624.89
246.823	2065.97
250.917	1353.23
255.01	927.24
259.101	1046.57
263.189	771.25
267.276	290.506
271.362	166.054
275.445	237.756
279.526	497.682
283.606	779.81
287.684	1439.13
291.76	1604.62
295.834	1265.28
299.907	1024.06
303.978	1148.95
308.046	1537.93
312.113	1486.98
316.179	1125.1
320.242	1074.3
324.304	1084.54
328.363	981.792
332.421	743.053
336.478	480.309
340.532	235.556
344.585	94.789
348.635	84.002
352.684	254.191
356.731	691.351
360.777	820.476
364.82	545.563
368.862	356.607
372.902	346.65
376.94	371.596
380.977	422.486
385.012	448.322
389.044	441.137
393.075	290.933
397.105	171.839
401.132	78.07
405.158	57.592
409.182	5.411
413.204	56.584
417.224	81.131
421.243	20.184
425.26	61.299
429.275	45.175
433.288	130.153
437.3	213.605
441.309	222.549
445.317	232.484
449.323	388.464
453.328	620.529
457.331	945.63
461.331	1184.58
465.33	1447.18
469.328	1540.11
473.323	1230.18
477.317	759.828
481.309	498.563
485.3	467.195
489.288	430.313
493.275	499.382
497.26	517.186
501.243	673.818
505.225	1025.28
509.205	1265.56
513.183	1292.67
517.159	1407.6
521.133	1760.35
525.106	1807.92
529.077	1388.32
533.046	867.545
537.014	620.598
540.98	481.474
544.944	323.17
548.906	173.688
552.867	153.027
556.825	100.186
560.783	113.157
564.738	98.929
568.692	58.792
572.643	21.833
576.594	46.849
580.542	4.084
584.489	2.332
588.434	17.058
592.377	26.028
596.318	5.672
600.258	15.029
604.196	37.941
608.132	31.255
612.067	22.903
616	3.862
619.931	8.087
623.861	16.568
627.788	11.685
631.714	13.089
635.639	3.615
639.561	4.636
643.482	12.735
647.401	15.753
651.319	56.134
655.234	68.413
659.148	68.595
663.061	61.686
666.971	54.689
670.88	89.609
674.787	132.449
678.693	93.217
682.597	116.916
686.499	134.554
690.399	205.136
694.298	223.665
698.195	206.143
702.09	189.577
705.984	232.977
709.876	270.354
713.766	267.429
717.654	241.36
721.541	242.844
725.426	272.56
729.31	329.861
733.191	354.969
737.071	312.892
740.95	358.869
744.827	412.251
748.702	483.762
752.575	540.265
756.447	565.599
760.316	492.457
764.185	529.694
768.051	547.891
771.916	658.657
775.78	662.044
779.641	697.464
783.501	842.404
787.359	1115.61
791.216	1614.93
795.071	2381.8
798.924	3263.59
802.775	3786.42
806.625	3804.51
810.474	3490.76
814.32	3346.17
818.165	3261.71
822.008	3503.39
825.85	3946.19
829.69	4357.17
833.528	4875.43
837.364	5617.92
841.199	6630.66
845.033	8312.36
848.864	11480.1
852.694	18879.2
856.523	35158.5
860.349	56318.6
864.174	48129.4
867.998	23469.5
871.819	12750
875.639	9549.86
879.458	8594.84
883.274	6779
887.09	4648.34
890.903	3320.95
894.715	2851.67
898.525	2811.61
902.334	2679.36
906.14	2004.87
909.946	1370.47
913.749	1043.29
917.551	865.021
921.352	820.284
925.15	709.75
928.947	624.405
932.743	493.874
936.537	388.327
940.329	307.759
944.119	283.68
947.908	235.876
951.696	236.34
955.481	142.293
959.265	98.811
963.048	66.194
966.829	80.582
970.608	96.544
974.385	90.84
978.161	26.238
981.936	8.118
985.708	18.541
989.479	25.624
993.249	17.847
997.017	2.966
1000.78	1.903
1004.55	5.614
1008.31	13.226
1012.07	23.856
1015.83	22.429
1019.59	17.1
1023.35	29.243
1027.1	16.135
1030.86	12.196
1034.61	0.124
1038.36	10.237
1042.11	21.544
1045.85	44.307
1049.6	17.374
1053.34	6.692
1057.08	9.714
1060.82	6.655
1064.56	5.099
1068.3	24.126
1072.04	7.1
1075.77	7.943
1079.5	10.87
1083.23	4.424
1086.96	14.841
1090.69	18.733
1094.42	29.245
1098.14	1.617
1101.87	14.093
1105.59	21.749
1109.31	28.336
1113.03	12.693
1116.74	5.103
1120.46	11.795
1124.17	24.401
1127.88	23.108
1131.59	3.882
1135.3	18.309
1139.01	19.221
1142.71	37.855
1146.42	9.619
1150.12	33.272
1153.82	4.308
1157.52	6.726
1161.22	2.099
1164.92	17.168
1168.61	41.638
1172.3	43.725
1175.99	42.641
1179.68	43.34
1183.37	21.082
1187.06	30.627
1190.75	22.905
1194.43	29.588
1198.11	41.159
1201.79	52.063
1205.47	53.063
1209.15	47.998
1212.83	42.858
1216.5	40.982
1220.17	45.475
1223.84	43.882
1227.51	63.173
1231.18	81.573
1234.85	96.616
1238.51	93.277
1242.18	80.528
1245.84	78.337
1249.5	44.143
1253.16	71.982
1256.82	72.647
1260.47	97.166
1264.12	78.073
1267.78	91.643
1271.43	81.82
1275.08	66.362
1278.73	46.145
1282.37	46.87
1286.02	78.038
1289.66	44.301
1293.3	63.679
1296.94	70.463
1300.58	100.871
1304.22	56.955
1307.86	36.561
1311.49	33.305
1315.12	48.145
1318.76	19.039
1322.38	49.127
1326.01	49.02
1329.64	74.845
1333.27	77.597
1336.89	52.936
1340.51	40.139
1344.13	17.8
1347.75	25.539
1351.37	16.206
1354.98	11.908
1358.6	29.074
1362.21	39.604
1365.82	75.338
1369.43	70.1
1373.04	42.749
1376.65	37.478
1380.25	23.157
1383.86	28.758
1387.46	15.624
1391.06	46.856
1394.66	37.161
1398.26	32.639
1401.85	71.134
1405.45	53.647
1409.04	55.082
1412.63	61.547
1416.22	34.099
1419.81	47.583
1423.4	1.203
1426.99	17.756
1430.57	29.252
1434.15	45.873
1437.73	64.909
1441.32	44.44
1444.89	74.722
1448.47	104.131
1452.05	72.884
1455.62	74.226
1459.19	16.972
1462.76	37.578
1466.33	13.023
1469.9	27.712
1473.47	44.531
1477.03	39.335
1480.6	79.047
1484.16	90.951
1487.72	86.988
1491.28	60.148
1494.83	76.419
1498.39	5.81
1501.94	5.385
1505.5	3.84
1509.05	3.797
1512.6	7.574
1516.15	35.329
1519.69	71.968
1523.24	57.594
1526.79	81.067
1530.33	0
