Measurement: Raman, 514 nm, ccw, Raman Data Processed
Mineral: Legrandite
Rruff sample: R040151
Ideal chemistry: Zn^2+^_2_As^5+^O_4_(OH)H_2_O
Locality: Mapimi, Durango, Mexico
Source: University of Arizona Mineral Museum
Description: Yellow crystal fragments; same material used in McLean et al. (1971) study
Measured chemistry: Zn_1.88_Fe^2+^_0.04_As_1.03_O_4_(OH)Â·H_2_O
Pin_id: M00054
Orientation: Laser parallel to -b* (0 -1 0). Fiducial mark perpendicular to laser is parallel to c [0 0 1]
Raman shift (cm-1)	intensity
56.488	0
60.668	69.589
64.846	122.849
69.022	164.886
73.196	56.611
77.368	27.597
81.538	10.114
85.707	33.398
89.873	368.319
94.038	505.363
98.201	602.399
102.362	1194.06
106.521	885.862
110.678	1318.48
114.833	2217.76
118.987	2304.95
123.138	2329.96
127.288	2866.76
131.436	2926.06
135.582	4069.74
139.726	2677.69
143.868	1712.34
148.008	1175.37
152.147	793.606
156.284	944.326
160.418	1888.69
164.551	3853.78
168.683	4955.6
172.812	2790.21
176.939	1414.6
181.065	1135.8
185.188	1354.37
189.31	1503.6
193.43	1738.2
197.549	2259.59
201.665	2009.24
205.779	1284.59
209.892	718.156
214.003	587.428
218.112	686.376
222.219	694.915
226.324	796.136
230.428	1198.15
234.529	1230.5
238.629	1024.5
242.727	1376.65
246.823	1711.15
250.917	1235.15
255.01	850.854
259.101	892.299
263.189	835.474
267.276	555.362
271.362	585.951
275.445	802.207
279.526	728.131
283.606	590.647
287.684	739.803
291.76	743.603
295.834	493.993
299.907	524.988
303.978	573.522
308.046	653.612
312.113	614.224
316.179	476.33
320.242	391.908
324.304	405.967
328.363	357.495
332.421	281.438
336.478	134.782
340.532	46.479
344.585	10.499
348.635	149.834
352.684	397.475
356.731	913.414
360.777	992.639
364.82	574.125
368.862	158.856
372.902	54.837
376.94	46.057
380.977	138.506
385.012	264.18
389.044	312.15
393.075	443.425
397.105	277.973
401.132	211.46
405.158	97.37
409.182	164.288
413.204	308.698
417.224	484.007
421.243	939.092
425.26	1362.27
429.275	1494.65
433.288	1560.68
437.3	1179.37
441.309	882.112
445.317	639.347
449.323	626.836
453.328	754.918
457.331	906.263
461.331	1139.09
465.33	1226.18
469.328	1191.21
473.323	949.256
477.317	582.024
481.309	342.363
485.3	234.564
489.288	136.672
493.275	174.195
497.26	287.663
501.243	396.681
505.225	623.92
509.205	752.948
513.183	804.345
517.159	806.664
521.133	1028.9
525.106	1025.04
529.077	825.09
533.046	540.037
537.014	277.875
540.98	184.602
544.944	93.21
548.906	68.695
552.867	5.951
556.825	55.762
560.783	43.84
564.738	24.2
568.692	50.841
572.643	30.14
576.594	15.294
580.542	15.367
584.489	34.454
588.434	27.66
592.377	39.271
596.318	28.272
600.258	16.676
604.196	13.436
608.132	56.664
612.067	56.399
616	51.599
619.931	29.278
623.861	7.404
627.788	59.97
631.714	3.963
635.639	3.298
639.561	60.019
643.482	29.967
647.401	91.58
651.319	4.92
655.234	54.007
659.148	94.911
663.061	50.649
666.971	52.218
670.88	47.611
674.787	66.833
678.693	84.577
682.597	89.771
686.499	77.496
690.399	108.065
694.298	118.49
698.195	94.772
702.09	115.912
705.984	122.912
709.876	158.411
713.766	145.281
717.654	135.855
721.541	192.679
725.426	189.925
729.31	235.129
733.191	246.393
737.071	236.186
740.95	344.513
744.827	351.032
748.702	399.866
752.575	427.592
756.447	510.423
760.316	566.348
764.185	561.22
768.051	524.345
771.916	515.173
775.78	550.594
779.641	619.402
783.501	687.687
787.359	770.878
791.216	960.966
795.071	1304.41
798.924	1947.83
802.775	2513.07
806.625	2562.35
810.474	2380.87
814.32	2181.51
818.165	2453.26
822.008	3025.19
825.85	3796.26
829.69	4361.46
833.528	4768.2
837.364	5103.33
841.199	5434.02
845.033	6543.38
848.864	8849.79
852.694	14266.7
856.523	26743.1
860.349	49211.9
864.174	52738.5
867.998	28805.4
871.819	14632.5
875.639	9929.9
879.458	7977.57
883.274	6535.53
887.09	5173.72
890.903	4878.16
894.715	5795.87
898.525	8849.9
902.334	14159.3
906.14	13870.3
909.946	8670.3
913.749	5245.01
917.551	3752.75
921.352	2934.15
925.15	2446.38
928.947	2111.19
932.743	1716.27
936.537	1622.15
940.329	1287.92
944.119	972.377
947.908	780.812
951.696	675.984
955.481	576.494
959.265	446.999
963.048	370.547
966.829	347.604
970.608	261.695
974.385	181.053
978.161	165.912
981.936	129.148
985.708	143.68
989.479	58.524
993.249	29.807
997.017	30.354
1000.78	44.296
1004.55	5.721
1008.31	97.574
1012.07	32.394
1015.83	95.432
1019.59	39.706
1023.35	100.549
1027.1	161.542
1030.86	274.083
1034.61	301.711
1038.36	229.817
1042.11	91.34
1045.85	30.659
1049.6	54.836
1053.34	22.409
1057.08	74.515
1060.82	53.113
1064.56	56.06
1068.3	0.736
1072.04	0.071
1075.77	40.305
1079.5	2.163
1083.23	68.27
1086.96	83.566
1090.69	27.94
1094.42	71.376
1098.14	15.335
1101.87	59.711
1105.59	22.932
1109.31	45.284
1113.03	121.193
1116.74	86.853
1120.46	24.4
1124.17	58.871
1127.88	4.175
1131.59	25.727
1135.3	24.222
1139.01	100.029
1142.71	130.772
1146.42	128.443
1150.12	43.082
1153.82	19.703
1157.52	29.494
1161.22	24.781
1164.92	58.502
1168.61	99.575
1172.3	115.236
1175.99	116.674
1179.68	77.552
1183.37	10.306
1187.06	30.189
1190.75	18.608
1194.43	78.136
1198.11	117.669
1201.79	112.024
1205.47	198.78
1209.15	69.329
1212.83	92.482
1216.5	14.936
1220.17	97.999
1223.84	72.865
1227.51	142.291
1231.18	188.003
1234.85	213.006
1238.51	269.929
1242.18	111.756
1245.84	154.669
1249.5	95.237
1253.16	142.408
1256.82	186.469
1260.47	261.168
1264.12	246.459
1267.78	290.472
1271.43	163.524
1275.08	181.907
1278.73	139.834
1282.37	162.21
1286.02	179.642
1289.66	119.392
1293.3	179.719
1296.94	221.441
1300.58	203.93
1304.22	132.762
1307.86	41.785
1311.49	32.257
1315.12	0.387
1318.76	93.762
1322.38	100.906
1326.01	207.481
1329.64	231.172
1333.27	237.888
1336.89	200.605
1340.51	101
1344.13	78.492
1347.75	40.879
1351.37	22.553
1354.98	0.867
1358.6	161.111
1362.21	192.946
1365.82	285.165
1369.43	287.396
1373.04	226.251
1376.65	92.6
1380.25	26.663
1383.86	38.887
1387.46	66.029
1391.06	38.765
1394.66	169.821
1398.26	239.434
1401.85	311.289
1405.45	285.104
1409.04	247.868
1412.63	330.168
1416.22	108.157
1419.81	105.721
1423.4	31.291
1426.99	63.367
1430.57	149.305
1434.15	238.534
1437.73	258.41
1441.32	319.626
1444.89	357.641
1448.47	419.655
1452.05	254.356
1455.62	272.466
1459.19	245.847
1462.76	606.003
1466.33	43.996
1469.9	173.63
1473.47	176.523
1477.03	308.724
1480.6	349.271
1484.16	366.912
1487.72	407.968
1491.28	315.489
1494.83	272.896
1498.39	165.956
1501.94	43.625
1505.5	67.734
1509.05	41.741
1512.6	122.718
1516.15	153.415
1519.69	252.626
1523.24	361.454
1526.79	441.037
1530.33	322.84
