Measurement: Raman, 514 nm, ccw, Raman Data Processed
Mineral: Legrandite
Rruff sample: R040151
Ideal chemistry: Zn^2+^_2_As^5+^O_4_(OH)H_2_O
Locality: Mapimi, Durango, Mexico
Source: University of Arizona Mineral Museum
Description: Yellow crystal fragments; same material used in McLean et al. (1971) study
Measured chemistry: Zn_1.88_Fe^2+^_0.04_As_1.03_O_4_(OH)Â·H_2_O
Pin_id: M00409
Orientation: Laser parallel to -c* (0 0 -1). Fiducial mark perpendicular to laser is parallel to b [0 1 0]
Raman shift (cm-1)	intensity
56.488	0
60.668	27.172
64.846	252.425
69.022	316.092
73.196	281.532
77.368	473.902
81.538	1086.72
85.707	780.909
89.873	1592.02
94.038	1271.14
98.201	1461.45
102.362	1928.28
106.521	741.712
110.678	352.58
114.833	138.683
118.987	11.754
123.138	53.391
127.288	64.755
131.436	78.346
135.582	128.83
139.726	666.803
143.868	1418.74
148.008	1431.63
152.147	908.298
156.284	1231.58
160.418	1508.24
164.551	2665.17
168.683	3210.4
172.812	1683.71
176.939	929.26
181.065	579.564
185.188	439.388
189.31	417.721
193.43	604.544
197.549	1048.83
201.665	1154.57
205.779	966.749
209.892	1060.44
214.003	1504.75
218.112	1556.67
222.219	1251.13
226.324	1169.31
230.428	1621.89
234.529	1644.31
238.629	1690.39
242.727	2489.87
246.823	3039.79
250.917	2602.41
255.01	2622.36
259.101	3327.35
263.189	3871.74
267.276	4764.54
271.362	7104.75
275.445	8971.37
279.526	7429.97
283.606	5069.16
287.684	3941.57
291.76	2964.57
295.834	1831.13
299.907	1131
303.978	1000.2
308.046	936.697
312.113	910.463
316.179	891.444
320.242	1079.61
324.304	1100.91
328.363	995.365
332.421	976.95
336.478	1030.66
340.532	1127.51
344.585	1251.66
348.635	1854.09
352.684	2896.88
356.731	4099.54
360.777	4004.61
364.82	2821.77
368.862	1855.38
372.902	1365.06
376.94	1081.98
380.977	1352.92
385.012	2021.55
389.044	2839.38
393.075	3330.9
397.105	2626.34
401.132	1874.88
405.158	1198.15
409.182	778.01
413.204	530.195
417.224	483.341
421.243	517.132
425.26	465.167
429.275	293.673
433.288	224.174
437.3	126.363
441.309	73.063
445.317	41.925
449.323	110.12
453.328	222.827
457.331	308.757
461.331	296.867
465.33	237.813
469.328	199.19
473.323	208.692
477.317	120.474
481.309	110.717
485.3	124.815
489.288	201.764
493.275	177.561
497.26	90.202
501.243	58.382
505.225	34.999
509.205	13.138
513.183	4.093
517.159	13.161
521.133	7.302
525.106	16.478
529.077	21.662
533.046	13.138
537.014	9.88
540.98	11.106
544.944	23.809
548.906	8.233
552.867	12.625
556.825	15.223
560.783	9.825
564.738	48.143
568.692	0.769
572.643	10.083
576.594	4.697
580.542	14.048
584.489	31.879
588.434	33.146
592.377	4.206
596.318	25.787
600.258	0.193
604.196	75.021
608.132	89.357
612.067	19.177
616	16.4
619.931	38.002
623.861	44.955
627.788	48.27
631.714	13.887
635.639	37.268
639.561	59.256
643.482	101.104
647.401	231.819
651.319	330.407
655.234	477.873
659.148	543.223
663.061	455.201
666.971	326.91
670.88	281.275
674.787	225.919
678.693	192.152
682.597	213.413
686.499	197.335
690.399	229.496
694.298	282.107
698.195	264.592
702.09	280.514
705.984	260.789
709.876	355.374
713.766	340.438
717.654	320.283
721.541	299.676
725.426	382.138
729.31	459.813
733.191	488.707
737.071	496.635
740.95	489.309
744.827	600.176
748.702	679.545
752.575	774.092
756.447	837.696
760.316	877.945
764.185	927.887
768.051	1208.93
771.916	1465.89
775.78	1896.34
779.641	2379.96
783.501	2995.48
787.359	3406.32
791.216	3660.62
795.071	3822.66
798.924	3727.96
802.775	3535.52
806.625	3846.34
810.474	4352.41
814.32	4710.73
818.165	5120.32
822.008	5864.18
825.85	6710.35
829.69	7873.8
833.528	9551.58
837.364	11720.7
841.199	13950.3
845.033	15810.3
848.864	18200.9
852.694	24181.3
856.523	36823.7
860.349	51726
864.174	41957.8
867.998	22554.1
871.819	11481.6
875.639	7679.74
879.458	5642.2
883.274	4659.93
887.09	4413.94
890.903	4751.24
894.715	6727.85
898.525	10873.1
902.334	13592.8
906.14	11134.7
909.946	6514.33
913.749	4038.82
917.551	2970.43
921.352	2435.63
925.15	2028.16
928.947	1734.43
932.743	1420.11
936.537	1199.54
940.329	888.888
944.119	748.908
947.908	576.115
951.696	484.181
955.481	366.984
959.265	258.829
963.048	166.533
966.829	189.74
970.608	146.222
974.385	108.623
978.161	78.534
981.936	70.115
985.708	19.036
989.479	49.484
993.249	10.727
997.017	29.039
1000.78	15.22
1004.55	34.13
1008.31	31.526
1012.07	24.979
1015.83	41.6
1019.59	29.794
1023.35	69.43
1027.1	89.257
1030.86	123.38
1034.61	102.261
1038.36	90.958
1042.11	52.057
1045.85	38.338
1049.6	0.947
1053.34	23.759
1057.08	19.416
1060.82	12.14
1064.56	18.052
1068.3	19.054
1072.04	20.827
1075.77	4.209
1079.5	16.552
1083.23	5.816
1086.96	15.934
1090.69	1.015
1094.42	4.71
1098.14	15.681
1101.87	18.35
1105.59	25.295
1109.31	19.765
1113.03	4.353
1116.74	14.673
1120.46	14.035
1124.17	10.131
1127.88	11.615
1131.59	13.774
1135.3	38.394
1139.01	45.446
1142.71	31.162
1146.42	31.088
1150.12	31.412
1153.82	45.963
1157.52	39.312
1161.22	42.84
1164.92	63.255
1168.61	42.409
1172.3	65.504
1175.99	75.458
1179.68	76.124
1183.37	68.577
1187.06	81.876
1190.75	72.942
1194.43	71.837
1198.11	67.184
1201.79	80.259
1205.47	89.595
1209.15	96.262
1212.83	89.69
1216.5	73.471
1220.17	87.709
1223.84	103.684
1227.51	98.619
1231.18	88.983
1234.85	120.532
1238.51	131.358
1242.18	84.746
1245.84	107.502
1249.5	101.481
1253.16	56.537
1256.82	98.487
1260.47	97.331
1264.12	73.902
1267.78	73.058
1271.43	63.147
1275.08	58.755
1278.73	65.923
1282.37	71.683
1286.02	63.608
1289.66	52.194
1293.3	86.128
1296.94	64.984
1300.58	41.881
1304.22	68.17
1307.86	72.697
1311.49	35.422
1315.12	50.661
1318.76	41.305
1322.38	48.314
1326.01	70.86
1329.64	46.478
1333.27	60.449
1336.89	76.12
1340.51	48.772
1344.13	48.269
1347.75	45.492
1351.37	52.322
1354.98	39.07
1358.6	34.831
1362.21	74.451
1365.82	53.971
1369.43	72.918
1373.04	60.643
1376.65	40.527
1380.25	18.923
1383.86	32.984
1387.46	49.651
1391.06	47.218
1394.66	19.595
1398.26	24.176
1401.85	34.821
1405.45	52.359
1409.04	38.121
1412.63	33.706
1416.22	31.337
1419.81	45.194
1423.4	16.874
1426.99	20.695
1430.57	20.667
1434.15	18.707
1437.73	44.722
1441.32	1.228
1444.89	20.904
1448.47	24.977
1452.05	9.165
1455.62	10.236
1459.19	38.454
1462.76	37.719
1466.33	17.923
1469.9	2.209
1473.47	14.732
1477.03	49.355
1480.6	58.081
1484.16	45.852
1487.72	58.652
1491.28	48.625
1494.83	40.855
1498.39	9.055
1501.94	0.275
1505.5	17.679
1509.05	38.007
1512.6	42.846
1516.15	35.303
1519.69	11.862
1523.24	48.11
1526.79	40.22
