Measurement: Raman, 514 nm, ccw, Raman Data Processed
Mineral: Legrandite
Rruff sample: R040151
Ideal chemistry: Zn^2+^_2_As^5+^O_4_(OH)H_2_O
Locality: Mapimi, Durango, Mexico
Source: University of Arizona Mineral Museum
Description: Yellow crystal fragments; same material used in McLean et al. (1971) study
Measured chemistry: Zn_1.88_Fe^2+^_0.04_As_1.03_O_4_(OH)Â·H_2_O
Pin_id: M00379
Orientation: Laser parallel to (-1 0 -1). Fiducial mark perpendicular to laser is parallel to b [0 1 0]
Raman shift (cm-1)	intensity
56.488	0
60.668	25.209
64.846	138.1
69.022	201.99
73.196	115.725
77.368	214.456
81.538	683.641
85.707	396.942
89.873	1095.86
94.038	888.827
98.201	1153.31
102.362	1784.89
106.521	747.781
110.678	504.834
114.833	224.896
118.987	48.773
123.138	28.691
127.288	60.504
131.436	68.666
135.582	89.834
139.726	481.013
143.868	1212.91
148.008	1378.53
152.147	810.743
156.284	1159.44
160.418	1308.47
164.551	2191.72
168.683	2999.24
172.812	1707.95
176.939	980.184
181.065	499.111
185.188	413.465
189.31	394.238
193.43	580.413
197.549	870.973
201.665	1116
205.779	980.469
209.892	911.39
214.003	1305.96
218.112	1508.93
222.219	1126.64
226.324	1051.87
230.428	1477.48
234.529	1604.08
238.629	1444.53
242.727	2029.63
246.823	2618.35
250.917	2300.92
255.01	2130.24
259.101	2806.22
263.189	3417.5
267.276	4075.11
271.362	5987.01
275.445	7924.25
279.526	7014.82
283.606	4705.13
287.684	3395.99
291.76	2624.81
295.834	1731.67
299.907	1044.73
303.978	828.205
308.046	828.915
312.113	789.852
316.179	802.964
320.242	849.217
324.304	974.591
328.363	928.081
332.421	827.736
336.478	837.53
340.532	921.99
344.585	1126.96
348.635	1529.43
352.684	2254.05
356.731	3562.83
360.777	3795.36
364.82	2734.14
368.862	1788.29
372.902	1278.17
376.94	1025.46
380.977	1079.31
385.012	1617.2
389.044	2457.09
393.075	2952.42
397.105	2480.03
401.132	1633.27
405.158	1050.77
409.182	701.85
413.204	442.061
417.224	361.298
421.243	421.726
425.26	396.726
429.275	276.17
433.288	181.097
437.3	130.038
441.309	49.395
445.317	11.746
449.323	23.164
453.328	174.109
457.331	302.828
461.331	317.527
465.33	205.556
469.328	168.837
473.323	195.784
477.317	141.533
481.309	74.452
485.3	68.245
489.288	60.908
493.275	76.437
497.26	38.826
501.243	44.957
505.225	24.006
509.205	17.797
513.183	24.425
517.159	38.133
521.133	50
525.106	16.773
529.077	12.283
533.046	1.578
537.014	38.677
540.98	52.61
544.944	54.374
548.906	30.962
552.867	1.335
556.825	15.518
560.783	29.38
564.738	19.08
568.692	1.425
572.643	19.15
576.594	33.89
580.542	36.731
584.489	8.318
588.434	6.318
592.377	28.208
596.318	14.436
600.258	14.021
604.196	20.304
608.132	60.317
612.067	69.019
616	67.188
619.931	5.204
623.861	17.697
627.788	58.896
631.714	5.613
635.639	33.959
639.561	47.166
643.482	82.254
647.401	190.229
651.319	253.04
655.234	417.658
659.148	513.454
663.061	396.117
666.971	324.102
670.88	210.043
674.787	202.849
678.693	138.074
682.597	114.477
686.499	148.806
690.399	197.059
694.298	214.991
698.195	192.765
702.09	179.461
705.984	212.033
709.876	206.509
713.766	303.379
717.654	250.498
721.541	269.441
725.426	248.045
729.31	333.259
733.191	364.647
737.071	388.8
740.95	404.01
744.827	463.371
748.702	514.787
752.575	657.483
756.447	714.979
760.316	722.663
764.185	743.312
768.051	930.127
771.916	1165.13
775.78	1484.77
779.641	1991.25
783.501	2386.35
787.359	2798.25
791.216	3051.49
795.071	3182.65
798.924	3060.01
802.775	2798.59
806.625	2887.39
810.474	3300.39
814.32	3670.64
818.165	4082.17
822.008	4850.94
825.85	5546.96
829.69	6476.28
833.528	7719.92
837.364	9810.93
841.199	11648.4
845.033	13316.2
848.864	14804.2
852.694	19572.7
856.523	30051.2
860.349	44780.4
864.174	40221.1
867.998	20721
871.819	11070.2
875.639	7702.57
879.458	6025.2
883.274	4985.09
887.09	4339.22
890.903	4431.59
894.715	5717.22
898.525	8951.1
902.334	12882.5
906.14	10594.4
909.946	6118.67
913.749	3678.2
917.551	2687.04
921.352	2227.12
925.15	1919.32
928.947	1707.39
932.743	1359.78
936.537	1041.29
940.329	794.227
944.119	649.9
947.908	552.214
951.696	445.425
955.481	318.201
959.265	212.053
963.048	180.467
966.829	127.973
970.608	133.669
974.385	99.086
978.161	80.138
981.936	24.057
985.708	28.304
989.479	41.149
993.249	37.383
997.017	12.979
1000.78	2.053
1004.55	16.197
1008.31	8.742
1012.07	42.152
1015.83	4.442
1019.59	55.215
1023.35	42.4
1027.1	90.88
1030.86	74.014
1034.61	117.354
1038.36	40.176
1042.11	69.769
1045.85	50.892
1049.6	16.374
1053.34	14.546
1057.08	21.164
1060.82	39.147
1064.56	23.89
1068.3	11.226
1072.04	19.563
1075.77	26.765
1079.5	10.372
1083.23	29.387
1086.96	7.686
1090.69	9.103
1094.42	18.259
1098.14	14.599
1101.87	28.417
1105.59	13.679
1109.31	9.623
1113.03	19.297
1116.74	26.4
1120.46	10.655
1124.17	0.487
1127.88	38.285
1131.59	0.727
1135.3	6.951
1139.01	2.883
1142.71	12.568
1146.42	25.127
1150.12	36.472
1153.82	58.702
1157.52	46.388
1161.22	49.74
1164.92	64.007
1168.61	41.741
1172.3	71.314
1175.99	70.681
1179.68	71.963
1183.37	91.328
1187.06	71.163
1190.75	54.806
1194.43	33.445
1198.11	49.321
1201.79	65.718
1205.47	128.615
1209.15	90.208
1212.83	117.269
1216.5	54.341
1220.17	52.311
1223.84	84.339
1227.51	67.955
1231.18	92.791
1234.85	98.42
1238.51	134.102
1242.18	96.181
1245.84	120.516
1249.5	104.626
1253.16	22.352
1256.82	62.478
1260.47	99.186
1264.12	90.681
1267.78	111.883
1271.43	96.511
1275.08	105.562
1278.73	93.787
1282.37	81.467
1286.02	52.945
1289.66	38.852
1293.3	90.35
1296.94	139.252
1300.58	39.269
1304.22	100.044
1307.86	74.854
1311.49	34.659
1315.12	32.762
1318.76	42.96
1322.38	33.46
1326.01	76.362
1329.64	90.401
1333.27	87.271
1336.89	120.175
1340.51	128.155
1344.13	81.675
1347.75	72.329
1351.37	35.28
1354.98	10.39
1358.6	10.675
1362.21	70.844
1365.82	127.36
1369.43	147.204
1373.04	139.829
1376.65	96.518
1380.25	20.23
1383.86	15.909
1387.46	67.072
1391.06	9.339
1394.66	60.63
1398.26	112.307
1401.85	125.309
1405.45	100.13
1409.04	120.262
1412.63	118.99
1416.22	81.738
1419.81	37.419
1423.4	64.734
1426.99	45.576
1430.57	12.879
1434.15	35.861
1437.73	67.762
1441.32	53.89
1444.89	149.509
1448.47	173.871
1452.05	154.718
1455.62	125.095
1459.19	61.682
1462.76	46.165
1466.33	1.008
1469.9	12.468
1473.47	63.205
1477.03	113.853
1480.6	108.63
1484.16	114.953
1487.72	141.28
1491.28	154.125
1494.83	121.051
1498.39	88.665
1501.94	64.758
1505.5	13.489
1509.05	51.073
1512.6	32.163
1516.15	11.738
1519.69	75.842
1523.24	89.283
1526.79	91.107
1530.33	0
