Measurement: Raman, 514 nm, ccw, Raman Data Processed
Mineral: Legrandite
Rruff sample: R040151
Ideal chemistry: Zn^2+^_2_As^5+^O_4_(OH)H_2_O
Locality: Mapimi, Durango, Mexico
Source: University of Arizona Mineral Museum
Description: Yellow crystal fragments; same material used in McLean et al. (1971) study
Measured chemistry: Zn_1.88_Fe^2+^_0.04_As_1.03_O_4_(OH)Â·H_2_O
Pin_id: M00054
Orientation: Laser parallel to -b* (0 -1 0). Fiducial mark perpendicular to laser is parallel to c [0 0 1]
Raman shift (cm-1)	intensity
56.488	0
60.668	253.932
64.846	281.657
69.022	237.283
73.196	58.5
77.368	20.192
81.538	243.522
85.707	38.914
89.873	235.203
94.038	165.23
98.201	230.792
102.362	253.653
106.521	224.549
110.678	458.115
114.833	981.826
118.987	1359.78
123.138	857.049
127.288	1147.68
131.436	2108.72
135.582	2966.17
139.726	1801.05
143.868	1083.42
148.008	565.996
152.147	184.389
156.284	223.796
160.418	737.448
164.551	2810.27
168.683	3659.9
172.812	1814.33
176.939	1000.16
181.065	859.389
185.188	1464.03
189.31	1502.07
193.43	1310.51
197.549	1243.32
201.665	871.494
205.779	251.01
209.892	27.859
214.003	264.027
218.112	505.499
222.219	368.076
226.324	376.602
230.428	811.476
234.529	919.402
238.629	661.708
242.727	962.956
246.823	1214.45
250.917	641.079
255.01	232.111
259.101	95.545
263.189	0.67
267.276	144.596
271.362	102.351
275.445	19.143
279.526	162.937
283.606	355.012
287.684	688.368
291.76	871.019
295.834	942.958
299.907	1000.2
303.978	1163.71
308.046	1080.5
312.113	806.569
316.179	530.893
320.242	402.454
324.304	413.248
328.363	295.958
332.421	154.695
336.478	118.613
340.532	107.682
344.585	237.893
348.635	564.23
352.684	1131.69
356.731	2022.25
360.777	2279.92
364.82	1599.67
368.862	1077.5
372.902	996.397
376.94	1147.36
380.977	1385.39
385.012	1620.46
389.044	1726.57
393.075	1447.72
397.105	1033.97
401.132	753.502
405.158	617.405
409.182	727.795
413.204	889.535
417.224	1403.94
421.243	2184.97
425.26	2841.68
429.275	2691.01
433.288	2509.71
437.3	2306.32
441.309	1943.24
445.317	1810.77
449.323	1905.6
453.328	2560.74
457.331	3468.96
461.331	4091.9
465.33	4368.87
469.328	4101.98
473.323	3351.7
477.317	2208.7
481.309	1410.89
485.3	1007.12
489.288	889.345
493.275	902.375
497.26	967.341
501.243	1266.87
505.225	1730.93
509.205	1943.43
513.183	1608.49
517.159	1254.8
521.133	1174.63
525.106	1012.31
529.077	736.821
533.046	487.175
537.014	374.365
540.98	277.388
544.944	214.242
548.906	118.925
552.867	96.435
556.825	48.769
560.783	50.919
564.738	33.878
568.692	32.633
572.643	4.169
576.594	5.54
580.542	7.479
584.489	32.171
588.434	29.349
592.377	34.091
596.318	38.183
600.258	0.316
604.196	18.543
608.132	10.814
612.067	56.488
616	35.617
619.931	6.189
623.861	39.176
627.788	66.62
631.714	0.486
635.639	12.773
639.561	34.397
643.482	12.376
647.401	24.621
651.319	22.873
655.234	10.145
659.148	32.216
663.061	14.095
666.971	14.194
670.88	7.334
674.787	39.709
678.693	40.935
682.597	39.023
686.499	73.978
690.399	99.804
694.298	93.505
698.195	87.088
702.09	93.555
705.984	93.915
709.876	83.169
713.766	88.153
717.654	117.984
721.541	125.401
725.426	105.417
729.31	134.206
733.191	132.599
737.071	147.725
740.95	137.033
744.827	154.24
748.702	179.663
752.575	235.008
756.447	258.736
760.316	246.23
764.185	269.071
768.051	372.225
771.916	439.459
775.78	562.485
779.641	820.557
783.501	911.835
787.359	959.414
791.216	1094.67
795.071	1356.22
798.924	1759.5
802.775	2049.65
806.625	2098.67
810.474	1990.73
814.32	1856.41
818.165	2005.4
822.008	2383.26
825.85	2792.13
829.69	3131.19
833.528	3491.39
837.364	4170.88
841.199	5099.54
845.033	6462.35
848.864	8615.33
852.694	13862.5
856.523	25699.9
860.349	43817.4
864.174	40935.2
867.998	21383.1
871.819	11391.2
875.639	8192.48
879.458	7058.94
883.274	5815.61
887.09	4856.49
890.903	4791.61
894.715	6445.99
898.525	10523.6
902.334	17143.5
906.14	15763.7
909.946	9144.19
913.749	5314.94
917.551	3623.33
921.352	2777.73
925.15	2259.41
928.947	1911.83
932.743	1536.02
936.537	1254.47
940.329	1031.94
944.119	841.037
947.908	641.565
951.696	579.214
955.481	424.871
959.265	352.324
963.048	292.427
966.829	248.252
970.608	179.85
974.385	200.217
978.161	168.373
981.936	140.096
985.708	124.136
989.479	107.012
993.249	81.23
997.017	82.916
1000.78	89.318
1004.55	87.715
1008.31	54.269
1012.07	115.37
1015.83	186.375
1019.59	303.681
1023.35	441.393
1027.1	537.737
1030.86	637.78
1034.61	558.324
1038.36	494.202
1042.11	311.148
1045.85	262.073
1049.6	204.225
1053.34	121.606
1057.08	40.609
1060.82	13.996
1064.56	12.48
1068.3	23.142
1072.04	19.849
1075.77	11.908
1079.5	15.786
1083.23	1.427
1086.96	9.577
1090.69	12.632
1094.42	28.05
1098.14	5.632
1101.87	10.323
1105.59	29.176
1109.31	6.877
1113.03	27.18
1116.74	15.331
1120.46	9.24
1124.17	8.209
1127.88	4.682
1131.59	4.477
1135.3	19.447
1139.01	6.54
1142.71	5.332
1146.42	1.992
1150.12	4.519
1153.82	1.069
1157.52	4.993
1161.22	14.166
1164.92	11.61
1168.61	27.435
1172.3	37.334
1175.99	34.477
1179.68	16.846
1183.37	63.148
1187.06	31.293
1190.75	25.336
1194.43	38.067
1198.11	69.614
1201.79	53.975
1205.47	41.101
1209.15	35.111
1212.83	27.013
1216.5	35.362
1220.17	52.2
1223.84	59.567
1227.51	63.364
1231.18	57.546
1234.85	69.448
1238.51	107.613
1242.18	112.646
1245.84	75.129
1249.5	83.336
1253.16	65.947
1256.82	66.199
1260.47	65.78
1264.12	72.87
1267.78	82.519
1271.43	89.983
1275.08	63.313
1278.73	69.888
1282.37	58.198
1286.02	51.317
1289.66	64.315
1293.3	51.498
1296.94	32.143
1300.58	58.424
1304.22	59.006
1307.86	34.266
1311.49	32.45
1315.12	24.023
1318.76	54.818
1322.38	23.743
1326.01	29.419
1329.64	40.934
1333.27	62.97
1336.89	61.042
1340.51	65.663
1344.13	34.993
1347.75	53.719
1351.37	32.616
1354.98	41.762
1358.6	48.437
1362.21	37.046
1365.82	54.682
1369.43	53.648
1373.04	26.705
1376.65	53.802
1380.25	37.954
1383.86	32.927
1387.46	1.46
1391.06	25.155
1394.66	9.159
1398.26	40.984
1401.85	49.884
1405.45	33.564
1409.04	41.393
1412.63	49.204
1416.22	52.902
1419.81	31.626
1423.4	52.505
1426.99	0.202
1430.57	24.599
1434.15	20.792
1437.73	24.384
1441.32	41.289
1444.89	45.173
1448.47	40.631
1452.05	44.683
1455.62	38.713
1459.19	35.575
1462.76	23.313
1466.33	21.874
1469.9	29.907
1473.47	19.546
1477.03	22.656
1480.6	39.673
1484.16	66.001
1487.72	69.3
1491.28	45.599
1494.83	58.231
1498.39	61.991
1501.94	9.014
1505.5	7.335
1509.05	45.999
1512.6	20.907
1516.15	42.473
1519.69	8.727
1523.24	51.508
1526.79	58.69
1530.33	0
