Measurement: Raman, 514 nm, ccw, Raman Data Processed
Mineral: Leucophanite
Rruff sample: R050004
Ideal chemistry: NaCaBeSi_2_O_6_F
Locality: Langesundfjord, Norway
Source: University of Arizona Mineral Museum
Description: Pale green massive
Measured chemistry: Ca_1.00_Ca_1.00_Na_2.00_Be_2.00_Si_4.00_O_12_(F_0.96_(OH)_0.04_)_2_
Pin_id: M00469
Orientation: Laser parallel to -c* (0 0 -1). Fiducial mark perpendicular to laser is parallel to -a [-1 0 0]
Raman shift (cm-1)	intensity
60.426	0
64.637	42.429
68.847	65.648
73.054	103.881
77.26	45.032
81.463	3.605
85.664	16.784
89.863	30.544
94.059	83.805
98.254	118.449
102.446	166.584
106.637	219.973
110.825	402.381
115.011	282.342
119.195	250.389
123.377	283.744
127.556	284.563
131.734	275.372
135.909	230.129
140.083	229.695
144.254	198.283
148.423	184.126
152.59	335.711
156.755	351.98
160.918	290.714
165.078	197.488
169.237	351.993
173.393	351.32
177.548	183.067
181.7	134.582
185.85	124.364
189.998	110.056
194.144	100.442
198.288	234.204
202.429	197.028
206.569	107.305
210.707	84.73
214.842	66.183
218.976	37.292
223.107	75.531
227.236	86.727
231.363	119.225
235.488	98.393
239.611	74.33
243.732	96.075
247.851	78.234
251.967	90.231
256.082	83.199
260.195	40.756
264.305	82.809
268.414	51.3
272.52	68.604
276.624	101.956
280.726	54.247
284.827	9.413
288.925	11.277
293.021	17.041
297.115	10.624
301.207	70.007
305.296	197.377
309.384	405.774
313.47	673.257
317.554	304.641
321.635	140.395
325.715	56.396
329.792	78.592
333.868	49.229
337.941	73.316
342.013	81.18
346.082	14.41
350.15	11.958
354.215	122.359
358.278	289.282
362.339	588.43
366.399	305.106
370.456	101.397
374.511	148.749
378.564	304.97
382.615	342.297
386.664	155.43
390.711	54.638
394.756	20.827
398.799	2.783
402.84	29.781
406.879	71.058
410.916	99.599
414.951	2.882
418.983	5.234
423.014	19.838
427.043	148.426
431.07	280.964
435.095	180.369
439.118	233.114
443.138	222.212
447.157	92.408
451.174	187.578
455.189	175.508
459.202	227.172
463.212	264.252
467.221	579.448
471.228	725.192
475.233	403.507
479.236	170.388
483.237	4.59
487.235	25.741
491.232	79.956
495.227	85.213
499.22	114.461
503.211	81.219
507.2	63.998
511.187	32.344
515.172	7.65
519.155	16.885
523.136	49.774
527.115	36.792
531.092	154.717
535.067	168.968
539.04	144.231
543.011	114.094
546.98	32.503
550.947	93.438
554.913	105.373
558.876	308.468
562.837	512.869
566.797	299.836
570.754	104.16
574.709	164.333
578.663	45.372
582.614	28.666
586.564	36.105
590.511	27.254
594.457	29.663
598.401	18.418
602.343	18.323
606.282	10.849
610.22	5.784
614.156	43.152
618.09	14.884
622.022	59.534
625.952	32.118
629.88	47.545
633.807	49.504
637.731	181.913
641.653	155.018
645.574	179.424
649.492	237.139
653.409	367.322
657.323	572.765
661.236	773.977
665.147	1455.56
669.056	3021.53
672.963	6077.13
676.868	6449.87
680.771	3562.84
684.672	1928.44
688.571	1265.52
692.468	1051.13
696.364	1178.23
700.257	1490.88
704.149	1786.28
708.038	1604.43
711.926	1026.87
715.812	608.107
719.696	338.852
723.578	383.238
727.458	293.194
731.336	414.908
735.213	355.396
739.087	259.723
742.96	155.831
746.83	193.585
750.699	179.41
754.566	220.204
758.431	350.848
762.294	458.619
766.155	306.489
770.014	193.426
773.872	177.708
777.727	181.851
781.581	173.319
785.433	159.963
789.282	85.273
793.13	234.145
796.977	209.337
800.821	174.901
804.663	152.868
808.504	41.742
812.342	22.774
816.179	124.061
820.014	89.457
823.847	60.258
827.678	112.889
831.507	43.939
835.334	73.184
839.16	94.72
842.983	93.33
846.805	16.441
850.625	82.72
854.443	13.26
858.259	70.008
862.074	150.964
865.886	155.819
869.697	167.314
873.506	199.991
877.313	211.253
881.118	115.558
884.921	138.238
888.722	130.279
892.522	123.795
896.319	84.81
900.115	20.598
903.909	138.343
907.701	286.053
911.492	36.168
915.28	196.198
919.067	25.175
922.852	97.533
926.635	105.531
930.416	127.671
934.195	229.563
937.973	151.034
941.748	20.861
945.522	90.458
949.294	197.093
953.064	243.59
956.832	268.347
960.599	287.057
964.364	647.684
968.127	478.696
971.888	247.227
975.647	295.592
979.404	351.901
983.16	406.916
986.914	307.408
990.666	123.091
994.416	488.112
998.164	822.733
1001.91	832.927
1005.65	477.609
1009.4	631.397
1013.14	782.67
1016.88	1243.97
1020.62	3451.62
1024.35	4028.58
1028.09	1825.19
1031.82	820.158
1035.55	524.45
1039.28	480.427
1043	858.459
1046.73	1600.79
1050.45	1737.94
1054.17	1188.82
1057.89	519.434
1061.61	393.012
1065.33	407.164
1069.04	409.941
1072.75	583.68
1076.46	675.627
1080.17	503.725
1083.88	415.105
1087.59	188.627
1091.29	23.18
1094.99	92.139
1098.69	179.916
1102.39	385.516
1106.09	557.633
1109.78	407.605
1113.47	189.582
1117.16	111.271
1120.85	90.676
1124.54	106.574
1128.23	180.812
1131.91	506.74
1135.59	499.529
1139.27	619.213
1142.95	523.303
1146.63	213.072
1150.3	194.879
1153.98	231.514
1157.65	755.721
1161.32	439.771
1164.99	794.955
1168.65	640.9
1172.32	472.496
1175.98	287.66
1179.64	348.238
1183.3	513.812
1186.96	648.557
1190.62	490.832
1194.27	529.293
1197.92	310.225
1201.57	446.285
1205.22	358.254
1208.87	271.152
1212.51	563.311
1216.16	963.525
1219.8	846.541
1223.44	599.545
1227.08	706.178
1230.72	360.881
1234.35	529.721
1237.98	337.465
1241.62	740.637
1245.25	1080.09
1248.87	1279.53
1252.5	1332.81
1256.12	1160.41
1259.75	976.645
1263.37	799.242
1266.99	288.09
1270.61	702.846
1274.22	502.375
1277.84	681.447
1281.45	1027.37
1285.06	953.516
1288.67	612.736
1292.28	255.402
1295.88	262.734
1299.49	75.223
1303.09	44.438
1306.69	459.977
1310.29	427.516
1313.89	722.32
1317.48	721.691
1321.08	534.781
1324.67	34.203
1328.26	161.328
1331.85	47.32
1335.44	28.301
1339.02	219.074
1342.61	552.922
1346.19	1034.89
1349.77	1091.64
1353.35	1022.66
1356.92	269.57
1360.5	443.125
1364.07	238.738
1367.64	464.918
1371.21	241.434
1374.78	137.906
1378.35	519.922
1381.91	1098.25
1385.48	1224.95
1389.04	1040.98
1392.6	879.457
1396.16	736.422
1399.71	454.254
1403.27	343.141
1406.82	345.438
1410.38	434.375
1413.92	871.504
1417.47	1325.64
1421.02	1429.5
1424.57	1712.33
1428.11	1577.95
1431.65	1236.35
1435.19	948.328
1438.73	814.891
1442.27	391.59
1445.8	327.5
1449.33	858.113
1452.87	1146.64
1456.4	1735.61
1459.92	1763.42
1463.45	2159.48
1466.98	1911.05
1470.5	1633.47
1474.02	1309.53
1477.54	309.504
1481.06	492.531
1484.58	207.691
1488.09	426.789
1491.61	519.086
1495.12	1158.28
1498.63	1571.24
1502.14	1781.4
1505.64	1521.93
1509.15	1260.56
1512.65	1272.85
1516.15	0
