Measurement: Raman, 514 nm, ccw, Raman Data Processed
Mineral: Leucophanite
Rruff sample: R050004
Ideal chemistry: NaCaBeSi_2_O_6_F
Locality: Langesundfjord, Norway
Source: University of Arizona Mineral Museum
Description: Pale green massive
Measured chemistry: Ca_1.00_Ca_1.00_Na_2.00_Be_2.00_Si_4.00_O_12_(F_0.96_(OH)_0.04_)_2_
Pin_id: M00290
Orientation: Laser parallel to -a* (-1 0 0). Fiducial mark perpendicular to laser is parallel to -b [0 -1 0]
Raman shift (cm-1)	intensity
59.021	0
63.234	52.092
67.444	66.793
71.652	74.39
75.858	31.781
80.062	1.318
84.264	6.146
88.463	101.998
92.661	87.007
96.856	114.978
101.049	192.754
105.24	290.222
109.429	1002.3
113.616	653.943
117.8	465.099
121.983	457.636
126.163	476.63
130.342	439.879
134.518	502.414
138.692	571.188
142.864	734.157
147.034	672.472
151.201	692.073
155.367	698.759
159.53	624.73
163.692	562.122
167.851	564.746
172.008	526.423
176.163	387.109
180.316	391.881
184.467	405.693
188.616	356.497
192.762	434.302
196.907	497.115
201.049	371.974
205.189	320.026
209.328	257.679
213.464	291.322
217.598	292.196
221.73	424.003
225.86	446.965
229.988	320.029
234.113	365.74
238.237	645.627
242.359	812.782
246.478	701.833
250.595	611.052
254.711	707.235
258.824	506.25
262.935	441.425
267.044	562.954
271.151	714.039
275.256	1059.2
279.359	836.998
283.46	492.665
287.559	420.578
291.656	423.469
295.75	413.859
299.843	322.769
303.933	346.849
308.022	485.616
312.108	955.368
316.193	1009.09
320.275	526.929
324.355	302.361
328.434	164.918
332.51	223.078
336.584	284.088
340.656	222.015
344.726	98.462
348.794	106.815
352.86	109.748
356.924	187.564
360.986	449.263
365.046	494.951
369.104	166.404
373.159	96.72
377.213	104.901
381.265	200.947
385.315	188.853
389.362	39.61
393.408	15.376
397.451	23.814
401.493	28.983
405.533	15.08
409.57	30.223
413.606	18.99
417.639	0.068
421.671	1.993
425.7	30.19
429.728	37.437
433.753	29.408
437.777	138.27
441.798	361.715
445.818	276.241
449.835	104.102
453.851	88.821
457.864	117.912
461.876	140.827
465.885	431.296
469.893	697.927
473.898	565.701
477.902	249.313
481.903	160.835
485.903	328.332
489.9	282.588
493.896	82.604
497.889	128.396
501.881	109.906
505.87	188.121
509.858	338.943
513.844	506.153
517.827	489.349
521.809	416.417
525.789	366.199
529.766	657.702
533.742	1198.81
537.716	1282.61
541.688	793.285
545.657	360.65
549.625	175.039
553.591	145.325
557.555	281.997
561.517	552.832
565.477	489.482
569.435	282.611
573.391	52.519
577.345	22.641
581.297	51.213
585.248	14.899
589.196	15.396
593.142	11.323
597.086	64.103
601.029	54.147
604.969	32.403
608.908	39.397
612.844	90.538
616.779	98.069
620.712	21.35
624.642	16.4
628.571	92.988
632.498	226.177
636.423	230.274
640.346	473.879
644.267	580.704
648.186	655.075
652.103	623.123
656.019	747.375
659.932	1054.96
663.843	1792.8
667.753	3589.06
671.66	7851.89
675.566	12183.4
679.47	8445.17
683.372	4281.02
687.271	2518.33
691.169	1778.24
695.065	1569.23
698.96	1621.33
702.852	2123.55
706.742	2557.29
710.631	1787.58
714.517	954.763
718.402	611.353
722.284	310.852
726.165	377.602
730.044	307.111
733.921	302.325
737.796	230.095
741.669	193.361
745.54	197.522
749.41	172.435
753.277	197.217
757.143	241.876
761.006	339.053
764.868	417.598
768.728	237.778
772.586	204.573
776.442	164.518
780.297	62.806
784.149	79.156
787.999	218.297
791.848	105.345
795.695	32.895
799.54	72.479
803.382	106.661
807.224	103.225
811.063	118.25
814.9	11.968
818.736	179.285
822.569	208.014
826.401	184.474
830.231	151.19
834.059	13.082
837.885	21.689
841.709	63.471
845.532	58.347
849.352	56.947
853.171	23.745
856.988	11.441
860.803	49.136
864.616	74.978
868.427	36.606
872.236	7.986
876.044	211.553
879.849	223.029
883.653	67.205
887.455	43.124
891.255	46.632
895.054	73.078
898.85	1.6
902.645	132.924
906.438	143.106
910.229	49.257
914.018	23.898
917.805	137.138
921.59	296.58
925.374	224.535
929.156	270.978
932.936	947.15
936.714	2193.05
940.49	1267.55
944.264	297.413
948.037	98.096
951.808	38.622
955.577	72.977
959.344	242.176
963.109	560.871
966.872	1107.41
970.634	684.054
974.394	316.013
978.152	391.777
981.908	494.124
985.663	392.672
989.415	389.66
993.166	405.744
996.915	508.021
1000.66	348.712
1004.41	358.275
1008.15	544.117
1011.89	1093.64
1015.63	2222.73
1019.37	5180.22
1023.11	10585.1
1026.84	5840.42
1030.57	2213.84
1034.31	1047.15
1038.03	776.418
1041.76	726.516
1045.49	1020.25
1049.21	1397.11
1052.93	874.094
1056.65	593.345
1060.37	407.537
1064.09	452.302
1067.8	457.883
1071.52	281.798
1075.23	443.883
1078.94	224.482
1082.64	159.596
1086.35	242.066
1090.05	554.98
1093.76	420.148
1097.46	354.094
1101.16	363.234
1104.85	21.6
1108.55	106.549
1112.24	214.338
1115.93	252.281
1119.62	120.016
1123.31	43.92
1127	234.65
1130.68	175.67
1134.37	196.33
1138.05	476.699
1141.72	654.598
1145.4	1013.15
1149.08	720.205
1152.75	445.521
1156.42	369.363
1160.1	368.896
1163.76	313.098
1167.43	444.646
1171.1	514.412
1174.76	778.756
1178.42	523.742
1182.08	534.801
1185.74	61.848
1189.4	331.9
1193.05	571.311
1196.7	555.363
1200.36	440.588
1204.01	520.994
1207.65	678.486
1211.3	404.678
1214.94	244.094
1218.59	211.334
1222.23	476.254
1225.87	486.684
1229.5	643.531
1233.14	686.596
1236.77	1268.16
1240.41	777.518
1244.04	723.242
1247.66	502.328
1251.29	401.664
1254.92	800.408
1258.54	898.33
1262.16	651.994
1265.78	923.105
1269.4	1041.55
1273.02	598.574
1276.63	210.98
1280.25	223.605
1283.86	320.512
1287.47	263.07
1291.08	657.066
1294.68	736.395
1298.29	477.736
1301.89	725.492
1305.49	298.924
1309.09	465.744
1312.69	101.613
1316.29	248.033
1319.88	204.057
1323.47	344.34
1327.06	548.734
1330.65	548.09
1334.24	713.043
1337.83	484.953
1341.41	263.293
1344.99	225.633
1348.57	84.066
1352.15	208.602
1355.73	637.984
1359.31	481.898
1362.88	783.262
1366.45	1053.7
1370.02	548.887
1373.59	209.344
1377.16	202.102
1380.73	35.328
1384.29	30.977
1387.85	137.5
1391.41	323.094
1394.97	1017.72
1398.53	1203.3
1402.09	968.562
1405.64	1013.6
1409.19	840.449
1412.74	776.543
1416.29	345.359
1419.84	137.402
1423.38	473.828
1426.93	67.625
1430.47	754.684
1434.01	902.223
1437.55	1184.1
1441.09	1411.27
1444.62	1463.96
1448.16	1021.43
1451.69	797.008
1455.22	309.637
1458.75	297.332
1462.28	323.398
1465.8	524.359
1469.33	600.168
1472.85	1529.54
1476.37	1644.59
1479.89	1374.37
1483.4	1325.91
1486.92	1538.06
1490.43	1583.73
1493.95	896.965
1497.46	619.238
1500.97	268.676
1504.47	66.891
1507.98	367.371
1511.48	826.387
1514.99	92.664
1518.49	828.758
