Measurement: Raman, 514 nm, ccw, Raman Data Processed
Mineral: Leucophanite
Rruff sample: R050004
Ideal chemistry: NaCaBeSi_2_O_6_F
Locality: Langesundfjord, Norway
Source: University of Arizona Mineral Museum
Description: Pale green massive
Measured chemistry: Ca_1.00_Ca_1.00_Na_2.00_Be_2.00_Si_4.00_O_12_(F_0.96_(OH)_0.04_)_2_
Pin_id: M00205
Orientation: Laser parallel to -b* (0 -1 0). Fiducial mark perpendicular to laser is parallel to c [0 0 1]
Raman shift (cm-1)	intensity
75.858	0
80.062	16.001
84.264	0.087
88.463	29.343
92.661	41.207
96.856	76.272
101.049	132.771
105.24	303.33
109.429	230.169
113.616	256.982
117.8	231.213
121.983	250.393
126.163	203.849
130.342	98.173
134.518	145.991
138.692	129.116
142.864	160.086
147.034	247.486
151.201	392.91
155.367	683.081
159.53	627.424
163.692	331.945
167.851	246.445
172.008	589.576
176.163	189.682
180.316	67.572
184.467	73.959
188.616	30.678
192.762	52.354
196.907	113.078
201.049	167.468
205.189	154.61
209.328	53.516
213.464	32.059
217.598	41.17
221.73	18.958
225.86	28.239
229.988	21.702
234.113	41.669
238.237	155.486
242.359	131
246.478	59.302
250.595	101.916
254.711	229.797
258.824	139.244
262.935	94.115
267.044	136.73
271.151	305.557
275.256	383.355
279.359	196.51
283.46	183.488
287.559	100.949
291.656	86.103
295.75	88.113
299.843	196.535
303.933	290.786
308.022	515.764
312.108	1573.3
316.193	1663.29
320.275	578.15
324.355	168.575
328.434	110.747
332.51	228.393
336.584	214.575
340.656	150.541
344.726	113.161
348.794	179.813
352.86	173.185
356.924	304.17
360.986	1260.46
365.046	1886.06
369.104	425.106
373.159	166.425
377.213	141.951
381.265	214.418
385.315	109.04
389.362	9.301
393.408	56.255
397.451	137.432
401.493	75.261
405.533	1.412
409.57	16.671
413.606	95.124
417.639	41.831
421.671	24.587
425.7	39.961
429.728	192.047
433.753	239.092
437.777	59.522
441.798	49.282
445.818	199.226
449.835	218.643
453.851	99.613
457.864	125.897
461.876	376.108
465.885	732.256
469.893	1235.93
473.898	877.647
477.902	451.255
481.903	385.332
485.903	274.919
489.9	96.043
493.896	67.667
497.889	141.328
501.881	176.255
505.87	72.358
509.858	31.789
513.844	167.834
517.827	248.603
521.809	203.964
525.789	122.894
529.766	301.474
533.742	774.423
537.716	817.522
541.688	368.294
545.657	115.253
549.625	183.344
553.591	255.755
557.555	127.705
561.517	62.867
565.477	130.568
569.435	262.478
573.391	182.144
577.345	27.156
581.297	19.369
585.248	103.373
589.196	211.974
593.142	132.79
597.086	69.836
601.029	38.462
604.969	162.225
608.908	250.909
612.844	124.238
616.779	9.028
620.712	12.513
624.642	315.425
628.571	384.619
632.498	231.323
636.423	129.571
640.346	256.084
644.267	636.249
648.186	677.604
652.103	640.031
656.019	644.24
659.932	1258.11
663.843	2229.07
667.753	4172.06
671.66	8299.98
675.566	14456
679.47	10550.8
683.372	5605.53
687.271	3469.03
691.169	2138.15
695.065	1947.5
698.96	2562.67
702.852	3932.68
706.742	4523.92
710.631	2819.74
714.517	1194.14
718.402	927.017
722.284	899.124
726.165	742.789
730.044	414.111
733.921	262.357
737.796	288.141
741.669	518.957
745.54	554.941
749.41	369.951
753.277	89.66
757.143	392.446
761.006	739.184
764.868	783.918
768.728	564.781
772.586	81.929
776.442	41.905
780.297	318.716
784.149	533.716
787.999	474.341
791.848	173.831
795.695	41.733
799.54	217.786
803.382	408.599
807.224	538.095
811.063	244.291
814.9	85.962
818.736	16.287
822.569	361.893
826.401	436.381
830.231	392.074
834.059	40.04
837.885	153.035
841.709	77.068
845.532	542.258
849.352	529.889
853.171	320.479
856.988	3.423
860.803	7.121
864.616	258.733
868.427	603.906
872.236	633.798
876.044	542.196
879.849	99.68
883.653	116.934
887.455	411.121
891.255	784.579
895.054	654.312
898.85	233.011
902.645	120.056
906.438	24.789
910.229	261.929
914.018	761.119
917.805	858.563
921.59	443.122
925.374	145.377
929.156	66.616
932.936	619.042
936.714	1305.45
940.49	981.78
944.264	274.308
948.037	165.586
951.808	52.749
955.577	329.28
959.344	942.358
963.109	1518.58
966.872	1711.63
970.634	657.67
974.394	178.219
978.152	412.49
981.908	947.222
985.663	1112.75
989.415	822.285
993.166	310.246
996.915	65.265
1000.66	180.48
1004.41	792.028
1008.15	1514.99
1011.89	1721.13
1015.63	1835.81
1019.37	2733.53
1023.11	5513.35
1026.84	3211.52
1030.57	2069.13
1034.31	1847.27
1038.03	1591.05
1041.76	1345.39
1045.49	1717.04
1049.21	2628.79
1052.93	2583.75
1056.65	2150.96
1060.37	1757.65
1064.09	1309.82
1067.8	897.361
1071.52	373.393
1075.23	511.68
1078.94	613.58
1082.64	1005.78
1086.35	1756.24
1090.05	1425.29
1093.76	899.473
1097.46	287.969
1101.16	38.273
1104.85	694.031
1108.55	1352.08
1112.24	1343.39
1115.93	712.432
1119.62	528.131
1123.31	143.301
1127	114.982
1130.68	55.908
1134.37	1257.67
1138.05	1926.29
1141.72	2035.03
1145.4	1672.75
1149.08	703.547
1152.75	82.562
1156.42	31.238
1160.1	758.984
1163.76	1486.33
1167.43	2083.59
1171.1	1851.06
1174.76	1364.38
1178.42	765.77
1182.08	256.299
1185.74	390.223
1189.4	981.906
1193.05	1532.06
1196.7	2317.59
1200.36	1893.61
1204.01	1527.64
1207.65	678.211
1211.3	242.701
1214.94	334.01
1218.59	1268.16
1222.23	2016.88
1225.87	2805.89
1229.5	2840.55
1233.14	2096.99
1236.77	1495.48
1240.41	247.656
1244.04	146.816
1247.66	732.854
1251.29	1810.44
1254.92	2686.1
1258.54	2831.63
1262.16	2212.58
1265.78	1670.88
1269.4	719.617
1273.02	230.6
1276.63	160.941
1280.25	1132.89
1283.86	2120.67
1287.47	2652.57
1291.08	3287.82
1294.68	3097.65
1298.29	1774.78
1301.89	891.621
1305.49	289.568
1309.09	604.844
1312.69	1295.84
1316.29	2195.85
1319.88	2819.29
1323.47	3100.7
1327.06	2586.73
1330.65	1909.09
1334.24	832.488
1337.83	168.535
1341.41	66.828
1344.99	674.293
1348.57	1591.89
1352.15	2172.16
1355.73	2940.92
1359.31	3285.7
1362.88	3185.26
1366.45	2361.23
1370.02	1402.21
1373.59	722.406
1377.16	129.48
1380.73	653.027
1384.29	1655.09
1387.85	2507.83
1391.41	3752.7
1394.97	4376.76
1398.53	3664.32
1402.09	2916.16
1405.64	1319.46
1409.19	824.398
1412.74	695.246
1416.29	415.023
1419.84	1474.95
1423.38	2889.15
1426.93	3403.87
1430.47	4782.65
1434.01	4498.35
1437.55	3871.14
1441.09	3357.62
1444.62	2024.01
1448.16	782.824
1451.69	660.035
1455.22	194.348
1458.75	1308.31
1462.28	2727.59
1465.8	3707.34
1469.33	4842.77
1472.85	5794.54
1476.37	5588.96
1479.89	4065.15
1483.4	2944.48
1486.92	1671.72
1490.43	1403.25
1493.95	507.828
1497.46	832.492
1500.97	1110.06
1504.47	2329.87
1507.98	4133.36
1511.48	5182.26
1514.99	4392.55
