Measurement: Raman, 514 nm, ccw, Raman Data Processed
Mineral: Leucophanite
Rruff sample: R050004
Ideal chemistry: NaCaBeSi_2_O_6_F
Locality: Langesundfjord, Norway
Source: University of Arizona Mineral Museum
Description: Pale green massive
Measured chemistry: Ca_1.00_Ca_1.00_Na_2.00_Be_2.00_Si_4.00_O_12_(F_0.96_(OH)_0.04_)_2_
Pin_id: M00290
Orientation: Laser parallel to -a* (-1 0 0). Fiducial mark perpendicular to laser is parallel to -b [0 -1 0]
Raman shift (cm-1)	intensity
61.83	0
66.041	12.202
70.25	78.225
74.456	25.207
78.661	16.215
82.863	44.056
87.064	384.428
91.262	185.49
95.458	145.927
99.652	181.486
103.843	303.974
108.033	524.283
112.22	868.783
116.406	513.011
120.589	478.233
124.77	559.923
128.949	494.998
133.126	564.391
137.301	768.083
141.473	1277.03
145.644	1414.28
149.812	926.985
153.979	1025.13
158.143	735.377
162.305	517.87
166.465	474.577
170.623	403.315
174.778	349.141
178.932	310.174
183.083	348.258
187.233	343.307
191.38	381.319
195.525	318.556
199.669	328.317
203.81	329.341
207.949	270.671
212.085	257.588
216.22	266.056
220.353	283.339
224.483	319.046
228.612	346.471
232.738	368.083
236.863	509.191
240.985	690.43
245.105	666.559
249.223	891.108
253.339	1414.28
257.453	1055.9
261.565	602.168
265.675	549.226
269.783	665.09
273.888	858.457
277.992	644.608
282.093	473.471
286.193	539.458
290.29	816.304
294.386	708.619
298.479	421.619
302.57	314.196
306.659	337.76
310.746	546.295
314.831	651.783
318.914	436.216
322.995	293.515
327.074	166.861
331.151	161.896
335.226	208.25
339.299	187.17
343.37	121.791
347.438	54.539
351.505	69.567
355.57	81.228
359.632	219.783
363.693	269.235
367.751	157.58
371.808	24.815
375.862	8.076
379.914	97.905
383.965	45.757
388.013	44.468
392.06	17.973
396.104	19.643
400.146	56.518
404.186	7.688
408.225	14.063
412.261	7.368
416.295	8.138
420.327	11.892
424.357	28.133
428.386	98.039
432.412	49.003
436.436	57.033
440.458	25.068
444.478	46.362
448.496	7.504
452.513	4.163
456.527	104.691
460.539	276.529
464.549	567.89
468.557	1181.62
472.563	1207.12
476.567	595.376
480.57	234.891
484.57	108.158
488.568	80.257
492.564	48.172
496.558	98.885
500.551	125.422
504.541	129.781
508.529	179.838
512.515	231.638
516.5	268.92
520.482	392.432
524.462	721.842
528.441	1489.81
532.417	2860.83
536.391	3882.63
540.364	2631.82
544.334	1418.73
548.303	766.358
552.269	565.68
556.234	743.175
560.197	1669.46
564.157	2245.07
568.116	1015.25
572.073	412.618
576.027	196.395
579.98	114.956
583.931	73.369
587.88	5.221
591.827	21.344
595.772	14.95
599.715	22.452
603.656	20.233
607.595	46.11
611.532	47.792
615.468	68.923
619.401	132.577
623.332	102.595
627.262	208.707
631.189	239.609
635.115	376.991
639.039	399.678
642.96	557.306
646.88	669.369
650.798	880.526
654.714	1349.54
658.628	1947.52
662.54	3128.04
666.45	6000.88
670.358	12901
674.264	24861.2
678.169	20843.4
682.071	10212.8
685.972	5420.78
689.87	3561.6
693.767	2669.93
697.662	2679.76
701.555	3275.51
705.446	3899.4
709.335	3193.07
713.222	1689.67
717.107	876.168
720.99	552.255
724.872	457.829
728.751	473.474
732.629	306.784
736.504	219.864
740.378	260.335
744.25	160.993
748.12	201.39
751.988	336.413
755.854	309.791
759.719	393.282
763.581	434.285
767.442	320.063
771.3	197.106
775.157	143.908
779.012	127.648
782.865	99.11
786.716	78.964
790.565	107.549
794.413	85.046
798.258	70.589
802.102	10.143
805.943	78.541
809.783	101.31
813.621	133.525
817.457	184.687
821.292	136.812
825.124	79.127
828.954	15.244
832.783	30.245
836.61	24.901
840.435	90.384
844.258	24.12
848.079	0.438
851.898	21.301
855.715	18.872
859.531	116.144
863.345	63.153
867.157	18.888
870.967	30.438
874.775	70.793
878.581	29.934
882.386	100.834
886.188	41.941
889.989	77.441
893.788	7.427
897.585	84.041
901.38	54.763
905.174	22.513
908.965	80.899
912.755	37.73
916.543	112.371
920.329	123.882
924.113	198.266
927.895	143.671
931.676	265.338
935.454	652.547
939.231	618.318
943.006	182.257
946.78	183.363
950.551	184.609
954.32	204.316
958.088	333.237
961.854	1001.95
965.618	1811.56
969.38	1271.35
973.141	791.46
976.9	738.731
980.656	633.878
984.411	641.769
988.165	613.711
991.916	622.939
995.665	757.98
999.413	750.835
1003.16	1051.29
1006.9	1167.94
1010.65	2096.22
1014.39	3754.81
1018.12	9084.08
1021.86	23773.8
1025.6	19360.8
1029.33	6926.73
1033.06	2901.74
1036.79	1345.78
1040.52	1114.04
1044.25	949.452
1047.97	855.194
1051.69	599.289
1055.41	488.289
1059.13	285.182
1062.85	235.234
1066.57	215.059
1070.28	541.721
1073.99	537.737
1077.7	411.178
1081.41	157.724
1085.12	95.666
1088.82	184.912
1092.52	507.358
1096.22	376.128
1099.92	453.911
1103.62	377.702
1107.32	152.051
1111.01	31.4
1114.7	115.889
1118.39	158.441
1122.08	201.602
1125.77	92.441
1129.45	323.836
1133.14	383.502
1136.82	479.865
1140.5	407.734
1144.18	446.305
1147.85	511.447
1151.53	738.27
1155.2	656.582
1158.87	364.914
1162.54	404.299
1166.21	321.531
1169.88	519.686
1173.54	411.457
1177.2	683.562
1180.86	653.994
1184.52	540.516
1188.18	332.463
1191.83	412.891
1195.49	272.795
1199.14	239.299
1202.79	348.951
1206.44	394.562
1210.08	437.102
1213.73	533.881
1217.37	496.391
1221.01	321.67
1224.65	13.072
1228.29	238.193
1231.93	466.307
1235.56	646.09
1239.19	771.451
1242.83	828.541
1246.46	834
1250.08	655.912
1253.71	513.611
1257.33	398.129
1260.96	677.607
1264.58	727.76
1268.19	851.625
1271.81	820.523
1275.43	1099.89
1279.04	982.092
1282.65	297.193
1286.27	130.645
1289.87	279.469
1293.48	77.078
1297.09	402.404
1300.69	671.508
1304.29	820.025
1307.89	386.75
1311.49	356.115
1315.09	285.518
1318.68	142.125
1322.28	124.02
1325.87	280.85
1329.46	253.1
1333.05	340.658
1336.63	785.334
1340.22	704.348
1343.8	669.314
1347.38	581.156
1350.96	287.426
1354.54	21.375
1358.12	25.949
1361.69	8.672
1365.26	471.703
1368.83	355.477
1372.4	478.707
1375.97	697.5
1379.54	572.336
1383.1	625.645
1386.66	426.82
1390.23	156.426
1393.79	201.941
1397.34	148.539
1400.9	306.512
1404.45	773.836
1408.01	945.344
1411.56	1251.13
1415.11	1264.33
1418.66	1182.09
1422.2	526.188
1425.75	666.562
1429.29	439.547
1432.83	335.289
1436.37	333.598
1439.91	822.875
1443.44	1293.09
1446.98	1673.18
1450.51	1281.61
1454.04	1454.15
1457.57	1207.96
1461.1	1212
1464.63	691
1468.15	218.656
1471.67	186.496
1475.19	10.93
1478.71	570.477
1482.23	787.082
1485.75	1182.96
1489.26	1536.4
1492.78	1314.81
1496.29	1255.5
1499.8	1050.99
1503.31	1108.86
1506.81	451.941
1510.32	20.207
1513.82	126.395
1517.32	3.293
