Measurement: Raman, 514 nm, ccw, Raman Data Processed
Mineral: Leucophanite
Rruff sample: R050004
Ideal chemistry: NaCaBeSi_2_O_6_F
Locality: Langesundfjord, Norway
Source: University of Arizona Mineral Museum
Description: Pale green massive
Measured chemistry: Ca_1.00_Ca_1.00_Na_2.00_Be_2.00_Si_4.00_O_12_(F_0.96_(OH)_0.04_)_2_
Pin_id: M00469
Orientation: Laser parallel to -c* (0 0 -1). Fiducial mark perpendicular to laser is parallel to -a [-1 0 0]
Raman shift (cm-1)	intensity
60.426	0
64.637	56.863
68.847	73.871
73.054	25.49
77.26	10.575
81.463	49.757
85.664	181.493
89.863	374.797
94.059	686.068
98.254	1015.87
102.446	1121.86
106.637	1141.75
110.825	1495.86
115.011	1455.89
119.195	1251.92
123.377	1298.09
127.556	1366.32
131.734	1251.52
135.909	1074.65
140.083	1221.65
144.254	1248.44
148.423	1203.72
152.59	1478.11
156.755	1614.6
160.918	1383.68
165.078	1008.48
169.237	1257.06
173.393	1186.15
177.548	855.626
181.7	753.493
185.85	895.743
189.998	817.369
194.144	698.382
198.288	830.859
202.429	991.835
206.569	674.178
210.707	686.875
214.842	732.928
218.976	767.255
223.107	578.811
227.236	585.21
231.363	713.479
235.488	624.414
239.611	452.151
243.732	543.201
247.851	663.774
251.967	589.05
256.082	469.152
260.195	526.247
264.305	637.504
268.414	602.123
272.52	594.665
276.624	678.235
280.726	640.542
284.827	359.214
288.925	319.006
293.021	430.312
297.115	532.644
301.207	380.237
305.296	578.04
309.384	1470.04
313.47	1956.24
317.554	942.625
321.635	479.255
325.715	407.819
329.792	357.37
333.868	229.16
337.941	295.563
342.013	430.311
346.082	341.876
350.15	121.075
354.215	386.466
358.278	1047.92
362.339	1855.24
366.399	844.918
370.456	350.514
374.511	355.978
378.564	180.448
382.615	100.915
386.664	34.771
390.711	205.4
394.756	173.03
398.799	33.891
402.84	53.104
406.879	268.819
410.916	167.797
414.951	77.217
418.983	30.276
423.014	89.157
427.043	153.833
431.07	72.281
435.095	30.616
439.118	173.437
443.138	226.74
447.157	111.65
451.174	31.425
455.189	218.566
459.202	506.742
463.212	478.558
467.221	742.277
471.228	1166.12
475.233	824.777
479.236	424.744
483.237	0.292
487.235	0.185
491.232	285.678
495.227	169.433
499.22	77.979
503.211	30.331
507.2	176.465
511.187	244.378
515.172	101.09
519.155	0.554
523.136	101.724
527.115	348.622
531.092	678.382
535.067	643.88
539.04	485.109
543.011	486.118
546.98	396.858
550.947	412.344
554.913	41.671
558.876	47.417
562.837	322.652
566.797	252.81
570.754	76.359
574.709	50.444
578.663	179.996
582.614	272.386
586.564	202.365
590.511	16.73
594.457	7.035
598.401	110.767
602.343	244.04
606.282	109.299
610.22	39.75
614.156	169.664
618.09	332.986
622.022	433.231
625.952	102.095
629.88	25.342
633.807	180.495
637.731	541.194
641.653	496.345
645.574	329.881
649.492	472.657
653.409	729.102
657.323	1256.51
661.236	1653.2
665.147	2780.12
669.056	5901.75
672.963	12179.3
676.868	13043.5
680.771	7249.7
684.672	3854.97
688.571	2519.01
692.468	2423.43
696.364	2637.06
700.257	3187.16
704.149	3924.81
708.038	3284.11
711.926	2277.36
715.812	1498.31
719.696	844.782
723.578	542.117
727.458	358.641
731.336	605.719
735.213	666.679
739.087	590.639
742.96	275.426
746.83	241.73
750.699	454.811
754.566	558.209
758.431	741.994
762.294	575.078
766.155	228.688
770.014	274.02
773.872	424.444
777.727	458.789
781.581	283.046
785.433	218.927
789.282	45.639
793.13	244.135
796.977	631.155
800.821	435.811
804.663	220.922
808.504	91.262
812.342	42.685
816.179	378.43
820.014	424.553
823.847	161.862
827.678	68.521
831.507	22.992
835.334	296.411
839.16	389.673
842.983	332.11
846.805	81.173
850.625	102.277
854.443	73.143
858.259	338.251
862.074	409.988
865.886	349.5
869.697	157.221
873.506	63.684
877.313	248.181
881.118	460.927
884.921	573.207
888.722	395.4
892.522	124.999
896.319	38.776
900.115	13.569
903.909	261.212
907.701	494.667
911.492	88.629
915.28	182.136
919.067	64.863
922.852	85.604
926.635	414.152
930.416	410.447
934.195	393.728
937.973	30.335
941.748	66.408
945.522	49.487
949.294	512.839
953.064	544.641
956.832	501.95
960.599	411.095
964.364	747.343
968.127	695.029
971.888	673.896
975.647	614.803
979.404	625.822
983.16	386.12
986.914	243.734
990.666	37.242
994.416	390.451
998.164	751.859
1001.91	986.698
1005.65	540.592
1009.4	548.346
1013.14	647.758
1016.88	1405.34
1020.62	4157.27
1024.35	4902.47
1028.09	2287.61
1031.82	1043.7
1035.55	397.488
1039.28	500.078
1043	1311.16
1046.73	3024.45
1050.45	3551.57
1054.17	2198.25
1057.89	930.488
1061.61	297.338
1065.33	339.555
1069.04	412.145
1072.75	742.477
1076.46	1067.09
1080.17	773.49
1083.88	468.861
1087.59	84.582
1091.29	85.99
1094.99	156.012
1098.69	326.727
1102.39	446.51
1106.09	671.717
1109.78	344.992
1113.47	71.168
1117.16	93.25
1120.85	40.105
1124.54	379.891
1128.23	448.025
1131.91	555.674
1135.59	619.09
1139.27	369.869
1142.95	254.49
1146.63	227.781
1150.3	170.244
1153.98	263.834
1157.65	884.678
1161.32	846.225
1164.99	621.43
1168.65	277.471
1172.32	315.34
1175.98	162.002
1179.64	527.689
1183.3	652.121
1186.96	902.469
1190.62	747.047
1194.27	522.561
1197.92	246.906
1201.57	174.387
1205.22	269.801
1208.87	517.186
1212.51	922.33
1216.16	1246.35
1219.8	1205.41
1223.44	1043.62
1227.08	640.031
1230.72	334.094
1234.35	362.658
1237.98	429.143
1241.62	968.838
1245.25	1426.5
1248.87	1449.2
1252.5	1370.37
1256.12	1206.51
1259.75	781.389
1263.37	510.678
1266.99	459.031
1270.61	801.84
1274.22	902.936
1277.84	1151.18
1281.45	1308.5
1285.06	962.082
1288.67	381.441
1292.28	185.113
1295.88	14.77
1299.49	123.305
1303.09	387.672
1306.69	715.043
1310.29	993.383
1313.89	907.48
1317.48	808.27
1321.08	502.969
1324.67	86.879
1328.26	326.289
1331.85	128.859
1335.44	29.117
1339.02	416.809
1342.61	1174.96
1346.19	1498.62
1349.77	1407.64
1353.35	934.223
1356.92	467.477
1360.5	347.531
1364.07	249.328
1367.64	368.453
1371.21	25.57
1374.78	26.348
1378.35	1044.96
1381.91	1778.86
1385.48	1446.17
1389.04	1161.83
1392.6	930.176
1396.16	543.906
1399.71	478.844
1403.27	329.309
1406.82	540.758
1410.38	667.977
1413.92	1377.48
1417.47	1699.45
1421.02	2002.95
1424.57	1951.64
1428.11	1457.44
1431.65	1140.59
1435.19	847.176
1438.73	666.273
1442.27	368.984
1445.8	471.102
1449.33	1215.62
1452.87	1620.68
1456.4	2258.35
1459.92	2365.38
1463.45	2667.82
1466.98	2173.79
1470.5	1693.02
1474.02	1109.69
1477.54	276.633
1481.06	327.316
1484.58	634.508
1488.09	921.789
1491.61	908.914
1495.12	1888.65
1498.63	2404.76
1502.14	2226.24
1505.64	1841.08
1509.15	1704.74
1512.65	1203.84
1516.15	655.258
