Measurement: Raman, 514 nm, ccw, Raman Data Processed
Mineral: Leucophanite
Rruff sample: R050004
Ideal chemistry: NaCaBeSi_2_O_6_F
Locality: Langesundfjord, Norway
Source: University of Arizona Mineral Museum
Description: Pale green massive
Measured chemistry: Ca_1.00_Ca_1.00_Na_2.00_Be_2.00_Si_4.00_O_12_(F_0.96_(OH)_0.04_)_2_
Pin_id: M00205
Orientation: Laser parallel to -b* (0 -1 0). Fiducial mark perpendicular to laser is parallel to c [0 0 1]
Raman shift (cm-1)	intensity
59.021	0
63.234	58.648
67.444	40.575
71.652	156.863
75.858	306.819
80.062	510.8
84.264	592.442
88.463	746.371
92.661	326.093
96.856	157.728
101.049	21.973
105.24	155.282
109.429	106.689
113.616	150.032
117.8	143.999
121.983	183.659
126.163	150.59
130.342	111.533
134.518	164.648
138.692	265.178
142.864	804.856
147.034	687.912
151.201	342.828
155.367	489.142
159.53	227.859
163.692	132.736
167.851	83.502
172.008	9.879
176.163	23.509
180.316	3.57
184.467	19.301
188.616	57.919
192.762	61.86
196.907	22.056
201.049	22.89
205.189	25.355
209.328	12.86
213.464	15.162
217.598	6.864
221.73	4.497
225.86	90.833
229.988	69.094
234.113	112.431
238.237	295.056
242.359	404.999
246.478	317.75
250.595	539.424
254.711	884.707
258.824	585.105
262.935	316.923
267.044	276.131
271.151	450.553
275.256	539.003
279.359	375.298
283.46	352.941
287.559	400.934
291.656	602.583
295.75	428.94
299.843	294.503
303.933	242.441
308.022	308.094
312.108	472.431
316.193	548.52
320.275	486.395
324.355	214.53
328.434	185.536
332.51	200.158
336.584	253.372
340.656	185.131
344.726	69.031
348.794	105.561
352.86	82.046
356.924	86.794
360.986	123.473
365.046	265.914
369.104	131.276
373.159	25.775
377.213	53.206
381.265	145.81
385.315	86.064
389.362	17.35
393.408	9.726
397.451	3.944
401.493	24.972
405.533	9.913
409.57	45.181
413.606	6.13
417.639	8.077
421.671	3.493
425.7	27.764
429.728	116.422
433.753	189.562
437.777	30.27
441.798	5.515
445.818	97.419
449.835	64.022
453.851	91.523
457.864	70.048
461.876	231.504
465.885	509.401
469.893	1078.57
473.898	704.155
477.902	367.296
481.903	266.766
485.903	188.516
489.9	175.669
493.896	34.47
497.889	41.141
501.881	249.63
505.87	176.101
509.858	83.153
513.844	184.777
517.827	311.303
521.809	350.399
525.789	470.512
529.766	984.689
533.742	2326.61
537.716	2938.57
541.688	1658.8
545.657	698.865
549.625	484.177
553.591	519.957
557.555	633.826
561.517	1194.96
565.477	1410.34
569.435	655.567
573.391	379.709
577.345	126.469
581.297	30.571
585.248	12.029
589.196	61.874
593.142	119.721
597.086	4.661
601.029	14.634
604.969	6.016
608.908	69.599
612.844	69.167
616.779	9.741
620.712	34.642
624.642	205.264
628.571	299.413
632.498	161.728
636.423	100.708
640.346	200.579
644.267	503.136
648.186	692.687
652.103	694.168
656.019	802.905
659.932	1351.8
663.843	2526.18
667.753	4872.18
671.66	9948.27
675.566	17017.5
679.47	12082.2
683.372	6111.45
687.271	3504.87
691.169	2110.18
695.065	1627.96
698.96	1699.48
702.852	2587.72
706.742	3083.12
710.631	1930.42
714.517	852.02
718.402	549.185
722.284	465.55
726.165	547.682
730.044	390.833
733.921	254.148
737.796	138.998
741.669	249.241
745.54	329.113
749.41	255.172
753.277	152.479
757.143	136.808
761.006	334.038
764.868	444.577
768.728	377.708
772.586	114.462
776.442	19.618
780.297	16.382
784.149	314.745
787.999	244.076
791.848	153.922
795.695	28.432
799.54	26.732
803.382	161.464
807.224	209.428
811.063	184.924
814.9	3.99
818.736	36.511
822.569	46.432
826.401	205.975
830.231	239.298
834.059	122.374
837.885	43.487
841.709	5.521
845.532	222.298
849.352	266.901
853.171	277.087
856.988	64.472
860.803	12.872
864.616	22.45
868.427	292.173
872.236	211.026
876.044	339.903
879.849	78.962
883.653	131.091
887.455	61.89
891.255	345.801
895.054	300.31
898.85	214.892
902.645	0.819
906.438	10.391
910.229	1.28
914.018	337.117
917.805	502.152
921.59	296.508
925.374	4.04
929.156	28.052
932.936	288.814
936.714	856.65
940.49	806.321
944.264	319.024
948.037	93.379
951.808	12.401
955.577	65.333
959.344	550.516
963.109	1319.32
966.872	1795.46
970.634	947.325
974.394	355.219
978.152	214.742
981.908	574.662
985.663	696.737
989.415	715.364
993.166	453.102
996.915	235.74
1000.66	387.581
1004.41	743.313
1008.15	1489.88
1011.89	2270.46
1015.63	3770.48
1019.37	7787.92
1023.11	17364.4
1026.84	9539.81
1030.57	3749.47
1034.31	2175.6
1038.03	1588.74
1041.76	951.77
1045.49	513.874
1049.21	324.308
1052.93	291.812
1056.65	711.104
1060.37	779.847
1064.09	694.357
1067.8	752.195
1071.52	360.587
1075.23	282.175
1078.94	231.064
1082.64	456.357
1086.35	891.731
1090.05	965.471
1093.76	885.269
1097.46	395.695
1101.16	179.814
1104.85	179.704
1108.55	551.4
1112.24	501.704
1115.93	499.076
1119.62	475.57
1123.31	326.91
1127	119.612
1130.68	47.859
1134.37	434.413
1138.05	963.797
1141.72	1140.73
1145.4	1306.39
1149.08	800.736
1152.75	344.381
1156.42	178.951
1160.1	321.59
1163.76	593.87
1167.43	1064.87
1171.1	1234.3
1174.76	1126.84
1178.42	757.419
1182.08	431.955
1185.74	214.528
1189.4	357.738
1193.05	668.921
1196.7	1185.97
1200.36	1220.26
1204.01	1100.89
1207.65	780.735
1211.3	373.273
1214.94	117.912
1218.59	448.258
1222.23	843.275
1225.87	1339.84
1229.5	1699.14
1233.14	1520.7
1236.77	1328.08
1240.41	499.43
1244.04	1.666
1247.66	340.674
1251.29	715.545
1254.92	1344.58
1258.54	1689.3
1262.16	1572.66
1265.78	1223.81
1269.4	735.117
1273.02	270.221
1276.63	46.066
1280.25	381.445
1283.86	883.826
1287.47	1115.48
1291.08	1923.35
1294.68	2094.96
1298.29	1503.21
1301.89	887.758
1305.49	333.713
1309.09	151.834
1312.69	398.145
1316.29	704.969
1319.88	1217.97
1323.47	1396.89
1327.06	1733.54
1330.65	1369.02
1334.24	869.471
1337.83	183.545
1341.41	22.234
1344.99	192.621
1348.57	410.375
1352.15	782.309
1355.73	1250.8
1359.31	1836.95
1362.88	2084.74
1366.45	1895.12
1370.02	1242.07
1373.59	164.605
1377.16	207.129
1380.73	130.93
1384.29	467.119
1387.85	967.32
1391.41	1824.73
1394.97	2267.49
1398.53	2358.53
1402.09	2147.48
1405.64	1249.19
1409.19	1009.22
1412.74	540.738
1416.29	146.545
1419.84	271.811
1423.38	1088.62
1426.93	1413.61
1430.47	2370.37
1434.01	2693.78
1437.55	2493.82
1441.09	2722.36
1444.62	1798.93
1448.16	873.996
1451.69	949.824
1455.22	126.059
1458.75	320.176
1462.28	769.441
1465.8	1378.68
1469.33	2169.58
1472.85	3256.73
1476.37	3241.44
1479.89	2889.89
1483.4	2277.75
1486.92	1728.66
1490.43	1110.38
1493.95	645.805
1497.46	175.691
1500.97	40.34
1504.47	547.758
1507.98	1751.14
1511.48	2597.69
1514.99	2466.41
