Measurement: Raman, 514 nm, ccw, Raman Data Processed
Mineral: Leucophanite
Rruff sample: R050004
Ideal chemistry: NaCaBeSi_2_O_6_F
Locality: Langesundfjord, Norway
Source: University of Arizona Mineral Museum
Description: Pale green massive
Measured chemistry: Ca_1.00_Ca_1.00_Na_2.00_Be_2.00_Si_4.00_O_12_(F_0.96_(OH)_0.04_)_2_
Pin_id: M00469
Orientation: Laser parallel to -c* (0 0 -1). Fiducial mark perpendicular to laser is parallel to -a [-1 0 0]
Raman shift (cm-1)	intensity
60.426	0
64.637	45.652
68.847	43.4
73.054	81.92
77.26	24.5
81.463	47.979
85.664	19.15
89.863	21.708
94.059	53.759
98.254	74.196
102.446	154.155
106.637	165.98
110.825	358.114
115.011	219.72
119.195	207.178
123.377	221.507
127.556	203.821
131.734	159.403
135.909	193.513
140.083	175
144.254	167.148
148.423	150.892
152.59	220.781
156.755	236.911
160.918	275.948
165.078	285.936
169.237	595.028
173.393	536.419
177.548	146.644
181.7	133.465
185.85	93.346
189.998	105.942
194.144	72.05
198.288	95.817
202.429	162.011
206.569	53.17
210.707	47.287
214.842	5.979
218.976	41.435
223.107	81.08
227.236	157.586
231.363	119.26
235.488	229.294
239.611	335.786
243.732	236.709
247.851	139.361
251.967	90.036
256.082	29.951
260.195	50.44
264.305	39.594
268.414	3.874
272.52	69.087
276.624	60.166
280.726	6.759
284.827	14.146
288.925	0.097
293.021	1.304
297.115	3.73
301.207	49.802
305.296	199.648
309.384	459.298
313.47	805.778
317.554	419.077
321.635	189.265
325.715	103.708
329.792	42.275
333.868	128.031
337.941	91.345
342.013	77.013
346.082	44.664
350.15	57.19
354.215	112.726
358.278	322.538
362.339	676.244
366.399	326.182
370.456	158.628
374.511	228.842
378.564	496.222
382.615	415.729
386.664	193.908
390.711	63.844
394.756	1.649
398.799	35.101
402.84	0.14
406.879	4.218
410.916	51.032
414.951	49.594
418.983	78.916
423.014	218.161
427.043	563.645
431.07	1222.48
435.095	893.403
439.118	397.082
443.138	187.585
447.157	192.609
451.174	128.189
455.189	182.45
459.202	287.077
463.212	568.469
467.221	1341.26
471.228	1518.62
475.233	791.966
479.236	334.004
483.237	172.355
487.235	98.021
491.232	108.416
495.227	136.121
499.22	346.196
503.211	313.693
507.2	191.328
511.187	40.48
515.172	35.556
519.155	1.946
523.136	9.055
527.115	40.64
531.092	31.392
535.067	60.614
539.04	40.198
543.011	81.477
546.98	80.202
550.947	133.943
554.913	371.106
558.876	993.306
562.837	1684.19
566.797	917.808
570.754	305.088
574.709	140.721
578.663	30.106
582.614	30.087
586.564	11.021
590.511	2.95
594.457	9.415
598.401	22.583
602.343	23.818
606.282	19.752
610.22	10.641
614.156	104.705
618.09	19.089
622.022	129.995
625.952	126.578
629.88	110.833
633.807	96.026
637.731	169.424
641.653	208.777
645.574	326.268
649.492	388.554
653.409	551.765
657.323	881.227
661.236	1278.59
665.147	2323.3
669.056	4717.83
672.963	9598.44
676.868	10279.9
680.771	5564.03
684.672	3056.58
688.571	1923.65
692.468	1545.21
696.364	1573.34
700.257	1984.42
704.149	2439.79
708.038	2106.67
711.926	1301.08
715.812	809.048
719.696	581.45
723.578	588.332
727.458	640.317
731.336	704.773
735.213	518.569
739.087	359.855
742.96	304.485
746.83	192.955
750.699	154.214
754.566	243.457
758.431	438.333
762.294	698.493
766.155	564.533
770.014	305.998
773.872	226.258
777.727	148.631
781.581	112.843
785.433	180.324
789.282	123.938
793.13	137.979
796.977	213.861
800.821	115.07
804.663	125.62
808.504	48.222
812.342	5.551
816.179	120.343
820.014	108.476
823.847	139.417
827.678	25.875
831.507	61.49
835.334	85.826
839.16	38.742
842.983	96.677
846.805	24.969
850.625	2.835
854.443	31.467
858.259	83.236
862.074	82.931
865.886	157.137
869.697	112.825
873.506	444.001
877.313	537.688
881.118	230.006
884.921	50.277
888.722	21.418
892.522	128.539
896.319	28.22
900.115	67.515
903.909	31.676
907.701	229.988
911.492	129.943
915.28	140.659
919.067	70.842
922.852	42.669
926.635	0.031
930.416	11.224
934.195	37.554
937.973	21.919
941.748	130.136
945.522	84.095
949.294	49.899
953.064	183.039
956.832	333.221
960.599	483.057
964.364	953.585
968.127	842.583
971.888	489.884
975.647	537.038
979.404	660.278
983.16	526.588
986.914	523.663
990.666	325.126
994.416	536.786
998.164	709.167
1001.91	801.516
1005.65	671.22
1009.4	902.098
1013.14	1259.77
1016.88	2525.37
1020.62	6778.79
1024.35	8153.87
1028.09	3269.58
1031.82	1583.16
1035.55	793.076
1039.28	638.527
1043	1103.57
1046.73	1964.69
1050.45	2173.09
1054.17	1424.33
1057.89	734.912
1061.61	592.773
1065.33	581.488
1069.04	518.535
1072.75	621.621
1076.46	808.43
1080.17	628.184
1083.88	580.146
1087.59	510.594
1091.29	112.789
1094.99	286.406
1098.69	205.475
1102.39	252.066
1106.09	535.088
1109.78	437.416
1113.47	222.719
1117.16	127.729
1120.85	41.312
1124.54	175.664
1128.23	371.559
1131.91	688.344
1135.59	792.223
1139.27	752.445
1142.95	433.793
1146.63	173.865
1150.3	135.289
1153.98	136.084
1157.65	725.014
1161.32	695.053
1164.99	943.318
1168.65	676.102
1172.32	502.902
1175.98	232.436
1179.64	264.695
1183.3	618.361
1186.96	812.062
1190.62	585.668
1194.27	600.127
1197.92	408.785
1201.57	450.316
1205.22	383.758
1208.87	195.693
1212.51	419.008
1216.16	1015.47
1219.8	1111.23
1223.44	785.984
1227.08	637.531
1230.72	368.545
1234.35	347.568
1237.98	253.377
1241.62	590.301
1245.25	1126.18
1248.87	1347.24
1252.5	1394.04
1256.12	1407.1
1259.75	1044.01
1263.37	759.705
1266.99	410.455
1270.61	707.844
1274.22	586.047
1277.84	619.637
1281.45	1039.93
1285.06	1118.63
1288.67	799.52
1292.28	293.555
1295.88	50.422
1299.49	157.488
1303.09	157.523
1306.69	470.043
1310.29	451.07
1313.89	738.641
1317.48	749.109
1321.08	353.383
1324.67	32.867
1328.26	108.496
1331.85	108.117
1335.44	19.191
1339.02	151.027
1342.61	635.168
1346.19	1154.62
1349.77	992.676
1353.35	999.188
1356.92	378.281
1360.5	233.215
1364.07	328.695
1367.64	295.352
1371.21	127.402
1374.78	282.031
1378.35	1010.12
1381.91	1860.03
1385.48	1631.46
1389.04	1380.81
1392.6	1452.94
1396.16	974.582
1399.71	750.77
1403.27	522.078
1406.82	633.191
1410.38	755.539
1413.92	1047.59
1417.47	1464.41
1421.02	1912.21
1424.57	1960.19
1428.11	1831.79
1431.65	1296.21
1435.19	1025.07
1438.73	511.168
1442.27	287.277
1445.8	127.797
1449.33	927.535
1452.87	1200.97
1456.4	1776.04
1459.92	1849.14
1463.45	2228.76
1466.98	2004.77
1470.5	1919.39
1474.02	1142.17
1477.54	57.121
1481.06	409.809
1484.58	149.602
1488.09	23.297
1491.61	202.785
1495.12	0
