Measurement: Raman, 514 nm, ccw, Raman Data Processed
Mineral: Leucophanite
Rruff sample: R050004
Ideal chemistry: NaCaBeSi_2_O_6_F
Locality: Langesundfjord, Norway
Source: University of Arizona Mineral Museum
Description: Pale green massive
Measured chemistry: Ca_1.00_Ca_1.00_Na_2.00_Be_2.00_Si_4.00_O_12_(F_0.96_(OH)_0.04_)_2_
Pin_id: M00205
Orientation: Laser parallel to -b* (0 -1 0). Fiducial mark perpendicular to laser is parallel to c [0 0 1]
Raman shift (cm-1)	intensity
53.401	0
57.617	110.369
61.83	201.306
66.041	29.795
70.25	110.784
74.456	312.989
78.661	239.81
82.863	300.244
87.064	273.678
91.262	93.068
95.458	30.018
99.652	17.081
103.843	55.312
108.033	26.479
112.22	110.217
116.406	79.106
120.589	82.936
124.77	105.232
128.949	66.247
133.126	75.36
137.301	134.104
141.473	226.101
145.644	309.264
149.812	158.459
153.979	414.269
158.143	265.538
162.305	137.919
166.465	245.919
170.623	240.552
174.778	50.754
178.932	72.751
183.083	42.406
187.233	29
191.38	22.871
195.525	358.973
199.669	179.76
203.81	27.306
207.949	58.657
212.085	18.146
216.22	13.848
220.353	67.242
224.483	302.737
228.612	158.38
232.738	140.396
236.863	310.281
240.985	735.012
245.105	912.325
249.223	562.203
253.339	498.131
257.453	492.648
261.565	388.802
265.675	397.72
269.783	647.862
273.888	1211.84
277.992	1523.96
282.093	670.516
286.193	403.353
290.29	505.987
294.386	458.532
298.479	366.198
302.57	305.155
306.659	509.221
310.746	921.769
314.831	1521.35
318.914	1099.19
322.995	717.347
327.074	376.514
331.151	253.821
335.226	384.103
339.299	390.73
343.37	228.341
347.438	103.613
351.505	169.478
355.57	232.966
359.632	343.078
363.693	844.321
367.751	347.868
371.808	230.194
375.862	112.321
379.914	208.161
383.965	319.012
388.013	197.077
392.06	6.439
396.104	27.873
400.146	18.567
404.186	59.891
408.225	34.585
412.261	95.156
416.295	8.337
420.327	80.179
424.357	65.06
428.386	11.835
432.412	229.16
436.436	282.356
440.458	413.12
444.478	629.986
448.496	310.988
452.513	256.016
456.527	205.54
460.539	158.594
464.549	294.611
468.557	804.103
472.563	981.285
476.567	546.143
480.57	185.586
484.57	293.69
488.568	540.712
492.564	233.741
496.558	195.421
500.551	162.076
504.541	363.843
508.529	498.399
512.515	574.466
516.5	567.275
520.482	552.037
524.462	543.638
528.441	466.801
532.417	737.029
536.391	1282.13
540.364	1162.97
544.334	645.1
548.303	278.116
552.269	107.88
556.234	322.304
560.197	533.13
564.157	622.383
568.116	273.657
572.073	113.306
576.027	270.041
579.98	217.518
583.931	12.9
587.88	83.527
591.827	96.889
595.772	272.736
599.715	173.51
603.656	69.022
607.595	77.286
611.532	132.707
615.468	231.63
619.401	171.691
623.332	12.721
627.262	135.612
631.189	354.817
635.115	438.858
639.039	353.395
642.96	448.876
646.88	675.074
650.798	788.382
654.714	937.33
658.628	872.052
662.54	1248.93
666.45	2592.86
670.358	5899.05
674.264	12237.5
678.169	10399.2
682.071	4792.69
685.972	2936.06
689.87	2266.36
693.767	1831.19
697.662	1518.87
701.555	1905.12
705.446	2694.07
709.335	2660.03
713.222	1459.97
717.107	623.419
720.99	339.107
724.872	419.072
728.751	731.731
732.629	587.199
736.504	274.399
740.378	178.518
744.25	190.479
748.12	488.88
751.988	616.861
755.854	422.165
759.719	271.453
763.581	342.964
767.442	549.529
771.3	657.253
775.157	391.143
779.012	98.525
782.865	44.557
786.716	186.74
790.565	423.513
794.413	380.982
798.258	165.524
802.102	55.828
805.943	6.353
809.783	454.574
813.621	671.906
817.457	480.995
821.292	80.736
825.124	28.379
828.954	240.115
832.783	407.953
836.61	410.187
840.435	250.289
844.258	136.359
848.079	89.241
851.898	425.35
855.715	545.331
859.531	514.179
863.345	58.95
867.157	182.569
870.967	52.205
874.775	440.364
878.581	636.354
882.386	351.481
886.188	4.298
889.989	149.905
893.788	210.378
897.585	557.877
901.38	603.756
905.174	338.664
908.965	4.154
912.755	35.312
916.543	372.217
920.329	736.831
924.113	909.275
927.895	587.387
931.676	734.622
935.454	1689.3
939.231	1638.47
943.006	897.397
946.78	1029.34
950.551	569.032
954.32	243.83
958.088	139.83
961.854	547.685
965.618	1421.37
969.38	1487.86
973.141	1136.43
976.9	567.112
980.656	116.946
984.411	231.246
988.165	528.575
991.916	1057.79
995.665	883.577
999.413	645.295
1003.16	403.949
1006.9	317.078
1010.65	1014.64
1014.39	2238.53
1018.12	4632.05
1021.86	10160.4
1025.6	7755.97
1029.33	2437.34
1033.06	1176.32
1036.79	1000.65
1040.52	1829.35
1044.25	2367.58
1047.97	2418.8
1051.69	1875.64
1055.41	674.693
1059.13	413.127
1062.85	939.867
1066.57	1538.38
1070.28	2015.13
1073.99	1441.21
1077.7	686.645
1081.41	69.635
1085.12	260.197
1088.82	1123.95
1092.52	2005.8
1096.22	1995.79
1099.92	1430.78
1103.62	854.27
1107.32	147.648
1111.01	87.295
1114.7	51.947
1118.39	1076.44
1122.08	1853.52
1125.77	1444.18
1129.45	955.854
1133.14	305.596
1136.82	385.803
1140.5	826.717
1144.18	1412.77
1147.85	1882.9
1151.53	2026.05
1155.2	1574.46
1158.87	459.277
1162.54	279.537
1166.21	120.275
1169.88	966.701
1173.54	1865.36
1177.2	2594.74
1180.86	2257.81
1184.52	1539.64
1188.18	720.723
1191.83	45.033
1195.49	88.729
1199.14	839.1
1202.79	1797.63
1206.44	2503.08
1210.08	2456.02
1213.73	1677.6
1217.37	781.594
1221.01	140.15
1224.65	92.895
1228.29	957.975
1231.93	2358.48
1235.56	2756.9
1239.19	2704.72
1242.83	1852.26
1246.46	1030.83
1250.08	653.627
1253.71	240.566
1257.33	519.461
1260.96	1985.7
1264.58	2513.6
1268.19	3069.78
1271.81	2826.47
1275.43	2460.53
1279.04	1472.59
1282.65	457.73
1286.27	165.375
1289.87	693.77
1293.48	1726.89
1297.09	3034.06
1300.69	3332.82
1304.29	2975.93
1307.89	1637.4
1311.49	1025.49
1315.09	161.691
1318.68	377.348
1322.28	39.465
1325.87	1276.6
1329.46	2194.64
1333.05	2573.73
1336.63	3036.71
1340.22	2606.95
1343.8	1698.69
1347.38	676.504
1350.96	21.871
1354.54	735.711
1358.12	1090.81
1361.69	1840.44
1365.26	3667.28
1368.83	4130.94
1372.4	2975.4
1375.97	3307.08
1379.54	2255.91
1383.1	697.805
1386.66	370.203
1390.23	431.348
1393.79	875.379
1397.34	2205.88
1400.9	3462.45
1404.45	5204.04
1408.01	4594.85
1411.56	4663.89
1415.11	3540.15
1418.66	1964.89
1422.2	800.887
1425.75	156.91
1429.29	499.188
1432.83	907.098
1436.37	2211.95
1439.91	4184.82
1443.44	5335.31
1446.98	5616.58
1450.51	4466.53
1454.04	3808.99
1457.57	2266.5
1461.1	1007.02
1464.63	73.305
1468.15	109.383
1471.67	511.125
1475.19	1558.21
1478.71	3779.74
1482.23	4623.42
