Measurement: Raman, 514 nm, ccw, Raman Data Processed
Mineral: Leucophanite
Rruff sample: R050004
Ideal chemistry: NaCaBeSi_2_O_6_F
Locality: Langesundfjord, Norway
Source: University of Arizona Mineral Museum
Description: Pale green massive
Measured chemistry: Ca_1.00_Ca_1.00_Na_2.00_Be_2.00_Si_4.00_O_12_(F_0.96_(OH)_0.04_)_2_
Pin_id: M00290
Orientation: Laser parallel to -a* (-1 0 0). Fiducial mark perpendicular to laser is parallel to -b [0 -1 0]
Raman shift (cm-1)	intensity
61.83	0
66.041	15.541
70.25	48.162
74.456	72.885
78.661	9.89
82.863	24.876
87.064	41.974
91.262	47.135
95.458	117.392
99.652	178.572
103.843	279.534
108.033	399.172
112.22	627.313
116.406	425.098
120.589	398.311
124.77	415.956
128.949	435.97
133.126	400.305
137.301	416.4
141.473	456.823
145.644	513.947
149.812	638.377
153.979	995.968
158.143	957.592
162.305	705.402
166.465	583.573
170.623	722.123
174.778	567.816
178.932	363.628
183.083	295.525
187.233	271.462
191.38	267.436
195.525	336.447
199.669	417.541
203.81	497.742
207.949	342.037
212.085	264.386
216.22	234.764
220.353	232.109
224.483	197.397
228.612	220.021
232.738	233.137
236.863	212.971
240.985	252.412
245.105	256.63
249.223	270.729
253.339	277.839
257.453	321.668
261.565	221.237
265.675	299.077
269.783	394.608
273.888	565.337
277.992	429.857
282.093	356.21
286.193	201.566
290.29	184.039
294.386	218.763
298.479	214.656
302.57	270.24
306.659	503.83
310.746	1322.41
314.831	1901.98
318.914	932.522
322.995	400.033
327.074	261.272
331.151	168.921
335.226	217.743
339.299	224.549
343.37	232.803
347.438	139.646
351.505	180.97
355.57	299.103
359.632	872.297
363.693	1885.95
367.751	838.163
371.808	267.571
375.862	135.853
379.914	133.005
383.965	117.023
388.013	70.491
392.06	31.988
396.104	8.877
400.146	19.296
404.186	59.528
408.225	12.466
412.261	21.772
416.295	16.85
420.327	29.103
424.357	27.153
428.386	59.74
432.412	12.106
436.436	36.581
440.458	96.997
444.478	86.958
448.496	87.731
452.513	22.01
456.527	85.921
460.539	219.839
464.549	493.281
468.557	945.551
472.563	1102.06
476.567	606.233
480.57	308.348
484.57	130.552
488.568	145.934
492.564	118.049
496.558	74.884
500.551	12.437
504.541	84.728
508.529	113.701
512.515	125.339
516.5	119.659
520.482	131.671
524.462	103.375
528.441	272.755
532.417	492.863
536.391	689.648
540.364	490.112
544.334	239.341
548.303	115.665
552.269	78.036
556.234	63.24
560.197	10.386
564.157	24.107
568.116	9.563
572.073	14.625
576.027	51.503
579.98	15.199
583.931	16.483
587.88	4.711
591.827	66.727
595.772	37.45
599.715	80.971
603.656	84.057
607.595	50.675
611.532	100.366
615.468	103.478
619.401	122.665
623.332	116.095
627.262	150.191
631.189	184.508
635.115	274.334
639.039	270.431
642.96	370.954
646.88	429.861
650.798	490.742
654.714	713.098
658.628	1088.58
662.54	1715.77
666.45	3149.63
670.358	6812.72
674.264	14005.3
678.169	13935.7
682.071	7385.9
685.972	4051.37
689.87	2724.27
693.767	2217.33
697.662	2533.95
701.555	3206.58
705.446	4247.47
709.335	3850.35
713.222	2133.22
717.107	1078.37
720.99	747.068
724.872	431.014
728.751	382.179
732.629	313.817
736.504	240.938
740.378	199.423
744.25	210.276
748.12	192.066
751.988	249.892
755.854	353.991
759.719	489.954
763.581	384.987
767.442	237.159
771.3	160.612
775.157	163.712
779.012	120.541
782.865	184.631
786.716	33.207
790.565	114.463
794.413	99.551
798.258	97.592
802.102	56.508
805.943	35.746
809.783	58.113
813.621	204.321
817.457	166.329
821.292	165.564
825.124	79.435
828.954	85.503
832.783	1.985
836.61	7.294
840.435	111.755
844.258	63.66
848.079	1.999
851.898	2.159
855.715	26.468
859.531	120.797
863.345	74.354
867.157	96.562
870.967	154.614
874.775	105.533
878.581	158.253
882.386	155.551
886.188	111.61
889.989	7.234
893.788	57.332
897.585	48.863
901.38	56.804
905.174	91.363
908.965	222.997
912.755	214.322
916.543	16.11
920.329	147.033
924.113	66.415
927.895	16.588
931.676	240.692
935.454	407.708
939.231	532.269
943.006	106.538
946.78	68.213
950.551	8.662
954.32	109.621
958.088	128.483
961.854	414.739
965.618	898.435
969.38	714.438
973.141	396.756
976.9	340.586
980.656	222.932
984.411	203.482
988.165	178.149
991.916	168.892
995.665	221.845
999.413	292.961
1003.16	398.041
1006.9	397.386
1010.65	465.194
1014.39	660.408
1018.12	1728.48
1021.86	4607.47
1025.6	4804.21
1029.33	1872.38
1033.06	836.473
1036.79	498.401
1040.52	856.07
1044.25	1547.9
1047.97	3103.75
1051.69	3379.75
1055.41	1857.8
1059.13	814.962
1062.85	521.495
1066.57	478.2
1070.28	442.005
1073.99	464.709
1077.7	362.199
1081.41	292.783
1085.12	114.139
1088.82	76.303
1092.52	282.414
1096.22	245.531
1099.92	207.309
1103.62	264.322
1107.32	231.635
1111.01	141.078
1114.7	29.471
1118.39	80.441
1122.08	238.141
1125.77	171.189
1129.45	424.195
1133.14	543.895
1136.82	600.742
1140.5	477.486
1144.18	255.801
1147.85	99.516
1151.53	401.23
1155.2	581.967
1158.87	355.652
1162.54	499.705
1166.21	288.33
1169.88	423.238
1173.54	278.871
1177.2	464.615
1180.86	417.928
1184.52	657.441
1188.18	578.527
1191.83	677.094
1195.49	341.865
1199.14	334.34
1202.79	299.586
1206.44	272.928
1210.08	332.203
1213.73	558.092
1217.37	587.537
1221.01	619.869
1224.65	326.225
1228.29	301.689
1231.93	600.436
1235.56	381.768
1239.19	521.297
1242.83	778.793
1246.46	825.811
1250.08	765.857
1253.71	562.363
1257.33	522.875
1260.96	591.938
1264.58	359.934
1268.19	487.986
1271.81	662.428
1275.43	969.111
1279.04	1056.49
1282.65	698.711
1286.27	423.699
1289.87	310.668
1293.48	56.006
1297.09	104.631
1300.69	209.713
1304.29	538.975
1307.89	362.988
1311.49	743.395
1315.09	579.615
1318.68	332.002
1322.28	220.953
1325.87	234.477
1329.46	4.395
1333.05	39.098
1336.63	419.57
1340.22	514.84
1343.8	566.953
1347.38	745.383
1350.96	699.398
1354.54	219.039
1358.12	264.457
1361.69	5.285
1365.26	312.953
1368.83	34.156
1372.4	244.539
1375.97	572.074
1379.54	617.336
1383.1	821.465
1386.66	1151.2
1390.23	367.793
1393.79	415.895
1397.34	6.094
1400.9	18.355
1404.45	574.801
1408.01	345.832
1411.56	767.453
1415.11	1376.63
1418.66	1294.62
1422.2	1099.71
1425.75	1105.96
1429.29	655.965
1432.83	574.16
1436.37	173.277
1439.91	580.816
1443.44	789.586
1446.98	948.078
1450.51	898.703
1454.04	1601.44
1457.57	1624.34
1461.1	1799.4
1464.63	1260.22
1468.15	1247.12
1471.67	894.508
1475.19	107.109
1478.71	508.52
1482.23	391.18
1485.75	549.641
1489.26	1108.33
1492.78	1210.35
1496.29	1358.44
1499.8	1494.14
1503.31	1592.57
1506.81	1459.02
1510.32	670.02
1513.82	466.977
1517.32	0
