Measurement: Raman, 514 nm, ccw, Raman Data Processed
Mineral: Ludlamite
Rruff sample: R040152
Ideal chemistry: Fe^2+^_3_(PO_4_)_2_4H_2_O
Locality: Cobalt, Lemhi County, Idaho, USA
Source: University of Arizona Mineral Museum
Description: Green tabular single crystals
Measured chemistry: Fe_3.01_(P_1.00_O_4_)_2_Â·4H_2_O
Pin_id: M00398
Orientation: Laser parallel to (1 0 1). Fiducial mark perpendicular to laser is parallel to b [0 1 0]
Raman shift (cm-1)	intensity
80.823	0
85.009	7.596
89.193	74.936
93.375	190.959
97.554	342.292
101.732	1219.39
105.908	1267.7
110.082	467.157
114.254	833.963
118.424	477.274
122.592	310.084
126.758	428.75
130.922	997.081
135.083	2917.28
139.243	11107.8
143.401	11761.3
147.557	7076.61
151.711	2732.55
155.863	1026.08
160.013	1644.23
164.161	5333.01
168.308	4697.09
172.452	2949.84
176.594	1853.51
180.734	2279.28
184.872	1663.26
189.008	762.499
193.143	961.019
197.275	2388.83
201.405	4429.94
205.534	4748.32
209.66	5015.36
213.784	2499.24
217.907	861.447
222.027	323.356
226.146	155.61
230.263	206.132
234.377	313.299
238.49	379.763
242.601	638.249
246.709	1060.5
250.816	1076.84
254.921	1121.88
259.024	1612.26
263.125	1403.12
267.224	1680.17
271.321	1853.16
275.416	1130.92
279.51	1298.31
283.601	2370.24
287.69	2942.61
291.778	2091.38
295.863	1318.46
299.947	1256.82
304.029	1301.42
308.108	962.239
312.186	634.245
316.262	490.412
320.336	443.716
324.408	319.127
328.478	63.594
332.546	57.096
336.612	59.632
340.677	138.204
344.739	72.383
348.799	26.455
352.858	18.876
356.915	1.753
360.969	48.352
365.022	88.962
369.073	99.578
373.122	11.81
377.169	34.224
381.215	57.705
385.258	69.436
389.299	106.324
393.339	115.464
397.376	71.016
401.412	46.01
405.446	16.604
409.478	19.456
413.508	12.521
417.536	51.703
421.562	178.047
425.586	262.457
429.609	244.953
433.629	501.486
437.648	592.092
441.665	847.763
445.68	1227.48
449.693	1911.22
453.704	3309
457.713	5067.82
461.721	6278.69
465.726	5954.55
469.73	3633.35
473.731	2129.09
477.731	1284.78
481.729	1175.39
485.725	1371.92
489.72	1810.37
493.712	2553.74
497.703	3036.71
501.691	2891.9
505.678	2317
509.663	1649.02
513.646	1202.02
517.627	1054.32
521.607	1192.08
525.584	1366.74
529.56	1812.3
533.534	2102.59
537.506	1951.49
541.476	2027.21
545.444	2711.73
549.41	3773.26
553.375	4812.8
557.337	6651.65
561.298	8492.35
565.257	8126.41
569.214	5780.59
573.17	3787.24
577.123	2557.79
581.075	1912.45
585.024	1382.47
588.972	1120.85
592.918	864.407
596.863	1006.67
600.805	875.087
604.746	710.87
608.685	499.985
612.621	400.878
616.557	420.727
620.49	569.971
624.421	679.479
628.351	1003.9
632.279	1117.24
636.205	1111.44
640.129	1046.21
644.051	914.942
647.972	719.516
651.89	553.089
655.807	604.367
659.722	585.257
663.636	567.89
667.547	570.199
671.457	420.746
675.365	302.54
679.271	255.199
683.175	235.289
687.077	142.71
690.978	152.017
694.877	124.234
698.774	69.403
702.669	23.598
706.562	123.797
710.454	98.091
714.344	106.321
718.232	39.508
722.118	80.65
726.002	10.268
729.885	16.339
733.766	10.699
737.645	41.688
741.522	31.072
745.397	48.935
749.271	19.201
753.143	64.603
757.013	31.268
760.881	24.141
764.748	78.221
768.613	82.569
772.476	26.201
776.337	29.923
780.196	17.919
784.054	34.833
787.91	4.647
791.764	83.372
795.616	142.029
799.467	9.625
803.316	26.156
807.163	101.625
811.008	58.039
814.851	28.399
818.693	23.707
822.533	8.985
826.371	11.215
830.208	24.377
834.042	106.482
837.875	83.551
841.706	126.667
845.536	101.799
849.363	150.854
853.189	102.781
857.013	196.28
860.836	122.448
864.656	107.384
868.475	128.499
872.292	203.962
876.108	174.175
879.922	175.406
883.733	268.192
887.544	244.893
891.352	392.743
895.159	515.362
898.964	694.599
902.767	786.406
906.568	1100.82
910.368	1781.95
914.166	2753.99
917.962	3120.8
921.757	2813.92
925.55	2542.84
929.341	2641.79
933.13	3812.26
936.918	4827.87
940.703	7848.25
944.488	15022.1
948.27	33685.1
952.051	51304
955.83	31338.1
959.607	15318.2
963.383	8732.47
967.156	6335.65
970.928	5036.09
974.699	4190.8
978.468	3157.62
982.234	2545.31
986	2631.79
989.763	2317.73
993.525	2087.82
997.285	1688.79
1001.04	1250.72
1004.8	824.09
1008.55	675.717
1012.31	668.75
1016.06	655.759
1019.81	808.702
1023.56	917.622
1027.31	1228.61
1031.05	1322.02
1034.79	1289.97
1038.53	1511.31
1042.27	2292.86
1046.01	2382.61
1049.75	1704.98
1053.48	1417.54
1057.22	1559.89
1060.95	1884.49
1064.68	2564.42
1068.4	3558.2
1072.13	3891.75
1075.86	3444.02
1079.58	2693.95
1083.3	1874.83
1087.02	1336.81
1090.74	831.023
1094.45	623.213
1098.17	491.776
1101.88	333.955
1105.59	235.972
1109.3	172.728
1113.01	36.276
1116.71	2.222
1120.42	65.198
1124.12	323.672
1127.82	191.571
1131.52	108.108
1135.22	37.834
1138.91	76.025
1142.61	28.583
1146.3	44.669
1149.99	51.798
1153.68	9.393
1157.37	54.313
1161.06	51.901
1164.74	86.288
1168.42	109.355
1172.1	7.838
1175.78	71.922
1179.46	50.317
1183.14	79.32
1186.81	6.399
1190.48	128.384
1194.15	19.889
1197.83	156.338
1201.49	114.324
1205.16	127.882
1208.82	142.119
1212.49	86.324
1216.15	158.897
1219.81	102.399
1223.46	20.284
1227.12	129.244
1230.78	134.577
1234.43	79.688
1238.08	118.97
1241.73	215.075
1245.38	3.31
1249.03	52.386
1252.67	61.274
1256.31	153.446
1259.95	89.195
1263.6	113.733
1267.23	92.252
1270.87	23.971
1274.51	61.957
1278.14	99.058
1281.77	139.591
1285.4	88.588
1289.03	93.24
1292.66	2.332
1296.28	75.763
1299.91	124.857
1303.53	9.585
1307.15	4.485
1310.77	74.166
1314.38	42.419
1318	99.479
1321.61	76.926
1325.23	46.621
1328.84	135.657
1332.45	107.939
1336.06	124.275
1339.66	49.158
1343.27	92.83
1346.87	87.403
1350.47	69.15
1354.07	73.365
1357.67	145.745
1361.26	180.463
1364.86	154.002
1368.45	154.04
1372.04	124.271
1375.63	199.78
1379.22	79.229
1382.81	146.888
1386.39	95.758
1389.98	40.096
1393.56	162.35
1397.14	200.967
1400.72	354.779
1404.3	101.925
1407.87	121.722
1411.45	110.26
1415.02	214.503
1418.59	77.354
1422.16	213.725
1425.73	253.446
1429.29	94.459
1432.86	256.979
1436.42	295.435
1439.98	230.579
1443.54	238.053
1447.1	317.835
1450.66	236.707
1454.21	329.151
1457.77	400.24
1461.32	337.229
1464.87	315.637
1468.42	185.058
1471.96	226.335
1475.51	220.354
1479.06	274.504
1482.6	203.762
1486.14	131.947
1489.68	141.703
1493.22	233.687
1496.75	282.341
1500.29	64.647
1503.82	4.188
1507.35	82.965
1510.88	157.476
1514.41	93.769
1517.94	11.813
1521.46	109.422
1524.99	0
