Measurement: Raman, 514 nm, ccw, Raman Data Processed
Mineral: Ludlamite
Rruff sample: R040152
Ideal chemistry: Fe^2+^_3_(PO_4_)_2_4H_2_O
Locality: Cobalt, Lemhi County, Idaho, USA
Source: University of Arizona Mineral Museum
Description: Green tabular single crystals
Measured chemistry: Fe_3.01_(P_1.00_O_4_)_2_Â·4H_2_O
Pin_id: S00001
Orientation: Laser parallel to b* (0 1 0). Fiducial mark perpendicular to laser is parallel to -c [0 0 -1]
Raman shift (cm-1)	intensity
79.427	0
83.614	91.713
87.798	237.827
91.981	871.443
96.161	3220.27
100.34	8390.43
104.516	9461.1
108.691	2147.59
112.864	693.461
117.034	425.918
121.203	308.351
125.369	321.084
129.534	571.614
133.696	1032.78
137.857	2710.81
142.016	4934.12
146.172	5668.29
150.327	3199.32
154.48	1081.58
158.63	687.553
162.779	1049.22
166.926	2012.39
171.07	3372.12
175.213	3134.23
179.354	2327.76
183.493	2042.83
187.63	1018.53
191.765	745.88
195.898	1531.9
200.029	2606.58
204.158	2090.9
208.285	1487.83
212.41	788.347
216.533	192.419
220.654	19.977
224.773	57.868
228.891	81.276
233.006	67.17
237.119	181.549
241.231	538.729
245.34	1147.6
249.448	1443.31
253.553	1094.22
257.657	1166.6
261.758	1648.05
265.858	1977.93
269.956	2186.56
274.052	1333.37
278.146	1083.29
282.237	1623.17
286.327	2134.89
290.416	1814.32
294.502	1572.38
298.586	2178.01
302.668	2606.15
306.749	2223.75
310.827	1317.77
314.903	789.175
318.978	441.885
323.051	288.867
327.121	163.107
331.19	265.566
335.257	300.237
339.322	469.114
343.385	643.192
347.446	413.465
351.505	278.924
355.563	309.561
359.618	475.367
363.672	516.331
367.723	516.445
371.773	217.699
375.821	55.087
379.866	59.623
383.91	87.91
387.952	91.971
391.992	77.248
396.031	19.064
400.067	72.221
404.101	87.006
408.134	111.207
412.165	42.491
416.193	12.692
420.22	73.168
424.245	78.121
428.268	141.246
432.289	226.572
436.309	210.053
440.326	372.713
444.342	644.575
448.355	998.559
452.367	1803.72
456.377	2690.01
460.385	3222.4
464.391	2780.88
468.395	1740.42
472.398	1260.01
476.398	1090.68
480.397	1189.41
484.394	1545.2
488.389	2348.03
492.382	3498.87
496.373	3995.85
500.362	3175.91
504.349	2108.07
508.335	1431.28
512.319	1231.52
516.3	1140.75
520.28	1200.03
524.259	1255.31
528.235	1621.58
532.209	2135.92
536.182	3136.77
540.152	4799.54
544.121	7629.62
548.088	9376.09
552.053	7787.26
556.017	4833.75
559.978	3117.12
563.938	2232.28
567.895	1504.69
571.851	895.469
575.805	555.293
579.758	365.77
583.708	318.844
587.657	464.155
591.603	271.782
595.548	496.085
599.491	547.848
603.432	488.125
607.372	425.151
611.309	394.894
615.245	460.66
619.179	681.669
623.111	779.562
627.041	1183.24
630.97	1515.19
634.896	1498.21
638.821	1400.96
642.744	1105.65
646.665	1053.54
650.584	863.931
654.502	737.17
658.418	710.202
662.331	522.555
666.244	521.823
670.154	359.981
674.062	276.676
677.969	258.436
681.874	265.656
685.777	145.494
689.678	83.249
693.577	167.899
697.475	40.56
701.371	11.907
705.265	148.414
709.157	108.029
713.047	28.754
716.936	59.587
720.823	62.514
724.708	67.495
728.591	64.525
732.472	7.502
736.352	72.359
740.23	26.832
744.106	87.771
747.98	14.245
751.853	59.396
755.723	40.289
759.592	117.583
763.459	152.317
767.325	8.784
771.188	28.902
775.05	138.239
778.91	15.277
782.768	45.215
786.625	55.937
790.479	43.707
794.332	57.233
798.183	31.646
802.033	51.976
805.88	82.148
809.726	45.048
813.57	56.762
817.413	84.675
821.253	108.694
825.092	56.004
828.929	61.237
832.764	87.382
836.598	123.474
840.429	209.6
844.259	193.7
848.088	119.291
851.914	75.754
855.739	340.813
859.562	187.974
863.383	271.619
867.203	313.426
871.02	292.33
874.836	275.896
878.65	392.633
882.463	355.401
886.274	383.16
890.083	345.271
893.89	466.587
897.695	654.208
901.499	886.591
905.301	1146.77
909.102	1599.97
912.9	2225.16
916.697	2580.76
920.492	2404.78
924.285	2212.34
928.077	2435.71
931.867	3039.58
935.655	4355.62
939.442	6829.54
943.226	13288
947.009	29477.4
950.791	46149.6
954.57	31557
958.348	16078.2
962.124	8948.39
965.899	6185.96
969.671	4789.35
973.442	4285.77
977.211	3762.38
980.979	3433.39
984.745	3296.8
988.509	3142.79
992.271	2652.78
996.032	2101.18
999.791	1785.17
1003.55	1131.36
1007.3	959.836
1011.06	915.157
1014.81	908.685
1018.56	938.786
1022.31	1192.2
1026.06	1610.11
1029.8	1567.89
1033.55	1238.18
1037.29	1098.49
1041.03	1368.82
1044.77	1320.6
1048.5	975.455
1052.24	748.872
1055.97	676.253
1059.7	681.95
1063.43	843.031
1067.16	946.014
1070.89	1095.2
1074.61	1368.52
1078.34	1341.25
1082.06	1114.62
1085.78	561.543
1089.5	332.812
1093.21	214.034
1096.93	248.123
1100.64	53.157
1104.35	123.793
1108.06	9.011
1111.77	61.75
1115.48	24.629
1119.18	33.557
1122.89	159.961
1126.59	46.143
1130.29	166.061
1133.99	2.17
1137.68	165.987
1141.38	105.035
1145.07	45.847
1148.76	112.145
1152.45	57.537
1156.14	42.119
1159.83	24.055
1163.51	2.278
1167.19	151.768
1170.88	11.284
1174.56	92.349
1178.23	120.122
1181.91	160.479
1185.59	76.868
1189.26	126.485
1192.93	164.887
1196.6	208.782
1200.27	89.077
1203.94	161.357
1207.6	174.328
1211.27	136.483
1214.93	253.891
1218.59	79.988
1222.25	164.972
1225.9	198.804
1229.56	237.206
1233.21	170.467
1236.86	245.17
1240.51	246.704
1244.16	87.214
1247.81	36.846
1251.45	126.022
1255.1	138.241
1258.74	93.688
1262.38	119.805
1266.02	218.459
1269.66	37.893
1273.29	18.93
1276.93	1.561
1280.56	112.744
1284.19	32.415
1287.82	116.451
1291.45	134.994
1295.07	24.373
1298.7	18.672
1302.32	64.713
1305.94	52.464
1309.56	137.954
1313.18	53.948
1316.8	123.908
1320.41	60.09
1324.02	105.659
1327.63	17.513
1331.24	104.426
1334.85	25.63
1338.46	32.022
1342.06	15.012
1345.67	20.565
1349.27	143.601
1352.87	234.847
1356.47	148.221
1360.07	166.653
1363.66	179.215
1367.25	211.295
1370.85	206.115
1374.44	310.674
1378.03	207.296
1381.61	157.117
1385.2	168.42
1388.78	158.326
1392.37	54.292
1395.95	107.919
1399.53	128.131
1403.1	237.111
1406.68	212.377
1410.26	207.884
1413.83	144.823
1417.4	176.254
1420.97	287.992
1424.54	331.835
1428.1	216.773
1431.67	171.65
1435.23	195.984
1438.8	264.847
1442.36	259.264
1445.91	420.674
1449.47	282.056
1453.03	395.164
1456.58	382.096
1460.13	617.318
1463.68	344.707
1467.23	316.355
1470.78	436.93
1474.33	465.182
1477.87	322.297
1481.42	186.893
1484.96	308.971
1488.5	183.252
1492.04	279.066
1495.57	190.871
1499.11	16.049
1502.64	136.322
1506.17	165.35
1509.71	217.83
1513.23	126.789
1516.76	35.73
1520.29	0.047
