Measurement: Raman, 514 nm, ccw, Raman Data Processed
Mineral: Ludlamite
Rruff sample: R040152
Ideal chemistry: Fe^2+^_3_(PO_4_)_2_4H_2_O
Locality: Cobalt, Lemhi County, Idaho, USA
Source: University of Arizona Mineral Museum
Description: Green tabular single crystals
Measured chemistry: Fe_3.01_(P_1.00_O_4_)_2_Â·4H_2_O
Pin_id: M00398
Orientation: Laser parallel to (1 0 1). Fiducial mark perpendicular to laser is parallel to b [0 1 0]
Raman shift (cm-1)	intensity
94.768	0
98.947	74.944
103.124	307.855
107.3	169.042
111.473	44.598
115.644	268.611
119.813	81.028
123.981	128.228
128.146	249.437
132.309	804.628
136.47	2878.38
140.63	8473.01
144.787	8615.7
148.942	7635.97
153.096	1815.5
157.247	589.075
161.396	1180.91
165.544	2935.02
169.689	1420.49
173.833	1128.8
177.974	472.784
182.114	372.147
186.251	217.126
190.387	485.947
194.52	1673.72
198.652	4859.52
202.782	5825.37
206.909	6177.28
211.035	6221.27
215.159	2653.39
219.281	1076.51
223.4	413.5
227.518	197.134
231.634	98.36
235.748	56.685
239.86	139.987
243.97	239.579
248.079	383.903
252.185	450.8
256.289	737.919
260.391	802.736
264.492	740.926
268.59	1259.36
272.687	1104.04
276.781	842.602
280.874	1173.81
284.964	2063.53
289.053	1952.63
293.14	1146.05
297.225	1043.72
301.308	1499.59
305.389	1461.61
309.468	897.755
313.545	530.99
317.62	339.298
321.693	513.126
325.765	88.063
329.834	53.479
333.902	25.894
337.967	77.269
342.031	195.924
346.093	189.839
350.153	40.958
354.21	94.843
358.267	9.883
362.321	72.991
366.373	165.811
370.423	35.577
374.471	39.294
378.518	77.978
382.563	24.351
386.605	71.795
390.646	66.624
394.685	26.774
398.722	23.095
402.757	24.63
406.79	9.652
410.821	40.857
414.851	62.076
418.878	71.149
422.904	171.759
426.927	209.315
430.949	227.434
434.969	441.546
438.987	526.652
443.003	810.753
447.018	1167.87
451.03	1709.03
455.041	2785.19
459.049	3975.3
463.056	4184.8
467.061	2994.34
471.064	1660.25
475.065	942.073
479.064	808.781
483.062	748.374
487.057	1079.85
491.051	1680.2
495.043	2465.38
499.032	2671.49
503.02	2156.47
507.007	1459.33
510.991	1005.85
514.973	733.748
518.954	595.932
522.933	708.483
526.91	829.027
530.885	1141.1
534.858	1223.61
538.829	1146.4
542.799	1366.35
546.766	1754.02
550.732	2166.32
554.696	2813.16
558.658	3945.37
562.618	4573.29
566.576	3900.1
570.533	2828.86
574.488	2164.19
578.44	1780.1
582.391	1416.47
586.341	907.15
590.288	595.232
594.233	452.108
598.177	373.217
602.119	322.776
606.059	298.009
609.997	221.19
613.933	116.154
617.868	181.728
621.801	104.401
625.731	258.95
629.66	250.667
633.588	234.669
637.513	325.543
641.437	212.291
645.358	172.913
649.278	189.41
653.196	178.785
657.113	182.04
661.027	237.175
664.94	221.192
668.851	179.105
672.76	113.96
676.667	45.793
680.572	78.526
684.476	93.145
688.378	28.639
692.278	18.009
696.176	47.832
700.072	102.089
703.967	24.963
707.86	76.921
711.751	14.058
715.64	14.927
719.527	64.902
723.413	47.861
727.297	52.736
731.179	85.518
735.059	17.164
738.937	38.667
742.814	31.935
746.689	54.315
750.562	8.559
754.433	25.405
758.303	18.801
762.17	49.277
766.036	5.049
769.901	90.009
773.763	6.936
777.624	8.729
781.482	33.586
785.339	63.997
789.195	131.994
793.048	132.036
796.9	248.514
800.75	244.967
804.598	210.401
808.445	166.816
812.289	72.338
816.132	66.661
819.973	154.108
823.813	648.596
827.65	349.08
831.486	109.279
835.32	68.766
839.152	75.09
842.983	78.422
846.812	111.446
850.639	173.594
854.464	122.288
858.288	188.588
862.11	178.426
865.93	148.245
869.748	201.855
873.564	199.272
877.379	242.198
881.192	387.524
885.004	355.498
888.813	502.639
892.621	525.557
896.427	630.494
900.232	908.781
904.034	1313.3
907.835	1915.05
911.634	3081.07
915.432	4755.92
919.227	4687.44
923.021	3628.71
926.813	3196.75
930.604	3424.79
934.393	4295.21
938.18	6250.86
941.965	10430.4
945.749	20906
949.53	44480.7
953.311	48676.5
957.089	24472.3
960.866	12243.3
964.641	7294.66
968.414	4855.88
972.185	3727.64
975.955	2858.86
979.723	2235.42
983.49	2079.79
987.254	1954.71
991.017	2108.12
994.779	2193.5
998.538	1938.07
1002.3	1307.48
1006.05	981.54
1009.81	772.872
1013.56	651.291
1017.31	709.343
1021.06	732.146
1024.81	1127.32
1028.55	1476.96
1032.3	1382.8
1036.04	1125.55
1039.78	1214.33
1043.52	1534.64
1047.26	1214.05
1050.99	765.533
1054.73	931.975
1058.46	970.695
1062.19	1272.16
1065.92	1713.88
1069.65	2106.71
1073.37	2313.99
1077.1	1943.1
1080.82	1426.55
1084.54	1032.03
1088.26	765.211
1091.97	430.088
1095.69	282.937
1099.4	264.912
1103.12	228.729
1106.83	76.853
1110.54	37.539
1114.24	27.534
1117.95	60.571
1121.65	126.625
1125.35	179.942
1129.06	53.568
1132.75	50.222
1136.45	77.803
1140.15	14.705
1143.84	64.266
1147.53	96.163
1151.22	76.771
1154.91	84.221
1158.6	11.822
1162.28	9.359
1165.97	89.904
1169.65	10.922
1173.33	60.45
1177.01	88.999
1180.69	1.854
1184.36	81.375
1188.04	141.072
1191.71	87.044
1195.38	90.541
1199.05	116.354
1202.71	139.436
1206.38	98.826
1210.04	130.556
1213.71	110.442
1217.37	173.257
1221.03	190.676
1224.68	174.541
1228.34	86.271
1231.99	181.99
1235.65	126.08
1239.3	77.834
1242.95	116.369
1246.59	181.125
1250.24	189.311
1253.88	129.14
1257.53	36.321
1261.17	29.824
1264.81	103.562
1268.45	62.216
1272.08	73.101
1275.72	58.603
1279.35	197.045
1282.98	180.73
1286.61	71.128
1290.24	42.992
1293.87	110.179
1297.49	8.373
1301.11	82.237
1304.73	25.237
1308.36	72.536
1311.97	25.086
1315.59	130.484
1319.2	10.953
1322.82	82.589
1326.43	63.999
1330.04	31.855
1333.65	1.724
1337.26	96.303
1340.86	86.019
1344.47	595.404
1348.07	226.48
1351.67	183.661
1355.27	84.093
1358.87	62.882
1362.46	152.273
1366.06	181.023
1369.65	209.518
1373.24	155.782
1376.83	233.803
1380.42	202.956
1384	121.593
1387.59	126.586
1391.17	191.535
1394.75	178.614
1398.33	163.657
1401.91	170.78
1405.49	29.145
1409.06	173.097
1412.64	252.042
1416.21	135.312
1419.78	279.645
1423.35	65.058
1426.91	247.114
1430.48	255.239
1434.05	177.223
1437.61	358.761
1441.17	292.551
1444.73	343.124
1448.29	304.103
1451.84	370.013
1455.4	398.213
1458.95	287.298
1462.5	279.052
1466.05	191.246
1469.6	181.456
1473.15	53.284
1476.69	60.229
1480.24	182.459
1483.78	268.871
1487.32	221.306
1490.86	85.797
1494.39	149.688
1497.93	128.669
1501.46	33.495
1505	107.202
1508.53	176.28
1512.06	88.329
1515.59	1.104
1519.11	255.597
1522.64	0
