Measurement: Raman, 514 nm, ccw, Raman Data Processed
Mineral: Ludlamite
Rruff sample: R040152
Ideal chemistry: Fe^2+^_3_(PO_4_)_2_4H_2_O
Locality: Cobalt, Lemhi County, Idaho, USA
Source: University of Arizona Mineral Museum
Description: Green tabular single crystals
Measured chemistry: Fe_3.01_(P_1.00_O_4_)_2_Â·4H_2_O
Pin_id: S00410
Orientation: Laser parallel to -a* (-1 0 0). Fiducial mark perpendicular to laser is parallel to b [0 1 0]
Raman shift (cm-1)	intensity
73.842	0
78.031	18.443
82.218	0.994
86.404	14.098
90.587	250.934
94.768	580.146
98.947	1697.58
103.124	2958.54
107.3	1423.05
111.473	744.679
115.644	980.658
119.813	525.784
123.981	435.092
128.146	756.87
132.309	2017.66
136.47	5464.14
140.63	12341.1
144.787	10415.3
148.942	6835.57
153.096	2608.81
157.247	1599.46
161.396	2961.89
165.544	6397.02
169.689	4915.01
173.833	3221.02
177.974	1419.15
182.114	884.459
186.251	791.99
190.387	964.761
194.52	2033.78
198.652	3952.05
202.782	5116.57
206.909	5394.31
211.035	4601.28
215.159	2405.47
219.281	1025.85
223.4	417.429
227.518	224.803
231.634	211.86
235.748	178.556
239.86	184.343
243.97	237.447
248.079	517.21
252.185	797.891
256.289	1467.14
260.391	1848.39
264.492	1707.45
268.59	1789.18
272.687	1732.5
276.781	1639.32
280.874	2397.57
284.964	3591.21
289.053	3837.17
293.14	3078.42
297.225	2597.93
301.308	2761.68
305.389	2598.65
309.468	1954.81
313.545	1481.15
317.62	1265.65
321.693	1087.25
325.765	786.92
329.834	461.668
333.902	462.493
337.967	473.394
342.031	502.37
346.093	385.418
350.153	232.533
354.21	104.714
358.267	123.953
362.321	109.249
366.373	100.595
370.423	98.989
374.471	11.573
378.518	70.125
382.563	96.781
386.605	91.633
390.646	73.783
394.685	85.536
398.722	69.018
402.757	10.996
406.79	4.024
410.821	7.168
414.851	50.473
418.878	110.895
422.904	181.479
426.927	266.247
430.949	402.185
434.969	542.273
438.987	766.564
443.003	1173.02
447.018	1750.63
451.03	2678.4
455.041	4343.27
459.049	6028.22
463.056	6553.2
467.061	5230.19
471.064	3192.17
475.065	1992.14
479.064	1523.11
483.062	1515.06
487.057	1907.01
491.051	2612.93
495.043	3646.84
499.032	4140.72
503.02	3835.59
507.007	3125.43
510.991	2308.24
514.973	1763.02
518.954	1710.77
522.933	2075.49
526.91	2846.17
530.885	3730.82
534.858	3937.64
538.829	3704.9
542.799	4061.77
546.766	5448.04
550.732	6508.55
554.696	7640.13
558.658	9613.85
562.618	10764.5
566.576	9058.98
570.533	6458.93
574.488	4322.2
578.44	3050.95
582.391	2186.28
586.341	1455.42
590.288	985.993
594.233	693.545
598.177	518.792
602.119	423.129
606.059	390.161
609.997	366.706
613.933	455.009
617.868	520.557
621.801	656.089
625.731	731.01
629.66	844.863
633.588	970.647
637.513	972.363
641.437	999.009
645.358	942.587
649.278	871.097
653.196	855.538
657.113	892.912
661.027	818.219
664.94	770.458
668.851	746.632
672.76	618.741
676.667	404.784
680.572	306.764
684.476	199.681
688.378	201.537
692.278	145.643
696.176	122.135
700.072	99.055
703.967	53.154
707.86	29.5
711.751	53.02
715.64	18.344
719.527	50.288
723.413	29.113
727.297	13.703
731.179	8.456
735.059	0.653
738.937	46.45
742.814	23.858
746.689	62.482
750.562	22.434
754.433	36.701
758.303	34.269
762.17	13.153
766.036	3.281
769.901	19.603
773.763	5.065
777.624	82.429
781.482	80.905
785.339	74.366
789.195	107.816
793.048	154.257
796.9	217.694
800.75	161.131
804.598	79.571
808.445	133.02
812.289	83.48
816.132	74.955
819.973	36.45
823.813	34.967
827.65	22.511
831.486	60.086
835.32	70.699
839.152	86.357
842.983	90.09
846.812	122.89
850.639	138.747
854.464	97.669
858.288	86.643
862.11	148.543
865.93	167.612
869.748	228.257
873.564	216.11
877.379	317.815
881.192	347.412
885.004	414.191
888.813	459.025
892.621	615.955
896.427	759.441
900.232	1022.74
904.034	1363.06
907.835	2104.39
911.634	3299.75
915.432	4201.59
919.227	3924.33
923.021	3252.88
926.813	3102.07
930.604	3568.96
934.393	4858
938.18	7345.23
941.965	12839.6
945.749	27015.2
949.53	51223
953.311	47785
957.089	26140.3
960.866	13615.7
964.641	8437.32
968.414	6038.16
972.185	4717.17
975.955	3483.39
979.723	2529.84
983.49	1976.5
987.254	1868.91
991.017	1865.87
994.779	1868.42
998.538	1495.75
1002.3	1237.71
1006.05	1049.48
1009.81	1006.14
1013.56	1015.7
1017.31	1018.23
1021.06	1211.6
1024.81	1488.64
1028.55	1683.64
1032.3	1355.9
1036.04	1136.4
1039.78	1221.08
1043.52	1440.03
1047.26	1433.92
1050.99	1508.39
1054.73	1713.17
1058.46	2184.41
1062.19	2943.73
1065.92	3981.34
1069.65	4687.27
1073.37	4578.04
1077.1	3698.29
1080.82	2692.63
1084.54	1792
1088.26	1267.12
1091.97	839.298
1095.69	592.328
1099.4	461.636
1103.12	333.063
1106.83	291.378
1110.54	206.211
1114.24	92.313
1117.95	131.501
1121.65	142.034
1125.35	78.655
1129.06	54.808
1132.75	2.046
1136.45	5.714
1140.15	12.394
1143.84	34.547
1147.53	33.746
1151.22	24.721
1154.91	10.364
1158.6	18.632
1162.28	20.381
1165.97	44.648
1169.65	22.932
1173.33	0.163
1177.01	32.218
1180.69	0.088
1184.36	33.027
1188.04	40.378
1191.71	23.687
1195.38	23.131
1199.05	45.345
1202.71	1.058
1206.38	71.668
1210.04	71.924
1213.71	10.942
1217.37	6.055
1221.03	40.455
1224.68	56.076
1228.34	1.116
1231.99	30.205
1235.65	66.875
1239.3	51.143
1242.95	14.83
1246.59	23.296
1250.24	33.667
1253.88	9.655
1257.53	38.078
1261.17	6.073
1264.81	59.159
1268.45	22.886
1272.08	17.712
1275.72	2.42
1279.35	37.352
1282.98	34.295
1286.61	9.556
1290.24	71.9
1293.87	60.637
1297.49	23.542
1301.11	29.563
1304.73	30.17
1308.36	54.556
1311.97	48.102
1315.59	23.191
1319.2	3.677
1322.82	60.923
1326.43	47.966
1330.04	95.979
1333.65	6.636
1337.26	70.853
1340.86	41.135
1344.47	52.818
1348.07	114.051
1351.67	35.251
1355.27	70.131
1358.87	60.711
1362.46	107.303
1366.06	107.508
1369.65	37.374
1373.24	128.368
1376.83	36.774
1380.42	37.28
1384	82.906
1387.59	82.4
1391.17	87.304
1394.75	60.88
1398.33	82.031
1401.91	73.856
1405.49	102.779
1409.06	131.038
1412.64	27.434
1416.21	133.536
1419.78	53.073
1423.35	70.426
1426.91	49.393
1430.48	27.976
1434.05	47.334
1437.61	70.752
1441.17	79.052
1444.73	73.38
1448.29	91.826
1451.84	115.069
1455.4	31.097
1458.95	94.25
1462.5	51.174
1466.05	123.083
1469.6	133.392
1473.15	37.017
1476.69	80.708
1480.24	65.104
1483.78	34.047
1487.32	92.575
1490.86	15.749
1494.39	76.883
1497.93	59.161
1501.46	8.92
1505	1.692
1508.53	51.182
1512.06	65.717
1515.59	2.683
1519.11	36.949
1522.64	0
