Measurement: Raman, 514 nm, ccw, Raman Data Processed
Mineral: Ludlamite
Rruff sample: R040152
Ideal chemistry: Fe^2+^_3_(PO_4_)_2_4H_2_O
Locality: Cobalt, Lemhi County, Idaho, USA
Source: University of Arizona Mineral Museum
Description: Green tabular single crystals
Measured chemistry: Fe_3.01_(P_1.00_O_4_)_2_Â·4H_2_O
Pin_id: M00387
Orientation: Laser parallel to -c* (0 0 -1). Fiducial mark perpendicular to laser is parallel to a [1 0 0]
Raman shift (cm-1)	intensity
82.218	0
86.404	48.301
90.587	421.712
94.768	1142.33
98.947	4222.03
103.124	12046
107.3	5187.13
111.473	948.131
115.644	605.597
119.813	239.223
123.981	336.852
128.146	118.105
132.309	370.072
136.47	1551.99
140.63	4397.34
144.787	4578.73
148.942	3414.88
153.096	988.751
157.247	358.783
161.396	773.184
165.544	2579.79
169.689	3460.81
173.833	4671.21
177.974	2021.84
182.114	745.658
186.251	207.737
190.387	222.127
194.52	583.847
198.652	1603.9
202.782	2235.27
206.909	1646.93
211.035	1030.29
215.159	451.061
219.281	49.484
223.4	58.877
227.518	132.041
231.634	21.025
235.748	44.949
239.86	160.462
243.97	308.441
248.079	457.159
252.185	626.78
256.289	1003.12
260.391	1557.54
264.492	1618.55
268.59	1020.95
272.687	800.943
276.781	915.24
280.874	1506.22
284.964	2746.75
289.053	3200.74
293.14	2475.11
297.225	2380.79
301.308	3114.76
305.389	3279.95
309.468	2373.36
313.545	1557.95
317.62	1210.68
321.693	938.348
325.765	705.047
329.834	540.826
333.902	476.65
337.967	779.513
342.031	941.409
346.093	784.333
350.153	517.282
354.21	389.25
358.267	321.229
362.321	454.215
366.373	522.2
370.423	429.18
374.471	274.146
378.518	139.118
382.563	64.121
386.605	35.88
390.646	62.581
394.685	32.264
398.722	47.518
402.757	75.475
406.79	48.946
410.821	58.011
414.851	29.275
418.878	36.305
422.904	5.205
426.927	38.171
430.949	56.534
434.969	162.896
438.987	194.33
443.003	335.787
447.018	462.311
451.03	766.844
455.041	1321.37
459.049	1891.85
463.056	2355.27
467.061	2071.6
471.064	1426.85
475.065	893.015
479.064	941.089
483.062	944.073
487.057	1098.96
491.051	1418.76
495.043	1929.54
499.032	2212.28
503.02	2316.96
507.007	2124.56
510.991	1830.07
514.973	1499.47
518.954	1555.76
522.933	1884.93
526.91	2433
530.885	3389.95
534.858	4209.81
538.829	4888.14
542.799	6786.33
546.766	10020.2
550.732	10752.7
554.696	8024.99
558.658	6461.33
562.618	5967.74
566.576	4785.75
570.533	3322.07
574.488	2330.55
578.44	1615.68
582.391	1266.23
586.341	1014.75
590.288	935.397
594.233	793.107
598.177	839.188
602.119	725.656
606.059	711.507
609.997	668.6
613.933	596.747
617.868	644.25
621.801	718.171
625.731	890.719
629.66	816.159
633.588	866.49
637.513	938.717
641.437	1084
645.358	1045.02
649.278	972.097
653.196	968.519
657.113	799.755
661.027	731.981
664.94	678.663
668.851	483.041
672.76	385.313
676.667	355.482
680.572	274.548
684.476	178.515
688.378	118.385
692.278	55.159
696.176	1.758
700.072	49.183
703.967	126.188
707.86	45.007
711.751	81.551
715.64	89.758
719.527	5.028
723.413	51.236
727.297	48.478
731.179	3.262
735.059	19.989
738.937	10.771
742.814	14.58
746.689	11.492
750.562	29.55
754.433	27.155
758.303	1.317
762.17	8.048
766.036	78.914
769.901	181.033
773.763	157.938
777.624	148.804
781.482	111.635
785.339	136.433
789.195	83.201
793.048	3.059
796.9	115.648
800.75	143.335
804.598	121.955
808.445	58.401
812.289	52.721
816.132	51.031
819.973	65.139
823.813	60.306
827.65	42.468
831.486	119.632
835.32	43.812
839.152	142.069
842.983	106.429
846.812	190.813
850.639	284.251
854.464	106.378
858.288	292.17
862.11	347.934
865.93	371.914
869.748	262.602
873.564	341.165
877.379	386.784
881.192	431.406
885.004	352.461
888.813	544.227
892.621	620.549
896.427	630.02
900.232	796.207
904.034	1300.51
907.835	1743.9
911.634	2565.93
915.432	3609.72
919.227	3361.19
923.021	2720.17
926.813	2436.54
930.604	2776.41
934.393	3557.65
938.18	5520.96
941.965	11150.3
945.749	18682.6
949.53	39402.2
953.311	42553.7
957.089	23043.2
960.866	11925.4
964.641	6998.66
968.414	4471.74
972.185	3091.88
975.955	2356.96
979.723	1729.12
983.49	1425.41
987.254	1252.14
991.017	778.603
994.779	675.041
998.538	813.685
1002.3	875.904
1006.05	857.775
1009.81	957.014
1013.56	1078.48
1017.31	1146.05
1021.06	1488.94
1024.81	1974.25
1028.55	2231.52
1032.3	1886.47
1036.04	1655.1
1039.78	1937.87
1043.52	2852.42
1047.26	2457.62
1050.99	1650.33
1054.73	1245.2
1058.46	1318.42
1062.19	1651.92
1065.92	2027.68
1069.65	2268.17
1073.37	2368.61
1077.1	2058.11
1080.82	1727.97
1084.54	1078.57
1088.26	696.85
1091.97	495.167
1095.69	444.091
1099.4	362.912
1103.12	228.08
1106.83	136.7
1110.54	86.612
1114.24	195.635
1117.95	79.55
1121.65	182.058
1125.35	397.021
1129.06	55.509
1132.75	80.481
1136.45	126.918
1140.15	15.938
1143.84	1.869
1147.53	18.068
1151.22	102.503
1154.91	37.661
1158.6	84.356
1162.28	12.525
1165.97	55.844
1169.65	27.087
1173.33	44.331
1177.01	119.197
1180.69	35.403
1184.36	158.182
1188.04	21.274
1191.71	114.188
1195.38	60.126
1199.05	36.804
1202.71	231.572
1206.38	120.134
1210.04	125.658
1213.71	129.153
1217.37	150.418
1221.03	97.233
1224.68	66.475
1228.34	88.157
1231.99	41.557
1235.65	241.928
1239.3	211.588
1242.95	138.766
1246.59	216.567
1250.24	199.137
1253.88	195.748
1257.53	86.923
1261.17	79.814
1264.81	121.257
1268.45	129.894
1272.08	212.463
1275.72	110.845
1279.35	145.937
1282.98	89.558
1286.61	108.921
1290.24	60.572
1293.87	98.08
1297.49	120.195
1301.11	107.151
1304.73	13.683
1308.36	69.373
1311.97	53.132
1315.59	240.679
1319.2	123.921
1322.82	152.174
1326.43	146.956
1330.04	123.807
1333.65	28.648
1337.26	24.214
1340.86	83.676
1344.47	2.102
1348.07	165.659
1351.67	199.104
1355.27	104.379
1358.87	99.328
1362.46	88.934
1366.06	55.444
1369.65	119.182
1373.24	104.392
1376.83	167.945
1380.42	79.345
1384	97.156
1387.59	7.18
1391.17	159.451
1394.75	102.229
1398.33	149.363
1401.91	81.475
1405.49	148.281
1409.06	94.682
1412.64	252.932
1416.21	117.946
1419.78	220.11
1423.35	173.208
1426.91	125.002
1430.48	147.409
1434.05	227.844
1437.61	384.201
1441.17	347.991
1444.73	520.799
1448.29	513.979
1451.84	633.543
1455.4	558.544
1458.95	694.561
1462.5	476.086
1466.05	341.114
1469.6	300.617
1473.15	281.822
1476.69	219.691
1480.24	193.401
1483.78	328.273
1487.32	186.51
1490.86	120.281
1494.39	185.884
1497.93	42.763
1501.46	77.135
1505	10.29
1508.53	38.135
1512.06	147.027
1515.59	72.141
1519.11	0
