Measurement: Raman, 514 nm, ccw, Raman Data Processed
Mineral: Ludlamite
Rruff sample: R040152
Ideal chemistry: Fe^2+^_3_(PO_4_)_2_4H_2_O
Locality: Cobalt, Lemhi County, Idaho, USA
Source: University of Arizona Mineral Museum
Description: Green tabular single crystals
Measured chemistry: Fe_3.01_(P_1.00_O_4_)_2_Â·4H_2_O
Pin_id: M00398
Orientation: Laser parallel to (1 0 1). Fiducial mark perpendicular to laser is parallel to b [0 1 0]
Raman shift (cm-1)	intensity
80.823	0
85.009	6.394
89.193	65.058
93.375	262.197
97.554	708.68
101.732	3104.55
105.908	1826.22
110.082	284.245
114.254	218.005
118.424	119.71
122.592	147.952
126.758	248.854
130.922	517.748
135.083	1348.2
139.243	4600.94
143.401	5865.77
147.557	7538.52
151.711	2329.09
155.863	739.471
160.013	767.189
164.161	2032.74
168.308	2060.33
172.452	3692.65
176.594	2727.91
180.734	4720.23
184.872	3674.68
189.008	1257.27
193.143	696.041
197.275	971.986
201.405	1897.11
205.534	2136.4
209.66	2338.86
213.784	978.461
217.907	253.212
222.027	5.101
226.146	22.879
230.263	25.868
234.377	84.245
238.49	267.789
242.601	653.14
246.709	1648.75
250.816	1847.94
254.921	1006.25
259.024	1117.8
263.125	1708.25
267.224	3108.4
271.321	2787.11
275.416	1417.27
279.51	1304.82
283.601	2481.69
287.69	2962.84
291.778	1593.21
295.863	1051.79
299.947	1247.55
304.029	1400.46
308.108	1003.51
312.186	576.688
316.262	377.98
320.336	216.307
324.408	136.687
328.478	87.119
332.546	78.59
336.612	84.103
340.677	184.66
344.739	244.26
348.799	138.902
352.858	149.582
356.915	157.297
360.969	228.045
365.022	281.824
369.073	289.641
373.122	95.485
377.169	16.355
381.215	56.702
385.258	64.781
389.299	92.16
393.339	84.356
397.376	61.848
401.412	37.764
405.446	27.872
409.478	30.301
413.508	85.871
417.536	153.571
421.562	174.742
425.586	261.176
429.609	387.1
433.629	527.079
437.648	648.083
441.665	972.124
445.68	1478.24
449.693	2255.38
453.704	3892.52
457.713	5689.66
461.721	6234.79
465.726	4529.91
469.73	2626.01
473.731	1660.12
477.731	1110.2
481.729	1104.26
485.725	1197.3
489.72	1639.3
493.712	2115.3
497.703	2259.32
501.691	1715.31
505.678	1172.27
509.663	787.879
513.646	551.087
517.627	472.945
521.607	552.775
525.584	592.008
529.56	788.384
533.534	953.092
537.506	1175.37
541.476	1545.35
545.444	2327.1
549.41	3061.99
553.375	2742.58
557.337	2599.91
561.298	2606.24
565.257	2208.45
569.214	1487.36
573.17	823.073
577.123	534.998
581.075	402.037
585.024	321.987
588.972	253.772
592.918	323.714
596.863	380.01
600.805	343.362
604.746	386.483
608.685	273.519
612.621	382.409
616.557	460.329
620.49	644.305
624.421	941.958
628.351	1361.78
632.279	1704.31
636.205	1727.78
640.129	1536.18
644.051	1133.98
647.972	743.797
651.89	593.092
655.807	429.281
659.722	413.538
663.636	247.555
667.547	225.92
671.457	173.414
675.365	123.937
679.271	29.97
683.175	10.653
687.077	49.248
690.978	24.778
694.877	42.197
698.774	18.546
702.669	16.367
706.562	43.709
710.454	51.815
714.344	38.973
718.232	6.852
722.118	40.294
726.002	22.37
729.885	31.273
733.766	19.054
737.645	27.758
741.522	31.622
745.397	41.812
749.271	29.177
753.143	11.531
757.013	23.364
760.881	12.638
764.748	69.566
768.613	28.447
772.476	0.28
776.337	72.059
780.196	28.797
784.054	32.485
787.91	115.095
791.764	99.701
795.616	46.256
799.467	42.779
803.316	22.731
807.163	63.659
811.008	1.97
814.851	33.265
818.693	28.725
822.533	6.834
826.371	5.913
830.208	9.852
834.042	30.399
837.875	104.695
841.706	172.918
845.536	129.944
849.363	120.546
853.189	77.063
857.013	132.865
860.836	166.093
864.656	174.583
868.475	164.29
872.292	188.595
876.108	228.919
879.922	233.229
883.733	217.389
887.544	291.13
891.352	322.948
895.159	321.118
898.964	456.873
902.767	546.429
906.568	682.558
910.368	978.156
914.166	1261.51
917.962	1528.18
921.757	1657.89
925.55	1857.28
929.341	2381.57
933.13	3198.99
936.918	4781.67
940.703	7980.62
944.488	15632.6
948.27	36181.7
952.051	55627.7
955.83	34288.6
959.607	16293
963.383	9054.12
967.156	5978.4
970.928	4767.01
974.699	4019.45
978.468	3509.76
982.234	3062.03
986	2878.96
989.763	2645.87
993.525	2106.79
997.285	1492.92
1001.04	1019.86
1004.8	563.036
1008.55	487.364
1012.31	408.108
1016.06	400.892
1019.81	407.145
1023.56	524.489
1027.31	583.278
1031.05	645.779
1034.79	615.528
1038.53	659.215
1042.27	964.66
1046.01	908.542
1049.75	669.752
1053.48	634.166
1057.22	680.437
1060.95	762.949
1064.68	1042.93
1068.4	1404.72
1072.13	1544.24
1075.86	1458.84
1079.58	1186.63
1083.3	838.926
1087.02	460.048
1090.74	245.875
1094.45	193.324
1098.17	156.705
1101.88	86.849
1105.59	33.659
1109.3	40.211
1113.01	6.388
1116.71	2.661
1120.42	17.976
1124.12	50.491
1127.82	28.057
1131.52	0.48
1135.22	29.587
1138.91	33.104
1142.61	4.61
1146.3	74.556
1149.99	52.393
1153.68	38.891
1157.37	52.857
1161.06	68.656
1164.74	92.888
1168.42	103.485
1172.1	8.093
1175.78	78.505
1179.46	35.984
1183.14	37.168
1186.81	23.681
1190.48	88.838
1194.15	83.475
1197.83	45.375
1201.49	86.024
1205.16	67.115
1208.82	33.396
1212.49	77.733
1216.15	28.928
1219.81	70.636
1223.46	15.293
1227.12	90.533
1230.78	131.515
1234.43	81.008
1238.08	80.551
1241.73	100.576
1245.38	84.678
1249.03	1.891
1252.67	17.491
1256.31	23.082
1259.95	76.647
1263.6	14.283
1267.23	5.924
1270.87	38.25
1274.51	46.038
1278.14	59.877
1281.77	79.976
1285.4	23.343
1289.03	57.195
1292.66	24.367
1296.28	83.352
1299.91	121.895
1303.53	2.923
1307.15	37.992
1310.77	64.52
1314.38	13.44
1318	54.129
1321.61	56.052
1325.23	30.963
1328.84	14.634
1332.45	29.139
1336.06	27.951
1339.66	2.13
1343.27	6.171
1346.87	60.464
1350.47	4.586
1354.07	65.899
1357.67	98.033
1361.26	130.985
1364.86	114.403
1368.45	151.965
1372.04	121.669
1375.63	160.885
1379.22	67.607
1382.81	123.253
1386.39	167.951
1389.98	98.562
1393.56	91.663
1397.14	180.363
1400.72	87.613
1404.3	152.819
1407.87	61.233
1411.45	66.395
1415.02	150.856
1418.59	185.117
1422.16	139.636
1425.73	126.637
1429.29	150.083
1432.86	200.488
1436.42	165.276
1439.98	114.13
1443.54	138.123
1447.1	157.041
1450.66	96.693
1454.21	159.125
1457.77	258.872
1461.32	205.597
1464.87	270.692
1468.42	232.298
1471.96	179.629
1475.51	148.305
1479.06	206.729
1482.6	116.349
1486.14	117.107
1489.68	109.924
1493.22	212.069
1496.75	203.778
1500.29	121.097
1503.82	16.825
1507.35	93.452
1510.88	108.99
1514.41	144.833
1517.94	0.247
1521.46	0
