Measurement: Raman, 514 nm, ccw, Raman Data Processed
Mineral: Ludlamite
Rruff sample: R040152
Ideal chemistry: Fe^2+^_3_(PO_4_)_2_4H_2_O
Locality: Cobalt, Lemhi County, Idaho, USA
Source: University of Arizona Mineral Museum
Description: Green tabular single crystals
Measured chemistry: Fe_3.01_(P_1.00_O_4_)_2_Â·4H_2_O
Pin_id: S00410
Orientation: Laser parallel to -a* (-1 0 0). Fiducial mark perpendicular to laser is parallel to b [0 1 0]
Raman shift (cm-1)	intensity
100.34	0
104.516	130.972
108.691	30.445
112.864	21.718
117.034	168.252
121.203	125.61
125.369	178.375
129.534	545.877
133.696	1274.95
137.857	3199.87
142.016	6668.45
146.172	8893.15
150.327	6367.39
154.48	1849.84
158.63	615.276
162.779	596.56
166.926	953.675
171.07	911.498
175.213	819.195
179.354	428.733
183.493	377.445
187.63	578.884
191.765	1403.06
195.898	3619.19
200.029	6422.36
204.158	6673.64
208.285	7065.04
212.41	5927.58
216.533	2864.26
220.654	1252.08
224.773	564.04
228.891	283.137
233.006	120.274
237.119	80.525
241.231	142.394
245.34	318.067
249.448	469.389
253.553	461.01
257.657	523.04
261.758	738.349
265.858	1104.49
269.956	1529.82
274.052	1222.62
278.146	1141.15
282.237	1662.52
286.327	2109.42
290.416	1513.76
294.502	1067.48
298.586	1285.52
302.668	1629.84
306.749	1424.37
310.827	946.074
314.903	549.922
318.978	343.888
323.051	244.957
327.121	117.117
331.19	59.364
335.257	96.544
339.322	152.08
343.385	191.504
347.446	130.929
351.505	7.629
355.563	39.835
359.618	27.303
363.672	71.788
367.723	107.311
371.773	44.868
375.821	38.46
379.866	24.901
383.91	19.312
387.952	86.791
391.992	45.444
396.031	26.218
400.067	57.106
404.101	14.165
408.134	8.467
412.165	48.914
416.193	65.063
420.22	153.124
424.245	190.172
428.268	224.2
432.289	394.254
436.309	507.321
440.326	649.403
444.342	1040.5
448.355	1657.51
452.367	2612.28
456.377	3682.99
460.385	4244.21
464.391	3319.58
468.395	1958.94
472.398	1137.88
476.398	727.738
480.397	706.552
484.394	848.361
488.389	1333.68
492.382	2084.14
496.373	2642.42
500.362	2279.65
504.349	1592.26
508.335	986.022
512.319	668.7
516.3	554.259
520.28	507.392
524.259	549.235
528.235	689.49
532.209	718.064
536.182	840.583
540.152	947.233
544.121	1200.95
548.088	1400.61
552.053	1449.36
556.017	1661.59
559.978	1903.85
563.938	2043.42
567.895	1913.99
571.851	1660.52
575.805	1624.55
579.758	1517.81
583.708	1089.96
587.657	678.591
591.603	395.859
595.548	261.221
599.491	140.061
603.432	45.203
607.372	23.929
611.309	11.496
615.245	2.778
619.179	19.475
623.111	29.998
627.041	110.631
630.97	88.595
634.896	66.187
638.821	65.682
642.744	69.08
646.665	39.37
650.584	12.542
654.502	16.585
658.418	23.119
662.331	49.281
666.244	72.982
670.154	6.562
674.062	56.02
677.969	21.394
681.874	15.644
685.777	29.242
689.678	36.283
693.577	33.49
697.475	22.854
701.371	21.734
705.265	44.349
709.157	26.025
713.047	17.698
716.936	4.435
720.823	34.226
724.708	47.012
728.591	10.227
732.472	3.529
736.352	18.886
740.23	16.701
744.106	6.729
747.98	54.812
751.853	0.339
755.723	40.141
759.592	19.207
763.459	0.753
767.325	61.753
771.188	28.666
775.05	42.453
778.91	4.723
782.768	11.89
786.625	29.378
790.479	104.689
794.332	202.021
798.183	209.332
802.033	233.972
805.88	246.894
809.726	165.893
813.57	179.979
817.413	120.74
821.253	134.999
825.092	167.396
828.929	176.21
832.764	144.962
836.598	163.095
840.429	167.511
844.259	179.711
848.088	144.36
851.914	218.824
855.739	179.889
859.562	226.675
863.383	242.027
867.203	216.442
871.02	282.005
874.836	294.488
878.65	372.871
882.463	434.3
886.274	472.335
890.083	579.088
893.89	766.687
897.695	992.669
901.499	1329.6
905.301	1986.25
909.102	3153.78
912.9	4972.56
916.697	5777.07
920.492	4941.15
924.285	4043.55
928.077	3925.58
931.867	4547.51
935.655	6186.19
939.442	9782.07
943.226	17706.2
947.009	38420.5
950.791	60591.1
954.57	42436.9
958.348	20579
962.124	10844.3
965.899	6447.76
969.671	4457.55
973.442	3367.56
977.211	2629.83
980.979	2220.69
984.745	2303.25
988.509	2549.72
992.271	2689.8
996.032	2501.14
999.791	1972.96
1003.55	1300.28
1007.3	905.478
1011.06	797.169
1014.81	732.238
1018.56	754.259
1022.31	968.248
1026.06	1408.91
1029.8	1513.26
1033.55	1132.64
1037.29	849.383
1041.03	699.242
1044.77	666.328
1048.5	556.556
1052.24	574.375
1055.97	584.895
1059.7	763.553
1063.43	1034.36
1067.16	1400.31
1070.89	1598.45
1074.61	1503.69
1078.34	1190.15
1082.06	761.514
1085.78	588.227
1089.5	395.248
1093.21	276.57
1096.93	139.315
1100.64	128.44
1104.35	98.981
1108.06	28.373
1111.77	36.909
1115.48	22.922
1119.18	39.546
1122.89	74.242
1126.59	35.194
1130.29	28.68
1133.99	27.153
1137.68	2.573
1141.38	11.176
1145.07	14.411
1148.76	3.575
1152.45	46.409
1156.14	7.094
1159.83	5.514
1163.51	15.613
1167.19	39.566
1170.88	23.128
1174.56	13.397
1178.23	69.464
1181.91	29.575
1185.59	24.065
1189.26	16.708
1192.93	88.121
1196.6	97.455
1200.27	30.127
1203.94	115.118
1207.6	23.968
1211.27	60.432
1214.93	30.615
1218.59	65.049
1222.25	37.95
1225.9	10.938
1229.56	87.321
1233.21	30.984
1236.86	59.591
1240.51	73.79
1244.16	4.242
1247.81	41.502
1251.45	52.275
1255.1	23.643
1258.74	13.863
1262.38	29.89
1266.02	96.206
1269.66	18.476
1273.29	18.364
1276.93	0.875
1280.56	7.598
1284.19	11.052
1287.82	62.307
1291.45	57.543
1295.07	82.678
1298.7	65.217
1302.32	37.993
1305.94	29.033
1309.56	19.292
1313.18	30.686
1316.8	17.22
1320.41	21.319
1324.02	29.447
1327.63	43.086
1331.24	36.245
1334.85	41.787
1338.46	26.876
1342.06	28.909
1345.67	59.083
1349.27	25.115
1352.87	77.315
1356.47	26.256
1360.07	64.155
1363.66	118.588
1367.25	69.726
1370.85	69.768
1374.44	100.655
1378.03	118.361
1381.61	79.842
1385.2	129.533
1388.78	95.675
1392.37	93.724
1395.95	63.731
1399.53	82.032
1403.1	103.831
1406.68	75.186
1410.26	100.208
1413.83	108.363
1417.4	53.296
1420.97	134.2
1424.54	55.583
1428.1	37.64
1431.67	44.406
1435.23	65.612
1438.8	97.02
1442.36	75.126
1445.91	101.561
1449.47	94.402
1453.03	73.543
1456.58	110.866
1460.13	109.869
1463.68	148.968
1467.23	55.898
1470.78	81.479
1474.33	98.458
1477.87	136.476
1481.42	95.897
1484.96	72.822
1488.5	17.868
1492.04	99.972
1495.57	66.522
1499.11	17.899
1502.64	44.277
1506.17	24.56
1509.71	82.583
1513.23	71.563
1516.76	98.909
1520.29	0
