Measurement: Raman, 514 nm, ccw, Raman Data Processed
Mineral: Ludlamite
Rruff sample: R040152
Ideal chemistry: Fe^2+^_3_(PO_4_)_2_4H_2_O
Locality: Cobalt, Lemhi County, Idaho, USA
Source: University of Arizona Mineral Museum
Description: Green tabular single crystals
Measured chemistry: Fe_3.01_(P_1.00_O_4_)_2_Â·4H_2_O
Pin_id: S00410
Orientation: Laser parallel to -a* (-1 0 0). Fiducial mark perpendicular to laser is parallel to b [0 1 0]
Raman shift (cm-1)	intensity
73.842	0
78.031	57.723
82.218	31.001
86.404	115.513
90.587	441.852
94.768	1924.91
98.947	6333.4
103.124	9596.77
107.3	4080.88
111.473	914.934
115.644	356.629
119.813	169.73
123.981	45.637
128.146	100.96
132.309	330.45
136.47	1139.93
140.63	2338.29
144.787	3307.4
148.942	3374.36
153.096	1185.27
157.247	414.891
161.396	703.901
165.544	1264.65
169.689	1815.36
173.833	2145.11
177.974	1487.98
182.114	1391.01
186.251	995.209
190.387	523.597
194.52	461.179
198.652	795.958
202.782	1107.93
206.909	1219.09
211.035	1048.44
215.159	410.963
219.281	88.667
223.4	8.456
227.518	7.125
231.634	9.057
235.748	46.522
239.86	97.156
243.97	193.446
248.079	389.714
252.185	669.315
256.289	1291.67
260.391	2095.63
264.492	2618.1
268.59	2682.01
272.687	2138.29
276.781	1798.9
280.874	2433.8
284.964	3696.96
289.053	3605.36
293.14	3298.97
297.225	4117.77
301.308	5364.75
305.389	5235.91
309.468	3687.22
313.545	2251.68
317.62	1463.27
321.693	1031.96
325.765	895.739
329.834	767.609
333.902	959.575
337.967	1199.64
342.031	1391.79
346.093	1097.04
350.153	676.387
354.21	359.82
358.267	278.34
362.321	182.944
366.373	144.632
370.423	53.399
374.471	13.757
378.518	43.874
382.563	37.019
386.605	53.282
390.646	77.683
394.685	40.629
398.722	24.622
402.757	13.748
406.79	39.173
410.821	101.299
414.851	106.568
418.878	188.988
422.904	297.562
426.927	427.272
430.949	570.135
434.969	761.145
438.987	1049.31
443.003	1553.61
447.018	2426.03
451.03	3852.59
455.041	6217.24
459.049	7933.98
463.056	7125.78
467.061	4782.63
471.064	2915.54
475.065	1991.51
479.064	1487.53
483.062	1401.6
487.057	1534.72
491.051	1861.89
495.043	2101.1
499.032	1911.38
503.02	1449.72
507.007	1114.12
510.991	912.562
514.973	827.036
518.954	879.538
522.933	1097.07
526.91	1374.62
530.885	1855.2
534.858	2569.83
538.829	3723.33
542.799	6026.67
546.766	8651.42
550.732	8430.62
554.696	5863.02
558.658	4154.36
562.618	3062.82
566.576	2180.39
570.533	1435.39
574.488	939.018
578.44	652.59
582.391	519.296
586.341	418.452
590.288	291.017
594.233	226.563
598.177	238.118
602.119	201.41
606.059	180.973
609.997	191.473
613.933	294.857
617.868	345.416
621.801	443.389
625.731	513.307
629.66	733.255
633.588	886.802
637.513	1005.25
641.437	1030.13
645.358	1009.09
649.278	909.94
653.196	779.83
657.113	707.513
661.027	639.798
664.94	486.986
668.851	444.602
672.76	342.182
676.667	251.725
680.572	181.23
684.476	152.697
688.378	127.126
692.278	40.523
696.176	41.937
700.072	3.431
703.967	8.006
707.86	7.654
711.751	27.41
715.64	19.142
719.527	4.833
723.413	5.572
727.297	28.34
731.179	9.726
735.059	1.49
738.937	11.371
742.814	16.594
746.689	21.594
750.562	13.971
754.433	22.449
758.303	46.239
762.17	16.874
766.036	15.848
769.901	8.734
773.763	14.542
777.624	32.304
781.482	42.029
785.339	6.283
789.195	49.348
793.048	5.934
796.9	40.475
800.75	15.983
804.598	0.547
808.445	30.114
812.289	6.206
816.132	25.516
819.973	49.697
823.813	9.89
827.65	23.065
831.486	48.232
835.32	77.401
839.152	105.597
842.983	126.802
846.812	128.008
850.639	172.205
854.464	182.818
858.288	163.811
862.11	215.487
865.93	230.568
869.748	266.845
873.564	279.495
877.379	306.406
881.192	358.243
885.004	439.858
888.813	497.579
892.621	533.452
896.427	659.735
900.232	761.584
904.034	929.826
907.835	1294.62
911.634	1805.7
915.432	2099.68
919.227	2189.85
923.021	2201.87
926.813	2471.91
930.604	3317.53
934.393	4715.2
938.18	7289.22
941.965	13388
945.749	28638.2
949.53	54869.1
953.311	51341
957.089	27707.8
960.866	14504.1
964.641	8392.46
968.414	5393.01
972.185	3736.61
975.955	2745.14
979.723	1927.38
983.49	1416.15
987.254	1092.54
991.017	770.191
994.779	591.07
998.538	507.143
1002.3	505.436
1006.05	561.854
1009.81	608.706
1013.56	659.236
1017.31	824.866
1021.06	961.654
1024.81	1250.7
1028.55	1339.77
1032.3	916.586
1036.04	642.902
1039.78	558.371
1043.52	605.96
1047.26	595.696
1050.99	610.581
1054.73	663.627
1058.46	837.832
1062.19	1126.15
1065.92	1434.61
1069.65	1701.2
1073.37	1621.87
1077.1	1353.65
1080.82	971.508
1084.54	580.43
1088.26	368.42
1091.97	249.636
1095.69	151.771
1099.4	83.187
1103.12	54.046
1106.83	40.72
1110.54	45.808
1114.24	25.667
1117.95	1.991
1121.65	66.252
1125.35	19.497
1129.06	9.435
1132.75	37.561
1136.45	10.075
1140.15	12.034
1143.84	30.04
1147.53	44.525
1151.22	29.716
1154.91	31.757
1158.6	17.16
1162.28	13.933
1165.97	29.553
1169.65	8.187
1173.33	15.122
1177.01	14.689
1180.69	86.176
1184.36	65.79
1188.04	56.918
1191.71	47.399
1195.38	43.926
1199.05	59.479
1202.71	61.815
1206.38	69.726
1210.04	68.404
1213.71	77.855
1217.37	51.963
1221.03	54.89
1224.68	28.009
1228.34	18.882
1231.99	32.12
1235.65	19.362
1239.3	59.522
1242.95	14.813
1246.59	51.81
1250.24	8.901
1253.88	18.988
1257.53	33.924
1261.17	25.768
1264.81	29.637
1268.45	12.217
1272.08	31.922
1275.72	27.385
1279.35	6.999
1282.98	36.482
1286.61	41.093
1290.24	13.253
1293.87	11.66
1297.49	14.843
1301.11	14.479
1304.73	4.469
1308.36	41.343
1311.97	17.108
1315.59	42.73
1319.2	12.899
1322.82	53.831
1326.43	6.059
1330.04	2.765
1333.65	3.304
1337.26	57.168
1340.86	40.921
1344.47	12.562
1348.07	25.093
1351.67	32.523
1355.27	46.201
1358.87	17.438
1362.46	58.585
1366.06	1.349
1369.65	57.8
1373.24	58.637
1376.83	55.398
1380.42	58.594
1384	48.525
1387.59	64.555
1391.17	32.358
1394.75	28.751
1398.33	45.597
1401.91	74.667
1405.49	78.061
1409.06	78.763
1412.64	83.469
1416.21	79.492
1419.78	66.779
1423.35	64.195
1426.91	50.032
1430.48	39.662
1434.05	73.354
1437.61	47.896
1441.17	30.335
1444.73	85.739
1448.29	53.039
1451.84	44.176
1455.4	32.797
1458.95	27.824
1462.5	35.895
1466.05	99.94
1469.6	51.61
1473.15	5.379
1476.69	63.816
1480.24	102.609
1483.78	62.483
1487.32	63.59
1490.86	26.747
1494.39	46.218
1497.93	55.981
1501.46	38.843
1505	82.055
1508.53	1.305
1512.06	69.731
1515.59	39.664
1519.11	0.125
