Measurement: Raman, 514 nm, ccw, Raman Data Processed
Mineral: Ludlamite
Rruff sample: R040152
Ideal chemistry: Fe^2+^_3_(PO_4_)_2_4H_2_O
Locality: Cobalt, Lemhi County, Idaho, USA
Source: University of Arizona Mineral Museum
Description: Green tabular single crystals
Measured chemistry: Fe_3.01_(P_1.00_O_4_)_2_Â·4H_2_O
Pin_id: S00001
Orientation: Laser parallel to b* (0 1 0). Fiducial mark perpendicular to laser is parallel to -c [0 0 -1]
Raman shift (cm-1)	intensity
79.427	0
83.614	83.289
87.798	162.69
91.981	657.107
96.161	2361.66
100.34	6903.13
104.516	8847.23
108.691	1943.19
112.864	384.934
117.034	189.967
121.203	116.622
125.369	129.604
129.534	314.131
133.696	739.483
137.857	2174.16
142.016	4683.79
146.172	5885.11
150.327	3421.88
154.48	1163.31
158.63	611.88
162.779	932.051
166.926	2013.44
171.07	3868.64
175.213	3812.16
179.354	2652.83
183.493	2468.76
187.63	1164.97
191.765	787.51
195.898	1771.37
200.029	3412.53
204.158	2710.99
208.285	1744.72
212.41	900.705
216.533	247.926
220.654	4.368
224.773	106.984
228.891	104.147
233.006	0.831
237.119	194.991
241.231	631.952
245.34	1529.96
249.448	2166.28
253.553	1292.98
257.657	996.697
261.758	1276.04
265.858	1655.07
269.956	1992.41
274.052	1227.55
278.146	899.323
282.237	1360.64
286.327	1880.4
290.416	1496.53
294.502	1213.98
298.586	1537.7
302.668	1847.66
306.749	1396.83
310.827	927.188
314.903	524.704
318.978	334.232
323.051	185.774
327.121	89.41
331.19	153.11
335.257	256.864
339.322	389.664
343.385	470.508
347.446	344.392
351.505	300.313
355.563	359.265
359.618	416.243
363.672	522.24
367.723	466.252
371.773	313.274
375.821	171.301
379.866	75.332
383.91	11.645
387.952	63.061
391.992	27.896
396.031	13.071
400.067	93.761
404.101	47.077
408.134	35.852
412.165	107.711
416.193	30.816
420.22	46.881
424.245	47.459
428.268	88.027
432.289	162.622
436.309	199.265
440.326	303.933
444.342	468.639
448.355	740.374
452.367	1380.13
456.377	1939.92
460.385	2299.68
464.391	2057.41
468.395	1416.09
472.398	1066.73
476.398	949.323
480.397	1108.87
484.394	1457.37
488.389	2328.83
492.382	3522.3
496.373	4058.84
500.362	3321.35
504.349	2186.89
508.335	1472.43
512.319	1155.91
516.3	1038.35
520.28	1096.73
524.259	1146.04
528.235	1511.28
532.209	1948.45
536.182	2633.78
540.152	4132.8
544.121	6609.98
548.088	8616.22
552.053	7043.8
556.017	4392.52
559.978	2615.81
563.938	1822.73
567.895	1320.74
571.851	738.879
575.805	510.358
579.758	474.35
583.708	403.091
587.657	380.429
591.603	359.323
595.548	552.33
599.491	592.873
603.432	597.41
607.372	518.313
611.309	601.2
615.245	792.712
619.179	1008.35
623.111	1234.57
627.041	1762.73
630.97	2053.64
634.896	2230.58
638.821	2031.86
642.744	1604.9
646.665	1262.67
650.584	1103.64
654.502	932.271
658.418	805.348
662.331	654.691
666.244	593.623
670.154	505.434
674.062	363.287
677.969	369.456
681.874	328.633
685.777	281.666
689.678	225.632
693.577	113.529
697.475	84.356
701.371	38.138
705.265	88.938
709.157	110.76
713.047	64.612
716.936	36.599
720.823	26.709
724.708	4.119
728.591	64.034
732.472	52.241
736.352	53.495
740.23	1.737
744.106	28.865
747.98	19.903
751.853	4.191
755.723	66.39
759.592	22.779
763.459	2.303
767.325	26.986
771.188	13.189
775.05	15.302
778.91	15.353
782.768	32.349
786.625	30.296
790.479	8.195
794.332	19.027
798.183	2.787
802.033	80.522
805.88	64.891
809.726	35.883
813.57	11.181
817.413	20.897
821.253	2.92
825.092	11.307
828.929	99.409
832.764	14.128
836.598	97.816
840.429	135.506
844.259	144.193
848.088	118.648
851.914	106.328
855.739	184.942
859.562	201.402
863.383	260.744
867.203	238.126
871.02	174.747
874.836	229.241
878.65	238.537
882.463	365.216
886.274	327.828
890.083	360.272
893.89	428.65
897.695	576.699
901.499	672.704
905.301	984.789
909.102	1417.27
912.9	2048.36
916.697	2406.59
920.492	2315.98
924.285	2201.35
928.077	2474.45
931.867	3055.91
935.655	4343.56
939.442	7113.21
943.226	13358.7
947.009	29461
950.791	48302.3
954.57	34419.5
958.348	17449.8
962.124	10041
965.899	6972.58
969.671	6037.85
973.442	5679.54
977.211	5439.37
980.979	5095.45
984.745	4903.44
988.509	4736.46
992.271	4022.5
996.032	3166.25
999.791	2328.52
1003.55	1552.91
1007.3	1082.11
1011.06	965.78
1014.81	928.79
1018.56	910.639
1022.31	1046.62
1026.06	1194.55
1029.8	1182.52
1033.55	1080.56
1037.29	1104.23
1041.03	1376.07
1044.77	1534.79
1048.5	1071.72
1052.24	663.46
1055.97	627.223
1059.7	587.032
1063.43	586.078
1067.16	736.218
1070.89	1052.47
1074.61	1431.12
1078.34	1737.12
1082.06	1358.13
1085.78	819.424
1089.5	466.441
1093.21	223.146
1096.93	197.334
1100.64	147.123
1104.35	70.141
1108.06	37.314
1111.77	26.735
1115.48	87.335
1119.18	28.688
1122.89	214.19
1126.59	106.282
1130.29	32.317
1133.99	21.925
1137.68	58.223
1141.38	16.405
1145.07	15.748
1148.76	30.053
1152.45	48.299
1156.14	44.388
1159.83	1.009
1163.51	6.727
1167.19	132.435
1170.88	13.479
1174.56	57.657
1178.23	28.531
1181.91	67.282
1185.59	65.418
1189.26	61.283
1192.93	0.977
1196.6	110.921
1200.27	72.766
1203.94	108.371
1207.6	35.695
1211.27	118.27
1214.93	78.058
1218.59	33.8
1222.25	4.513
1225.9	5.76
1229.56	158.743
1233.21	137.585
1236.86	165.714
1240.51	172.948
1244.16	7.419
1247.81	71.001
1251.45	65.345
1255.1	61.994
1258.74	49.806
1262.38	48.481
1266.02	63.672
1269.66	3.662
1273.29	99.004
1276.93	47.02
1280.56	88.702
1284.19	73.287
1287.82	58.394
1291.45	94.291
1295.07	44.87
1298.7	92.73
1302.32	17.228
1305.94	16.806
1309.56	100.036
1313.18	8.463
1316.8	110.076
1320.41	113.517
1324.02	93.537
1327.63	13.545
1331.24	132.485
1334.85	30.018
1338.46	60.224
1342.06	17.572
1345.67	38.147
1349.27	75.976
1352.87	3.906
1356.47	57.47
1360.07	69.624
1363.66	178.977
1367.25	162.239
1370.85	119.07
1374.44	19.463
1378.03	38.422
1381.61	18.549
1385.2	139.256
1388.78	68.405
1392.37	34.598
1395.95	139.488
1399.53	190.425
1403.1	92.564
1406.68	11.571
1410.26	26.632
1413.83	190.727
1417.4	132.312
1420.97	200.945
1424.54	137.566
1428.1	155.894
1431.67	157.182
1435.23	174.85
1438.8	216.61
1442.36	258.519
1445.91	327.947
1449.47	208.52
1453.03	139.711
1456.58	258.151
1460.13	304.646
1463.68	323.564
1467.23	166.782
1470.78	123.436
1474.33	152.586
1477.87	85.305
1481.42	50.548
1484.96	58.978
1488.5	91.828
1492.04	201.613
1495.57	195.676
1499.11	17.849
1502.64	63.721
1506.17	60.631
1509.71	45.868
1513.23	115.723
