Measurement: Raman, 514 nm, ccw, Raman Data Processed
Mineral: Ludlamite
Rruff sample: R040152
Ideal chemistry: Fe^2+^_3_(PO_4_)_2_4H_2_O
Locality: Cobalt, Lemhi County, Idaho, USA
Source: University of Arizona Mineral Museum
Description: Green tabular single crystals
Measured chemistry: Fe_3.01_(P_1.00_O_4_)_2_Â·4H_2_O
Pin_id: S00001
Orientation: Laser parallel to b* (0 1 0). Fiducial mark perpendicular to laser is parallel to -c [0 0 -1]
Raman shift (cm-1)	intensity
79.427	0
83.614	26.188
87.798	108.814
91.981	592.926
96.161	2084.45
100.34	6217.36
104.516	7173.67
108.691	1792.98
112.864	560.668
117.034	306.25
121.203	218.076
125.369	278.151
129.534	463.292
133.696	802.592
137.857	2100.35
142.016	3916.04
146.172	4518.3
150.327	2620.78
154.48	1175.23
158.63	841.794
162.779	1253.08
166.926	2477.55
171.07	4975.89
175.213	4257.06
179.354	2300.99
183.493	1817.51
187.63	993.542
191.765	1046.13
195.898	2358.28
200.029	4266
204.158	3270.46
208.285	1977.24
212.41	1162.52
216.533	570.287
220.654	250.508
224.773	254.166
228.891	229.237
233.006	270.831
237.119	501.472
241.231	1034.22
245.34	2126.51
249.448	2884.83
253.553	1682.76
257.657	852.012
261.758	650.742
265.858	543.856
269.956	565.445
274.052	396.611
278.146	591.249
282.237	1169.92
286.327	1749.89
290.416	1326.5
294.502	946.664
298.586	1009.32
302.668	1048.42
306.749	847.92
310.827	515.784
314.903	274.978
318.978	111.476
323.051	48.25
327.121	12.745
331.19	103.461
335.257	115.86
339.322	206.442
343.385	315.196
347.446	275.113
351.505	283.187
355.563	309.412
359.618	431.778
363.672	518.28
367.723	488.906
371.773	244.649
375.821	126.505
379.866	63.465
383.91	20.48
387.952	82.375
391.992	54.299
396.031	25.321
400.067	89.576
404.101	61.302
408.134	68.339
412.165	100.339
416.193	49.374
420.22	11.521
424.245	43.368
428.268	77.748
432.289	69.067
436.309	13.038
440.326	97.893
444.342	126.925
448.355	266.091
452.367	368.401
456.377	604.703
460.385	908.157
464.391	960.695
468.395	673.303
472.398	524.995
476.398	383.744
480.397	537.631
484.394	666.588
488.389	1040.51
492.382	1692.69
496.373	1984.03
500.362	1664.23
504.349	1111.62
508.335	752.142
512.319	602.718
516.3	633.327
520.28	691.959
524.259	792.6
528.235	1089.26
532.209	1489.93
536.182	2185.61
540.152	3485.29
544.121	5732.98
548.088	7177.56
552.053	5827.2
556.017	3478.65
559.978	2110.86
563.938	1391.24
567.895	972.074
571.851	555.62
575.805	374.283
579.758	310.683
583.708	330.802
587.657	422.161
591.603	480.823
595.548	798.564
599.491	853.325
603.432	848.831
607.372	756.289
611.309	817.47
615.245	1030.44
619.179	1312.88
623.111	1753.1
627.041	2396.1
630.97	2913.01
634.896	2815.96
638.821	2707.59
642.744	2056.93
646.665	1657.85
650.584	1310.56
654.502	1099.88
658.418	864.514
662.331	683.055
666.244	681.752
670.154	505.575
674.062	379.965
677.969	449.863
681.874	319.808
685.777	333.073
689.678	282.69
693.577	300.446
697.475	79.175
701.371	132.894
705.265	72.924
709.157	106.509
713.047	83.514
716.936	107.66
720.823	21.026
724.708	13.324
728.591	134.783
732.472	27.345
736.352	74.025
740.23	35.777
744.106	54.545
747.98	61.344
751.853	39.881
755.723	73.813
759.592	84.457
763.459	102.993
767.325	4.515
771.188	30.101
775.05	63.199
778.91	11.547
782.768	2.623
786.625	1.715
790.479	38.287
794.332	69.498
798.183	81.793
802.033	37.323
805.88	14
809.726	27.234
813.57	67.627
817.413	36.699
821.253	40.963
825.092	4.677
828.929	45.277
832.764	19.86
836.598	77.44
840.429	125.976
844.259	118.521
848.088	113.131
851.914	90.738
855.739	204.356
859.562	184.002
863.383	189.667
867.203	235.324
871.02	224.025
874.836	241.363
878.65	273.507
882.463	293.754
886.274	214.108
890.083	359.366
893.89	407.843
897.695	542.199
901.499	601.633
905.301	837.915
909.102	1133.36
912.9	1720.1
916.697	2008.32
920.492	2221.68
924.285	2123.96
928.077	2400.9
931.867	3093.95
935.655	4555.61
939.442	7366.52
943.226	13722.1
947.009	30615.3
950.791	49404.1
954.57	33605.9
958.348	16839.7
962.124	9754.48
965.899	7366.28
969.671	6825.85
973.442	6847.24
977.211	6841.17
980.979	6573.33
984.745	6400.78
988.509	5950.31
992.271	5230.55
996.032	3979.5
999.791	2731.02
1003.55	1597.26
1007.3	1081.23
1011.06	831.7
1014.81	700.371
1018.56	558.129
1022.31	576.759
1026.06	626.852
1029.8	765.636
1033.55	807.967
1037.29	1142.75
1041.03	1797.61
1044.77	1969.36
1048.5	1217.99
1052.24	711.822
1055.97	494.203
1059.7	485.383
1063.43	620.936
1067.16	798.584
1070.89	980.07
1074.61	1444.75
1078.34	1853.31
1082.06	1448.42
1085.78	840.444
1089.5	459.112
1093.21	306.412
1096.93	188.651
1100.64	140.428
1104.35	108.894
1108.06	68.847
1111.77	38.128
1115.48	3.02
1119.18	6.788
1122.89	112.703
1126.59	60.2
1130.29	23.399
1133.99	23.948
1137.68	1.313
1141.38	29.991
1145.07	117.404
1148.76	2.569
1152.45	60.17
1156.14	42.23
1159.83	48.509
1163.51	38.849
1167.19	88.578
1170.88	1.064
1174.56	132.546
1178.23	41.992
1181.91	46.43
1185.59	54.057
1189.26	123.052
1192.93	19.947
1196.6	123.115
1200.27	161.799
1203.94	161.746
1207.6	53.759
1211.27	75.048
1214.93	85.562
1218.59	81.279
1222.25	85.822
1225.9	56.799
1229.56	172.003
1233.21	68.271
1236.86	135.419
1240.51	91.363
1244.16	151.134
1247.81	102.637
1251.45	70.959
1255.1	104.656
1258.74	194.352
1262.38	183.959
1266.02	98.597
1269.66	0.41
1273.29	137.691
1276.93	64.843
1280.56	90.497
1284.19	102.438
1287.82	160.363
1291.45	45.501
1295.07	81.391
1298.7	150.826
1302.32	78.973
1305.94	77.526
1309.56	79.386
1313.18	46.855
1316.8	110.984
1320.41	143.313
1324.02	17.832
1327.63	27.214
1331.24	135.96
1334.85	65.234
1338.46	64.425
1342.06	29.56
1345.67	93.767
1349.27	47.408
1352.87	28.081
1356.47	185.301
1360.07	107.111
1363.66	109.662
1367.25	153.045
1370.85	175.078
1374.44	180.099
1378.03	66.185
1381.61	53.234
1385.2	200.296
1388.78	126.458
1392.37	111.866
1395.95	244.604
1399.53	127.401
1403.1	54.809
1406.68	0.051
1410.26	120.985
1413.83	189.502
1417.4	62.998
1420.97	173.49
1424.54	148.359
1428.1	90.305
1431.67	207.84
1435.23	226.379
1438.8	166.076
1442.36	221.314
1445.91	258.847
1449.47	196.05
1453.03	246.438
1456.58	201.039
1460.13	262.727
1463.68	309.707
1467.23	133.146
1470.78	239.848
1474.33	240.942
1477.87	174.697
1481.42	130.687
1484.96	206.473
1488.5	42.84
1492.04	177.504
1495.57	73.972
1499.11	102.505
1502.64	71.788
1506.17	34.221
1509.71	87.29
1513.23	88.191
1516.76	64.65
1520.29	0
