Measurement: Raman, 514 nm, ccw, Raman Data Processed
Mineral: Ludlamite
Rruff sample: R040152
Ideal chemistry: Fe^2+^_3_(PO_4_)_2_4H_2_O
Locality: Cobalt, Lemhi County, Idaho, USA
Source: University of Arizona Mineral Museum
Description: Green tabular single crystals
Measured chemistry: Fe_3.01_(P_1.00_O_4_)_2_Â·4H_2_O
Pin_id: M00387
Orientation: Laser parallel to -c* (0 0 -1). Fiducial mark perpendicular to laser is parallel to a [1 0 0]
Raman shift (cm-1)	intensity
86.404	0
90.587	110.938
94.768	225.429
98.947	665.273
103.124	1979.08
107.3	1181.43
111.473	199.385
115.644	131.612
119.813	64.61
123.981	5.913
128.146	26.086
132.309	272.246
136.47	936.495
140.63	2846.42
144.787	3868.69
148.942	3428.34
153.096	1295.55
157.247	550.344
161.396	654.637
165.544	1728.36
169.689	3212.18
173.833	7386.81
177.974	3500.04
182.114	1111.02
186.251	476.052
190.387	585.078
194.52	1338.13
198.652	3522.23
202.782	5557.39
206.909	3699.67
211.035	2710.47
215.159	1450.15
219.281	770.018
223.4	546.92
227.518	347.851
231.634	561.795
235.748	846.737
239.86	1441.67
243.97	1696.92
248.079	1271.04
252.185	1034.63
256.289	799.485
260.391	842.414
264.492	926.625
268.59	1137.92
272.687	1058.84
276.781	695.704
280.874	748.918
284.964	1236.38
289.053	1298.07
293.14	557.959
297.225	288
301.308	126.33
305.389	113.416
309.468	52.742
313.545	54.119
317.62	13.522
321.693	34.939
325.765	22.64
329.834	79.239
333.902	31.931
337.967	23.3
342.031	62.467
346.093	39.581
350.153	62.634
354.21	101.625
358.267	210.553
362.321	390.414
366.373	437.206
370.423	499.919
374.471	529.472
378.518	439.874
382.563	242.252
386.605	135.584
390.646	148.857
394.685	17.168
398.722	46.498
402.757	0.146
406.79	15.158
410.821	5.294
414.851	21.822
418.878	38.172
422.904	39.772
426.927	1.639
430.949	55.745
434.969	8.747
438.987	63.054
443.003	143.331
447.018	170.538
451.03	186.66
455.041	349.676
459.049	687.581
463.056	1182.37
467.061	1311.38
471.064	972.59
475.065	571.018
479.064	451.322
483.062	457.515
487.057	537.939
491.051	770.079
495.043	1106.52
499.032	1118.06
503.02	863.654
507.007	594.123
510.991	448.464
514.973	412.675
518.954	423.754
522.933	423.702
526.91	434.517
530.885	741.199
534.858	1005.11
538.829	1135.72
542.799	1441.5
546.766	1838.66
550.732	2069.5
554.696	1775.41
558.658	1823.96
562.618	1653.49
566.576	1508.96
570.533	1180.78
574.488	965.479
578.44	818.393
582.391	872.823
586.341	1008.48
590.288	1472.99
594.233	2131.61
598.177	2741.1
602.119	2745.6
606.059	2135.96
609.997	1512.94
613.933	1127.81
617.868	1140.55
621.801	1273.18
625.731	1668.7
629.66	1550.1
633.588	1572.49
637.513	1423.84
641.437	1382.88
645.358	1252.87
649.278	1074.78
653.196	1033.39
657.113	733.687
661.027	607.562
664.94	422.519
668.851	304.059
672.76	238.509
676.667	224.872
680.572	212.062
684.476	163.35
688.378	7.472
692.278	86.483
696.176	10.369
700.072	51.089
703.967	3.725
707.86	37.778
711.751	3.379
715.64	22.317
719.527	38.958
723.413	68.508
727.297	66.809
731.179	89.069
735.059	45.37
738.937	3.243
742.814	62.193
746.689	12.283
750.562	48.348
754.433	13.032
758.303	111.45
762.17	79.9
766.036	88.331
769.901	95.775
773.763	207.236
777.624	31.716
781.482	133.221
785.339	1.247
789.195	94.315
793.048	114.898
796.9	141.499
800.75	56.143
804.598	20.831
808.445	14.465
812.289	90.242
816.132	36.99
819.973	49.796
823.813	85.661
827.65	83.591
831.486	211.59
835.32	114.676
839.152	236.898
842.983	287.953
846.812	309.597
850.639	419.194
854.464	388.786
858.288	612.85
862.11	777.997
865.93	591.984
869.748	499.816
873.564	503.167
877.379	359.688
881.192	452.363
885.004	509.727
888.813	537.997
892.621	647.121
896.427	700.442
900.232	854.545
904.034	1158.6
907.835	1488.52
911.634	2247.22
915.432	3197.55
919.227	3449.29
923.021	2840.17
926.813	2711.21
930.604	2978.42
934.393	3882.79
938.18	5686.3
941.965	9199.93
945.749	18079.6
949.53	38494.6
953.311	45595.7
957.089	25602
960.866	13293.5
964.641	7999.77
968.414	5779.04
972.185	4815.57
975.955	4706.55
979.723	4167.67
983.49	3912.03
987.254	3701.58
991.017	3414.23
994.779	3030.12
998.538	2393.98
1002.3	1978.62
1006.05	1276.83
1009.81	688.319
1013.56	682.293
1017.31	680.977
1021.06	847.886
1024.81	1236.11
1028.55	1445.94
1032.3	1812.42
1036.04	2702.84
1039.78	5221.71
1043.52	9153.43
1047.26	7665.12
1050.99	4004.59
1054.73	2123.62
1058.46	1412.26
1062.19	994.46
1065.92	961.085
1069.65	1072.61
1073.37	1253.12
1077.1	1457.16
1080.82	1678.29
1084.54	1276.21
1088.26	867.229
1091.97	595.536
1095.69	533.794
1099.4	331.089
1103.12	194.941
1106.83	22.146
1110.54	136.344
1114.24	142.852
1117.95	79.814
1121.65	75.906
1125.35	177.941
1129.06	6.913
1132.75	45.818
1136.45	184.594
1140.15	67.87
1143.84	131.664
1147.53	72.584
1151.22	86.138
1154.91	50.076
1158.6	44.856
1162.28	40.189
1165.97	84.341
1169.65	58.735
1173.33	25.023
1177.01	85.192
1180.69	77.134
1184.36	122.947
1188.04	154.554
1191.71	44.727
1195.38	34.314
1199.05	131.662
1202.71	174.497
1206.38	36.733
1210.04	25.972
1213.71	130.219
1217.37	144.989
1221.03	66.494
1224.68	93.545
1228.34	22.285
1231.99	0.877
1235.65	146.268
1239.3	192.539
1242.95	233.629
1246.59	349.435
1250.24	289.842
1253.88	263.821
1257.53	95.688
1261.17	60.492
1264.81	286.267
1268.45	283.146
1272.08	382.873
1275.72	320.356
1279.35	351.479
1282.98	394.812
1286.61	255.268
1290.24	91.916
1293.87	243.598
1297.49	149.807
1301.11	229.211
1304.73	134.864
1308.36	277.838
1311.97	240.518
1315.59	327.438
1319.2	303.22
1322.82	233.66
1326.43	378.959
1330.04	252.975
1333.65	68.142
1337.26	7.307
1340.86	28.001
1344.47	49.398
1348.07	102.836
1351.67	172.98
1355.27	122.104
1358.87	127.906
1362.46	15.974
1366.06	108.454
1369.65	155.474
1373.24	128.087
1376.83	155.531
1380.42	198.958
1384	225.664
1387.59	166.411
1391.17	234.704
1394.75	209.377
1398.33	77.398
1401.91	63.32
1405.49	105.721
1409.06	131.774
1412.64	174.595
1416.21	89.54
1419.78	111.573
1423.35	57.629
1426.91	86.449
1430.48	184.375
1434.05	0
