Measurement: Raman, 514 nm, ccw, Raman Data Processed
Mineral: Ludlamite
Rruff sample: R040152
Ideal chemistry: Fe^2+^_3_(PO_4_)_2_4H_2_O
Locality: Cobalt, Lemhi County, Idaho, USA
Source: University of Arizona Mineral Museum
Description: Green tabular single crystals
Measured chemistry: Fe_3.01_(P_1.00_O_4_)_2_Â·4H_2_O
Pin_id: M00387
Orientation: Laser parallel to -c* (0 0 -1). Fiducial mark perpendicular to laser is parallel to a [1 0 0]
Raman shift (cm-1)	intensity
85.009	0
89.193	89.936
93.375	401.442
97.554	1534.16
101.732	5842.98
105.908	5842.97
110.082	1149.88
114.254	447.107
118.424	312.508
122.592	45.778
126.758	45.487
130.922	329.729
135.083	1107.9
139.243	4867.39
143.401	8131.72
147.557	6702.56
151.711	2862.66
155.863	780.25
160.013	603.791
164.161	2276.32
168.308	3975.18
172.452	5656.78
176.594	4062.42
180.734	1432.33
184.872	653.187
189.008	223.066
193.143	458.979
197.275	1698.98
201.405	3914.07
205.534	3334.24
209.66	2803.44
213.784	1475.68
217.907	387.928
222.027	81.83
226.146	152.607
230.263	57.421
234.377	24.717
238.49	232.105
242.601	600.995
246.709	672.048
250.816	629.283
254.921	712.99
259.024	1232.33
263.125	1487.06
267.224	1307.78
271.321	1174.9
275.416	823.096
279.51	915.878
283.601	1790.12
287.69	2370.53
291.778	2135.41
295.863	1416.4
299.947	1551.52
304.029	1830.73
308.108	1535.01
312.186	1032.32
316.262	685.638
320.336	554.807
324.408	535.614
328.478	223.392
332.546	185.113
336.612	223.738
340.677	338.25
344.739	507.639
348.799	322.9
352.858	233.03
356.915	287.026
360.969	395.882
365.022	591.595
369.073	597.157
373.122	516.567
377.169	279.826
381.215	196.989
385.258	62.804
389.299	26.072
393.339	4.164
397.376	72.726
401.412	48.977
405.446	70.225
409.478	29.195
413.508	106.993
417.536	4.295
421.562	11.941
425.586	115.953
429.609	25.564
433.629	175.979
437.648	192.975
441.665	257.506
445.68	385.842
449.693	606.514
453.704	981.31
457.713	1471.9
461.721	2257.28
465.726	2721.43
469.73	2042.34
473.731	1548.02
477.731	1259.48
481.729	1328.7
485.725	1722.69
489.72	2526.43
493.712	3764.93
497.703	4578.19
501.691	4019.2
505.678	3073.99
509.663	2306.55
513.646	1848.86
517.627	1713.91
521.607	1688.71
525.584	2041.95
529.56	2589.57
533.534	3360.95
537.506	3687.14
541.476	4325.9
545.444	6214.11
549.41	7943.35
553.375	7101.65
557.337	6172.46
561.298	6176.44
565.257	5774.57
569.214	4416.88
573.17	2820.84
577.123	2666.36
581.075	1746.3
585.024	1354.25
588.972	1479.74
592.918	1586.08
596.863	1851.23
600.805	1918.62
604.746	1626.1
608.685	1141.75
612.621	949.965
616.557	1028.34
620.49	1091.65
624.421	1333.35
628.351	1352.86
632.279	1435.2
636.205	1311.12
640.129	1367.13
644.051	1232.76
647.972	1366.13
651.89	1277.66
655.807	985.334
659.722	920.252
663.636	681.183
667.547	597.954
671.457	475.093
675.365	318.036
679.271	307.136
683.175	244.695
687.077	164.071
690.978	81.262
694.877	186.239
698.774	78.899
702.669	31.35
706.562	26.784
710.454	52.228
714.344	10.795
718.232	10.682
722.118	1.131
726.002	8.335
729.885	36.152
733.766	89.326
737.645	23.001
741.522	30.782
745.397	29.197
749.271	37.908
753.143	20.645
757.013	60.358
760.881	16.632
764.748	70.356
768.613	51.944
772.476	30.439
776.337	173.853
780.196	59.191
784.054	94.466
787.91	46.32
791.764	39.781
795.616	39.831
799.467	32.83
803.316	82.789
807.163	55.71
811.008	46.403
814.851	43.405
818.693	49.829
822.533	55.879
826.371	13.58
830.208	163.271
834.042	81.952
837.875	187.715
841.706	322.635
845.536	362.076
849.363	261.254
853.189	223.054
857.013	408.34
860.836	497.434
864.656	504.377
868.475	452.63
872.292	399.172
876.108	330.233
879.922	455.682
883.733	485.956
887.544	441.925
891.352	612.916
895.159	687.062
898.964	935.477
902.767	1102.28
906.568	1529.13
910.368	2253.38
914.166	3415.44
917.962	3803.76
921.757	3289.11
925.55	2889.15
929.341	2990.4
933.13	3669.99
936.918	5091.6
940.703	8056.55
944.488	15265.5
948.27	34008.3
952.051	52012.4
955.83	34485.7
959.607	17597
963.383	10037.9
967.156	6648.69
970.928	5397.49
974.699	4328.48
978.468	3472.27
982.234	2875.2
986	2677.47
989.763	2556.96
993.525	2184.97
997.285	2072.9
1001.04	2026.57
1004.8	1487.62
1008.55	1087.24
1012.31	951.753
1016.06	1001.31
1019.81	1292.73
1023.56	1764.06
1027.31	2278.65
1031.05	2455.3
1034.79	2495.76
1038.53	3513.84
1042.27	5926.14
1046.01	6607.56
1049.75	4448.89
1053.48	2628.82
1057.22	2154.58
1060.95	1982.66
1064.68	2136.69
1068.4	2768.71
1072.13	3086.7
1075.86	3060.34
1079.58	2978.36
1083.3	2174.75
1087.02	1544.99
1090.74	1020.19
1094.45	598.984
1098.17	494.915
1101.88	209.886
1105.59	322.771
1109.3	143.353
1113.01	149.589
1116.71	144.621
1120.42	25.382
1124.12	672.472
1127.82	163.15
1131.52	224.666
1135.22	52.021
1138.91	207.122
1142.61	174.985
1146.3	6.97
1149.99	59.577
1153.68	27.415
1157.37	59.805
1161.06	19.605
1164.74	24.842
1168.42	122.723
1172.1	24.352
1175.78	111.619
1179.46	109.618
1183.14	133.326
1186.81	110.102
1190.48	143.584
1194.15	23.141
1197.83	190.811
1201.49	162.434
1205.16	213.232
1208.82	209.619
1212.49	41.533
1216.15	159.931
1219.81	171.506
1223.46	22.695
1227.12	95.139
1230.78	158.046
1234.43	94.727
1238.08	283.199
1241.73	287.237
1245.38	166.713
1249.03	164.86
1252.67	211.038
1256.31	135.826
1259.95	313.104
1263.6	309.873
1267.23	264.779
1270.87	444.145
1274.51	437.37
1278.14	452.913
1281.77	366.756
1285.4	234.737
1289.03	227.355
1292.66	298.799
1296.28	472.723
1299.91	328.002
1303.53	294.579
1307.15	191.777
1310.77	363.893
1314.38	257.856
1318	332.455
1321.61	423.927
1325.23	261.789
1328.84	114.015
1332.45	207.919
1336.06	163.041
1339.66	26.301
1343.27	35.023
1346.87	111.562
1350.47	85.597
1354.07	143.757
1357.67	171.551
1361.26	255.335
1364.86	250.438
1368.45	309.77
1372.04	202.781
1375.63	273.215
1379.22	188.973
1382.81	328.96
1386.39	403.207
1389.98	186.666
1393.56	208.632
1397.14	382.716
1400.72	93.633
1404.3	119.764
1407.87	129.398
1411.45	53.766
1415.02	133.367
1418.59	147.348
1422.16	240.104
1425.73	221.611
1429.29	131.846
