Measurement: Raman, 514 nm, ccw, Raman Data Processed
Mineral: Magnesite
Rruff sample: R040114
Ideal chemistry: MgCO_3_
Locality: Snarum, Norway
Source: University of Arizona Mineral Museum
Description: Tan colored cleavage fragment
Measured chemistry: (Mg_0.98_Fe_0.01_)C_1.00_O_3_
Pin_id: L00410
Orientation: Laser parallel to -c* (0 0 -1). Fiducial mark perpendicular to laser is parallel to -a [-1 0 0]
Raman shift (cm-1)	intensity
104.516	0
108.691	78.178
112.864	161.836
117.034	439.393
121.203	246.164
125.369	23.981
129.534	89.973
133.696	0.092
137.857	132.184
142.016	10.738
146.172	56.988
150.327	9.525
154.48	21.496
158.63	39.416
162.779	73.832
166.926	147.929
171.07	416.212
175.213	799.459
179.354	589.975
183.493	251.448
187.63	147.648
191.765	121.827
195.898	150.613
200.029	268.913
204.158	572.319
208.285	1887.74
212.41	3786.16
216.533	1712.5
220.654	368.715
224.773	112.76
228.891	21.43
233.006	16.289
237.119	64.18
241.231	14.595
245.34	12.981
249.448	25.08
253.553	8.117
257.657	18.651
261.758	22.478
265.858	36.024
269.956	21.457
274.052	78.874
278.146	104.959
282.237	138.704
286.327	184.001
290.416	289.171
294.502	442.683
298.586	787.188
302.668	648.982
306.749	441.105
310.827	288.001
314.903	313.57
318.978	594.228
323.051	2128.14
327.121	6053.12
331.19	8896.49
335.257	3138.66
339.322	1027.13
343.385	430.125
347.446	235.458
351.505	210.468
355.563	170.706
359.618	95.629
363.672	152.256
367.723	146.623
371.773	72.84
375.821	90.902
379.866	110.817
383.91	93.647
387.952	77.355
391.992	92.948
396.031	118.03
400.067	19.281
404.101	61.724
408.134	5.064
412.165	29.739
416.193	26.866
420.22	44.989
424.245	23.385
428.268	43.731
432.289	28.667
436.309	49.725
440.326	47.945
444.342	33.366
448.355	13.587
452.367	74.467
456.377	20.601
460.385	56.359
464.391	15.952
468.395	48.646
472.398	81.54
476.398	24.264
480.397	9.866
484.394	45.664
488.389	78.016
492.382	50.671
496.373	28.478
500.362	20.377
504.349	88.991
508.335	127.105
512.319	111.214
516.3	126.617
520.28	74.235
524.259	94.635
528.235	128.193
532.209	114.316
536.182	112.194
540.152	92.14
544.121	95.66
548.088	71.038
552.053	76.763
556.017	26.154
559.978	15.066
563.938	54.948
567.895	55.031
571.851	36.794
575.805	34.838
579.758	39.501
583.708	33.218
587.657	71.061
591.603	14.618
595.548	56.754
599.491	10.96
603.432	28.548
607.372	54.834
611.309	66.288
615.245	7.334
619.179	1.361
623.111	6.358
627.041	122.692
630.97	87.326
634.896	42.196
638.821	14.694
642.744	45.502
646.665	24.419
650.584	52.534
654.502	53.793
658.418	71.22
662.331	106.124
666.244	67.603
670.154	115.656
674.062	79.122
677.969	116.839
681.874	101.478
685.777	156.031
689.678	113.602
693.577	193.771
697.475	192.189
701.371	222.826
705.265	272.845
709.157	342.209
713.047	359.991
716.936	524.63
720.823	912.028
724.708	1365.6
728.591	1820.56
732.472	2381.88
736.352	3268.2
740.23	3290.57
744.106	2349.31
747.98	1443.74
751.853	797.951
755.723	526.521
759.592	349.371
763.459	179.027
767.325	129.61
771.188	75.398
775.05	59.59
778.91	42.725
782.768	15.256
786.625	25.109
790.479	48.361
794.332	62.229
798.183	6.477
802.033	13.578
805.88	4.759
809.726	9.557
813.57	48.339
817.413	19.604
821.253	1.709
825.092	5.341
828.929	27.583
832.764	38.852
836.598	40.326
840.429	54.167
844.259	0.011
848.088	28.745
851.914	3.538
855.739	124.153
859.562	1.166
863.383	58.498
867.203	46.15
871.02	56.798
874.836	52.446
878.65	32.09
882.463	9.268
886.274	33.354
890.083	12.021
893.89	80.587
897.695	42.192
901.499	10.205
905.301	116.389
909.102	49.007
912.9	45.347
916.697	4.251
920.492	43.233
924.285	32.471
928.077	50.111
931.867	34.767
935.655	22.969
939.442	19.664
943.226	37.38
947.009	29.172
950.791	52.767
954.57	19.41
958.348	30.949
962.124	18.544
965.899	73.609
969.671	138.078
973.442	2.726
977.211	13.201
980.979	32.146
984.745	145.152
988.509	172.171
992.271	127.307
996.032	192.151
999.791	178.824
1003.55	169.586
1007.3	108.79
1011.06	103.783
1014.81	177.94
1018.56	160.249
1022.31	136.508
1026.06	255.782
1029.8	300.333
1033.55	321.101
1037.29	364.593
1041.03	454.653
1044.77	444.323
1048.5	614.33
1052.24	699.764
1055.97	889.688
1059.7	1025.97
1063.43	1239.57
1067.16	1682.38
1070.89	2429.32
1074.61	3558.56
1078.34	5214.25
1082.06	8175.64
1085.78	14845.4
1089.5	27646.1
1093.21	44779.8
1096.93	46166.1
1100.64	30832.9
1104.35	18013.6
1108.06	10862.8
1111.77	6509.12
1115.48	3900.79
1119.18	2313.68
1122.89	2184.61
1126.59	1215.67
1130.29	819.802
1133.99	504.326
1137.68	422.601
1141.38	327.452
1145.07	296.184
1148.76	262.692
1152.45	216.802
1156.14	124.643
1159.83	87.399
1163.51	143.742
1167.19	157.7
1170.88	87.478
1174.56	93.839
1178.23	73.879
1181.91	20.661
1185.59	32.602
1189.26	31.978
1192.93	104.559
1196.6	12.087
1200.27	13.453
1203.94	19.375
1207.6	100.825
1211.27	9.541
1214.93	24.955
1218.59	1.798
1222.25	30.409
1225.9	23.879
1229.56	22.128
1233.21	6.687
1236.86	88.729
1240.51	63.527
1244.16	67.324
1247.81	11.247
1251.45	44.075
1255.1	12.065
1258.74	115.082
1262.38	61.104
1266.02	75.884
1269.66	11.575
1273.29	15.11
1276.93	42.538
1280.56	109.83
1284.19	41.106
1287.82	94.928
1291.45	116.551
1295.07	64.03
1298.7	21.371
1302.32	31.577
1305.94	69.65
1309.56	125.59
1313.18	1.334
1316.8	73.995
1320.41	31.045
1324.02	93.641
1327.63	41.256
1331.24	29.815
1334.85	9.414
1338.46	20.816
1342.06	81.109
1345.67	38.084
1349.27	19.628
1352.87	130.756
1356.47	105.964
1360.07	87.512
1363.66	103.593
1367.25	159.658
1370.85	143.278
1374.44	85.244
1378.03	8.833
1381.61	87.648
1385.2	140.319
1388.78	11.145
1392.37	30.353
1395.95	98.605
1399.53	62.111
1403.1	129.621
1406.68	89.326
1410.26	135.481
1413.83	116.273
1417.4	63.583
1420.97	99.782
1424.54	71.564
1428.1	122.965
1431.67	179.642
1435.23	296.364
1438.8	336.637
1442.36	636.291
1445.91	1213.19
1449.47	1071.38
1453.03	480.493
1456.58	324.379
1460.13	286.954
1463.68	383.903
1467.23	191.222
1470.78	192.504
1474.33	218.543
1477.87	138.706
1481.42	250.223
1484.96	135.843
1488.5	149.541
1492.04	135.47
1495.57	113.75
1499.11	70.119
1502.64	35.991
1506.17	49.183
1509.71	46.335
1513.23	33.871
1516.76	46.953
1520.29	38.465
1523.81	0
