Measurement: Raman, 514 nm, ccw, Raman Data Processed
Mineral: Magnesite
Rruff sample: R040114
Ideal chemistry: MgCO_3_
Locality: Snarum, Norway
Source: University of Arizona Mineral Museum
Description: Tan colored cleavage fragment
Measured chemistry: (Mg_0.98_Fe_0.01_)C_1.00_O_3_
Pin_id: L00410
Orientation: Laser parallel to -c* (0 0 -1). Fiducial mark perpendicular to laser is parallel to -a [-1 0 0]
Raman shift (cm-1)	intensity
94.768	0
98.947	50.259
103.124	20.513
107.3	176.486
111.473	185.514
115.644	488.796
119.813	271.113
123.981	113.709
128.146	67.47
132.309	55.837
136.47	102.586
140.63	80.455
144.787	70.76
148.942	3.208
153.096	86.837
157.247	41.088
161.396	113.075
165.544	194.178
169.689	629.697
173.833	1150.92
177.974	1301.94
182.114	485.877
186.251	251.628
190.387	135.767
194.52	126.722
198.652	222.765
202.782	508.017
206.909	1438.96
211.035	3316.06
215.159	3461.15
219.281	759.16
223.4	184.07
227.518	59.87
231.634	5.679
235.748	15.539
239.86	20.161
243.97	1.969
248.079	2.161
252.185	16.448
256.289	65.017
260.391	11.385
264.492	43.515
268.59	52.191
272.687	83.602
276.781	57.868
280.874	97.125
284.964	184.202
289.053	429.38
293.14	771.714
297.225	1498.66
301.308	1952.35
305.389	1164.95
309.468	585.388
313.545	396.665
317.62	514.603
321.693	1260.62
325.765	4177.42
329.834	8932.62
333.902	4846.68
337.967	1517.53
342.031	554.105
346.093	326.362
350.153	197.552
354.21	150.679
358.267	112.308
362.321	84.767
366.373	117.723
370.423	67.619
374.471	80.454
378.518	48.252
382.563	64.962
386.605	104.61
390.646	68.116
394.685	24.814
398.722	59.094
402.757	68.509
406.79	74.841
410.821	77.831
414.851	61.631
418.878	61.856
422.904	2.289
426.927	32.118
430.949	42.511
434.969	49.284
438.987	76.266
443.003	25.076
447.018	42.749
451.03	16.734
455.041	38.319
459.049	30.735
463.056	42.049
467.061	35.461
471.064	9.222
475.065	54.076
479.064	41.993
483.062	51.988
487.057	30.993
491.051	57.643
495.043	30.474
499.032	32.001
503.02	84.587
507.007	75.81
510.991	71.541
514.973	61.989
518.954	129.399
522.933	92.681
526.91	99.01
530.885	85.188
534.858	126.352
538.829	88.379
542.799	58.39
546.766	29.462
550.732	61.374
554.696	7.949
558.658	20.593
562.618	15.477
566.576	12.252
570.533	54.059
574.488	16.523
578.44	8.875
582.391	39.813
586.341	35.802
590.288	12.158
594.233	7.241
598.177	35.439
602.119	34.806
606.059	1.573
609.997	49.585
613.933	20.615
617.868	8.729
621.801	51.963
625.731	10.028
629.66	1.854
633.588	72.857
637.513	13.435
641.437	17.472
645.358	57.565
649.278	3.163
653.196	60.839
657.113	52.571
661.027	67.851
664.94	44.473
668.851	116.953
672.76	144.335
676.667	103.358
680.572	111.282
684.476	192.981
688.378	157.893
692.278	213.074
696.176	223.24
700.072	313.283
703.967	354.8
707.86	401.799
711.751	550.017
715.64	624.921
719.527	1048.82
723.413	1539.84
727.297	2032.51
731.179	2678.06
735.059	3611.98
738.937	4164.77
742.814	3293.97
746.689	1962.47
750.562	1203.39
754.433	748.693
758.303	479.698
762.17	297.707
766.036	276.752
769.901	163.624
773.763	130.016
777.624	105.696
781.482	55.698
785.339	78.457
789.195	47.618
793.048	17.287
796.9	37.868
800.75	6.605
804.598	15.15
808.445	7.692
812.289	13.716
816.132	53.927
819.973	27.091
823.813	47.809
827.65	19.107
831.486	24.966
835.32	10.241
839.152	14.545
842.983	19.068
846.812	15.619
850.639	16.102
854.464	51.495
858.288	16.782
862.11	11.975
865.93	47.107
869.748	26.372
873.564	3.188
877.379	35.167
881.192	75.115
885.004	8.035
888.813	8.931
892.621	29.801
896.427	20.629
900.232	59.402
904.034	19.155
907.835	28.896
911.634	50.63
915.432	0.358
919.227	35.071
923.021	3.771
926.813	41.458
930.604	40.13
934.393	98.79
938.18	41.457
941.965	35.087
945.749	23.104
949.53	54.69
953.311	26.082
957.089	75.996
960.866	77.126
964.641	84.113
968.414	59.559
972.185	108.394
975.955	69.043
979.723	118.567
983.49	49.058
987.254	86.626
991.017	125.118
994.779	151.795
998.538	123.38
1002.3	139.11
1006.05	179.462
1009.81	151.027
1013.56	158.272
1017.31	252.793
1021.06	204.814
1024.81	227.885
1028.55	348.941
1032.3	282.228
1036.04	405.454
1039.78	492.671
1043.52	560.88
1047.26	568.675
1050.99	728.068
1054.73	902.551
1058.46	1125.77
1062.19	1436.42
1065.92	1792.04
1069.65	2490.74
1073.37	3617.52
1077.1	5136.14
1080.82	8108.02
1084.54	13774
1088.26	25697.1
1091.97	46211
1095.69	57956.4
1099.4	46097.5
1103.12	25789.6
1106.83	15495.2
1110.54	9306.45
1114.24	5554.04
1117.95	3294.6
1121.65	2485.62
1125.35	1469.49
1129.06	989.272
1132.75	784.479
1136.45	634.47
1140.15	481.255
1143.84	392.628
1147.53	275.119
1151.22	212.049
1154.91	304.409
1158.6	197.566
1162.28	144.683
1165.97	100.723
1169.65	74.013
1173.33	84.608
1177.01	52.926
1180.69	77.337
1184.36	81.202
1188.04	67.513
1191.71	20.155
1195.38	37.974
1199.05	89.638
1202.71	14.437
1206.38	103.1
1210.04	91.385
1213.71	24.629
1217.37	73.044
1221.03	36.398
1224.68	45.577
1228.34	37.054
1231.99	2.898
1235.65	32.826
1239.3	61.698
1242.95	15.349
1246.59	48.822
1250.24	34.523
1253.88	50.924
1257.53	0.074
1261.17	34.272
1264.81	11.807
1268.45	13.837
1272.08	31.537
1275.72	7.97
1279.35	3.123
1282.98	6.381
1286.61	10.457
1290.24	64.227
1293.87	15.833
1297.49	29.324
1301.11	81.699
1304.73	51.073
1308.36	1.127
1311.97	67.676
1315.59	10.651
1319.2	40.867
1322.82	63.207
1326.43	29.354
1330.04	35.351
1333.65	6.208
1337.26	1.104
1340.86	46.386
1344.47	39.785
1348.07	76.503
1351.67	104.495
1355.27	77.406
1358.87	98.101
1362.46	35.843
1366.06	54.697
1369.65	4.597
1373.24	74.69
1376.83	88.68
1380.42	96.771
1384	97.052
1387.59	161
1391.17	56.591
1394.75	52.828
1398.33	122.633
1401.91	89.74
1405.49	109.52
1409.06	94.55
1412.64	84.529
1416.21	102.701
1419.78	111.432
1423.35	108.491
1426.91	33.793
1430.48	124.822
1434.05	138.095
1437.61	249.472
1441.17	656.388
1444.73	1233.93
1448.29	1714.54
1451.84	795.092
1455.4	365.086
1458.95	204.462
1462.5	280.323
1466.05	262.617
1469.6	213.154
1473.15	252.627
1476.69	211.659
1480.24	209.442
1483.78	156.923
1487.32	190.715
1490.86	73.678
1494.39	121.882
1497.93	16.79
1501.46	90.182
1505	18.225
1508.53	15.231
1512.06	31.557
1515.59	57.179
1519.11	0.322
