Measurement: Raman, 514 nm, ccw, Raman Data Processed
Mineral: Magnesio-hastingsite
Rruff sample: R040010
Ideal chemistry: NaCa_2_(Mg_4_Fe^3+^)Si_6_Al_2_O_22_(OH)_2_
Locality: Amity, New York, USA
Source: University of Arizona Mineral Museum
Description: Group of black prismatic crystals
Measured chemistry: (Na_0.50_K_0.43_[box]_0.07_)_Σ=1_(Ca_1.77_Na_0.23_)_Σ=2_(Mg_1.74_Fe_1.22_Fe^3+^_0.79_Mn_0.57_Al_0.30_Zn_0.25_Ti_0.13_)_Σ=5_(Si_5.95_Al_2.05_)_Σ=8_O_22_((OH)_1.75_F_0.22_Cl_0.03_)_Σ=2_; OH estimated by charge balance
Pin_id: L00491
Orientation: Laser parallel to [1 0 1]. Fiducial mark perpendicular to laser is parallel to b* (0 1 0)
Raman shift (cm-1)	intensity
164.62	0
169.544	257.383
174.465	427.641
179.384	524.725
184.3	428.441
189.213	782.106
194.123	704.025
199.03	1306.19
203.934	778.402
208.836	206.377
213.735	1504.12
218.631	2453.2
223.524	3109
228.414	2800.54
233.302	2020.31
238.186	1189.31
243.068	715.852
247.947	99.2656
252.823	277.332
257.697	247.551
262.567	47.2168
267.435	5.0293
272.3	605.231
277.162	1183.57
282.021	1597.69
286.878	2307.16
291.732	2553.76
296.583	2015.86
301.431	1768.51
306.276	1444.67
311.119	1330.23
315.958	777.715
320.795	797.436
325.629	486.168
330.461	418.912
335.289	201.857
340.115	7.37109
344.938	27.3359
349.759	240.816
354.576	380.545
359.391	654.434
364.203	1277.43
369.012	1719.41
373.818	2396.41
378.622	2784.38
383.423	2686.28
388.221	2636.08
393.016	2172.12
397.809	2016.56
402.598	1970.25
407.386	1946.16
412.17	2184.41
416.951	2744.72
421.73	3500.71
426.506	4439.39
431.279	4458.38
436.05	4346.85
440.818	3807.64
445.583	3041.12
450.345	2197.47
455.105	1708.46
459.861	1224.17
464.615	933.158
469.367	1117.67
474.115	971.111
478.861	1400.32
483.604	1809.98
488.345	2558.47
493.082	3206.06
497.817	4316.83
502.55	5199.75
507.279	6039.8
512.006	6488.98
516.73	7221.25
521.451	8092.6
526.17	8762.99
530.886	9184.4
535.599	9120.01
540.31	7912.31
545.017	7268.22
549.723	6119.69
554.425	5582.86
559.125	4733.1
563.822	4254.32
568.516	3478.69
573.207	2624.81
577.896	1784.94
582.583	834.094
587.266	210.031
591.947	121.629
596.625	132.469
601.3	413.615
605.973	410.69
610.643	123.469
615.311	58.6719
619.975	6.88867
624.637	621.123
629.297	1372.72
633.953	1858.9
638.607	2949.65
643.259	3176.96
647.907	3587.84
652.553	4384.26
657.197	4969.23
661.837	5242.75
666.475	4414.8
671.111	3537.39
675.743	2681.52
680.373	2067.3
685.001	1917.37
689.625	1241.4
694.247	1058.37
698.867	1225.47
703.483	1443.26
708.097	1958.73
712.709	2617.69
717.318	3423.16
721.924	3820.56
726.527	4246.22
731.128	4388.5
735.726	4241.41
740.322	4075.61
744.915	3512.31
749.505	2978.69
754.093	2434.25
758.678	2285.55
763.26	1918.46
767.84	2277.16
772.417	2278.66
776.992	2206.98
781.564	2234.14
786.133	2066.99
790.7	1801.08
795.264	1563.89
799.825	1522.63
804.384	1029.31
808.94	988.947
813.494	669.57
818.045	546.199
822.593	372.853
827.139	47.5488
831.682	236.15
836.223	128.482
840.761	308.394
845.296	125.693
849.829	29.6289
854.359	208.67
858.887	384.709
863.412	400.34
867.934	674.838
872.454	560.586
876.971	694.557
881.486	704.07
885.998	768.16
890.507	671.725
895.014	828.295
899.518	756.902
904.02	760.348
908.519	936.492
913.016	939.445
917.51	1358.11
922.001	1291.87
926.49	1515.66
930.976	1615.31
935.46	1818.53
939.941	2176.43
944.42	2378.01
948.896	2565.55
953.369	3031.82
957.84	2861.71
962.309	3240.89
966.774	3224.35
971.238	3563.9
975.698	3850.2
980.156	4171.48
984.612	4737.75
989.065	5080.81
993.516	5728.03
997.964	6121.12
1002.41	6629.12
1006.85	6930.03
1011.29	7167.79
1015.73	6692.48
1020.16	7252.7
1024.6	6514.95
1029.03	6276.63
1033.46	5622.76
1037.88	5299.43
1042.3	4760.03
1046.72	4694.47
1051.14	4408.52
1055.56	4265.25
1059.97	4154.82
1064.38	3822.86
1068.79	3623.14
1073.19	3595.1
1077.59	3396.5
1081.99	3985.75
1086.39	3126.95
1090.79	2884.33
1095.18	2352.29
1099.57	2246.5
1103.95	1586.37
1108.34	1113
1112.72	982.078
1117.1	1021.42
1121.48	880.543
1125.85	780.465
1130.23	397.949
1134.6	279.898
1138.96	48.5039
1143.33	198.348
1147.69	80.8906
1152.05	8.88281
1156.41	480.094
1160.76	32.3516
1165.11	137.363
1169.46	119.418
1173.81	80.3477
1178.16	158.262
1182.5	77.5508
1186.84	71.2188
1191.18	209.984
1195.51	19.8203
1199.84	137.16
1204.17	167.113
1208.5	103.711
1212.83	146.848
1217.15	58.2266
1221.47	249.109
1225.79	358.438
1230.1	259.309
1234.41	230.324
1238.73	140.234
1243.03	359.871
1247.34	4.14062
1251.64	509.801
1255.94	278.906
1260.24	112.969
1264.54	133.07
1268.83	203.762
1273.12	139.559
1277.41	445.84
1281.69	60.6484
1285.98	153.961
1290.26	134.668
1294.54	221.473
1298.81	280.805
1303.09	458.203
1307.36	432.969
1311.63	321.93
1315.89	370.027
1320.16	551.016
1324.42	196.094
1328.68	375.348
1332.93	296.269
1337.19	466.543
1341.44	240.473
1345.69	295.547
1349.94	346.586
1354.18	101.742
1358.42	172.984
1362.66	329.695
1366.9	127.715
1371.13	43.5117
1375.37	197.094
1379.6	124.797
1383.82	105.426
1388.05	92.6953
1392.27	333.387
1396.49	99.918
1400.71	23.1016
1404.92	132.301
1409.14	197.984
1413.35	146.019
1417.56	5.09766
1421.76	360.398
1425.97	331.043
1430.17	135.785
1434.37	151.809
1438.56	237.246
1442.76	497.668
1446.95	536.051
1451.14	173.363
1455.33	148.023
1459.51	245.969
1463.69	315.043
1467.87	386.738
1472.05	238.109
1476.22	239.688
1480.4	245.344
1484.57	330.477
1488.73	174.227
1492.9	185.141
1497.06	30.3125
1501.22	377.703
1505.38	406.363
1509.54	250.457
1513.69	259.734
1517.84	327.215
1521.99	186.637
1526.14	339.012
1530.28	144.094
1534.42	197.246
1538.56	175.254
1542.7	344.848
1546.83	227.981
1550.97	310.504
1555.1	155.559
1559.22	317.805
1563.35	92.9609
1567.47	67.2266
