Measurement: Raman, 514 nm, ccw, Raman Data Processed
Mineral: Magnesio-hastingsite
Rruff sample: R040010
Ideal chemistry: NaCa_2_(Mg_4_Fe^3+^)Si_6_Al_2_O_22_(OH)_2_
Locality: Amity, New York, USA
Source: University of Arizona Mineral Museum
Description: Group of black prismatic crystals
Measured chemistry: (Na_0.50_K_0.43_[box]_0.07_)_Σ=1_(Ca_1.77_Na_0.23_)_Σ=2_(Mg_1.74_Fe_1.22_Fe^3+^_0.79_Mn_0.57_Al_0.30_Zn_0.25_Ti_0.13_)_Σ=5_(Si_5.95_Al_2.05_)_Σ=8_O_22_((OH)_1.75_F_0.22_Cl_0.03_)_Σ=2_; OH estimated by charge balance
Pin_id: L00374
Orientation: Laser parallel to a [1 0 0]. Fiducial mark perpendicular to laser is parallel to -b* (0 -1 0)
Raman shift (cm-1)	intensity
162.156	0
167.082	375.305
172.005	946.887
176.925	2005
181.842	3388.1
186.757	4974.54
191.668	4345
196.577	3475.36
201.483	1694.27
206.386	128.43
211.286	73.0703
216.183	1015.47
221.078	2547.55
225.969	3346.63
230.858	3764.11
235.744	3099.43
240.628	2086.4
245.508	1702.47
250.386	1253.62
255.26	945.238
260.132	899.981
265.001	1044.58
269.868	915.629
274.731	1263.31
279.592	1493.51
284.45	2027.08
289.305	2167.88
294.157	2159.8
299.007	1710.71
303.854	1294.5
308.698	1186.37
313.539	731.238
318.377	592.113
323.213	178.742
328.046	335.211
332.876	308.035
337.703	191.32
342.527	586.344
347.349	866.625
352.168	1488
356.984	2198.82
361.797	3020.57
366.608	3478.85
371.415	3570.53
376.22	3788.53
381.023	3230.72
385.822	2483.06
390.619	2218.44
395.413	2017.18
400.204	1810.27
404.992	1851.04
409.778	1813.23
414.561	2157.48
419.341	2820.88
424.118	3145.96
428.893	3406.7
433.665	3054.04
438.434	2030.99
443.201	1268.5
447.964	734.543
452.725	111.957
457.483	33.1016
462.239	82.8281
466.991	207.582
471.741	80.4336
476.489	52.1445
481.233	328.949
485.975	886.352
490.714	2021.85
495.45	2582.43
500.184	3761.2
504.915	4971.16
509.643	6062.05
514.368	7294.83
519.091	8862.46
523.811	11200.9
528.528	12497.2
533.243	13847.2
537.955	13357.9
542.664	12172.4
547.37	10797.6
552.074	10679.4
556.775	8479.91
561.473	7694.06
566.169	6296.25
570.862	5352.93
575.552	3994.17
580.24	2991.84
584.925	1899.09
589.607	991.066
594.286	426.668
598.963	95.9297
603.637	585.746
608.309	243.988
612.977	209.961
617.643	170.691
622.307	772.914
626.967	1264.14
631.625	2382.39
636.281	3517.75
640.933	4295.36
645.583	5568.69
650.231	6533.47
654.875	7538.7
659.517	8725.4
664.157	8924.17
668.793	7922.19
673.427	8143.31
678.059	8960.91
682.687	9821.01
687.313	9091.62
691.937	7260.74
696.557	6206.39
701.175	6100.56
705.791	7319.1
710.403	8867.69
715.014	11009.9
719.621	12987.3
724.226	13963.6
728.828	15200.1
733.428	16037.5
738.025	15497.2
742.619	14399.5
747.21	12225.1
751.799	9692.61
756.386	7582.69
760.969	6302.12
765.551	5657.61
770.129	5401.85
774.705	4970.51
779.278	4946.98
783.849	4394.49
788.417	4285.09
792.982	4151.78
797.545	3371.6
802.105	2852.56
806.663	2833.7
811.217	2214.02
815.77	1705.57
820.319	1290.35
824.867	1050.39
829.411	433.719
833.953	323.332
838.492	149.84
843.029	130.969
847.563	465.527
852.094	237.676
856.623	221.336
861.15	66.6602
865.673	168.848
870.194	58.293
874.713	604.621
879.229	721.684
883.742	831.129
888.253	1090.32
892.761	1011.17
897.267	1619.03
901.77	1549.83
906.27	1937.53
910.768	2272.66
915.263	2752
919.756	2544.29
924.246	2408.3
928.734	2623.02
933.219	2503.57
937.701	2572.05
942.181	2720.35
946.658	2786.48
951.133	2962.39
955.605	3094.98
960.075	3505.21
964.542	3338.11
969.006	3506.67
973.468	3543.24
977.928	3680.68
982.385	3839.76
986.839	4089.15
991.291	4327.38
995.74	4550.19
1000.19	4739.54
1004.63	5164.39
1009.07	4835.21
1013.51	4969.94
1017.95	5066.08
1022.38	4639.54
1026.81	4685.31
1031.24	4400.1
1035.67	4246.06
1040.09	4048.08
1044.51	3904.81
1048.93	3757.43
1053.35	3470.59
1057.76	3527.79
1062.17	3450.86
1066.58	3396.57
1070.99	3121.18
1075.39	2898.02
1079.79	2890.79
1084.19	2754.79
1088.59	2394.14
1092.98	2222.85
1097.37	2220.98
1101.76	2035.25
1106.15	1894.72
1110.53	1470.61
1114.91	1463.38
1119.29	1004.34
1123.67	882.805
1128.04	696.215
1132.41	454.129
1136.78	395.59
1141.15	100.477
1145.51	49.5781
1149.87	26.4023
1154.23	86.125
1158.59	86.9727
1162.94	79.2734
1167.29	75.0078
1171.64	166.273
1175.98	72.3359
1180.33	52.7969
1184.67	241.016
1189.01	94.0977
1193.34	23.9883
1197.68	200.621
1202.01	232.328
1206.34	5.96094
1210.66	140.039
1214.99	276.106
1219.31	82.5977
1223.63	334.148
1227.94	372.481
1232.26	169.894
1236.57	340.519
1240.88	336.852
1245.19	381.453
1249.49	436.898
1253.79	125.957
1258.09	387.113
1262.39	431.34
1266.68	357.816
1270.97	197.699
1275.26	129.769
1279.55	162.738
1283.84	381.019
1288.12	331.875
1292.4	370.633
1296.67	191.141
1300.95	187.969
1305.22	413.617
1309.49	501.348
1313.76	304.977
1318.03	355.086
1322.29	320.223
1326.55	469.441
1330.81	330.738
1335.06	384.812
1339.31	199.262
1343.56	329.766
1347.81	241.594
1352.06	172.898
1356.3	387.75
1360.54	68.2773
1364.78	110.481
1369.02	191.059
1373.25	79.0859
1377.48	100.805
1381.71	218.609
1385.94	90.6016
1390.16	40.2148
1394.38	110.879
1398.6	65.4727
1402.82	96.2383
1407.03	166.25
1411.24	132.812
1415.45	4.14062
1419.66	290.453
1423.87	246.227
1428.07	17.2891
1432.27	381.926
1436.46	320.969
1440.66	237.891
1444.85	373.488
1449.04	425.527
1453.23	337.727
1457.42	223.977
1461.6	474.039
1465.78	340.375
1469.96	468.707
1474.14	479.43
1478.31	448.106
1482.48	532.191
1486.65	341.082
1490.82	401.164
1494.98	381.727
1499.14	552.406
1503.3	487.258
1507.46	186.719
1511.61	442.856
1515.77	239.434
1519.92	172.906
1524.06	419.324
1528.21	117.148
1532.35	191.019
1536.49	110.176
1540.63	153.762
1544.77	148.234
1548.9	315.519
1553.03	304.004
1557.16	343.098
1561.29	109.078
1565.41	308.352
1569.53	426.488
