Measurement: Raman, 514 nm, ccw, Raman Data Processed
Mineral: Magnesio-hastingsite
Rruff sample: R040010
Ideal chemistry: NaCa_2_(Mg_4_Fe^3+^)Si_6_Al_2_O_22_(OH)_2_
Locality: Amity, New York, USA
Source: University of Arizona Mineral Museum
Description: Group of black prismatic crystals
Measured chemistry: (Na_0.50_K_0.43_[box]_0.07_)_Σ=1_(Ca_1.77_Na_0.23_)_Σ=2_(Mg_1.74_Fe_1.22_Fe^3+^_0.79_Mn_0.57_Al_0.30_Zn_0.25_Ti_0.13_)_Σ=5_(Si_5.95_Al_2.05_)_Σ=8_O_22_((OH)_1.75_F_0.22_Cl_0.03_)_Σ=2_; OH estimated by charge balance
Pin_id: L00198
Orientation: Laser parallel to c [0 0 1]. Fiducial mark perpendicular to laser is parallel to -b* (0 -1 0)
Raman shift (cm-1)	intensity
131.306	0
136.25	264.068
141.19	2651.57
146.128	4292.99
151.063	6842.73
155.995	4639.12
160.925	2272.25
165.851	185.613
170.775	593.078
175.695	658.582
180.613	480.062
185.528	630.574
190.44	666.664
195.35	911.527
200.256	2317.74
205.16	363.617
210.061	666.883
214.959	2674.4
219.854	3906.78
224.747	4485.21
229.636	3342.94
234.523	2372.58
239.407	1514.08
244.288	434.656
249.166	60.2539
254.042	292.801
258.915	126.496
263.784	177.965
268.651	41.4531
273.516	832.527
278.377	1895.02
283.236	2939.34
288.092	3494.43
292.945	3967.5
297.795	3568.09
302.642	2927.16
307.487	2271.41
312.329	1539.06
317.168	1131.3
322.004	713.41
326.838	370.324
331.668	252.34
336.496	49.7188
341.321	13.0234
346.144	87.4688
350.963	51.2773
355.78	525.703
360.594	1073.95
365.405	1761.36
370.214	2487.86
375.019	3436.38
379.822	3803.83
384.622	3857.98
389.42	3381.85
394.215	3324.43
399.006	2783.5
403.795	2446.45
408.582	2628.27
413.365	3379
418.146	4089.16
422.924	5420.73
427.7	6245.14
432.472	6511.35
437.242	5936.23
442.009	5193.68
446.774	3850.6
451.535	2882.57
456.294	2024.11
461.05	1466.19
465.804	1180.64
470.554	1531.36
475.302	1361.09
480.047	1910.43
484.79	2920.96
489.529	4029.28
494.266	5236.7
499.001	6865.98
503.732	8253.96
508.461	9569.26
513.187	10653.6
517.911	11723.9
522.631	12928.1
527.349	14195.2
532.065	14254.1
536.777	13707.8
541.487	12231.3
546.194	10722.3
550.898	9301.5
555.6	8299.73
560.299	7061.32
564.995	6249.62
569.689	4786.8
574.38	3856.2
579.068	2293.21
583.754	1175.67
588.437	489.342
593.117	15.998
597.794	297.174
602.469	530.131
607.141	429.482
611.81	21.2793
616.477	109.522
621.141	807.871
625.802	1433.16
630.461	2589.45
635.117	3608.73
639.77	4596.94
644.421	5809.07
649.069	6672.13
653.714	7657.1
658.357	8120.99
662.997	8491.8
667.634	6791.53
672.269	5446.19
676.901	4374.78
681.53	3617.31
686.157	2807.78
690.781	2005.98
695.402	1978.26
700.021	2155.27
704.637	3150.32
709.251	4251.09
713.861	5001.76
718.469	6031.48
723.075	6928.65
727.678	7538.64
732.278	7926.13
736.876	7650.4
741.47	6932.47
746.063	5911.49
750.652	4770.9
755.239	4154.11
759.824	3402.45
764.406	3497.8
768.985	3360.95
773.561	3613.94
778.135	3813.83
782.706	3554.67
787.275	3076.5
791.841	2672.38
796.404	2119.34
800.965	2076.43
805.523	1528.68
810.079	1229.15
814.632	1184.88
819.182	1029.92
823.73	307.301
828.275	205.125
832.818	248.055
837.358	455.367
841.895	350.918
846.43	270.547
850.962	152.871
855.491	114.863
860.018	530.117
864.543	822.117
869.064	846.129
873.583	1269.32
878.1	1632.16
882.614	2015.4
887.125	1801.73
891.634	2031.02
896.14	2169.24
900.644	2411.03
905.145	3024.37
909.644	3169.49
914.14	3732.49
918.633	4208.97
923.124	4460.98
927.612	4413.4
932.098	4851.32
936.581	5456.19
941.061	5779.73
945.539	5917.73
950.015	6310.32
954.487	6370.12
958.958	6225.08
963.425	6458.02
967.89	6356.95
972.353	6487.16
976.813	6838.94
981.271	7097.72
985.726	7714
990.178	8386.88
994.628	8716.41
999.075	9663.36
1003.52	10359.7
1007.96	10577.3
1012.4	10934.1
1016.84	10949.4
1021.27	10200.5
1025.71	9641.4
1030.13	8626.29
1034.56	9098.14
1038.99	8468.34
1043.41	7969.57
1047.83	6390.02
1052.24	5911.15
1056.66	5537.41
1061.07	5438.88
1065.48	5137.79
1069.89	4860.91
1074.29	4590.36
1078.69	4759.76
1083.09	4454.17
1087.49	4128.36
1091.88	3520.81
1096.28	3243.83
1100.66	2775.21
1105.05	2019.54
1109.43	1394.13
1113.82	1172.9
1118.2	848.25
1122.57	812.584
1126.95	664.639
1131.32	529.65
1135.69	107.596
1140.05	249.992
1144.42	123.553
1148.78	111.07
1153.14	101.606
1157.5	93.8457
1161.85	178.504
1166.2	0.351563
1170.55	275.799
1174.9	177.928
1179.24	7.23047
1183.58	31.4121
1187.92	44.6426
1192.26	164.123
1196.6	106.666
1200.93	16.957
1205.26	44.3691
1209.58	287.303
1213.91	106.164
1218.23	251.545
1222.55	353.924
1226.87	304.449
1231.18	168.512
1235.49	253.102
1239.8	274.322
1244.11	230.193
1248.41	359.398
1252.72	492.088
1257.02	420.744
1261.32	363.863
1265.61	291.977
1269.9	467.1
1274.19	353.148
1278.48	617.318
1282.77	327.369
1287.05	322.721
1291.33	510.826
1295.61	271.18
1299.88	687.816
1304.15	264.272
1308.42	253.773
1312.69	463.092
1316.96	475.209
1321.22	363.254
1325.48	159.568
1329.74	249.357
1334	339.82
1338.25	170.4
1342.5	211.904
1346.75	269.103
1351	224.578
1355.24	195.502
1359.48	130.025
1363.72	43.6406
1367.96	235.998
1372.19	38.8828
1376.42	124.285
1380.65	339.867
1384.88	32.5078
1389.11	72.5625
1393.33	72.6504
1397.55	119.463
1401.76	10.7637
1405.98	97.1445
1410.19	107.975
1414.4	362.457
1418.61	235.215
1422.82	59.3945
1427.02	160.926
1431.22	156.385
1435.42	489.338
1439.61	540.131
1443.81	362.578
1448	307.326
1452.18	417.549
1456.37	471.867
1460.56	394.6
1464.74	283.065
1468.92	243.898
1473.09	603.231
1477.27	402.801
1481.44	616.557
1485.61	244.525
1489.78	388.469
1493.94	461.781
1498.1	429.057
1502.26	569.115
1506.42	436.773
1510.58	642.771
1514.73	543.289
1518.88	654.076
1523.03	581.451
1527.17	405.404
1531.32	523.174
1535.46	312.553
1539.6	272.617
1543.73	535.188
1547.87	366.584
1552	410.135
1556.13	395.934
1560.26	552.631
1564.38	213.812
1568.5	253.219
