Measurement: Raman, 514 nm, ccw, Raman Data Processed
Mineral: Magnesio-hastingsite
Rruff sample: R040010
Ideal chemistry: NaCa_2_(Mg_4_Fe^3+^)Si_6_Al_2_O_22_(OH)_2_
Locality: Amity, New York, USA
Source: University of Arizona Mineral Museum
Description: Group of black prismatic crystals
Measured chemistry: (Na_0.50_K_0.43_[box]_0.07_)_Σ=1_(Ca_1.77_Na_0.23_)_Σ=2_(Mg_1.74_Fe_1.22_Fe^3+^_0.79_Mn_0.57_Al_0.30_Zn_0.25_Ti_0.13_)_Σ=5_(Si_5.95_Al_2.05_)_Σ=8_O_22_((OH)_1.75_F_0.22_Cl_0.03_)_Σ=2_; OH estimated by charge balance
Pin_id: L00198
Orientation: Laser parallel to c [0 0 1]. Fiducial mark perpendicular to laser is parallel to -b* (0 -1 0)
Raman shift (cm-1)	intensity
132.542	0
137.485	436.822
142.425	3295.25
147.362	9034.71
152.296	13692.9
157.228	9167.19
162.156	2517.11
167.082	176.131
172.005	84.75
176.925	146.99
181.842	497.619
186.757	1022.12
191.668	941.625
196.577	1559.65
201.483	3562.29
206.386	3878.95
211.286	8802.42
216.183	15628.2
221.078	21506
225.969	21162.8
230.858	15438.9
235.744	9656.32
240.628	6558.81
245.508	4964.02
250.386	4319.69
255.26	4067.57
260.132	4674.02
265.001	4471.02
269.868	5655.64
274.731	6862.94
279.592	8370.73
284.45	9330.18
289.305	9827.94
294.157	9279.67
299.007	8322.63
303.854	7095.24
308.698	6027.77
313.539	5068.88
318.377	4208.72
323.213	3506.8
328.046	3032.61
332.876	3140.91
337.703	3110.81
342.527	3707.03
347.349	4667.37
352.168	4813.61
356.984	5228.58
361.797	5124.27
366.608	4386.61
371.415	3783.52
376.22	3059.92
381.023	2176.7
385.822	1572.74
390.619	754.938
395.413	109.197
400.204	105.67
404.992	303.232
409.778	261.967
414.561	107.498
419.341	720.481
424.118	1321.75
428.893	1665.6
433.665	1742.91
438.434	1273.44
443.201	1028.82
447.964	692.939
452.725	740.826
457.483	620.08
462.239	819.18
466.991	650.191
471.741	605.996
476.489	613.785
481.233	280.197
485.975	404.158
490.714	1068.66
495.45	2359.64
500.184	2002.03
504.915	2725.46
509.643	3233.85
514.368	4250.18
519.091	5429.7
523.811	7273.38
528.528	9515.17
533.243	10607
537.955	9912.91
542.664	8455.23
547.37	6710.89
552.074	5334.66
556.775	3900.42
561.473	2987.84
566.169	2279.08
570.862	1630.47
575.552	1202.68
580.24	656.115
584.925	421.394
589.607	49.8574
594.286	280.977
598.963	303.562
603.637	55.4414
608.309	428.717
612.977	1316.52
617.643	2655.51
622.307	4340.25
626.967	6679.9
631.625	9423.19
636.281	11909.1
640.933	14017.7
645.583	15372
650.231	17052.9
654.875	18483.5
659.517	19283.9
664.157	17600.9
668.793	14371.7
673.427	12459.3
678.059	12018.6
682.687	11349
687.313	8526.79
691.937	5203.48
696.557	2874.87
701.175	1674.92
705.791	1519.98
710.403	1377.91
715.014	1566.89
719.621	1715.06
724.226	1859.51
728.828	2024.33
733.428	1776.03
738.025	1420.27
742.619	1065.48
747.21	753.934
751.799	354.512
756.386	305.102
760.969	422.404
765.551	588.488
770.129	939.404
774.705	1135.2
779.278	1573.92
783.849	1323.61
788.417	1299.33
792.982	1097.11
797.545	1104.02
802.105	1006.1
806.663	970.398
811.217	699.951
815.77	573.801
820.319	539.99
824.867	392.06
829.411	19.5
833.953	160.471
838.492	357.447
843.029	442.818
847.563	235.18
852.094	150.514
856.623	127.092
861.15	303.307
865.673	745.148
870.194	1089.85
874.713	1632.81
879.229	2252.49
883.742	2904.59
888.253	3615.26
892.761	4656.82
897.267	5847.35
901.77	7005.34
906.27	8241.83
910.768	9513.5
915.263	9998.56
919.756	9791.82
924.246	9716.34
928.734	9584.4
933.219	9338.96
937.701	10019.7
942.181	9933.46
946.658	9716.31
951.133	9399.18
955.605	9286.02
960.075	8837.85
964.542	8958.67
969.006	8079.59
973.468	7802.62
977.928	7389.66
982.385	7501.81
986.839	7941.37
991.291	8581.69
995.74	9624.84
1000.19	11163.1
1004.63	12750.1
1009.07	14035.9
1013.51	15008.8
1017.95	15082.3
1022.38	14162.2
1026.81	12687.5
1031.24	11327.5
1035.67	9826.16
1040.09	8613.35
1044.51	7599.47
1048.93	6814.05
1053.35	6497.26
1057.76	5832.64
1062.17	5286.01
1066.58	4949.53
1070.99	4578.34
1075.39	4447.61
1079.79	4283.12
1084.19	3742.36
1088.59	3584.35
1092.98	2858.07
1097.37	2689.56
1101.76	2259.33
1106.15	1772.28
1110.53	1178.21
1114.91	992.002
1119.29	1017.27
1123.67	813.635
1128.04	666.932
1132.41	164.549
1136.78	158.865
1141.15	0.246094
1145.51	58.0078
1149.87	108.506
1154.23	256.568
1158.59	87.4531
1162.94	4.58398
1167.29	74.5059
1171.64	16.5039
1175.98	78.1856
1180.33	3.60352
1184.67	88.2617
1189.01	74.4707
1193.34	56.7129
1197.68	150.07
1202.01	6.41602
1206.34	216.961
1210.66	193.299
1214.99	202.756
1219.31	173.273
1223.63	313.356
1227.94	531.391
1232.26	317.299
1236.57	238.826
1240.88	508.053
1245.19	358.484
1249.49	617.662
1253.79	187.482
1258.09	336.809
1262.39	422.904
1266.68	283.514
1270.97	369.93
1275.26	594.295
1279.55	470.709
1283.84	523.078
1288.12	303.131
1292.4	381.682
1296.67	457.305
1300.95	464.857
1305.22	372.17
1309.49	379.484
1313.76	384.566
1318.03	282.188
1322.29	276.478
1326.55	139.043
1330.81	314.58
1335.06	284.072
1339.31	270.772
1343.56	313.25
1347.81	88.9414
1352.06	222.215
1356.3	219.664
1360.54	21.457
1364.78	259.232
1369.02	302.057
1373.25	157.738
1377.48	129.992
1381.71	13.2285
1385.94	185.609
1390.16	79.3828
1394.38	107.656
1398.6	20.4316
1402.82	59.3984
1407.03	27.5938
1411.24	44.9336
1415.45	202.926
1419.66	208.445
1423.87	252.147
1428.07	59.332
1432.27	206.779
1436.46	147.455
1440.66	38.7676
1444.85	88.791
1449.04	344.541
1453.23	82.832
1457.42	315.592
1461.6	251.221
1465.78	206.848
1469.96	148.697
1474.14	157.935
1478.31	283.594
1482.48	109.961
1486.65	324.775
1490.82	20.8398
1494.98	29.4375
1499.14	170.611
1503.3	261.965
1507.46	147.447
1511.61	153.588
1515.77	16.7773
1519.92	121.17
1524.06	86.9238
1528.21	231.975
1532.35	101.965
1536.49	132.893
1540.63	271.277
1544.77	42.9023
1548.9	136.838
1553.03	224.531
1557.16	40.4727
1561.29	225.853
1565.41	229.547
1569.53	23.2441
