Measurement: Raman, 514 nm, ccw, Raman Data Processed
Mineral: Magnesio-hastingsite
Rruff sample: R040010
Ideal chemistry: NaCa_2_(Mg_4_Fe^3+^)Si_6_Al_2_O_22_(OH)_2_
Locality: Amity, New York, USA
Source: University of Arizona Mineral Museum
Description: Group of black prismatic crystals
Measured chemistry: (Na_0.50_K_0.43_[box]_0.07_)_Σ=1_(Ca_1.77_Na_0.23_)_Σ=2_(Mg_1.74_Fe_1.22_Fe^3+^_0.79_Mn_0.57_Al_0.30_Zn_0.25_Ti_0.13_)_Σ=5_(Si_5.95_Al_2.05_)_Σ=8_O_22_((OH)_1.75_F_0.22_Cl_0.03_)_Σ=2_; OH estimated by charge balance
Pin_id: L00491
Orientation: Laser parallel to [1 0 1]. Fiducial mark perpendicular to laser is parallel to b* (0 1 0)
Raman shift (cm-1)	intensity
162.156	0
167.082	90.0156
172.005	405.996
176.925	932.521
181.842	969.449
186.757	1489.64
191.668	1433.33
196.577	1525.72
201.483	2717.49
206.386	424.955
211.286	1601.48
216.183	3587.26
221.078	4750.03
225.969	4404.73
230.858	3194.55
235.744	1977.46
240.628	761.939
245.508	232.373
250.386	99.7773
255.26	204.334
260.132	121.137
265.001	46.3711
269.868	98.0684
274.731	224.144
279.592	518.027
284.45	836.533
289.305	1126.13
294.157	1084.41
299.007	833.676
303.854	515.871
308.698	875.916
313.539	421.781
318.377	273.076
323.213	93.9258
328.046	242.695
332.876	191.537
337.703	350.019
342.527	717.121
347.349	785.418
352.168	1337.2
356.984	2446.12
361.797	2340.13
366.608	2511.65
371.415	2331.8
376.22	2121.83
381.023	1857.39
385.822	1534.11
390.619	1076.81
395.413	739.471
400.204	595.609
404.992	373.525
409.778	733.041
414.561	894.607
419.341	1049.86
424.118	1607.89
428.893	2090.09
433.665	1827.53
438.434	1594.22
443.201	1254.16
447.964	806.178
452.725	593.871
457.483	449.795
462.239	614.637
466.991	221.625
471.741	470.438
476.489	456.281
481.233	944.328
485.975	1413.65
490.714	2666.43
495.45	3273.68
500.184	4821.43
504.915	5296.78
509.643	6030.73
514.368	6786.28
519.091	7660.42
523.811	8638.1
528.528	9379.32
533.243	9719.07
537.955	8924.73
542.664	8122.55
547.37	7052.75
552.074	6476.17
556.775	5374.69
561.473	4881.22
566.169	4143.84
570.862	3233.19
575.552	2176.55
580.24	1439.67
584.925	738.389
589.607	276.44
594.286	21.168
598.963	227.846
603.637	444.707
608.309	255.141
612.977	118.227
617.643	337.443
622.307	766.561
626.967	1331.95
631.625	1958.42
636.281	3059.67
640.933	3780.01
645.583	4437.68
650.231	5185.68
654.875	6092.03
659.517	6773.71
664.157	6886.75
668.793	6000.15
673.427	5125.91
678.059	5060.05
682.687	4506.56
687.313	3703.45
691.937	2652.69
696.557	2305.28
701.175	2601.39
705.791	3305.61
710.403	4130.74
715.014	5039.6
719.621	5955.28
724.226	6556.63
728.828	6987.04
733.428	7013.97
738.025	6766.63
742.619	5944.59
747.21	4857.74
751.799	3922.8
756.386	3306.28
760.969	2714.59
765.551	2787.78
770.129	2917.94
774.705	2630.66
779.278	2728.69
783.849	2657.11
788.417	2327.75
792.982	2052.36
797.545	1727.98
802.105	1115.79
806.663	990.041
811.217	1033.51
815.77	664.072
820.319	723.106
824.867	336.297
829.411	111.336
833.953	42.1406
838.492	203.752
843.029	272.961
847.563	91.7598
852.094	20.3262
856.623	24.6914
861.15	172.785
865.673	329.221
870.194	287.588
874.713	338.537
879.229	675.713
883.742	642.361
888.253	669.475
892.761	825.846
897.267	945.871
901.77	1219.85
906.27	1289.77
910.768	1543.79
915.263	1463.94
919.756	1464.31
924.246	1653.92
928.734	1984.38
933.219	1735.78
937.701	2041.88
942.181	2166.68
946.658	2442.17
951.133	2444.35
955.605	2831.48
960.075	3046.91
964.542	3127.11
969.006	3600.81
973.468	3570.09
977.928	3912.74
982.385	4413.03
986.839	5126.75
991.291	5235.02
995.74	5805.08
1000.19	5984.77
1004.63	6033.69
1009.07	6595.47
1013.51	6835.05
1017.95	6458.41
1022.38	6394.57
1026.81	5932.44
1031.24	5980.48
1035.67	5403.54
1040.09	5285.88
1044.51	4855.66
1048.93	4911.86
1053.35	4508.99
1057.76	4621.31
1062.17	4769.85
1066.58	4061.3
1070.99	4029.72
1075.39	3738.84
1079.79	3545.12
1084.19	3456.44
1088.59	3167.95
1092.98	2619.81
1097.37	2371.64
1101.76	2038.6
1106.15	1613.04
1110.53	1663.59
1114.91	1214.37
1119.29	1151.33
1123.67	1080.91
1128.04	690.205
1132.41	818.938
1136.78	354.094
1141.15	127.016
1145.51	318.562
1149.87	70.8652
1154.23	266.727
1158.59	194.494
1162.94	132.938
1167.29	92.3887
1171.64	38.2832
1175.98	120.631
1180.33	109.199
1184.67	226.83
1189.01	3.58398
1193.34	35.1484
1197.68	166.18
1202.01	157.926
1206.34	115.428
1210.66	169.732
1214.99	86.9453
1219.31	231.09
1223.63	453.107
1227.94	344.799
1232.26	240.635
1236.57	330.027
1240.88	262.852
1245.19	460.373
1249.49	262.607
1253.79	47.8965
1258.09	279.035
1262.39	481.303
1266.68	374.84
1270.97	933.805
1275.26	340.803
1279.55	105.92
1283.84	521.84
1288.12	405.369
1292.4	253.834
1296.67	233.777
1300.95	201.68
1305.22	366.258
1309.49	366.228
1313.76	137.17
1318.03	304.762
1322.29	281.482
1326.55	101.283
1330.81	249.371
1335.06	212.482
1339.31	275.562
1343.56	469.873
1347.81	341.57
1352.06	256.201
1356.3	186.676
1360.54	210.846
1364.78	479.119
1369.02	191.193
1373.25	330.512
1377.48	354.107
1381.71	281.971
1385.94	151.922
1390.16	56.8184
1394.38	14.3047
1398.6	67.334
1402.82	324.889
1407.03	91.3516
1411.24	167.85
1415.45	163.305
1419.66	286.088
1423.87	104.834
1428.07	150.652
1432.27	442.701
1436.46	267.301
1440.66	216.072
1444.85	160.397
1449.04	320.861
1453.23	428.553
1457.42	304.018
1461.6	400.488
1465.78	271.143
1469.96	267.629
1474.14	234.231
1478.31	219.096
1482.48	389.701
1486.65	361.361
1490.82	315.768
1494.98	32.4805
1499.14	227.664
1503.3	419.621
1507.46	323.207
1511.61	476.137
1515.77	232.178
1519.92	319.268
1524.06	145.264
1528.21	99.8379
1532.35	269.566
1536.49	461.019
1540.63	359.731
1544.77	75.9609
1548.9	179.547
1553.03	276.551
1557.16	45.6992
1561.29	263.565
1565.41	261.512
1569.53	44.8105
