Measurement: Raman, 514 nm, ccw, Raman Data Processed
Mineral: Magnesite
Rruff sample: R040114
Ideal chemistry: MgCO_3_
Locality: Snarum, Norway
Source: University of Arizona Mineral Museum
Description: Tan colored cleavage fragment
Measured chemistry: (Mg_0.98_Fe_0.01_)C_1.00_O_3_
Pin_id: L00266
Orientation: Laser parallel to -a* (-1 0 0). Fiducial mark perpendicular to laser is parallel to c [0 0 1]
Raman shift (cm-1)	intensity
90.587	0
94.768	35.03
98.947	2.507
103.124	78.452
107.3	100.403
111.473	135.584
115.644	263.178
119.813	229.505
123.981	154.795
128.146	126.999
132.309	84.734
136.47	38
140.63	88.233
144.787	23.955
148.942	14.999
153.096	50.533
157.247	2.635
161.396	12.235
165.544	51.193
169.689	53.738
173.833	31.741
177.974	63.25
182.114	52.338
186.251	53.616
190.387	84.547
194.52	105.954
198.652	196.407
202.782	443.859
206.909	1788.27
211.035	3937.6
215.159	4322.85
219.281	1126.04
223.4	276.172
227.518	68.264
231.634	76.323
235.748	11.392
239.86	11.557
243.97	8.536
248.079	18.394
252.185	4.794
256.289	76.102
260.391	2.054
264.492	0.934
268.59	40.866
272.687	28.88
276.781	54.703
280.874	80.305
284.964	27.794
289.053	81.48
293.14	129.535
297.225	128.388
301.308	188.657
305.389	302.725
309.468	390.925
313.545	668.011
317.62	1395.09
321.693	4879.78
325.765	16587.9
329.834	31507.7
333.902	15910.4
337.967	4636.59
342.031	1647.98
346.093	883.114
350.153	566.611
354.21	406.864
358.267	345.789
362.321	292.359
366.373	271.088
370.423	210.569
374.471	176.822
378.518	173.531
382.563	157.243
386.605	133.906
390.646	172.284
394.685	116.821
398.722	131.301
402.757	151.782
406.79	86.834
410.821	59.026
414.851	116.792
418.878	56.539
422.904	82.866
426.927	103.155
430.949	80.452
434.969	119.79
438.987	53.428
443.003	106.326
447.018	67.949
451.03	59.261
455.041	92.941
459.049	7.363
463.056	23.266
467.061	40.541
471.064	29.521
475.065	56.26
479.064	55.5
483.062	29.973
487.057	37.538
491.051	47.986
495.043	51.46
499.032	65.847
503.02	39.135
507.007	77.45
510.991	84.735
514.973	48.124
518.954	25.341
522.933	38.541
526.91	58.716
530.885	50.849
534.858	2.912
538.829	65.927
542.799	0.074
546.766	23.875
550.732	1.794
554.696	32.687
558.658	13.54
562.618	12.609
566.576	16.808
570.533	10.942
574.488	35.657
578.44	22.357
582.391	44.998
586.341	19.595
590.288	19.037
594.233	14.399
598.177	33.118
602.119	7.64
606.059	27.048
609.997	10.96
613.933	19.352
617.868	55.177
621.801	51.234
625.731	4.382
629.66	23.444
633.588	25.162
637.513	15.984
641.437	36.946
645.358	43.892
649.278	36.167
653.196	76.496
657.113	102.905
661.027	75.69
664.94	63.896
668.851	101.513
672.76	130.335
676.667	110.79
680.572	130.246
684.476	112.368
688.378	110.618
692.278	102.081
696.176	129.268
700.072	115.084
703.967	191.046
707.86	243.543
711.751	260.169
715.64	304.915
719.527	427.225
723.413	589.728
727.297	944.146
731.179	1429.19
735.059	2046.58
738.937	2409.53
742.814	2001.48
746.689	1177.37
750.562	732.551
754.433	474.344
758.303	288.687
762.17	210.71
766.036	92.173
769.901	50.264
773.763	47.785
777.624	65.222
781.482	52.322
785.339	81.016
789.195	34.703
793.048	2.234
796.9	28.802
800.75	7.88
804.598	11.612
808.445	2.39
812.289	8.062
816.132	18.065
819.973	30.066
823.813	7.013
827.65	13.763
831.486	30.399
835.32	76.321
839.152	42.994
842.983	5.625
846.812	36.234
850.639	77.75
854.464	46.202
858.288	8.383
862.11	64.943
865.93	26.222
869.748	6.531
873.564	36.675
877.379	63.874
881.192	6.944
885.004	5.793
888.813	23.712
892.621	35.292
896.427	42.723
900.232	18.824
904.034	49.03
907.835	13.878
911.634	15.709
915.432	53.527
919.227	4.301
923.021	67.049
926.813	59.132
930.604	33.536
934.393	29.244
938.18	84.034
941.965	44.123
945.749	58.139
949.53	58.283
953.311	41.866
957.089	92.01
960.866	9.115
964.641	49.55
968.414	71.276
972.185	83.627
975.955	123.202
979.723	140.802
983.49	44.352
987.254	84.69
991.017	109.711
994.779	166.592
998.538	80.582
1002.3	110.58
1006.05	182.542
1009.81	140.872
1013.56	191.314
1017.31	190.594
1021.06	229.346
1024.81	170.671
1028.55	227.809
1032.3	346.695
1036.04	303.224
1039.78	407.688
1043.52	471.209
1047.26	541.173
1050.99	689.742
1054.73	855.365
1058.46	1036.26
1062.19	1265.95
1065.92	1670.73
1069.65	2217.34
1073.37	3288.24
1077.1	4805.33
1080.82	7489.21
1084.54	12995.6
1088.26	24516.7
1091.97	43723.6
1095.69	53234.7
1099.4	38967.6
1103.12	24002.8
1106.83	15161.7
1110.54	9193.24
1114.24	5372.34
1117.95	3213.03
1121.65	2140.67
1125.35	1334.29
1129.06	1016.04
1132.75	657.282
1136.45	500.805
1140.15	425.26
1143.84	383.735
1147.53	292.604
1151.22	216.768
1154.91	206.361
1158.6	177.95
1162.28	159.952
1165.97	94.165
1169.65	110.176
1173.33	97.985
1177.01	119.273
1180.69	92.695
1184.36	137.679
1188.04	41.635
1191.71	58.741
1195.38	25.952
1199.05	82.369
1202.71	1.635
1206.38	89.592
1210.04	104.733
1213.71	31.91
1217.37	72.982
1221.03	36.719
1224.68	83.395
1228.34	102.353
1231.99	43.091
1235.65	75.538
1239.3	49.92
1242.95	38.455
1246.59	15.825
1250.24	39.021
1253.88	13.102
1257.53	14.858
1261.17	1.204
1264.81	74.923
1268.45	17.331
1272.08	59.144
1275.72	29.458
1279.35	21.175
1282.98	50.192
1286.61	73.021
1290.24	112.694
1293.87	22.19
1297.49	17.531
1301.11	66.693
1304.73	33.724
1308.36	46.622
1311.97	9.597
1315.59	49.038
1319.2	72.553
1322.82	25.948
1326.43	12.224
1330.04	9.348
1333.65	121.313
1337.26	12.148
1340.86	32.831
1344.47	91.417
1348.07	12.722
1351.67	20.102
1355.27	7.76
1358.87	42.375
1362.46	116.479
1366.06	1.584
1369.65	21.185
1373.24	33.126
1376.83	76.498
1380.42	191.247
1384	136.67
1387.59	64.831
1391.17	67.15
1394.75	82.541
1398.33	52.95
1401.91	73.059
1405.49	77.727
1409.06	91.349
1412.64	57.466
1416.21	113.921
1419.78	88.833
1423.35	101.246
1426.91	77.706
1430.48	41.631
1434.05	85.787
1437.61	144.185
1441.17	277.522
1444.73	579.88
1448.29	899.84
1451.84	495.794
1455.4	265.461
1458.95	232.879
1462.5	222.881
1466.05	240.924
1469.6	221.697
1473.15	149.454
1476.69	140.728
1480.24	143.566
1483.78	133.464
1487.32	220.653
1490.86	114.95
1494.39	72.424
1497.93	175.262
1501.46	27.78
1505	81.933
1508.53	75.841
1512.06	13.91
1515.59	84.646
1519.11	46.071
1522.64	53.142
