Measurement: Raman, 514 nm, ccw, Raman Data Processed
Mineral: Magnesio-hastingsite
Rruff sample: R040010
Ideal chemistry: NaCa_2_(Mg_4_Fe^3+^)Si_6_Al_2_O_22_(OH)_2_
Locality: Amity, New York, USA
Source: University of Arizona Mineral Museum
Description: Group of black prismatic crystals
Measured chemistry: (Na_0.50_K_0.43_[box]_0.07_)_Σ=1_(Ca_1.77_Na_0.23_)_Σ=2_(Mg_1.74_Fe_1.22_Fe^3+^_0.79_Mn_0.57_Al_0.30_Zn_0.25_Ti_0.13_)_Σ=5_(Si_5.95_Al_2.05_)_Σ=8_O_22_((OH)_1.75_F_0.22_Cl_0.03_)_Σ=2_; OH estimated by charge balance
Pin_id: L00198
Orientation: Laser parallel to c [0 0 1]. Fiducial mark perpendicular to laser is parallel to -b* (0 -1 0)
Raman shift (cm-1)	intensity
190.44	0
195.35	119.756
200.256	1222.24
205.16	3106.11
210.061	8990.63
214.959	18181.9
219.854	26706.7
224.747	28890.6
229.636	20270.4
234.523	11127.5
239.407	5469.33
244.288	3221.97
249.166	2239.35
254.042	1489.05
258.915	1979.11
263.784	2073.77
268.651	2981.59
273.516	4247.68
278.377	5780.91
283.236	7301.29
288.092	8301.3
292.945	8375.07
297.795	7744.5
302.642	6889.65
307.487	5821.95
312.329	4478.82
317.168	3254.64
322.004	2027.93
326.838	1281.76
331.668	921.273
336.496	1069.59
341.321	854.891
346.144	1612.13
350.963	1995.75
355.78	2746.89
360.594	3329.07
365.405	3681.67
370.214	3387.79
375.019	3236.5
379.822	2528.2
384.622	1556.08
389.42	838.781
394.215	136.6
399.006	355.981
403.795	481.094
408.582	352.551
413.365	369.758
418.146	190.545
422.924	970.981
427.7	1809.73
432.472	1952.76
437.242	1512.07
442.009	1083.12
446.774	1095.63
451.535	763.836
456.294	551.727
461.05	457.699
465.804	409.363
470.554	99.2559
475.302	24.2441
480.047	279.836
484.79	5.23047
489.529	290.342
494.266	700.83
499.001	1169.45
503.732	1656.23
508.461	2240.07
513.187	3173.9
517.911	4784.66
522.631	7216.31
527.349	10051.8
532.065	12069.2
536.777	12153.4
541.487	10568.1
546.194	8181.74
550.898	6126.09
555.6	4494.89
560.299	3412.47
564.995	2199.62
569.689	1922.26
574.38	1635.19
579.068	1185.7
583.754	847.754
588.437	885.412
593.117	80.3203
597.794	197.113
602.469	149.853
607.141	621.844
611.81	1708.77
616.477	3170.55
621.141	5569.09
625.802	8692.88
630.461	11977.1
635.117	15262.2
639.77	17872.9
644.421	19956.5
649.069	21925.1
653.714	24170.6
658.357	25910
662.997	24328.4
667.634	20325.9
672.269	17313.4
676.901	16537
681.53	15742
686.157	12999.6
690.781	7958.39
695.402	4291.76
700.021	2405.77
704.637	1216.39
709.251	949.164
713.861	867.293
718.469	1103.28
723.075	1120.17
727.678	1299.23
732.278	1201.32
736.876	1274.7
741.47	1064.19
746.063	755.65
750.652	116.019
755.239	75.3262
759.824	123.484
764.406	154.475
768.985	130.121
773.561	439.721
778.135	573.273
782.706	939.766
787.275	874.229
791.841	930.691
796.404	890.182
800.965	1130.73
805.523	1118.36
810.079	1268.1
814.632	1221.16
819.182	1059.58
823.73	881.195
828.275	425.531
832.818	405.002
837.358	103.586
841.895	191.758
846.43	101.734
850.962	175.533
855.491	92.6504
860.018	59.6445
864.543	147.18
869.064	45.4141
873.583	473.848
878.1	821.75
882.614	1136.58
887.125	1478.52
891.634	2007.18
896.14	2504.12
900.644	3148.1
905.145	3746.78
909.644	3948.45
914.14	4104.94
918.633	3642.99
923.124	3501.5
927.612	3149.53
932.098	2863.03
936.581	3113.97
941.061	3224.34
945.539	3185.13
950.015	3347.31
954.487	3424.86
958.958	3540.77
963.425	3917.03
967.89	3811.61
972.353	4011.51
976.813	4128.47
981.271	4572.32
985.726	5347.17
990.178	6170.69
994.628	7477.03
999.075	9564.38
1003.52	11647.8
1007.96	13865.5
1012.4	15309.9
1016.84	15411.4
1021.27	15046.1
1025.71	13771.8
1030.13	12241.3
1034.56	10527.5
1038.99	9008.81
1043.41	7766.89
1047.83	7239.28
1052.24	6396.6
1056.66	5692.29
1061.07	5206.97
1065.48	4896.8
1069.89	4462.29
1074.29	4092.87
1078.69	3683.91
1083.09	3740.45
1087.49	3375.83
1091.88	2936.89
1096.28	2551.07
1100.66	2152.39
1105.05	1632.63
1109.43	1277.97
1113.82	887.143
1118.2	733.172
1122.57	483.543
1126.95	195.242
1131.32	55.8379
1135.69	31.9316
1140.05	225.908
1144.42	87.9219
1148.78	42.8203
1153.14	133.606
1157.5	180.484
1161.85	6.5332
1166.2	37.8066
1170.55	37.0205
1174.9	144.211
1179.24	37.3652
1183.58	102.86
1187.92	179.435
1192.26	29.9688
1196.6	157.232
1200.93	140.424
1205.26	91.2207
1209.58	243.122
1213.91	215.012
1218.23	349.463
1222.55	216.73
1226.87	365.417
1231.18	411.315
1235.49	418.618
1239.8	339.781
1244.11	413.879
1248.41	590.949
1252.72	507.783
1257.02	322.136
1261.32	453.648
1265.61	370.751
1269.9	320.4
1274.19	437.635
1278.48	412.527
1282.77	377.455
1287.05	372.656
1291.33	247.781
1295.61	259.219
1299.88	445.606
1304.15	220.217
1308.42	422.959
1312.69	136.613
1316.96	380.473
1321.22	165.81
1325.48	165.342
1329.74	170.06
1334	296.053
1338.25	304.809
1342.5	144.334
1346.75	280.025
1351	277.182
1355.24	159.225
1359.48	67.0801
1363.72	214.746
1367.96	242.842
1372.19	127.25
1376.42	271.451
1380.65	157.209
1384.88	301.051
1389.11	150.996
1393.33	122.119
1397.55	57.5918
1401.76	179.473
1405.98	126.58
1410.19	25.9844
1414.4	54.5996
1418.61	220.644
1422.82	221.022
1427.02	175.94
1431.22	66.3574
1435.42	185.697
1439.61	127.752
1443.81	275.953
1448	127.682
1452.18	129.894
1456.37	220.572
1460.56	32.5742
1464.74	255.416
1468.92	132.191
1473.09	123.547
1477.27	18.2012
1481.44	126.359
1485.61	197.67
1489.78	150.44
1493.94	129.498
1498.1	30.5957
1502.26	103.869
1506.42	141.248
1510.58	63.7148
1514.73	148.269
1518.88	256.865
1523.03	102.955
1527.17	180.356
1531.32	248.598
1535.46	146.598
1539.6	175.209
1543.73	113.74
1547.87	267.022
1552	93.5352
1556.13	164.41
1560.26	233.926
1564.38	106.272
1568.5	1.63867
