Measurement: Raman, 514 nm, ccw, Raman Data Processed
Mineral: Magnesio-hastingsite
Rruff sample: R040010
Ideal chemistry: NaCa_2_(Mg_4_Fe^3+^)Si_6_Al_2_O_22_(OH)_2_
Locality: Amity, New York, USA
Source: University of Arizona Mineral Museum
Description: Group of black prismatic crystals
Measured chemistry: (Na_0.50_K_0.43_[box]_0.07_)_Σ=1_(Ca_1.77_Na_0.23_)_Σ=2_(Mg_1.74_Fe_1.22_Fe^3+^_0.79_Mn_0.57_Al_0.30_Zn_0.25_Ti_0.13_)_Σ=5_(Si_5.95_Al_2.05_)_Σ=8_O_22_((OH)_1.75_F_0.22_Cl_0.03_)_Σ=2_; OH estimated by charge balance
Pin_id: L00491
Orientation: Laser parallel to [1 0 1]. Fiducial mark perpendicular to laser is parallel to b* (0 1 0)
Raman shift (cm-1)	intensity
159.692	0
164.62	897.84
169.544	852.606
174.465	1561.46
179.384	3438.26
184.3	3132.91
189.213	3039.24
194.123	2662.6
199.03	2652.65
203.934	1956.84
208.836	1273.59
213.735	3449.1
218.631	5241.35
223.524	5849.32
228.414	5135.64
233.302	3154.8
238.186	1727.44
243.068	615.293
247.947	158.867
252.823	34.8633
257.697	98.9023
262.567	292.426
267.435	211.523
272.3	179.422
277.162	476.644
282.021	940.644
286.878	1033.04
291.732	849.144
296.583	817.867
301.431	808.566
306.276	597.684
311.119	785.691
315.958	613.07
320.795	557.852
325.629	762.84
330.461	980.551
335.289	1292.88
340.115	1625.15
344.938	2057.12
349.759	3210.39
354.576	4228.18
359.391	5312.61
364.203	5882.71
369.012	5385.03
373.818	4446.13
378.622	3496.39
383.423	2621.95
388.221	1967.67
393.016	1500.38
397.809	893.773
402.598	1888.43
407.386	864.805
412.17	855.031
416.951	1099.35
421.73	1378.72
426.506	1431.23
431.279	1343.93
436.05	859.887
440.818	695.144
445.583	246.707
450.345	51.6562
455.105	77.8633
459.861	4.11719
464.615	116.305
469.367	418.234
474.115	125.012
478.861	87.9531
483.604	450.832
488.345	1047.84
493.082	1566.14
497.817	2278.48
502.55	3049.81
507.279	3998.29
512.006	4433.23
516.73	5615.67
521.451	6952.61
526.17	7736.1
530.886	8389.15
535.599	8518.78
540.31	8107.16
545.017	7165.43
549.723	6493.9
554.425	5923.84
559.125	5609.88
563.822	4840.99
568.516	4242.77
573.207	3011.11
577.896	2270.44
582.583	1442.69
587.266	1179.96
591.947	389.262
596.625	384.746
601.3	182.695
605.973	159.023
610.643	543.324
615.311	423.938
619.975	502.961
624.637	1084.86
629.297	1674.89
633.953	2605.45
638.607	3098.56
643.259	4017.25
647.907	4526.36
652.553	5644.4
657.197	6531.91
661.837	6660.06
666.475	6153.87
671.111	5799.35
675.743	5930.53
680.373	6308.4
685.001	5728.98
689.625	3994.83
694.247	3336.66
698.867	2803.5
703.483	3246.87
708.097	4084.73
712.709	5638.9
717.318	6450.46
721.924	7009.87
726.527	7598.31
731.128	8338.48
735.726	8187.88
740.322	7291.64
744.915	6315.09
749.505	4726.66
754.093	3445.25
758.678	2566.5
763.26	2241.75
767.84	1900.48
772.417	1769.68
776.992	1734.39
781.564	1772.57
786.133	1545.23
790.7	1509.37
795.264	1334.98
799.825	982.043
804.384	856.562
808.94	712.539
813.494	566.941
818.045	558.777
822.593	389.035
827.139	115.352
831.682	544.144
836.223	460.844
840.761	479.523
845.296	54.2109
849.829	135.406
854.359	105.477
858.887	447.703
863.412	558.285
867.934	773.422
872.454	916.582
876.971	1139.54
881.486	1249.97
885.998	1141.89
890.507	1356.69
895.014	1522.4
899.518	1960.71
904.02	1462.55
908.519	1527.9
913.016	1506.88
917.51	1651.24
922.001	1640.82
926.49	1655.74
930.976	1788.98
935.46	1638.57
939.941	1848.42
944.42	2134.47
948.896	2157.7
953.369	2177.12
957.84	2267.29
962.309	2275.12
966.774	2161.1
971.238	2834.1
975.698	2740.2
980.156	2854.22
984.612	3160.23
989.065	3372.45
993.516	3973.35
997.964	3947.18
1002.41	4455.33
1006.85	4286.02
1011.29	4208.14
1015.73	4598.14
1020.16	4316.67
1024.6	4464.9
1029.03	4078.21
1033.46	3895.8
1037.88	3744.27
1042.3	3812.97
1046.72	3672.2
1051.14	3165.8
1055.56	3213.4
1059.97	3022.92
1064.38	2714.85
1068.79	2783.56
1073.19	2778.93
1077.59	2589.84
1081.99	2420.08
1086.39	2224.95
1090.79	1689.93
1095.18	1742.55
1099.57	1244.54
1103.95	1150.91
1108.34	1228.46
1112.72	1123.91
1117.1	1064.57
1121.48	721.527
1125.85	794.027
1130.23	414.144
1134.6	369.883
1138.96	353.281
1143.33	545.637
1147.69	151.176
1152.05	286.746
1156.41	116.441
1160.76	174.902
1165.11	56.3789
1169.46	140.969
1173.81	204.805
1178.16	81.8008
1182.5	338.941
1186.84	73.1523
1191.18	0.210938
1195.51	475.031
1199.84	250.742
1204.17	214.887
1208.5	515.039
1212.83	482.742
1217.15	171.863
1221.47	363.898
1225.79	446.356
1230.1	373.512
1234.41	592.738
1238.73	417.086
1243.03	519.383
1247.34	373.266
1251.64	482.551
1255.94	376.543
1260.24	401.34
1264.54	180.836
1268.83	102.824
1273.12	408.863
1277.41	381.918
1281.69	364.777
1285.98	24.8711
1290.26	244.434
1294.54	244.551
1298.81	126.086
1303.09	50.8828
1307.36	155.484
1311.63	347.863
1315.89	352.289
1320.16	429.164
1324.42	409.184
1328.68	283.098
1332.93	300.207
1337.19	383.16
1341.44	473.199
1345.69	310.707
1349.94	475.094
1354.18	194.066
1358.42	297.828
1362.66	391.559
1366.9	155.559
1371.13	364.219
1375.37	346.805
1379.6	101.492
1383.82	224.043
1388.05	144.598
1392.27	239.523
1396.49	181.644
1400.71	286.285
1404.92	142.449
1409.14	117.039
1413.35	71.7812
1417.56	14.6523
1421.76	16.2891
1425.97	101.422
1430.17	152.941
1434.37	187.168
1438.56	122.898
1442.76	331.035
1446.95	326.859
1451.14	266.734
1455.33	120.68
1459.51	314.602
1463.69	440.848
1467.87	475.117
1472.05	257.918
1476.22	263.773
1480.4	438.625
1484.57	390.691
1488.73	421.762
1492.9	566.289
1497.06	578.621
1501.22	281.316
1505.38	269.578
1509.54	345.684
1513.69	314.894
1517.84	286.227
1521.99	389.344
1526.14	85.3359
1530.28	184.699
1534.42	311.25
1538.56	42.3008
1542.7	160.285
1546.83	263.039
1550.97	44.1797
1555.1	266.117
1559.22	254.832
1563.35	28.4922
1567.47	127.449
