Measurement: Raman, 514 nm, ccw, Raman Data Processed
Mineral: Magnesio-hastingsite
Rruff sample: R040010
Ideal chemistry: NaCa_2_(Mg_4_Fe^3+^)Si_6_Al_2_O_22_(OH)_2_
Locality: Amity, New York, USA
Source: University of Arizona Mineral Museum
Description: Group of black prismatic crystals
Measured chemistry: (Na_0.50_K_0.43_[box]_0.07_)_Σ=1_(Ca_1.77_Na_0.23_)_Σ=2_(Mg_1.74_Fe_1.22_Fe^3+^_0.79_Mn_0.57_Al_0.30_Zn_0.25_Ti_0.13_)_Σ=5_(Si_5.95_Al_2.05_)_Σ=8_O_22_((OH)_1.75_F_0.22_Cl_0.03_)_Σ=2_; OH estimated by charge balance
Pin_id: L00374
Orientation: Laser parallel to a [1 0 0]. Fiducial mark perpendicular to laser is parallel to -b* (0 -1 0)
Raman shift (cm-1)	intensity
168.313	0
173.235	3.27344
178.155	744.043
183.071	927.086
187.985	1888.03
192.896	1961.87
197.803	2194.03
202.709	2936.9
207.611	142.457
212.51	877.961
217.407	2192.89
222.301	3233.09
227.192	3468.53
232.08	2604.91
236.965	1926.11
241.848	1048.11
246.728	289.867
251.604	147.309
256.479	73.7812
261.35	126.738
266.218	15.0742
271.084	12.7734
275.947	640.375
280.807	1100.43
285.664	1957.3
290.518	2589.73
295.37	2649.82
300.219	2526.74
305.065	1981.48
309.908	1734.02
314.749	1278.44
319.586	659.961
324.421	483.566
329.253	98.0586
334.083	421.543
338.909	206.422
343.733	161.844
348.554	60.2188
353.372	210.477
358.187	393.137
363	625.754
367.81	1212.54
372.617	1839.66
377.421	2298.1
382.223	2732.82
387.022	3534.77
391.818	2534.92
396.611	1921.73
401.401	2207.65
406.189	2010.69
410.974	2025.47
415.756	1997.81
420.536	3034.88
425.312	3629.55
430.086	4420.66
434.858	4410.93
439.626	3897.34
444.392	3232.86
449.155	2170.47
453.915	1500.13
458.672	875.766
463.427	580.606
468.179	551.141
472.928	575.391
477.675	310.703
482.419	945.863
487.16	1542.15
491.898	2130.42
496.634	3300.35
501.367	3991.86
506.097	5274.23
510.825	6007.4
515.549	6411.37
520.271	7213.09
524.991	8041.57
529.707	9211.76
534.421	9236.65
539.132	8762.22
543.841	8002.48
548.547	6858.42
553.25	6267.29
557.95	5458.93
562.648	4820.46
567.343	4056.31
572.035	3372.27
576.724	2335.12
581.411	1611.43
586.095	469.164
590.777	75.293
595.456	234.391
600.132	236.297
604.805	269.703
609.476	301.941
614.144	182.481
618.809	118.695
623.472	452.691
628.132	1099.89
632.789	1689.27
637.444	2390.82
642.096	3164.49
646.745	3333.22
651.392	3930.99
656.036	5069.79
660.677	5473.59
665.316	5403.37
669.952	4281.1
674.585	3245.78
679.216	2517.35
683.844	1809.9
688.469	1360.36
693.092	788.594
697.712	614.621
702.329	855.609
706.944	987.172
711.556	1703.27
716.166	2414.98
720.773	3180.35
725.377	3772.95
729.978	3707.57
734.577	4082.11
739.173	3869
743.767	3568.3
748.358	3232.45
752.946	2474.22
757.532	2049.25
762.115	2142.21
766.695	2191.75
771.273	2584.88
775.848	2553.59
780.421	2362.88
784.991	2344.75
789.558	1835.3
794.123	1748.29
798.685	1581.94
803.245	1105.21
807.802	984.082
812.356	966.562
816.907	291.641
821.456	408.363
826.003	63.3086
830.547	88.3438
835.088	217.094
839.627	351.059
844.163	256.309
848.696	124.844
853.227	353.055
857.755	247.926
862.281	418.484
866.804	676.777
871.324	1013.04
875.842	996.914
880.357	1089.53
884.87	1203.07
889.38	1441.4
893.888	1305.05
898.393	1143.2
902.895	1240.94
907.395	1429.79
911.892	1655.65
916.387	1716.71
920.879	2141.97
925.368	2218.38
929.855	2650.9
934.339	2634.4
938.821	3250.16
943.301	3170.28
947.777	3409.42
952.251	3883.57
956.723	3664.85
961.192	3852.66
965.658	4076.81
970.122	4177.48
974.583	4320.79
979.042	4749.12
983.498	4745.1
987.952	5520.97
992.403	5660.59
996.852	6183.81
1001.3	6800.46
1005.74	7189.42
1010.18	7298.74
1014.62	7567.9
1019.06	7370.83
1023.49	6941.37
1027.92	6989.75
1032.35	6331.83
1036.78	6037.53
1041.2	5978.35
1045.62	5163.47
1050.04	4981.54
1054.45	4197.63
1058.87	4125.23
1063.28	4045.14
1067.68	3980.21
1072.09	3900.28
1076.49	3837.73
1080.89	3645.72
1085.29	3216.24
1089.69	3100.59
1094.08	2858.3
1098.47	2513.74
1102.86	1812.84
1107.24	1151.54
1111.63	1001.24
1116.01	1022.92
1120.38	859.367
1124.76	741.133
1129.13	339.074
1133.5	294.383
1137.87	176.273
1142.24	295.062
1146.6	42.8203
1150.96	152.34
1155.32	285.769
1159.67	297.406
1164.03	457.184
1168.38	59.7773
1172.72	89.3203
1177.07	201.738
1181.41	35.9648
1185.75	81.6875
1190.09	171.449
1194.43	2.28516
1198.76	217.836
1203.09	295.988
1207.42	48.7188
1211.75	177.227
1216.07	44.207
1220.39	489.383
1224.71	197.039
1229.02	134.715
1233.34	450.547
1237.65	321.406
1241.96	92.0078
1246.26	310.863
1250.57	627.144
1254.87	291.731
1259.17	572.551
1263.46	98.6719
1267.76	154.621
1272.05	489.418
1276.34	569.231
1280.62	401.215
1284.91	372.234
1289.19	171.926
1293.47	244.684
1297.74	189.906
1302.02	495.516
1306.29	96.1602
1310.56	325.066
1314.83	473.496
1319.09	384.32
1323.35	468.867
1327.61	300.316
1331.87	384.656
1336.12	210.438
1340.38	222.188
1344.63	382.113
1348.87	331.066
1353.12	398.402
1357.36	388.75
1361.6	530.781
1365.84	235.715
1370.08	375.019
1374.31	110.519
1378.54	163.801
1382.77	220.918
1386.99	173.902
1391.22	13.5625
1395.44	40.3984
1399.66	80.8984
1403.87	81.8906
1408.09	37.4688
1412.3	38.3711
1416.51	431.727
1420.71	183.883
1424.92	102.66
1429.12	146.84
1433.32	218.144
1437.51	335.766
1441.71	316.551
1445.9	396.738
1450.09	372.824
1454.28	566.363
1458.46	261.934
1462.65	98.5625
1466.83	542.805
1471	138.297
1475.18	518.734
1479.35	1027.65
1483.52	766.285
1487.69	972.207
1491.86	255.668
1496.02	603.023
1500.18	315.828
1504.34	281.223
1508.5	294.465
1512.65	475.457
1516.8	472.199
1520.95	510.703
1525.1	263.609
1529.24	434.93
1533.39	807.129
1537.53	301.449
1541.66	377.688
1545.8	375.172
1549.93	545.527
1554.06	538
1558.19	582.918
1562.32	158.016
1566.44	258.309
1570.56	0
