Measurement: Raman, 532 nm, ccw, Raman Data Processed
Mineral: Magnesiotaaffeite-6N3S
Rruff sample: X070005
Ideal chemistry: Mg_2_BeAl_6_O_12_
Locality: Tunduru, Tanzania
Source: www.multicolour.com
Description: Pale lavendar cut gemstone, 0.65 cts, formerly known as musgravite-18R
Raman shift (cm-1)	intensity
156.851	0
159.743	94.0654
162.636	0.290039
165.529	52.2461
168.422	158.915
171.314	122.205
174.207	64.249
177.1	200.089
179.992	308.588
182.885	209.044
185.778	185.444
188.671	136.651
191.563	99.2852
194.456	30.3711
197.349	17.4463
200.241	109.641
203.134	176.863
206.027	159.018
208.919	26.292
211.812	71.5439
214.705	16.4863
217.597	29.5107
220.49	43.5137
223.383	25.8926
226.276	210.659
229.168	364.379
232.061	402.878
234.954	831.55
237.846	1447.73
240.739	2420.28
243.632	1774.99
246.524	464.373
249.417	279.337
252.31	232.987
255.203	163.279
258.095	264.163
260.988	474.096
263.881	720.688
266.773	918.081
269.666	528.126
272.559	204.25
275.452	137.883
278.344	119.748
281.237	66.3008
284.13	69.7334
287.022	34.0918
289.915	79.6182
292.808	109.754
295.7	161.855
298.593	366.497
301.486	581.625
304.378	873.583
307.271	637.9
310.164	676.848
313.057	925.274
315.949	1021.01
318.842	619.306
321.735	425.54
324.627	714.019
327.52	879.93
330.413	911.088
333.305	1078.72
336.198	1853.65
339.091	1693.23
341.984	539.589
344.876	146.837
347.769	46.8242
350.662	34.2588
353.554	1.32324
356.447	15.4121
359.34	65.1201
362.233	69.1953
365.125	77.1143
368.018	134.311
370.911	197.001
373.803	311.427
376.696	637.111
379.589	717.096
382.481	322.063
385.374	256.494
388.267	214.048
391.159	354.76
394.052	731.275
396.945	1361.27
399.838	2967.2
402.73	5763.23
405.623	8744.49
408.516	10696.2
411.408	18636.8
414.301	25901.9
417.194	13491.8
420.087	3470.92
422.979	1116.86
425.872	482.478
428.765	10.2041
431.657	42.6494
434.55	84.4346
437.443	428.178
440.335	898.497
443.228	2110.41
446.121	3874.82
449.014	3987.51
451.906	1484.27
454.799	1136.05
457.692	1342.75
460.584	798.54
463.477	71.6016
466.37	0.21875
469.262	157.657
472.155	524.159
475.048	1210.89
477.941	2423.33
480.833	4813.44
483.726	8175.04
486.619	8334.57
489.511	6470.12
492.404	9147.32
495.297	12612.7
498.19	6936.57
501.082	1649.86
503.975	660.863
506.868	267.192
509.76	98.6143
512.653	60.6348
515.546	58.9082
518.438	127.788
521.331	187.552
524.224	528.05
527.116	1020.37
530.009	1142.34
532.902	430.66
535.795	248.308
538.687	183.685
541.58	301.134
544.473	80.6514
547.365	32.0762
550.258	68.7393
553.151	54.0293
556.043	39.1553
558.936	71.5947
561.829	54.0225
564.722	209.133
567.614	628.948
570.507	1183.74
573.4	1988.88
576.292	3007.6
579.185	3748.98
582.078	2814.19
584.971	1468.3
587.863	698.273
590.756	303.529
593.649	134.058
596.541	37.3252
599.434	51.8935
602.327	161.907
605.219	322.001
608.112	165.636
611.005	123.16
613.898	348.205
616.79	684.843
619.683	1323.8
622.576	1768.43
625.468	1407.82
628.361	655.375
631.254	350.684
634.146	160.12
637.039	116.269
639.932	194.617
642.824	306.532
645.717	531.192
648.61	936.862
651.503	1601.16
654.395	2319.52
657.288	2639.39
660.181	2640.54
663.073	2848.22
665.966	2866.14
668.859	2211.95
671.752	1330.02
674.644	650.741
677.537	269.893
680.43	72.6543
683.322	8.43848
686.215	18.7461
689.108	38.04
692	141.935
694.893	286.028
697.786	619.417
700.679	1233.25
703.571	2208.18
706.464	3643.95
709.357	5451.23
712.249	6320.88
715.142	6261.85
718.035	4731.14
720.928	2648.66
723.82	1302.24
726.713	736.812
729.606	390.532
732.498	135.965
735.391	45.7607
738.284	31.6875
741.176	36.3086
744.069	51.7949
746.962	101.004
749.855	153.431
752.747	272.414
755.64	395.769
758.533	349.468
761.425	195.264
764.318	73.4863
767.211	22.1396
770.103	50.7647
772.996	3.23242
775.889	24.9375
778.782	173.261
781.674	199.165
784.567	359.703
787.46	483.812
790.352	659.455
793.245	1007.17
796.138	1513.07
799.03	1986.15
801.923	2415.61
804.816	2895.64
807.708	3158.08
810.601	3051.21
813.494	2646.94
816.387	2405.16
819.279	2343.07
822.172	2549.76
825.065	2617.81
827.957	2624.29
830.85	2402.7
833.743	1913.18
836.636	1316.34
839.528	965.027
842.421	615.014
845.314	421.138
848.206	399.71
851.099	350.477
853.992	273.772
856.885	193.583
859.777	205.034
862.67	104.394
865.563	99.2285
868.455	131.809
871.348	77.4131
874.241	36.6885
877.133	72.7207
880.026	49.042
882.919	9.33301
885.812	31.2295
888.704	35.7188
891.597	10.8838
894.49	25.666
897.382	40.8828
900.275	48.6787
903.168	93.7012
906.06	33.5166
908.953	35.8018
911.846	107.804
914.739	74.4199
917.631	112.941
920.524	25.3408
923.417	31.7969
926.309	56.7373
929.202	99.0381
932.095	19.7959
934.987	20.3965
937.88	5.97168
940.773	163.158
943.665	85.4248
946.558	143.231
949.451	68.3086
952.344	121.596
955.236	204.806
958.129	231.267
961.022	232.925
963.914	258.517
966.807	441.134
969.7	723.955
972.592	843.124
975.485	1048.19
978.378	1176.34
981.271	1072.9
984.163	814.661
987.056	633.879
989.949	496.373
992.841	390.178
995.734	315.429
998.627	157.99
1001.52	106.669
1004.41	104.439
1007.3	140.794
1010.2	98.7539
1013.09	83.126
1015.98	67.0059
1018.88	87.7393
1021.77	93.293
1024.66	28.374
1027.55	21.1191
1030.45	55.706
1033.34	58.3223
1036.23	39.6602
1039.12	43.9766
1042.02	110.978
1044.91	9.10254
1047.8	1.36816
1050.69	27.6279
1053.59	35.6543
1056.48	30.2275
1059.37	12.583
1062.27	33.21
1065.16	106.626
1068.05	97.5947
1070.94	38.0459
1073.84	25.2168
1076.73	22.6191
1079.62	49.8574
1082.52	39.083
1085.41	92.3272
1088.3	110.683
1091.19	127.069
1094.09	186.412
1096.98	128.355
1099.87	148.569
1102.76	85.0723
1105.66	115.583
1108.55	62.8262
1111.44	37
1114.34	45.2022
1117.23	42.8047
1120.12	101.153
1123.01	28.751
1125.91	21.1807
1128.8	29.9844
1131.69	77.1289
1134.58	22.0537
1137.48	85.1436
1140.37	85.4385
1143.26	86.3486
1146.15	42.7461
1149.05	64.4531
1151.94	76.4209
1154.83	24.6094
1157.72	51.7598
1160.62	57.7275
1163.51	107.04
1166.4	72.8252
1169.3	106.432
1172.19	78.6162
1175.08	99.2881
1177.97	191.996
1180.87	157.188
1183.76	283.47
1186.65	110.274
1189.55	77.5996
1192.44	237.287
1195.33	138.232
1198.22	133.52
1201.12	122.735
1204.01	95.9102
1206.9	39.1455
1209.79	119.99
1212.69	62.9883
1215.58	32.3262
1218.47	60.4688
1221.37	74.6475
1224.26	201.208
1227.15	64.5391
1230.04	183.588
1232.94	127.106
1235.83	12.7959
1238.72	92.5439
1241.61	90.9092
1244.51	130.466
1247.4	43.5654
1250.29	27.5176
1253.18	54.5215
1256.08	53.8779
1258.97	12.7676
1261.86	79.4473
1264.76	1.49805
1267.65	47.0147
1270.54	36.6221
1273.43	91.5518
1276.33	1.78516
1279.22	157.084
1282.11	200.483
1285	136.08
1287.9	150.877
1290.79	109.468
1293.68	67.9375
1296.58	125.052
1299.47	151.819
1302.36	53.7764
1305.25	34.0029
