Measurement: Raman, 514 nm, ccw, Raman Data Processed
Mineral: Magnesio-hastingsite
Rruff sample: R040010
Ideal chemistry: NaCa_2_(Mg_4_Fe^3+^)Si_6_Al_2_O_22_(OH)_2_
Locality: Amity, New York, USA
Source: University of Arizona Mineral Museum
Description: Group of black prismatic crystals
Measured chemistry: (Na_0.50_K_0.43_[box]_0.07_)_Σ=1_(Ca_1.77_Na_0.23_)_Σ=2_(Mg_1.74_Fe_1.22_Fe^3+^_0.79_Mn_0.57_Al_0.30_Zn_0.25_Ti_0.13_)_Σ=5_(Si_5.95_Al_2.05_)_Σ=8_O_22_((OH)_1.75_F_0.22_Cl_0.03_)_Σ=2_; OH estimated by charge balance
Pin_id: L00361
Orientation: Laser parallel to -b* (0 -1 0). Fiducial mark perpendicular to laser is parallel to c [0 0 1]
Raman shift (cm-1)	intensity
173.235	0
178.155	74.3867
183.071	336.894
187.985	5.3125
192.896	62.3984
197.803	287.316
202.709	2274.84
207.611	4347.11
212.51	11495.1
217.407	18593
222.301	22465.8
227.192	19846.4
232.08	13006.8
236.965	8400.07
241.848	6173.56
246.728	5156.25
251.604	5075.62
256.479	5179.8
261.35	5255.47
266.218	5200.53
271.084	6196.44
275.947	8094.37
280.807	10016.3
285.664	11866.3
290.518	12964.1
295.37	13151.6
300.219	12186.7
305.065	10588.1
309.908	9140.84
314.749	7290.31
319.586	5695.8
324.421	4099.22
329.253	3035.61
334.083	2447.57
338.909	2459.15
343.733	2479.82
348.554	2656.21
353.372	2959.04
358.187	3790.73
363	4435.82
367.81	5033.88
372.617	5125.6
377.421	5123.72
382.223	4392.02
387.022	3973.3
391.818	3067.42
396.611	2244.19
401.401	1658.36
406.189	1426.71
410.974	1461.19
415.756	2172.78
420.536	3241.45
425.312	4181.17
430.086	4460.9
434.858	2938.58
439.626	1771.16
444.392	1236.59
449.155	509.998
453.915	206.527
458.672	87.0859
463.427	140.291
468.179	344.82
472.928	376.772
477.675	396.826
482.419	46.7598
487.16	644.066
491.898	1394.78
496.634	2414.81
501.367	3571.08
506.097	4621.54
510.825	6015.12
515.549	7975.78
520.271	11146.5
524.991	15482.2
529.707	19016.8
534.421	20068.4
539.132	18065.9
543.841	14859.4
548.547	11941.8
553.25	9221.18
557.95	7429.15
562.648	5836.77
567.343	4620.34
572.035	3733.36
576.724	2825.4
581.411	1792.17
586.095	1091.69
590.777	229.916
595.456	352.352
600.132	474.963
604.805	337.647
609.476	555.146
614.144	1873.42
618.809	3869.14
623.472	6874.18
628.132	10444.9
632.789	13919.7
637.444	16872.7
642.096	19391
646.745	21247.4
651.392	23763
656.036	25826.9
660.677	25845
665.316	22699.4
669.952	19004.1
674.585	18162.2
679.216	18422.6
683.844	16346
688.469	12053.4
693.092	7220.6
697.712	4688.17
702.329	4080.11
706.944	4293.11
711.556	5154.69
716.166	6267.59
720.773	7091.74
725.377	7730.18
729.978	8206.22
734.577	7933.15
739.173	7299.16
743.767	6133.15
748.358	4916.08
752.946	3150.5
757.532	2185.27
762.115	1614.79
766.695	1442.56
771.273	1660.46
775.848	1760.56
780.421	1818.87
784.991	1619.43
789.558	1427.28
794.123	1095.46
798.685	1231.01
803.245	648.941
807.802	611.291
812.356	451.09
816.907	45.6367
821.456	14
826.003	303.391
830.547	526.848
835.088	353.506
839.627	333.769
844.163	195.543
848.696	108.248
853.227	369.59
857.755	735.668
862.281	1063.51
866.804	1501.22
871.324	2203.79
875.842	2611.22
880.357	2913.3
884.87	2949.28
889.38	3064.98
893.888	3559.28
898.393	4098.97
902.895	5163.41
907.395	6656.46
911.892	7854.81
916.387	8540.37
920.879	8113.35
925.368	6748.44
929.855	5949.57
934.339	5695.72
938.821	5251.78
943.301	5084.73
947.777	5268.57
952.251	5140.67
956.723	5134.84
961.192	4738.88
965.658	4799.65
970.122	4842.22
974.583	5141.93
979.042	5231.73
983.498	6390.75
987.952	7009.49
992.403	8330.22
996.852	10307.9
1001.3	12231.5
1005.74	14261
1010.18	15953.5
1014.62	16237.3
1019.06	15894.4
1023.49	14909
1027.92	13103.8
1032.35	11803.7
1036.78	10087.2
1041.2	9561.14
1045.62	8106.58
1050.04	7593.07
1054.45	6992.75
1058.87	6278.95
1063.28	5910.25
1067.68	5525.8
1072.09	4917.78
1076.49	4625.33
1080.89	4359.02
1085.29	3892.18
1089.69	3521.65
1094.08	3370.24
1098.47	2744.52
1102.86	2279.78
1107.24	1971.98
1111.63	1646.14
1116.01	1192.9
1120.38	1088.95
1124.76	845.301
1129.13	615.936
1133.5	44.0352
1137.87	179.264
1142.24	106.119
1146.6	168.32
1150.96	80.5019
1155.32	142.291
1159.67	19.0996
1164.03	260.426
1168.38	253.389
1172.72	69.9238
1177.07	171.498
1181.41	39.1445
1185.75	129.856
1190.09	18.2559
1194.43	52.8398
1198.76	165.828
1203.09	186.764
1207.42	205.773
1211.75	253.32
1216.07	378.523
1220.39	342.127
1224.71	351.764
1229.02	567.144
1233.34	670.268
1237.65	586.231
1241.96	598.193
1246.26	417.996
1250.57	412.998
1254.87	589.717
1259.17	633.307
1263.46	634.027
1267.76	458.053
1272.05	639.301
1276.34	626.088
1280.62	586.092
1284.91	541.381
1289.19	788.883
1293.47	512.062
1297.74	556.838
1302.02	499.522
1306.29	458.445
1310.56	384.822
1314.83	509.894
1319.09	443.51
1323.35	399.09
1327.61	628.508
1331.87	405.26
1336.12	165.988
1340.38	486.775
1344.63	204.82
1348.87	301.885
1353.12	444.506
1357.36	387.406
1361.6	162.449
1365.84	62.166
1370.08	129.185
1374.31	191.648
1378.54	105.672
1382.77	13.2168
1386.99	211.568
1391.22	169.254
1395.44	139.275
1399.66	166.643
1403.87	47.2461
1408.09	205.783
1412.3	6.45703
1416.51	126.863
1420.71	7.33984
1424.92	41.6484
1429.12	122.363
1433.32	178.394
1437.51	362.144
1441.71	273.055
1445.9	174.842
1450.09	7.58594
1454.28	184.356
1458.46	172.572
1462.65	277.709
1466.83	113.807
1471	221.43
1475.18	233.389
1479.35	205.518
1483.52	310.455
1487.69	229.848
1491.86	86.6269
1496.02	263.143
1500.18	219.566
1504.34	274.074
1508.5	110.01
1512.65	352.582
1516.8	179.309
1520.95	401.039
1525.1	71.8398
1529.24	177.316
1533.39	91.1719
1537.53	206.859
1541.66	341.361
1545.8	140.045
1549.93	187.5
1554.06	158.498
1558.19	322.303
1562.32	7
1566.44	1.79297
1570.56	0
