Measurement: Raman, 532 nm, ccw, Raman Data Processed
Mineral: Magnesiotaaffeite-6N3S
Rruff sample: X070005
Ideal chemistry: Mg_2_BeAl_6_O_12_
Locality: Tunduru, Tanzania
Source: www.multicolour.com
Description: Pale lavendar cut gemstone, 0.65 cts, formerly known as musgravite-18R
Raman shift (cm-1)	intensity
156.851	0
159.743	138.607
162.636	49.8096
165.529	133.616
168.422	98.3906
171.314	105.416
174.207	148.68
177.1	242.755
179.992	86.2744
182.885	252.832
185.778	128.959
188.671	58.709
191.563	68.0205
194.456	9.46094
197.349	83.5527
200.241	179.779
203.134	115.232
206.027	187.963
208.919	88.6211
211.812	56.4756
214.705	26.998
217.597	43.9131
220.49	2.29492
223.383	71.8936
226.276	198.042
229.168	305.948
232.061	516.256
234.954	689.952
237.846	1239.58
240.739	2202.03
243.632	1674.92
246.524	475.467
249.417	319.04
252.31	180.352
255.203	194.886
258.095	194.961
260.988	417.888
263.881	669.366
266.773	798.038
269.666	515.85
272.559	427.04
275.452	257.961
278.344	179.825
281.237	177.777
284.13	118.512
287.022	145.534
289.915	132.181
292.808	90.0586
295.7	198.246
298.593	333.016
301.486	582.693
304.378	851.761
307.271	555.566
310.164	573.666
313.057	763.032
315.949	801.76
318.842	672.821
321.735	682.442
324.627	1129.68
327.52	1674.17
330.413	1685.93
333.305	1548.28
336.198	2285.35
339.091	2241.55
341.984	764.857
344.876	229.143
347.769	139.062
350.662	17.792
353.554	6.74023
356.447	39.1992
359.34	10.1982
362.233	78.4072
365.125	98.8662
368.018	164.443
370.911	158.81
373.803	241.257
376.696	553.557
379.589	585.593
382.481	310.181
385.374	235.668
388.267	347.758
391.159	377.183
394.052	966.753
396.945	1815.54
399.838	3885.82
402.73	7329.98
405.623	10745.9
408.516	12927
411.408	21710.4
414.301	30879.8
417.194	16312.7
420.087	4275.13
422.979	1413.96
425.872	544.523
428.765	120.635
431.657	45.7637
434.55	3.58691
437.443	156.644
440.335	599.113
443.228	1130.88
446.121	2406.31
449.014	2512.09
451.906	1002.55
454.799	850.944
457.692	1398.14
460.584	800.176
463.477	141.338
466.37	116.857
469.262	324.709
472.155	869.266
475.048	1694.77
477.941	3134.39
480.833	6114.4
483.726	10466.6
486.619	11139.6
489.511	9835.77
492.404	15127.2
495.297	21226.6
498.19	11658.1
501.082	2861.59
503.975	1033.85
506.868	418.017
509.76	201.073
512.653	35.5557
515.546	116.925
518.438	178.452
521.331	320.565
524.224	692.521
527.116	1309.73
530.009	1454.73
532.902	611.873
535.795	155.074
538.687	159.45
541.58	326.731
544.473	94
547.365	11.5166
550.258	47.5654
553.151	55.0098
556.043	34.4697
558.936	61.6738
561.829	118.614
564.722	220.216
567.614	602.924
570.507	1221.69
573.4	2000.12
576.292	3013.47
579.185	3583.14
582.078	2661.16
584.971	1251.53
587.863	600.213
590.756	209.273
593.649	39.7891
596.541	18.875
599.434	119.58
602.327	151.81
605.219	145.432
608.112	28.8975
611.005	37.9482
613.898	175.248
616.79	326.809
619.683	666.822
622.576	778.214
625.468	654.671
628.361	262.31
631.254	53.2734
634.146	49.2998
637.039	14.9424
639.932	109.261
642.824	299.609
645.717	654.085
648.61	1028.53
651.503	1671.75
654.395	2560.01
657.288	2759.25
660.181	2538.44
663.073	2544.29
665.966	2490.85
668.859	1755.94
671.752	1184.11
674.644	626.962
677.537	278.595
680.43	99.4658
683.322	46.3603
686.215	144.851
689.108	213.32
692	505.958
694.893	1071.41
697.786	2010.91
700.679	3457.17
703.571	5674.15
706.464	8854.15
709.357	11898.9
712.249	12131.9
715.142	9039.27
718.035	5708.22
720.928	3141.27
723.82	1789.83
726.713	1049.73
729.606	603.117
732.498	372.633
735.391	140.358
738.284	50.9629
741.176	17.7705
744.069	34.1836
746.962	93.8369
749.855	172.617
752.747	369.708
755.64	294.94
758.533	347.049
761.425	221.189
764.318	109.186
767.211	54.6065
770.103	50.1621
772.996	44.3965
775.889	10.2754
778.782	58.6504
781.674	104.897
784.567	194.682
787.46	219.88
790.352	324.538
793.245	481.81
796.138	843.678
799.03	1090.86
801.923	1248.61
804.816	1508.58
807.708	1732.17
810.601	1714.33
813.494	1614.05
816.387	1540.2
819.279	1710.12
822.172	1902.85
825.065	2143.05
827.957	2366.57
830.85	2173.48
833.743	1768.67
836.636	1219.71
839.528	976.767
842.421	698.616
845.314	537.567
848.206	472.515
851.099	304.857
853.992	341.681
856.885	260.971
859.777	244.453
862.67	90.668
865.563	127.331
868.455	120.678
871.348	190.983
874.241	114.453
877.133	101.772
880.026	1.63769
882.919	2.5293
885.812	47.7969
888.704	9.87598
891.597	23.6162
894.49	8.19727
897.382	77.4199
900.275	66.8262
903.168	65.9561
906.06	87.1719
908.953	43.3076
911.846	71.4326
914.739	17.1289
917.631	98.376
920.524	69.8721
923.417	40.54
926.309	11.9258
929.202	77.9336
932.095	38.8281
934.987	46.3789
937.88	79.6426
940.773	131.567
943.665	114.522
946.558	150.815
949.451	214.536
952.344	137.072
955.236	303.073
958.129	385.11
961.022	440.538
963.914	549.956
966.807	855.703
969.7	1144.76
972.592	1534.8
975.485	1806.61
978.378	1937.51
981.271	1841.77
984.163	1377.8
987.056	1066.36
989.949	850.251
992.841	625.119
995.734	514.148
998.627	324.124
1001.52	244.083
1004.41	208.085
1007.3	242.897
1010.2	115.297
1013.09	187.783
1015.98	12.5391
1018.88	129.537
1021.77	49.1465
1024.66	97.6719
1027.55	42.1904
1030.45	32.2344
1033.34	41.1172
1036.23	84.6025
1039.12	101.61
1042.02	118.758
1044.91	16.875
1047.8	77.3477
1050.69	4.99902
1053.59	57.8838
1056.48	23.0039
1059.37	18.8994
1062.27	40.0488
1065.16	74.5029
1068.05	124.841
1070.94	74.3203
1073.84	59.3975
1076.73	167.193
1079.62	74.7588
1082.52	108.387
1085.41	54.9072
1088.3	137.109
1091.19	111.061
1094.09	151.596
1096.98	159.733
1099.87	164.916
1102.76	136.422
1105.66	92.4443
1108.55	125.906
1111.44	14.209
1114.34	98.9883
1117.23	32.0693
1120.12	57.2725
1123.01	0.884766
1125.91	76.3027
1128.8	37.4043
1131.69	33.3057
1134.58	89.1875
1137.48	70.3545
1140.37	168.251
1143.26	91.6943
1146.15	118.546
1149.05	79.6992
1151.94	97.9688
1154.83	32.1836
1157.72	3.98633
1160.62	11.415
1163.51	86.0918
1166.4	102.764
1169.3	0.106445
1172.19	72.4522
1175.08	27.207
1177.97	89.959
1180.87	148.331
1183.76	35.3897
1186.65	120.134
1189.55	136.852
1192.44	270.364
1195.33	139.498
1198.22	78.4316
1201.12	43.3516
1204.01	196.594
1206.9	79.0615
1209.79	60.6103
1212.69	86.7803
1215.58	67.4932
1218.47	15.123
1221.37	35.9619
1224.26	158.472
1227.15	41.1035
1230.04	125.456
1232.94	135.615
1235.83	164.494
1238.72	108.42
1241.61	122.754
1244.51	104.508
1247.4	138.152
1250.29	104.609
1253.18	63.9209
1256.08	82.0195
1258.97	59.4766
1261.86	151.596
1264.76	0.777344
1267.65	57.1006
1270.54	16.4883
1273.43	58.6816
1276.33	110.562
1279.22	71.5088
1282.11	140.805
1285	163.156
1287.9	206.261
1290.79	80.9824
1293.68	108.223
1296.58	121.321
1299.47	199.303
1302.36	1.25
1305.25	112.356
