Measurement: Raman, 514 nm, ccw, Raman Data Processed
Mineral: Magnesio-hastingsite
Rruff sample: R040010
Ideal chemistry: NaCa_2_(Mg_4_Fe^3+^)Si_6_Al_2_O_22_(OH)_2_
Locality: Amity, New York, USA
Source: University of Arizona Mineral Museum
Description: Group of black prismatic crystals
Measured chemistry: (Na_0.50_K_0.43_[box]_0.07_)_Σ=1_(Ca_1.77_Na_0.23_)_Σ=2_(Mg_1.74_Fe_1.22_Fe^3+^_0.79_Mn_0.57_Al_0.30_Zn_0.25_Ti_0.13_)_Σ=5_(Si_5.95_Al_2.05_)_Σ=8_O_22_((OH)_1.75_F_0.22_Cl_0.03_)_Σ=2_; OH estimated by charge balance
Pin_id: L00361
Orientation: Laser parallel to -b* (0 -1 0). Fiducial mark perpendicular to laser is parallel to c [0 0 1]
Raman shift (cm-1)	intensity
173.235	0
178.155	204.977
183.071	561.363
187.985	160.168
192.896	126.84
197.803	927.012
202.709	3705.65
207.611	7225.07
212.51	16193.7
217.407	25296.5
222.301	29501.6
227.192	25151.2
232.08	16190.8
236.965	10167
241.848	7672.01
246.728	6671.53
251.604	5660.17
256.479	5815.29
261.35	5725.21
266.218	6236.53
271.084	7127.81
275.947	9288.52
280.807	11637.7
285.664	14301.2
290.518	15227
295.37	15287.8
300.219	14417.1
305.065	12644.6
309.908	10560.5
314.749	8386.53
319.586	6169.63
324.421	4251.19
329.253	3068.31
334.083	2238.57
338.909	2046.61
343.733	2433.2
348.554	2608.09
353.372	3336.98
358.187	4206.18
363	5255.15
367.81	5068.93
372.617	5933.34
377.421	5539.59
382.223	4875.4
387.022	3897.58
391.818	2910.65
396.611	1875.47
401.401	1227.76
406.189	906.229
410.974	1103.77
415.756	1996.34
420.536	2990.89
425.312	3999.36
430.086	4136.71
434.858	2844.86
439.626	2159.74
444.392	1145.28
449.155	627.715
453.915	252.988
458.672	92.6289
463.427	57.5547
468.179	104.033
472.928	450.289
477.675	494.272
482.419	158.738
487.16	427.93
491.898	905.492
496.634	2206.04
501.367	3137.8
506.097	4411.74
510.825	5929.75
515.549	8242.45
520.271	11839.8
524.991	17138.7
529.707	21309.2
534.421	22597.2
539.132	20107
543.841	16299.5
548.547	12870.1
553.25	9816.78
557.95	7699.35
562.648	5867.8
567.343	4442.74
572.035	3855.67
576.724	2708.11
581.411	1974.84
586.095	1224.87
590.777	169.115
595.456	532.863
600.132	425.643
604.805	176.33
609.476	1291.63
614.144	2836.45
618.809	5237.79
623.472	8914.38
628.132	13233.3
632.789	17620.7
637.444	21248
642.096	24299.2
646.745	26979
651.392	29511.8
656.036	31783.3
660.677	31767.2
665.316	27636.8
669.952	23530.4
674.585	22477.1
679.216	22527.8
683.844	19682.8
688.469	14113.8
693.092	8557.08
697.712	5246.84
702.329	3958.15
706.944	4386.01
711.556	5116.03
716.166	6078.58
720.773	6650.24
725.377	7576.07
729.978	7964.06
734.577	7540.39
739.173	6693.14
743.767	5737.61
748.358	4468.7
752.946	2642.38
757.532	1527.84
762.115	1025.7
766.695	1007.84
771.273	1015.26
775.848	1027.68
780.421	1325.02
784.991	1194.45
789.558	956.322
794.123	614.67
798.685	616.537
803.245	549.965
807.802	375.988
812.356	345.647
816.907	126.973
821.456	120.045
826.003	297.033
830.547	362.082
835.088	463.453
839.627	329.857
844.163	281.494
848.696	294.725
853.227	341.715
857.755	675.682
862.281	965.656
866.804	1785.8
871.324	2351.1
875.842	2899.56
880.357	2848.2
884.87	3137.86
889.38	3407.38
893.888	3671.65
898.393	4487.76
902.895	6486.06
907.395	7143.23
911.892	8300.09
916.387	9235.49
920.879	8535.35
925.368	7325.74
929.855	6052.98
934.339	5797.64
938.821	5695.51
943.301	5294.45
947.777	5433.4
952.251	5286.3
956.723	5190.59
961.192	5077.36
965.658	5131.04
970.122	4989.4
974.583	5394.03
979.042	6186.31
983.498	6826.7
987.952	8206.52
992.403	9789.38
996.852	11926.2
1001.3	14540.5
1005.74	17037.9
1010.18	19330.4
1014.62	19861
1019.06	19408
1023.49	17737.1
1027.92	16208
1032.35	14227.4
1036.78	11812.4
1041.2	10674.9
1045.62	9389.61
1050.04	8858.93
1054.45	8006.31
1058.87	7116.59
1063.28	6938.79
1067.68	6227.48
1072.09	5872.08
1076.49	5265.05
1080.89	5229.88
1085.29	4540.67
1089.69	3944.41
1094.08	3783.24
1098.47	3015.54
1102.86	2546.35
1107.24	1774.95
1111.63	1495.69
1116.01	1385.83
1120.38	1091.35
1124.76	842.404
1129.13	308.305
1133.5	187.961
1137.87	117.441
1142.24	98.541
1146.6	57.8711
1150.96	64.0312
1155.32	57.3125
1159.67	42.2578
1164.03	153.949
1168.38	114.26
1172.72	51.5195
1177.07	25.3574
1181.41	83.5879
1185.75	101.76
1190.09	211.137
1194.43	127.6
1198.76	176.025
1203.09	350.644
1207.42	454.482
1211.75	338.701
1216.07	437.307
1220.39	579.621
1224.71	412.455
1229.02	762.438
1233.34	553.525
1237.65	581.504
1241.96	563.314
1246.26	765.07
1250.57	824.418
1254.87	475.611
1259.17	703.582
1263.46	662.9
1267.76	607.168
1272.05	608.856
1276.34	492.824
1280.62	530.479
1284.91	554.844
1289.19	562.619
1293.47	615.805
1297.74	481.748
1302.02	512.455
1306.29	497.938
1310.56	463.291
1314.83	569.607
1319.09	466.006
1323.35	378.262
1327.61	452.516
1331.87	338.209
1336.12	374.566
1340.38	268.91
1344.63	176.961
1348.87	247.065
1353.12	258.949
1357.36	80.8711
1361.6	294.131
1365.84	138.84
1370.08	265.164
1374.31	226.525
1378.54	58.8203
1382.77	168.58
1386.99	76.1465
1391.22	133.473
1395.44	192.168
1399.66	135.41
1403.87	49.7344
1408.09	52.3477
1412.3	36.9199
1416.51	227.516
1420.71	40.8887
1424.92	259.334
1429.12	146.346
1433.32	281.992
1437.51	157.199
1441.71	231.176
1445.9	156.568
1450.09	0.796875
1454.28	191.256
1458.46	219.947
1462.65	248.971
1466.83	391.785
1471	332.568
1475.18	64.5273
1479.35	157.269
1483.52	300.838
1487.69	347.002
1491.86	370.205
1496.02	220.301
1500.18	330.623
1504.34	156.707
1508.5	212.707
1512.65	132.592
1516.8	263.018
1520.95	110.799
1525.1	74.0918
1529.24	26.6777
1533.39	155.852
1537.53	338.463
1541.66	77.9082
1545.8	204.008
1549.93	322.299
1554.06	99.375
1558.19	337.232
1562.32	30.873
1566.44	346.195
1570.56	0
