Measurement: Raman, 532 nm, ccw, Raman Data Processed
Mineral: Magnesiotaaffeite-6N3S
Rruff sample: X070005
Ideal chemistry: Mg_2_BeAl_6_O_12_
Locality: Tunduru, Tanzania
Source: www.multicolour.com
Description: Pale lavendar cut gemstone, 0.65 cts, formerly known as musgravite-18R
Raman shift (cm-1)	intensity
162.636	0
165.529	161.607
168.422	86.4805
171.314	18.5879
174.207	84.4941
177.1	138.006
179.992	298.42
182.885	266.416
185.778	248.223
188.671	129.769
191.563	77.1602
194.456	77.0723
197.349	26.5547
200.241	157.248
203.134	142.723
206.027	228.953
208.919	129.273
211.812	0.089844
214.705	7.25781
217.597	17.9297
220.49	4.34375
223.383	31.9062
226.276	88.582
229.168	343.992
232.061	513.479
234.954	980.031
237.846	1490.33
240.739	2668.7
243.632	1671.71
246.524	563.061
249.417	557.518
252.31	340.422
255.203	278.522
258.095	354.75
260.988	672.322
263.881	1037.6
266.773	1507.28
269.666	939.818
272.559	391.4
275.452	355.736
278.344	230.865
281.237	351.529
284.13	196.865
287.022	117.4
289.915	71.6504
292.808	105.17
295.7	114.728
298.593	424.875
301.486	694.678
304.378	1101.88
307.271	1030.7
310.164	1488.64
313.057	2033.49
315.949	2487.3
318.842	1371.14
321.735	491.07
324.627	457.785
327.52	474.961
330.413	303.135
333.305	261.703
336.198	428.941
339.091	437.846
341.984	7.27734
344.876	61.7949
347.769	131.512
350.662	44.6758
353.554	17.2246
356.447	72.5625
359.34	146.594
362.233	203.344
365.125	264.758
368.018	347.789
370.911	298.824
373.803	467.193
376.696	737.32
379.589	876.826
382.481	483.865
385.374	343.078
388.267	195.602
391.159	339.945
394.052	684.92
396.945	1534.73
399.838	3232.72
402.73	6214.77
405.623	8745.71
408.516	8900.69
411.408	13487.6
414.301	18785.6
417.194	10137.1
420.087	2571.93
422.979	833.486
425.872	253.254
428.765	98.9941
431.657	29.2891
434.55	480.533
437.443	1151.54
440.335	2108.42
443.228	3877.46
446.121	6966.78
449.014	7149.31
451.906	2788.74
454.799	1883.29
457.692	1948.68
460.584	1041.22
463.477	44.4961
466.37	111.793
469.262	56.0371
472.155	87.0586
475.048	559.691
477.941	1302.4
480.833	2762.7
483.726	4961.79
486.619	5647.06
489.511	5893.44
492.404	9173.07
495.297	12366.4
498.19	6978.74
501.082	1885.06
503.975	760.986
506.868	296.141
509.76	195.498
512.653	42.2852
515.546	108.758
518.438	233.502
521.331	183.082
524.224	508.285
527.116	951.412
530.009	1277.81
532.902	508.445
535.795	192.805
538.687	295.391
541.58	306.693
544.473	6.70898
547.365	13.6055
550.258	26.3418
553.151	22.1387
556.043	41.668
558.936	105.072
561.829	69.6465
564.722	230.31
567.614	745.527
570.507	1422.67
573.4	2353.4
576.292	3603.84
579.185	4184.77
582.078	3359.83
584.971	1734.05
587.863	790.928
590.756	336.471
593.649	129.978
596.541	50.4082
599.434	271.158
602.327	542.023
605.219	691.602
608.112	647.336
611.005	444.023
613.898	615.807
616.79	1344.15
619.683	2286.98
622.576	3051.14
625.468	2570.84
628.361	1149.07
631.254	583.018
634.146	246.418
637.039	216.158
639.932	161.787
642.824	183.184
645.717	244.473
648.61	305.971
651.503	755.828
654.395	1380
657.288	2266.48
660.181	3243.03
663.073	4316.66
665.966	4494.38
668.859	3332.94
671.752	2213.33
674.644	1257.92
677.537	655.268
680.43	143.449
683.322	76.2285
686.215	48.748
689.108	43.7812
692	98.4531
694.893	225.615
697.786	532.172
700.679	1236.88
703.571	2062.01
706.464	3506.99
709.357	5551.68
712.249	7947.05
715.142	9873.44
718.035	8627.31
720.928	5184.8
723.82	2652.76
726.713	1340.45
729.606	658.531
732.498	450.992
735.391	223.059
738.284	66.1152
741.176	124.93
744.069	8.82617
746.962	303.941
749.855	261.484
752.747	453.74
755.64	454.857
758.533	411.897
761.425	186.221
764.318	122.857
767.211	23.9395
770.103	73.3086
772.996	19.166
775.889	10.2012
778.782	163.867
781.674	330.559
784.567	529.363
787.46	742.111
790.352	1001.41
793.245	1307.54
796.138	1954.24
799.03	2592.28
801.923	3164.07
804.816	3704.3
807.708	4098.27
810.601	3900.32
813.494	3499.77
816.387	3128.92
819.279	2825.72
822.172	3110.99
825.065	3079.23
827.957	3038.07
830.85	2702.81
833.743	2127.42
836.636	1515.56
839.528	1001.18
842.421	648.053
845.314	504.471
848.206	596.551
851.099	396.769
853.992	425.324
856.885	281.709
859.777	242.383
862.67	192.193
865.563	91.0918
868.455	82.707
871.348	123.219
874.241	164.975
877.133	115.287
880.026	8.5957
882.919	0.59375
885.812	10.9551
888.704	2.39648
891.597	11.4453
894.49	81.9922
897.382	5.50977
900.275	77.8789
903.168	97.6309
906.06	60.4434
908.953	10.0254
911.846	111.863
914.739	115.572
917.631	119.072
920.524	157.152
923.417	42.0156
926.309	121.818
929.202	159.824
932.095	112.394
934.987	51.627
937.88	99.8125
940.773	236.051
943.665	154.07
946.558	110.535
949.451	263.885
952.344	201.539
955.236	281.732
958.129	369.346
961.022	322.898
963.914	285.328
966.807	530.746
969.7	771.959
972.592	948.131
975.485	1142.94
978.378	1337.32
981.271	1196.97
984.163	977.607
987.056	677.051
989.949	468.635
992.841	439.312
995.734	351.625
998.627	176.254
1001.52	181.709
1004.41	230.299
1007.3	267.723
1010.2	305.166
1013.09	110.463
1015.98	172.264
1018.88	80.5547
1021.77	54.2598
1024.66	57.9629
1027.55	123.41
1030.45	131.43
1033.34	208.912
1036.23	182.41
1039.12	193.213
1042.02	130.449
1044.91	32.543
1047.8	111.055
1050.69	47.8672
1053.59	43.1406
1056.48	112.531
1059.37	20.2852
1062.27	38.8086
1065.16	119.516
1068.05	173.955
1070.94	167.078
1073.84	179.996
1076.73	179.576
1079.62	102.006
1082.52	133.111
1085.41	100.693
1088.3	197.394
1091.19	203.953
1094.09	369.32
1096.98	181.291
1099.87	276.488
1102.76	54.1582
1105.66	23.2852
1108.55	68.7129
1111.44	33.5625
1114.34	106.992
1117.23	29.6543
1120.12	206.947
1123.01	93.0332
1125.91	155.834
1128.8	28.2891
1131.69	105.742
1134.58	134.103
1137.48	208.926
1140.37	3.83984
1143.26	164.584
1146.15	22.4102
1149.05	150.051
1151.94	166.928
1154.83	48.0176
1157.72	83.4922
1160.62	130.772
1163.51	135.49
1166.4	141.133
1169.3	13.2871
1172.19	114.356
1175.08	84.7246
1177.97	264.127
1180.87	281.217
1183.76	273.818
1186.65	66.0449
1189.55	100.584
1192.44	227.4
1195.33	280.691
1198.22	261.484
1201.12	266.56
1204.01	253.94
1206.9	239.102
1209.79	183.756
1212.69	232.547
1215.58	144.955
1218.47	39.3867
1221.37	195.44
1224.26	125.842
1227.15	205.522
1230.04	355.787
1232.94	150.67
1235.83	166.621
1238.72	148.859
1241.61	166.707
1244.51	112.928
1247.4	151.193
1250.29	128.178
1253.18	234.867
1256.08	152.231
1258.97	99.0723
1261.86	153.914
1264.76	29.1895
1267.65	105.893
1270.54	170.984
1273.43	70.4746
1276.33	48.9141
1279.22	39.7773
1282.11	195.176
1285	207.691
1287.9	167.119
1290.79	124.961
1293.68	0.730469
1296.58	117.074
1299.47	189.379
1302.36	131.684
1305.25	64.3945
