Measurement: Raman, 514 nm, ccw, Raman Data Processed
Mineral: Magnesite
Rruff sample: R040114
Ideal chemistry: MgCO_3_
Locality: Snarum, Norway
Source: University of Arizona Mineral Museum
Description: Tan colored cleavage fragment
Measured chemistry: (Mg_0.98_Fe_0.01_)C_1.00_O_3_
Pin_id: L00410
Orientation: Laser parallel to -c* (0 0 -1). Fiducial mark perpendicular to laser is parallel to -a [-1 0 0]
Raman shift (cm-1)	intensity
97.554	0
101.732	42.409
105.908	180.688
110.082	117.534
114.254	353.46
118.424	312.065
122.592	185.732
126.758	72.615
130.922	136.1
135.083	119.752
139.243	76.398
143.401	48.581
147.557	54.234
151.711	40.691
155.863	17.665
160.013	25.426
164.161	64.895
168.308	222.883
172.452	458.314
176.594	652.016
180.734	349.541
184.872	148.928
189.008	98.089
193.143	118.52
197.275	152.523
201.405	306.613
205.534	908.701
209.66	2317.74
213.784	3669.7
217.907	987.534
222.027	248.209
226.146	39.692
230.263	7.973
234.377	41.457
238.49	13.995
242.601	1.329
246.709	6.935
250.816	30.278
254.921	51.464
259.024	23.132
263.125	40.331
267.224	28.531
271.321	30.696
275.416	63.136
279.51	64.115
283.601	72.735
287.69	105.206
291.778	225.131
295.863	421.695
299.947	626.107
304.029	479.304
308.108	264.368
312.186	219.721
316.262	314.374
320.336	795.533
324.408	2775.86
328.478	7014.69
332.546	5979.59
336.612	1857.42
340.677	650.658
344.739	332.624
348.799	177.261
352.858	206.424
356.915	145.569
360.969	131.408
365.022	133.688
369.073	81.571
373.122	84.333
377.169	66.976
381.215	58.56
385.258	77.259
389.299	111.167
393.339	74.408
397.376	54.298
401.412	32.074
405.446	3.092
409.478	51.102
413.508	44.735
417.536	12.506
421.562	4.868
425.586	6.09
429.609	26.363
433.629	8.245
437.648	11.143
441.665	33.831
445.68	40.971
449.693	53.229
453.704	18.125
457.713	37.74
461.721	91.009
465.726	88.851
469.73	74.487
473.731	42.468
477.731	73.242
481.729	60.698
485.725	18.843
489.72	123.737
493.712	110.905
497.703	22.558
501.691	60.098
505.678	121.609
509.663	63.013
513.646	121.339
517.627	75.622
521.607	91.831
525.584	76.951
529.56	73.994
533.534	84.843
537.506	77.15
541.476	40.82
545.444	46.215
549.41	52.37
553.375	44.337
557.337	59.242
561.298	62.61
565.257	56.765
569.214	57.497
573.17	36.388
577.123	27.81
581.075	48.883
585.024	14.05
588.972	58.122
592.918	35.656
596.863	78.859
600.805	1.36
604.746	35.843
608.685	76.188
612.621	20.029
616.557	10.113
620.49	33.636
624.421	25.843
628.351	3.227
632.279	33.479
636.205	7.776
640.129	42.657
644.051	44.527
647.972	1.555
651.89	94.321
655.807	114.885
659.722	70.651
663.636	110.685
667.547	136.079
671.457	119.077
675.365	124.448
679.271	117.494
683.175	134.565
687.077	139.213
690.978	164.309
694.877	177.785
698.774	184.525
702.669	199.122
706.562	259.218
710.454	309.212
714.344	515.371
718.232	691.638
722.118	1033.75
726.002	1514.82
729.885	2005.69
733.766	2810.43
737.645	3495.56
741.522	3146.12
745.397	2126.87
749.271	1181.48
753.143	784.234
757.013	478.322
760.881	300.826
764.748	160.949
768.613	109.357
772.476	156.646
776.337	72.834
780.196	66.137
784.054	66.235
787.91	79.386
791.764	25.163
795.616	4.042
799.467	13.463
803.316	64.486
807.163	65.544
811.008	70.738
814.851	65.875
818.693	48.883
822.533	9.126
826.371	19.219
830.208	2.42
834.042	4.667
837.875	6.943
841.706	18.701
845.536	4.281
849.363	13.846
853.189	17.405
857.013	17.04
860.836	54.487
864.656	6.013
868.475	95.539
872.292	0.062
876.108	21.584
879.922	78.109
883.733	125.639
887.544	20.177
891.352	29.722
895.159	50.28
898.964	72.253
902.767	56.456
906.568	21.064
910.368	32.678
914.166	17.305
917.962	30.946
921.757	7.383
925.55	131.339
929.341	21.11
933.13	79.874
936.918	84.688
940.703	100.039
944.488	34.392
948.27	22.438
952.051	54.856
955.83	95.815
959.607	38.154
963.383	55.183
967.156	27.103
970.928	53.38
974.699	107.501
978.468	134.833
982.234	146.684
986	69.725
989.763	62.766
993.525	152.88
997.285	143.982
1001.04	141.784
1004.8	171.722
1008.55	171.638
1012.31	127.827
1016.06	144.638
1019.81	267.711
1023.56	211.775
1027.31	201.987
1031.05	252.264
1034.79	332.595
1038.53	361.015
1042.27	464.151
1046.01	571
1049.75	623.616
1053.48	743.26
1057.22	939.989
1060.95	1162.24
1064.68	1460.09
1068.4	1941.42
1072.13	2827.29
1075.86	4038.6
1079.58	5997.6
1083.3	10166.1
1087.02	18550.3
1090.74	34432.5
1094.45	50284.6
1098.17	44161.2
1101.88	27072.7
1105.59	15864
1109.3	9897.87
1113.01	5806.65
1116.71	3396.22
1120.42	2214.81
1124.12	1724.45
1127.82	939.939
1131.52	740.554
1135.22	553.39
1138.91	435.934
1142.61	287.559
1146.3	280.91
1149.99	264.796
1153.68	197.301
1157.37	276.814
1161.06	138.646
1164.74	91.534
1168.42	126.021
1172.1	112.607
1175.78	102.28
1179.46	55.941
1183.14	128.9
1186.81	88.811
1190.48	10.294
1194.15	47.274
1197.83	53.944
1201.49	64.23
1205.16	68.771
1208.82	66.604
1212.49	27.662
1216.15	87.046
1219.81	9.93
1223.46	62.054
1227.12	11.679
1230.78	40.036
1234.43	55.294
1238.08	78.494
1241.73	18.662
1245.38	67.769
1249.03	20.767
1252.67	37.543
1256.31	22.787
1259.95	57.295
1263.6	66.384
1267.23	59.662
1270.87	36.797
1274.51	3.73
1278.14	19.502
1281.77	107.062
1285.4	28.434
1289.03	7.521
1292.66	69.543
1296.28	31.428
1299.91	107.062
1303.53	54.488
1307.15	45.777
1310.77	57.938
1314.38	53.951
1318	56.797
1321.61	10.499
1325.23	67.038
1328.84	58.415
1332.45	24.62
1336.06	16.656
1339.66	76.202
1343.27	88.907
1346.87	109.504
1350.47	118.934
1354.07	81.133
1357.67	71.242
1361.26	17.773
1364.86	42.679
1368.45	89.981
1372.04	86.647
1375.63	123.177
1379.22	102.673
1382.81	82.369
1386.39	80.212
1389.98	102.667
1393.56	102.464
1397.14	120.379
1400.72	115.243
1404.3	19.454
1407.87	108.615
1411.45	135.72
1415.02	130.23
1418.59	160.939
1422.16	144.744
1425.73	184.824
1429.29	93.703
1432.86	118.045
1436.42	227.911
1439.98	343.648
1443.54	783.163
1447.1	1388.14
1450.66	1568.03
1454.21	543.457
1457.77	324.355
1461.32	216.363
1464.87	187.374
1468.42	189.57
1471.96	154.899
1475.51	195.524
1479.06	177.448
1482.6	268.241
1486.14	92.778
1489.68	139.272
1493.22	137.852
1496.75	117.732
1500.29	84.166
1503.82	125.5
1507.35	2.436
1510.88	66.802
1514.41	20.95
1517.94	40.819
1521.46	0
