Measurement: Raman, 514 nm, ccw, Raman Data Processed
Mineral: Magnesite
Rruff sample: R040114
Ideal chemistry: MgCO_3_
Locality: Snarum, Norway
Source: University of Arizona Mineral Museum
Description: Tan colored cleavage fragment
Measured chemistry: (Mg_0.98_Fe_0.01_)C_1.00_O_3_
Pin_id: L00266
Orientation: Laser parallel to -a* (-1 0 0). Fiducial mark perpendicular to laser is parallel to c [0 0 1]
Raman shift (cm-1)	intensity
91.981	0
96.161	5.562
100.34	15.955
104.516	40.051
108.691	46.958
112.864	72.207
117.034	161.32
121.203	43.577
125.369	62.655
129.534	55.938
133.696	18.213
137.857	42.955
142.016	10.199
146.172	32.557
150.327	5.351
154.48	10.722
158.63	22.272
162.779	27.242
166.926	34.136
171.07	25.996
175.213	11.652
179.354	35.945
183.493	31.351
187.63	42.199
191.765	66.482
195.898	72.2
200.029	151.457
204.158	456.303
208.285	1253.03
212.41	2688.63
216.533	1658.16
220.654	357.635
224.773	116.045
228.891	24.412
233.006	58.773
237.119	15.342
241.231	9.555
245.34	4.052
249.448	13.307
253.553	35.352
257.657	28.336
261.758	20.845
265.858	4.785
269.956	15.208
274.052	16.676
278.146	20.805
282.237	15.981
286.327	13.423
290.416	68.625
294.502	22.68
298.586	51.469
302.668	36.107
306.749	33.605
310.827	64.206
314.903	123.745
318.978	249.763
323.051	975.356
327.121	2060.31
331.19	2738.14
335.257	1241.61
339.322	383.247
343.385	158.037
347.446	127.158
351.505	95.709
355.563	61.765
359.618	51.314
363.672	68.856
367.723	61.378
371.773	61.859
375.821	20.311
379.866	49.734
383.91	41.21
387.952	42.6
391.992	20.731
396.031	55.005
400.067	41.732
404.101	44.64
408.134	58.031
412.165	49.097
416.193	5.78
420.22	22.575
424.245	7.09
428.268	1.312
432.289	20.826
436.309	3.275
440.326	2.314
444.342	9.037
448.355	23.694
452.367	11.239
456.377	12.641
460.385	30.242
464.391	35.675
468.395	24.709
472.398	20.301
476.398	3.757
480.397	23.49
484.394	35.061
488.389	33.649
492.382	6.266
496.373	70.817
500.362	8.353
504.349	28.868
508.335	35.452
512.319	51.958
516.3	32.437
520.28	34.893
524.259	33.329
528.235	29.732
532.209	54.103
536.182	20.317
540.152	0.67
544.121	22.106
548.088	34.532
552.053	1.872
556.017	26.157
559.978	12.495
563.938	7.782
567.895	11.195
571.851	39.684
575.805	16.041
579.758	17.313
583.708	10.136
587.657	9.306
591.603	4.467
595.548	52.73
599.491	5.025
603.432	37.271
607.372	21.7
611.309	54.016
615.245	7.288
619.179	14.435
623.111	32.926
627.041	42.191
630.97	31.35
634.896	21.971
638.821	54.969
642.744	29.88
646.665	32.056
650.584	30.307
654.502	78.727
658.418	79.873
662.331	35.607
666.244	100.772
670.154	79.863
674.062	99.452
677.969	90.479
681.874	130.546
685.777	121.515
689.678	119.398
693.577	130.794
697.475	165.182
701.371	172.13
705.265	230.723
709.157	248.016
713.047	330.082
716.936	431.366
720.823	611.928
724.708	882.672
728.591	1369.31
732.472	2031.5
736.352	2828.6
740.23	2924.44
744.106	2252.5
747.98	1287.77
751.853	742.276
755.723	467.457
759.592	307.909
763.459	204.319
767.325	110.769
771.188	117.05
775.05	75.459
778.91	58.742
782.768	38.502
786.625	4.275
790.479	25.901
794.332	26.04
798.183	13.139
802.033	7.188
805.88	31.157
809.726	12.143
813.57	22.097
817.413	4.017
821.253	18.813
825.092	19.64
828.929	22.45
832.764	21.236
836.598	31.999
840.429	14.74
844.259	2.452
848.088	7.064
851.914	3.57
855.739	0.977
859.562	21.555
863.383	9.803
867.203	9.11
871.02	6.342
874.836	12.004
878.65	4.62
882.463	11.68
886.274	9.72
890.083	19.742
893.89	15.74
897.695	26.733
901.499	19.724
905.301	37.713
909.102	0.299
912.9	3.689
916.697	24.676
920.492	31.663
924.285	46.65
928.077	7.643
931.867	32.647
935.655	46.077
939.442	66.845
943.226	20.86
947.009	80.151
950.791	42.499
954.57	42.438
958.348	87.528
962.124	56.299
965.899	88.403
969.671	48.773
973.442	78.085
977.211	76.311
980.979	76.597
984.745	82.929
988.509	122.229
992.271	104.597
996.032	126.964
999.791	148.062
1003.55	154.982
1007.3	87.263
1011.06	127.825
1014.81	159.422
1018.56	162.798
1022.31	181.884
1026.06	246.933
1029.8	230.36
1033.55	329.247
1037.29	308.553
1041.03	404.929
1044.77	503.501
1048.5	673.55
1052.24	782.649
1055.97	922.799
1059.7	1165.98
1063.43	1448.21
1067.16	1984.48
1070.89	2756.71
1074.61	3987.05
1078.34	5919.43
1082.06	9412.86
1085.78	16969.3
1089.5	32268.8
1093.21	52983.4
1096.93	53817.7
1100.64	35415.3
1104.35	21987.1
1108.06	13610.8
1111.77	8215.63
1115.48	4802.06
1119.18	2887.93
1122.89	2008.94
1126.59	1316.65
1130.29	949.511
1133.99	705.589
1137.68	592.694
1141.38	427.681
1145.07	406.946
1148.76	313.954
1152.45	284.7
1156.14	246.293
1159.83	219.345
1163.51	180.813
1167.19	152.584
1170.88	124.452
1174.56	145.449
1178.23	76.333
1181.91	121.137
1185.59	108.542
1189.26	67.889
1192.93	66.385
1196.6	37.44
1200.27	57.539
1203.94	83.105
1207.6	15.654
1211.27	33.299
1214.93	62.822
1218.59	19.292
1222.25	25.546
1225.9	22.995
1229.56	39.746
1233.21	40.945
1236.86	22.14
1240.51	29.997
1244.16	10.22
1247.81	3.531
1251.45	28.06
1255.1	47.772
1258.74	40.221
1262.38	40.253
1266.02	47.187
1269.66	1.007
1273.29	25.208
1276.93	29.611
1280.56	13.867
1284.19	27.936
1287.82	20.358
1291.45	16.367
1295.07	2.184
1298.7	1.931
1302.32	9.978
1305.94	21.943
1309.56	8.836
1313.18	16.358
1316.8	15.658
1320.41	22.93
1324.02	8.434
1327.63	26.939
1331.24	49.215
1334.85	36.482
1338.46	17.316
1342.06	27.799
1345.67	46.836
1349.27	14.802
1352.87	57.703
1356.47	21.545
1360.07	22.33
1363.66	46.063
1367.25	39.79
1370.85	11.428
1374.44	76.176
1378.03	46.776
1381.61	3.802
1385.2	36.393
1388.78	43.573
1392.37	26.67
1395.95	29.295
1399.53	33.992
1403.1	37.605
1406.68	34.812
1410.26	47.942
1413.83	23.031
1417.4	48.08
1420.97	43.442
1424.54	4.946
1428.1	60.315
1431.67	58.709
1435.23	96.883
1438.8	165.991
1442.36	283.334
1445.91	705.585
1449.47	721.892
1453.03	305.741
1456.58	217.005
1460.13	189.007
1463.68	121
1467.23	156.904
1470.78	102.795
1474.33	129.315
1477.87	132.399
1481.42	76.761
1484.96	84.029
1488.5	76.389
1492.04	98.864
1495.57	45.498
1499.11	79.355
1502.64	26.605
1506.17	6.194
1509.71	11.225
1513.23	21.892
1516.76	10.544
1520.29	29.761
