Measurement: Raman, 514 nm, ccw, Raman Data Processed
Mineral: Magnesio-hastingsite
Rruff sample: R040010
Ideal chemistry: NaCa_2_(Mg_4_Fe^3+^)Si_6_Al_2_O_22_(OH)_2_
Locality: Amity, New York, USA
Source: University of Arizona Mineral Museum
Description: Group of black prismatic crystals
Measured chemistry: (Na_0.50_K_0.43_[box]_0.07_)_Σ=1_(Ca_1.77_Na_0.23_)_Σ=2_(Mg_1.74_Fe_1.22_Fe^3+^_0.79_Mn_0.57_Al_0.30_Zn_0.25_Ti_0.13_)_Σ=5_(Si_5.95_Al_2.05_)_Σ=8_O_22_((OH)_1.75_F_0.22_Cl_0.03_)_Σ=2_; OH estimated by charge balance
Pin_id: L00361
Orientation: Laser parallel to -b* (0 -1 0). Fiducial mark perpendicular to laser is parallel to c [0 0 1]
Raman shift (cm-1)	intensity
164.62	0
169.544	338.676
174.465	1268.19
179.384	2578.41
184.3	3439.89
189.213	2933.3
194.123	2149.82
199.03	2085.47
203.934	2155.87
208.836	2408.18
213.735	5725.44
218.631	8160.55
223.524	9478.58
228.414	7884.75
233.302	5014.86
238.186	2642.45
243.068	1019.22
247.947	502.711
252.823	479.106
257.697	297.367
262.567	53.668
267.435	176.812
272.3	428.188
277.162	1135.92
282.021	1562.45
286.878	1834.69
291.732	2065.21
296.583	1882.44
301.431	1372.27
306.276	1108.61
311.119	717.785
315.958	989.391
320.795	748.777
325.629	1222
330.461	1361.22
335.289	1358.55
340.115	1976.26
344.938	2690.85
349.759	4281.32
354.576	5898.03
359.391	7004.47
364.203	7440.99
369.012	7136.42
373.818	6004.63
378.622	4735.54
383.423	3635.05
388.221	2599.08
393.016	2206.45
397.809	1568.3
402.598	1301.64
407.386	1245.79
412.17	1386.39
416.951	1783
421.73	2355.58
426.506	2611.1
431.279	2352.6
436.05	1844.1
440.818	1318.58
445.583	585.016
450.345	215.902
455.105	86.0273
459.861	291.703
464.615	128.414
469.367	8.1875
474.115	59.8438
478.861	192.543
483.604	1082.73
488.345	1616.05
493.082	2680.54
497.817	3795.18
502.55	5299.98
507.279	6637.98
512.006	7935.16
516.73	9596.5
521.451	11309
526.17	13234.6
530.886	14024.4
535.599	13320.2
540.31	12356.5
545.017	10783.5
549.723	9791.16
554.425	8611.12
559.125	7959.5
563.822	6928.14
568.516	5576.31
573.207	4637.99
577.896	3121.32
582.583	2071.91
587.266	1146.71
591.947	452.488
596.625	226.992
601.3	215.953
605.973	250.57
610.643	157.551
615.311	119.379
619.975	457.434
624.637	1166.09
629.297	2316.34
633.953	3417.35
638.607	5025.18
643.259	6117.87
647.907	7252.45
652.553	8569
657.197	9759.55
661.837	10243.2
666.475	9352.86
671.111	9175.73
675.743	9597.82
680.373	10459.2
685.001	9327.82
689.625	7787.84
694.247	6289.07
698.867	6399.25
703.483	7473.3
708.097	9407.83
712.709	11403.7
717.318	12976.6
721.924	14966.8
726.527	15902.1
731.128	15938.4
735.726	16008.6
740.322	14798.7
744.915	12628.5
749.505	9845.44
754.093	7639.77
758.678	5771.98
763.26	4909.27
767.84	4655.53
772.417	4369.49
776.992	3908.2
781.564	4013.72
786.133	3744.1
790.7	3345.41
795.264	2839.04
799.825	2900.02
804.384	2688.42
808.94	2218.95
813.494	1866.66
818.045	1749.58
822.593	1017.76
827.139	119.227
831.682	206.144
836.223	357.016
840.761	627.898
845.296	358.293
849.829	162.578
854.359	194.332
858.887	660.57
863.412	879.383
867.934	1254.86
872.454	1586.63
876.971	1773.19
881.486	2012.94
885.998	2129.43
890.507	2245.32
895.014	2574.91
899.518	2689.28
904.02	2680.85
908.519	2547.03
913.016	2764.4
917.51	2845.3
922.001	2943.11
926.49	2701.47
930.976	3028.6
935.46	3053.39
939.941	2818.65
944.42	3107.58
948.896	3051.1
953.369	3132.16
957.84	3145.74
962.309	3092.79
966.774	3453.58
971.238	3422.84
975.698	3461.93
980.156	3943.75
984.612	4036.8
989.065	4579.51
993.516	5266.03
997.964	5748.04
1002.41	6008.66
1006.85	6458.42
1011.29	6381.26
1015.73	6345.26
1020.16	6086.19
1024.6	5873.1
1029.03	5542.34
1033.46	5179.33
1037.88	5118.69
1042.3	4987.3
1046.72	4630.63
1051.14	4526.02
1055.56	4370.66
1059.97	4121.57
1064.38	4014.83
1068.79	3760.85
1073.19	3342.02
1077.59	3094.27
1081.99	3096.12
1086.39	2655.81
1090.79	2547.19
1095.18	2175.53
1099.57	1661.45
1103.95	1221.72
1108.34	1213.13
1112.72	779.746
1117.1	733.418
1121.48	679.242
1125.85	295.875
1130.23	355.352
1134.6	20.6758
1138.96	2.94141
1143.33	91.707
1147.69	18.7539
1152.05	28.3125
1156.41	116.316
1160.76	57.5
1165.11	60.7266
1169.46	66.207
1173.81	103.129
1178.16	135.203
1182.5	115.367
1186.84	86.5
1191.18	100.402
1195.51	231.457
1199.84	45.7656
1204.17	229.66
1208.5	282.59
1212.83	361.715
1217.15	299.781
1221.47	497.832
1225.79	406.328
1230.1	707.875
1234.41	480.648
1238.73	604.723
1243.03	441.422
1247.34	631.676
1251.64	383.684
1255.94	464.285
1260.24	711.734
1264.54	531.113
1268.83	352.32
1273.12	512.207
1277.41	647.769
1281.69	703.07
1285.98	716.609
1290.26	517.644
1294.54	455.125
1298.81	445.477
1303.09	596.922
1307.36	510.848
1311.63	535.211
1315.89	725.336
1320.16	552.637
1324.42	111.68
1328.68	102.82
1332.93	128.891
1337.19	323.188
1341.44	336.449
1345.69	392.043
1349.94	165.394
1354.18	351.719
1358.42	84.9297
1362.66	152.828
1366.9	148.141
1371.13	88.6406
1375.37	285.023
1379.6	68.3242
1383.82	116.602
1388.05	129.641
1392.27	297.93
1396.49	138.879
1400.71	163.09
1404.92	432.438
1409.14	38.75
1413.35	293.652
1417.56	173.324
1421.76	119.051
1425.97	33.0039
1430.17	300.856
1434.37	286.602
1438.56	98.4922
1442.76	219.422
1446.95	537.672
1451.14	281.328
1455.33	547.106
1459.51	372.027
1463.69	207.914
1467.87	485.781
1472.05	307.961
1476.22	356.289
1480.4	345.203
1484.57	527.457
1488.73	416.969
1492.9	504.106
1497.06	505.41
1501.22	210.019
1505.38	148.391
1509.54	244.973
1513.69	174.547
1517.84	278.293
1521.99	272.41
1526.14	67.9102
1530.28	284.227
1534.42	353.715
1538.56	284.445
1542.7	89.918
1546.83	247.75
1550.97	271.512
1555.1	315.672
1559.22	26.4648
1563.35	317.238
1567.47	81.1992
