Measurement: Raman, 514 nm, ccw, Raman Data Processed
Mineral: Magnesio-hastingsite
Rruff sample: R040010
Ideal chemistry: NaCa_2_(Mg_4_Fe^3+^)Si_6_Al_2_O_22_(OH)_2_
Locality: Amity, New York, USA
Source: University of Arizona Mineral Museum
Description: Group of black prismatic crystals
Measured chemistry: (Na_0.50_K_0.43_[box]_0.07_)_Σ=1_(Ca_1.77_Na_0.23_)_Σ=2_(Mg_1.74_Fe_1.22_Fe^3+^_0.79_Mn_0.57_Al_0.30_Zn_0.25_Ti_0.13_)_Σ=5_(Si_5.95_Al_2.05_)_Σ=8_O_22_((OH)_1.75_F_0.22_Cl_0.03_)_Σ=2_; OH estimated by charge balance
Pin_id: L00374
Orientation: Laser parallel to a [1 0 0]. Fiducial mark perpendicular to laser is parallel to -b* (0 -1 0)
Raman shift (cm-1)	intensity
164.62	0
169.544	1.4375
174.465	400.629
179.384	1373.89
184.3	2407.48
189.213	3134.3
194.123	2765.89
199.03	3204.39
203.934	2584.91
208.836	341.066
213.735	1100.07
218.631	2107.96
223.524	3019.1
228.414	3052.18
233.302	2910.93
238.186	1883.08
243.068	1172.89
247.947	531.035
252.823	305.574
257.697	227.129
262.567	21
267.435	165.789
272.3	429.719
277.162	1112.48
282.021	1570.93
286.878	2110.96
291.732	2605.47
296.583	2567.36
301.431	1950.55
306.276	1687.93
311.119	1374.26
315.958	1213.03
320.795	957.938
325.629	1115.07
330.461	1387.39
335.289	1284.44
340.115	1466.41
344.938	1487.79
349.759	1837.31
354.576	1803.62
359.391	1969.54
364.203	2237.7
369.012	1987.53
373.818	2089.94
378.622	1933.85
383.423	1822.17
388.221	1294.84
393.016	1343.78
397.809	736.945
402.598	819.293
407.386	530.797
412.17	828.43
416.951	1218.15
421.73	1312.9
426.506	2289.66
431.279	2230.38
436.05	2010.02
440.818	1595.57
445.583	1056.96
450.345	668.25
455.105	504.266
459.861	123.754
464.615	102.078
469.367	53.9648
474.115	34.9375
478.861	500.934
483.604	648.543
488.345	1620.16
493.082	2935.11
497.817	3810.85
502.55	5292.52
507.279	6063.09
512.006	7061.33
516.73	7696.4
521.451	9024.51
526.17	10072.6
530.886	11669.7
535.599	11475.7
540.31	10922.7
545.017	9752.45
549.723	8651.07
554.425	7734.48
559.125	6887.82
563.822	6178.72
568.516	5381.53
573.207	4282.82
577.896	2798.54
582.583	1615.4
587.266	900.938
591.947	38.9766
596.625	186.352
601.3	226.789
605.973	277.523
610.643	61.6992
615.311	69.5703
619.975	380.332
624.637	440.406
629.297	1299.76
633.953	2117.47
638.607	3136.5
643.259	3874.84
647.907	4561.66
652.553	5199.4
657.197	6036.61
661.837	6795.09
666.475	6253.85
671.111	5570.88
675.743	5159
680.373	5241.76
685.001	4894.61
689.625	4230.74
694.247	3179.18
698.867	2930.7
703.483	2972.23
708.097	3835.12
712.709	4680.47
717.318	5947.91
721.924	6480.44
726.527	7417.14
731.128	7861.26
735.726	8090.06
740.322	8009.12
744.915	7061.77
749.505	5934.66
754.093	5009.5
758.678	4467.23
763.26	4140.13
767.84	4512.28
772.417	4516.15
776.992	4740.76
781.564	4810.15
786.133	4476.32
790.7	3693.32
795.264	3465.18
799.825	2662.47
804.384	2133.58
808.94	1833.17
813.494	1538.73
818.045	1106.27
822.593	966.828
827.139	449.414
831.682	125.938
836.223	200.84
840.761	152.547
845.296	201.473
849.829	114.762
854.359	60.4766
858.887	82.25
863.412	208.086
867.934	471.238
872.454	412.383
876.971	874.324
881.486	1298.6
885.998	1080.12
890.507	1310.68
895.014	1365.5
899.518	1718.5
904.02	2042.26
908.519	2318.35
913.016	2834.33
917.51	3084.03
922.001	3100.61
926.49	3170.95
930.976	3688.22
935.46	3661.54
939.941	3945.55
944.42	4330.26
948.896	4074.61
953.369	4324.55
957.84	4286.09
962.309	4924.21
966.774	4348.32
971.238	4197.46
975.698	4415.29
980.156	4870.64
984.612	4824.88
989.065	5111.29
993.516	5287.33
997.964	5740.77
1002.41	6086.34
1006.85	6343.69
1011.29	6691.82
1015.73	6171.63
1020.16	6060.44
1024.6	5745.73
1029.03	5657.45
1033.46	5392.68
1037.88	5186.95
1042.3	4942.68
1046.72	4553.69
1051.14	4491.1
1055.56	4288.21
1059.97	4266.92
1064.38	3901.09
1068.79	3692.02
1073.19	3661.54
1077.59	3354.87
1081.99	3375.57
1086.39	2910.42
1090.79	2756.16
1095.18	2683.36
1099.57	2036.07
1103.95	1564.5
1108.34	1577.28
1112.72	1403.5
1117.1	952.852
1121.48	888.863
1125.85	814.824
1130.23	413.137
1134.6	456.481
1138.96	170.699
1143.33	195.473
1147.69	197.465
1152.05	225.098
1156.41	68.1992
1160.76	80.5938
1165.11	105.688
1169.46	257.586
1173.81	59.1875
1178.16	2.34375
1182.5	247.559
1186.84	142.773
1191.18	177.367
1195.51	130.41
1199.84	268.832
1204.17	146.402
1208.5	43.4297
1212.83	291.277
1217.15	150.176
1221.47	209.961
1225.79	341.856
1230.1	280.441
1234.41	262.621
1238.73	123.59
1243.03	326.141
1247.34	389.398
1251.64	466.527
1255.94	201.07
1260.24	502.203
1264.54	308.246
1268.83	235.769
1273.12	446.758
1277.41	433.441
1281.69	538.863
1285.98	320.051
1290.26	322.277
1294.54	232.949
1298.81	383.551
1303.09	10.5664
1307.36	285.742
1311.63	238.68
1315.89	442.773
1320.16	632.297
1324.42	226.988
1328.68	574.93
1332.93	385.875
1337.19	164.207
1341.44	510.578
1345.69	316.352
1349.94	131.621
1354.18	423.152
1358.42	256.035
1362.66	95.4023
1366.9	58.3555
1371.13	199.695
1375.37	187.586
1379.6	71.3945
1383.82	369.941
1388.05	78.3203
1392.27	552.559
1396.49	229.082
1400.71	123.57
1404.92	232.496
1409.14	89.7891
1413.35	53.5312
1417.56	231.488
1421.76	352.457
1425.97	239.59
1430.17	97.0391
1434.37	269.602
1438.56	448.789
1442.76	112.555
1446.95	265.457
1451.14	231.441
1455.33	228.098
1459.51	461.984
1463.69	455.965
1467.87	237.582
1472.05	227.121
1476.22	543.246
1480.4	405.809
1484.57	479.195
1488.73	521.559
1492.9	351.519
1497.06	365.356
1501.22	374.977
1505.38	277.391
1509.54	444.473
1513.69	445.945
1517.84	108.559
1521.99	590.789
1526.14	449.34
1530.28	147.883
1534.42	151.68
1538.56	182.059
1542.7	383.621
1546.83	404.984
1550.97	476.312
1555.1	270.859
1559.22	490.875
1563.35	274.84
1567.47	10.1406
