Measurement: Raman, 532 nm, ccw, Raman Data Processed
Mineral: Magnesiotaaffeite-6N3S
Rruff sample: X070005
Ideal chemistry: Mg_2_BeAl_6_O_12_
Locality: Tunduru, Tanzania
Source: www.multicolour.com
Description: Pale lavendar cut gemstone, 0.65 cts, formerly known as musgravite-18R
Raman shift (cm-1)	intensity
164.083	0
166.975	9.90039
169.868	188.428
172.761	97.4629
175.653	80.6094
178.546	171.607
181.439	154.574
184.331	194.883
187.224	105.551
190.117	98.2598
193.01	31.6875
195.902	52.5234
198.795	133.408
201.688	207.834
204.58	155.701
207.473	216.822
210.366	158.107
213.258	38.0469
216.151	64.2246
219.044	67.7363
221.936	188.231
224.829	185.91
227.722	288.129
230.615	487.881
233.507	783.971
236.4	1202.06
239.293	2273.64
242.185	2765.2
245.078	916.797
247.971	673.961
250.863	350.815
253.756	384.469
256.649	307.09
259.542	495.947
262.434	742.984
265.327	1424.2
268.22	1301.09
271.112	699.769
274.005	476.684
276.898	280.637
279.791	374.172
282.683	321.678
285.576	202.453
288.469	147.191
291.361	159.496
294.254	78.5742
297.147	319.414
300.039	543.131
302.932	940.242
305.825	893.152
308.718	1079.78
311.61	1680.11
314.503	2495.81
317.396	1844.5
320.288	742.059
323.181	497.916
326.074	377.658
328.966	389.488
331.859	228.219
334.752	306.482
337.645	333.461
340.537	102.022
343.43	35.459
346.323	98.4512
349.215	45.8828
352.108	112.412
355.001	71.2519
357.894	117.867
360.786	33.6523
363.679	178.084
366.572	505.629
369.464	476.076
372.357	511.402
375.25	589.436
378.142	869.938
381.035	556.064
383.928	448.941
386.82	187.584
389.713	176.453
392.606	464.975
395.499	881.318
398.391	1727.4
401.284	3723.05
404.177	6137.86
407.069	6546.19
409.962	7356.8
412.855	11744.9
415.748	11452.9
418.64	3393.78
421.533	820.299
424.426	243.703
427.318	28.416
430.211	98.2461
433.104	225.777
435.996	699.525
438.889	1379.54
441.782	2476.86
444.675	4780.53
447.567	7037.34
450.46	4072.41
453.353	1598.41
456.245	1422.89
459.138	1122.35
462.031	286.348
464.923	28.6484
467.816	59.0352
470.709	136.828
473.601	239.977
476.494	811.553
479.387	1725.54
482.28	3552.89
485.172	5292.98
488.065	5392.05
490.958	7480.02
493.85	12146.6
496.743	10991.8
499.636	3326.75
502.529	1153.39
505.421	459.344
508.314	248.652
511.207	140.049
514.099	148.807
516.992	244.57
519.885	207.523
522.778	300.252
525.67	947.332
528.563	1316.41
531.456	871.873
534.348	383.619
537.241	238.859
540.134	343.897
543.026	202.207
545.919	61.625
548.812	90.8691
551.705	2.06055
554.597	117.894
557.49	78.3691
560.383	24.0293
563.275	125.881
566.168	431.227
569.061	1141.53
571.953	1802.45
574.846	2818.04
577.739	3965.98
580.631	3833.48
583.524	2229.23
586.417	1170.62
589.31	571.941
592.202	352.057
595.095	105.436
597.988	265.035
600.88	297.307
603.773	688.342
606.666	777.209
609.558	471.924
612.451	377.045
615.344	824.387
618.237	1474.84
621.129	2429.37
624.022	2439.26
626.915	1519.6
629.807	713.738
632.7	444.617
635.593	179.934
638.486	117.467
641.378	290.66
644.271	110.26
647.164	165.254
650.056	352.519
652.949	780.719
655.842	1429.89
658.734	2366.86
661.627	3084.05
664.52	3616.22
667.413	3414.86
670.305	2320.53
673.198	1397.43
676.091	604.057
678.983	290.031
681.876	0.898438
684.769	95.8203
687.661	79.2461
690.554	113.932
693.447	133.522
696.34	365.619
699.232	698.51
702.125	1275.49
705.018	2310.53
707.91	3875.37
710.803	6127.37
713.696	8231.41
716.588	8797.51
719.481	6199.67
722.374	3306.39
725.266	1599.28
728.159	794.322
731.052	467.32
733.945	180.514
736.837	109.527
739.73	49.709
742.623	100.189
745.515	106.344
748.408	149.109
751.301	294.221
754.193	392.242
757.086	424.33
759.979	334.068
762.872	134.318
765.764	82.5957
768.657	37.8008
771.55	35.7285
774.442	60.0039
777.335	157.043
780.228	250.705
783.12	408.861
786.013	494.162
788.906	788.299
791.799	1169.64
794.691	1693.7
797.584	2203.29
800.477	3140
803.369	3635.73
806.262	4123.25
809.155	4282.59
812.048	3814.4
814.94	3292.73
817.833	3006.98
820.726	2894.82
823.618	3160.18
826.511	3200.74
829.404	3072.71
832.297	2591.47
835.189	2018.58
838.082	1372.96
840.975	849.393
843.867	598.617
846.76	487.685
849.653	374.568
852.545	427.629
855.438	363.393
858.331	237.26
861.223	143.185
864.116	116.566
867.009	78.6231
869.902	206.307
872.794	167.147
875.687	181.984
878.58	199.588
881.472	22.6836
884.365	52.0547
887.258	17.5957
890.15	120.555
893.043	91.791
895.936	18.4102
898.829	13.2188
901.721	62.4141
904.614	18.2227
907.507	51.9688
910.399	48.4434
913.292	116.248
916.185	125.697
919.077	190.025
921.97	19.252
924.863	120.281
927.756	88.6035
930.648	26.875
933.541	58.6426
936.434	117.834
939.326	183.156
942.219	32.1719
945.112	152.846
948.005	189.467
950.897	198.049
953.79	313.254
956.683	281.773
959.575	357.457
962.468	208.144
965.361	355.992
968.253	569.949
971.146	701.748
974.039	961.035
976.932	1224.65
979.824	1160.65
982.717	908.531
985.61	656.519
988.502	522.484
991.395	390.908
994.288	321.049
997.181	260.748
1000.07	99.1113
1002.97	150.844
1005.86	72.9434
1008.75	143.25
1011.64	123.125
1014.54	111.148
1017.43	164.107
1020.32	20.2969
1023.22	31.4629
1026.11	43.2148
1029	116.096
1031.89	14.4473
1034.79	123.174
1037.68	162.508
1040.57	104.094
1043.46	72.957
1046.36	62.2676
1049.25	75.0117
1052.14	37.7266
1055.03	68.8945
1057.93	73.3516
1060.82	164.746
1063.71	64.6231
1066.61	242.705
1069.5	190.102
1072.39	144.418
1075.28	55.5938
1078.18	187.221
1081.07	204.592
1083.96	248.879
1086.85	131.832
1089.75	206.488
1092.64	212.109
1095.53	238.377
1098.42	225.695
1101.32	230.941
1104.21	66.375
1107.1	2.54492
1110	60.3379
1112.89	47.4297
1115.78	102.686
1118.67	87.8379
1121.57	8.18945
1124.46	95.7695
1127.35	67.3281
1130.24	42.3027
1133.14	85.1797
1136.03	87.3184
1138.92	297.822
1141.82	167.894
1144.71	82.2773
1147.6	96.3164
1150.49	200.572
1153.39	154.098
1156.28	198.83
1159.17	258.826
1162.06	66.9727
1164.96	91.9375
1167.85	139.279
1170.74	84.0586
1173.63	160.293
1176.53	202.629
1179.42	180.922
1182.31	98.7637
1185.21	252.606
1188.1	177.607
1190.99	194.06
1193.88	112.523
1196.78	184.918
1199.67	157.85
1202.56	81.2246
1205.45	72.3574
1208.35	52.7383
1211.24	222.738
1214.13	52.0879
1217.03	22.916
1219.92	31.9414
1222.81	127.859
1225.7	152.459
1228.6	100.951
1231.49	316.494
1234.38	66.6094
1237.28	9.34375
1240.17	207.227
1243.06	85.959
1245.95	77.7949
1248.85	84.8926
1251.74	58.041
1254.63	262.461
1257.52	71.2949
1260.42	131.918
1263.31	131.773
1266.2	76.7285
1269.09	66.6816
1271.99	3.48047
1274.88	78.6406
1277.77	98.8047
1280.66	128.148
1283.56	243.482
1286.45	244.791
1289.34	8.85156
1292.24	84.9434
1295.13	88.3086
1298.02	137.268
1300.91	129.988
1303.81	63.0625
