Measurement: Raman, 514 nm, ccw, Raman Data Processed
Mineral: Magnesite
Rruff sample: R040114
Ideal chemistry: MgCO_3_
Locality: Snarum, Norway
Source: University of Arizona Mineral Museum
Description: Tan colored cleavage fragment
Measured chemistry: (Mg_0.98_Fe_0.01_)C_1.00_O_3_
Pin_id: L00266
Orientation: Laser parallel to -a* (-1 0 0). Fiducial mark perpendicular to laser is parallel to c [0 0 1]
Raman shift (cm-1)	intensity
104.516	0
108.691	89.795
112.864	178.248
117.034	361.612
121.203	179.972
125.369	72.918
129.534	134.735
133.696	27.202
137.857	169.054
142.016	61.044
146.172	92.082
150.327	67.897
154.48	49.726
158.63	47.062
162.779	71.477
166.926	101.032
171.07	135.735
175.213	90.664
179.354	69.866
183.493	76.845
187.63	66.521
191.765	63.26
195.898	95.97
200.029	216.844
204.158	532.855
208.285	1470.98
212.41	2307.22
216.533	1143.53
220.654	293.876
224.773	119.243
228.891	25.6
233.006	18.063
237.119	34.752
241.231	3.471
245.34	8.212
249.448	51.973
253.553	2.723
257.657	8.577
261.758	2.461
265.858	19.059
269.956	59.322
274.052	0.411
278.146	35.94
282.237	92.626
286.327	42.219
290.416	150.799
294.502	77.354
298.586	182.959
302.668	162.638
306.749	218.009
310.827	296.437
314.903	566.478
318.978	1479.64
323.051	5946.87
327.121	15007.9
331.19	18491.8
335.257	7185.66
339.322	2160.24
343.385	871.702
347.446	512.911
351.505	353.022
355.563	330.199
359.618	284.272
363.672	215.31
367.723	205.213
371.773	106.107
375.821	151.05
379.866	66.967
383.91	93.171
387.952	67.087
391.992	121.011
396.031	184.258
400.067	36.333
404.101	148.829
408.134	34.613
412.165	26.673
416.193	68.773
420.22	77.997
424.245	98.405
428.268	24.358
432.289	175.349
436.309	97.551
440.326	71.211
444.342	102.721
448.355	100.514
452.367	139.023
456.377	133.433
460.385	1.349
464.391	53.989
468.395	3.447
472.398	93.296
476.398	89.92
480.397	102.725
484.394	30.128
488.389	119.271
492.382	62.555
496.373	70.97
500.362	62.377
504.349	113.078
508.335	96.547
512.319	11.878
516.3	181.206
520.28	106.44
524.259	55.879
528.235	136.368
532.209	76.293
536.182	70.361
540.152	25.683
544.121	91.293
548.088	81.814
552.053	115.855
556.017	92.859
559.978	81.05
563.938	59.95
567.895	48.852
571.851	101.584
575.805	38.457
579.758	57.082
583.708	183.359
587.657	236.993
591.603	43.549
595.548	82.218
599.491	118.856
603.432	79.629
607.372	3.291
611.309	49.288
615.245	25.53
619.179	65.375
623.111	84.146
627.041	200.631
630.97	183.17
634.896	23.018
638.821	86.269
642.744	13.424
646.665	143.831
650.584	62.332
654.502	122.023
658.418	146.44
662.331	66.152
666.244	171.602
670.154	127.713
674.062	162.224
677.969	189.942
681.874	126.594
685.777	152.26
689.678	116.964
693.577	184.832
697.475	31.364
701.371	86.716
705.265	175.728
709.157	208.108
713.047	127.669
716.936	218.916
720.823	223.328
724.708	274.737
728.591	438.107
732.472	503.142
736.352	674.777
740.23	720.735
744.106	571.735
747.98	350.332
751.853	208.235
755.723	113.889
759.592	173.54
763.459	76.667
767.325	0.857
771.188	1.974
775.05	123.787
778.91	19.574
782.768	114.351
786.625	51.318
790.479	81.631
794.332	24.823
798.183	26.241
802.033	44.534
805.88	21.354
809.726	36.213
813.57	92.688
817.413	59.761
821.253	85.375
825.092	11.567
828.929	189.339
832.764	149.224
836.598	180.78
840.429	141.503
844.259	64.187
848.088	10.455
851.914	54.768
855.739	92.67
859.562	91.795
863.383	138.733
867.203	6.602
871.02	107.086
874.836	64.762
878.65	83.414
882.463	69.026
886.274	31.61
890.083	115.155
893.89	29.659
897.695	116.09
901.499	37.436
905.301	102.744
909.102	92.059
912.9	50.167
916.697	38.844
920.492	89.589
924.285	149.79
928.077	35.716
931.867	34.798
935.655	60.922
939.442	117.35
943.226	52.857
947.009	82.287
950.791	7.251
954.57	40.185
958.348	3.747
962.124	14.182
965.899	58.497
969.671	127.452
973.442	62.991
977.211	57.485
980.979	71.732
984.745	95.017
988.509	204.303
992.271	168.608
996.032	126.738
999.791	239.574
1003.55	57.769
1007.3	122.092
1011.06	108.979
1014.81	163.183
1018.56	177.682
1022.31	229.201
1026.06	274.087
1029.8	329.329
1033.55	363.319
1037.29	348.752
1041.03	387.457
1044.77	501.432
1048.5	620.466
1052.24	724.055
1055.97	974.983
1059.7	1111.37
1063.43	1335.09
1067.16	1719.17
1070.89	2400.94
1074.61	3330.4
1078.34	4890.47
1082.06	7712.46
1085.78	13909.6
1089.5	26202.4
1093.21	42162.9
1096.93	41714.8
1100.64	26935.8
1104.35	16643.8
1108.06	10220.6
1111.77	6060.4
1115.48	3578.79
1119.18	2108.41
1122.89	1885.46
1126.59	924.042
1130.29	665.701
1133.99	458.124
1137.68	422.487
1141.38	381.245
1145.07	258.931
1148.76	216.223
1152.45	212.061
1156.14	17.133
1159.83	120.644
1163.51	123.999
1167.19	130.915
1170.88	95.518
1174.56	104.771
1178.23	86.778
1181.91	43.292
1185.59	54.201
1189.26	154.785
1192.93	29.613
1196.6	72.457
1200.27	56.055
1203.94	210.429
1207.6	21.844
1211.27	129.959
1214.93	143.227
1218.59	122.557
1222.25	2.301
1225.9	98.028
1229.56	120.903
1233.21	140.994
1236.86	207.134
1240.51	140.992
1244.16	146.453
1247.81	23.766
1251.45	9.168
1255.1	65.578
1258.74	73.1
1262.38	129.716
1266.02	36.092
1269.66	33.772
1273.29	46.949
1276.93	23.046
1280.56	170.267
1284.19	74.316
1287.82	163.068
1291.45	145.403
1295.07	39.596
1298.7	73.024
1302.32	86.058
1305.94	35.994
1309.56	146.598
1313.18	7.11
1316.8	45.187
1320.41	34.38
1324.02	67.145
1327.63	149.673
1331.24	101.12
1334.85	30.104
1338.46	59.803
1342.06	70.75
1345.67	57.146
1349.27	88.916
1352.87	97.263
1356.47	202.914
1360.07	144.915
1363.66	180.825
1367.25	156.979
1370.85	102.062
1374.44	154.565
1378.03	116.161
1381.61	174.85
1385.2	185.976
1388.78	157.408
1392.37	226.409
1395.95	223.119
1399.53	290.75
1403.1	167.581
1406.68	136.732
1410.26	152.35
1413.83	253.167
1417.4	144.468
1420.97	167.326
1424.54	307.314
1428.1	227.181
1431.67	252.685
1435.23	353.379
1438.8	211.09
1442.36	400.189
1445.91	469.354
1449.47	327.347
1453.03	392.966
1456.58	329.729
1460.13	357.927
1463.68	405.748
1467.23	293.91
1470.78	317.437
1474.33	256.99
1477.87	257.821
1481.42	3.867
1484.96	147.924
1488.5	129.132
1492.04	301.698
1495.57	261.215
1499.11	71.774
1502.64	25.044
1506.17	23.335
1509.71	6.939
1513.23	199.389
1516.76	54.922
1520.29	0
