Measurement: Raman, 514 nm, ccw, Raman Data Processed
Mineral: Marialite
Rruff sample: R050123
Ideal chemistry: Na_4_Al_3_Si_9_O_24_Cl
Locality: Pakistan
Source: Syed Shah
Description: Purple fragment
Measured chemistry: (Na_0.88_Ca_0.07_K_0.05_)_4_Al_3.00_Si_9.00_O_24_Cl_0.97
Pin_id: L00549
Orientation: Laser parallel to -a* (-1 0 0). Fiducial mark perpendicular to laser is parallel to -c [0 0 -1]
Raman shift (cm-1)	intensity
49.365	0
53.566	488.216
57.765	1121.19
61.962	1697.78
66.157	1579.62
70.349	1567.68
74.54	823.735
78.729	179.627
82.916	43.205
87.101	109.005
91.284	290.46
95.465	1346.22
99.644	3145.69
103.82	4970.01
107.995	5713.67
112.168	5385.52
116.339	4929.33
120.508	4323.41
124.675	3995.05
128.84	3647.57
133.003	3392.12
137.164	3543.86
141.323	3732.61
145.48	4135.44
149.635	4912.7
153.788	5973.81
157.939	6682.66
162.088	6664.86
166.235	5508.43
170.38	4248.35
174.523	3444.63
178.664	3150.74
182.803	2935.11
186.94	2602.41
191.076	2137.08
195.209	1906.71
199.34	1628.75
203.47	1467.13
207.597	1403.83
211.722	1387.81
215.846	1533.22
219.967	1639.95
224.087	1562.62
228.204	1367.03
232.32	1052.33
236.434	942.926
240.545	918.156
244.655	1167.66
248.763	1682.27
252.869	3273.22
256.973	4562.8
261.075	4818.97
265.175	3523.53
269.273	2123.4
273.369	1335.54
277.463	1092.93
281.556	999.038
285.646	969.326
289.734	870.239
293.821	891.325
297.905	844.537
301.988	408.859
306.069	79.286
310.147	126.237
314.224	180.908
318.299	146.822
322.372	56.896
326.443	59.012
330.512	187.987
334.579	258.065
338.645	299.267
342.708	462.581
346.769	689.668
350.829	1223.37
354.887	2162.7
358.942	2725.49
362.996	2498.94
367.048	2119.48
371.098	1627.11
375.146	1139.82
379.192	947.562
383.236	763.169
387.279	571.628
391.319	412.987
395.358	333.293
399.394	286.624
403.429	212.73
407.462	231.311
411.493	380.276
415.522	474.413
419.549	749.143
423.575	932.541
427.598	1155.64
431.619	1209.33
435.639	1438.39
439.657	1980.79
443.673	2941.75
447.687	5177.3
451.699	9858.65
455.709	15929.3
459.717	14748.6
463.724	9007.77
467.728	5142.55
471.731	3148.18
475.732	1921.81
479.731	1221.84
483.728	774.806
487.723	474.767
491.716	304.874
495.708	179.688
499.697	177.138
503.685	220.049
507.671	119.211
511.655	2.89
515.637	106.262
519.617	158.856
523.596	465.709
527.572	1024.13
531.547	3149.44
535.52	7765.29
539.491	7341.86
543.46	3253.78
547.427	1289.57
551.393	598.178
555.356	345.694
559.318	147.067
563.278	25.318
567.236	14.664
571.192	39.064
575.147	59.572
579.099	44.79
583.05	0.463
586.999	5.624
590.946	61.545
594.891	84.3
598.834	59.876
602.776	30.25
606.715	17.396
610.653	6.739
614.589	49.805
618.523	56.132
622.456	9.758
626.386	66.107
630.315	75.87
634.242	35.672
638.167	26.452
642.09	1.692
646.012	48.892
649.931	84.234
653.849	24.308
657.765	50.051
661.679	33.491
665.592	43.599
669.502	12.514
673.411	67.15
677.318	48.178
681.223	78.174
685.126	77.129
689.028	96.718
692.927	122.958
696.825	172.779
700.721	231.842
704.616	229.702
708.508	380.071
712.399	334.79
716.288	303.593
720.175	396.151
724.06	447.247
727.944	504.967
731.825	440.921
735.705	511.542
739.584	623.071
743.46	689.409
747.334	815.032
751.207	1061
755.078	1187.49
758.947	1449.79
762.815	1786.69
766.68	2128.66
770.544	2467.75
774.406	2568.97
778.267	2964.65
782.125	3604.33
785.982	3833.45
789.837	3104.31
793.69	1912.01
797.542	1131.05
801.391	708.36
805.239	612.251
809.085	771.098
812.93	908.556
816.772	544.652
820.613	226.078
824.452	144.141
828.29	143.69
832.125	128.395
835.959	139.781
839.791	97.201
843.621	32.429
847.45	58.064
851.277	16.652
855.102	49.423
858.925	99.062
862.746	0.444
866.566	36.901
870.384	60.111
874.2	39.174
878.015	1.818
881.828	40.135
885.639	61.877
889.448	48.854
893.256	65.099
897.061	45.941
900.865	56.602
904.668	33.104
908.468	32.483
912.267	20.831
916.064	24.111
919.86	56.384
923.653	21.358
927.445	44.174
931.236	49.064
935.024	62.03
938.811	35.903
942.596	84.847
946.379	139.858
950.161	63.929
953.94	70.032
957.719	88.15
961.495	182.306
965.27	108.516
969.043	152.767
972.814	153.118
976.583	235.603
980.351	334.165
984.117	622.432
987.882	824.861
991.644	1113.13
995.405	1046.96
999.165	679.09
1002.92	515.815
1006.68	423.434
1010.43	492.088
1014.18	523.187
1017.93	531.006
1021.68	538.168
1025.43	514.002
1029.18	614.722
1032.92	725.647
1036.66	768.83
1040.4	1025.69
1044.14	912.961
1047.88	881.956
1051.62	1002.05
1055.35	892.948
1059.08	959.97
1062.81	1100.89
1066.54	1156.78
1070.27	1437.64
1073.99	1535.12
1077.72	1718.17
1081.44	1995.22
1085.16	2362.73
1088.88	2907.52
1092.59	3289.23
1096.31	3289.07
1100.02	3011.8
1103.73	2834.12
1107.44	2510.37
1111.15	2386.78
1114.86	2185.33
1118.57	2068.56
1122.27	1906.76
1125.97	1512.46
1129.67	1193.42
1133.37	973.524
1137.07	799.225
1140.76	736.077
1144.45	627.801
1148.15	408.505
1151.84	411.646
1155.53	327.724
1159.21	58.469
1162.9	124.058
1166.58	98.552
1170.26	106.982
1173.94	136.774
1177.62	212.911
1181.3	233.646
1184.97	161.355
1188.65	167.05
1192.32	163.28
1195.99	330.058
1199.66	451.779
1203.33	544.087
1206.99	544.031
1210.65	468.014
1214.32	314.661
1217.98	170.101
1221.64	170.994
1225.29	90.474
1228.95	211.012
1232.6	321.958
1236.26	148.192
1239.91	140.476
1243.56	43.83
1247.2	62.13
1250.85	12.27
1254.49	43.003
1258.13	112.866
1261.78	249.376
1265.41	122.874
1269.05	161.751
1272.69	30.183
1276.32	194.252
1279.95	73.054
1283.59	41.15
1287.21	19.483
1290.84	91.773
1294.47	110.118
1298.09	124.126
1301.72	131.844
1305.34	92.031
1308.96	58.255
1312.58	25.95
1316.19	36.018
1319.81	55.014
1323.42	58.415
1327.03	194.537
1330.64	223.102
1334.25	134.255
1337.86	163.038
1341.46	42.41
1345.07	79.594
1348.67	41.999
1352.27	11.788
1355.87	9.076
1359.46	174.63
1363.06	246.426
1366.65	254.536
1370.25	70.214
1373.84	67.004
1377.43	115.562
1381.02	14.824
1384.6	88.189
1388.18	116.316
1391.77	44.787
1395.35	126.685
1398.93	236.91
1402.51	260.326
1406.08	293.706
1409.66	221.896
1413.23	171.25
1416.8	184.61
1420.37	31.001
1423.94	137.792
1427.51	121.656
1431.08	214.526
1434.64	155.903
1438.2	291.223
1441.76	301.933
1445.32	324.368
1448.88	324.208
1452.43	185.22
1455.99	150.3
1459.54	30.425
1463.09	86.428
1466.64	60.581
1470.19	151.471
1473.74	268.214
1477.28	174.339
1480.83	358.771
1484.37	391.931
1487.91	347.202
1491.45	200.854
1494.98	144.618
1498.52	160.205
1502.05	9.292
1505.59	34.588
1509.12	94.184
1512.65	128.134
1516.17	155.723
1519.7	314.961
