Measurement: Raman, 514 nm, ccw, Raman Data Processed
Mineral: Marialite
Rruff sample: R040043
Ideal chemistry: Na_4_Al_3_Si_9_O_24_Cl
Locality: Gouverneur, New York, USA
Source: University of Arizona Mineral Museum
Description: White prismatic crystals
Measured chemistry: (Na_.493_Ca_.446_K_.061_)_4_(Si_.634_Al_.366_)_12_O_24_((CO_3_)_.581_Cl_.419_)
Pin_id: S00028
Orientation: Laser parallel to a* (1 0 0). Fiducial mark perpendicular to laser is parallel to c [0 0 1]
Raman shift (cm-1)	intensity
100.34	0
104.516	10.416
108.691	642.836
112.864	1967.4
117.034	4164.73
121.203	4233.13
125.369	5476.71
129.534	6995.98
133.696	6834.34
137.857	7042.76
142.016	5894.37
146.172	4892.2
150.327	3469.73
154.48	2467.25
158.63	1892.87
162.779	1965.6
166.926	1554.43
171.07	1000.36
175.213	94.467
179.354	23.424
183.493	112.293
187.63	234.9
191.765	810.766
195.898	1226.41
200.029	1184.05
204.158	1207.79
208.285	1189.12
212.41	1255.25
216.533	2225.82
220.654	2641.81
224.773	3240.9
228.891	3541.47
233.006	3189.06
237.119	2558.88
241.231	2348.79
245.34	2632.36
249.448	3659.19
253.553	6343.15
257.657	11397.5
261.758	16460.2
265.858	14921.9
269.956	9335.25
274.052	4530.16
278.146	2327.47
282.237	1604.05
286.327	1507.3
290.416	2585.66
294.502	6428.03
298.586	8321.32
302.668	3278.25
306.749	1085.75
310.827	320.574
314.903	30.922
318.978	231.637
323.051	110.693
327.121	331.977
331.19	205.727
335.257	166.693
339.322	223.965
343.385	828.59
347.446	1441.16
351.505	2509.86
355.563	4119.42
359.618	5872.18
363.672	5117.14
367.723	3231.29
371.773	2435.33
375.821	2475.6
379.866	2810.61
383.91	2349.3
387.952	1824
391.992	1416.2
396.031	1239.18
400.067	1037.09
404.101	1258.77
408.134	1566.8
412.165	2621.45
416.193	5365.28
420.22	8500.42
424.245	6792.58
428.268	3485.4
432.289	2761.69
436.309	2976.96
440.326	4220.27
444.342	6569.18
448.355	10207.5
452.367	17484.7
456.377	19278.8
460.385	19168.3
464.391	15747.1
468.395	10650.3
472.398	7463.4
476.398	5107.16
480.397	3896.72
484.394	2759.61
488.389	1770.51
492.382	1659.56
496.373	879.688
500.362	563.238
504.349	489.84
508.335	567.773
512.319	799.492
516.3	1516.87
520.28	2406.04
524.259	4539.82
528.235	10002.1
532.209	19741.6
536.182	24575.1
540.152	15812.2
544.121	8470.81
548.088	4570.95
552.053	2620.65
556.017	1531.93
559.978	904.205
563.938	697.141
567.895	653.92
571.851	398.225
575.805	537.998
579.758	568.268
583.708	327.982
587.657	395.102
591.603	59.68
595.548	291.613
599.491	213.76
603.432	186.139
607.372	67.254
611.309	50.391
615.245	11.557
619.179	69.559
623.111	17.562
627.041	249.9
630.97	176.135
634.896	117.156
638.821	33.34
642.744	190.928
646.665	186.693
650.584	78.379
654.502	215.434
658.418	159.328
662.331	204.143
666.244	571.043
670.154	231.131
674.062	287.893
677.969	407.338
681.874	537.566
685.777	338.256
689.678	454.773
693.577	769.662
697.475	606.504
701.371	1058.58
705.265	1713.88
709.157	1902.95
713.047	1628.72
716.936	1560.15
720.823	1593.7
724.708	1439.46
728.591	2087.8
732.472	1526.76
736.352	2018.37
740.23	2139.43
744.106	2865.4
747.98	3419.33
751.853	4498.91
755.723	5946.83
759.592	8478.32
763.459	11619.7
767.325	14922
771.188	16251.9
775.05	14035.2
778.91	8240.44
782.768	4148.73
786.625	1985.57
790.479	1400.48
794.332	985.396
798.183	586.199
802.033	414.031
805.88	517.566
809.726	257.057
813.57	242.176
817.413	49.334
821.253	10.193
825.092	32.055
828.929	284.295
832.764	67.059
836.598	381
840.429	307.57
844.259	293.258
848.088	143.895
851.914	59.527
855.739	416.811
859.562	145.908
863.383	122.852
867.203	766.631
871.02	89.344
874.836	130.992
878.65	14.543
882.463	196.033
886.274	4.488
890.083	66.879
893.89	74.307
897.695	112.77
901.499	72.232
905.301	146.781
909.102	470.238
912.9	571.617
916.697	156.137
920.492	289.113
924.285	206.785
928.077	86.68
931.867	110.902
935.655	162.484
939.442	331.531
943.226	611.32
947.009	395.336
950.791	493.035
954.57	508.852
958.348	674.551
962.124	564.629
965.899	726.77
969.671	826.77
973.442	572.379
977.211	686.816
980.979	950.074
984.745	1313.03
988.509	1671.29
992.271	1802.82
996.032	2092.37
999.791	2811.21
1003.55	2467.87
1007.3	2524.37
1011.06	2526.3
1014.81	2619.64
1018.56	2602.18
1022.31	2933.7
1026.06	3263.37
1029.8	3500.07
1033.55	3772.23
1037.29	3846.81
1041.03	4078.02
1044.77	3889.51
1048.5	3993.5
1052.24	3996.88
1055.97	3785.26
1059.7	3894.29
1063.43	4464.3
1067.16	5065.34
1070.89	5774.77
1074.61	6391.38
1078.34	7283.91
1082.06	7797.93
1085.78	9442.97
1089.5	9772.16
1093.21	9681.93
1096.93	9811.5
1100.64	8467.19
1104.35	7238.94
1108.06	6122.11
1111.77	5058.04
1115.48	3376.73
1119.18	1973.29
1122.89	2765.5
1126.59	2135.08
1130.29	1607.79
1133.99	1154.77
1137.68	1074.91
1141.38	680.09
1145.07	661.863
1148.76	263.109
1152.45	301.562
1156.14	94.629
1159.83	230.766
1163.51	298.215
1167.19	318.215
1170.88	31.207
1174.56	230.723
1178.23	234.266
1181.91	286.742
1185.59	165.715
1189.26	299.836
1192.93	418.293
1196.6	680.586
1200.27	503.789
1203.94	674.809
1207.6	103.113
1211.27	393.312
1214.93	289.812
1218.59	205.145
1222.25	30.785
1225.9	212.805
1229.56	359.77
1233.21	225.527
1236.86	330.91
1240.51	719.773
1244.16	289.551
1247.81	315.539
1251.45	228.375
1255.1	246.562
1258.74	311.441
1262.38	65.32
1266.02	207
1269.66	104.133
1273.29	38.402
1276.93	159.918
1280.56	272.258
1284.19	99.367
1287.82	228.203
1291.45	155
1295.07	3.645
1298.7	157.977
1302.32	95.645
1305.94	172.09
1309.56	496.207
1313.18	1.18
1316.8	277.715
1320.41	241.129
1324.02	165.836
1327.63	465.398
1331.24	500.648
1334.85	375.246
1338.46	510.262
1342.06	461.34
1345.67	627.277
1349.27	518.48
1352.87	789.496
1356.47	767.668
1360.07	798.781
1363.66	814.973
1367.25	521.516
1370.85	733.355
1374.44	509.867
1378.03	402.91
1381.61	663.332
1385.2	559.516
1388.78	354.828
1392.37	281.395
1395.95	606.691
1399.53	550.203
1403.1	310.289
1406.68	153.391
1410.26	151.84
1413.83	387.684
1417.4	444.336
1420.97	297.723
1424.54	489.934
1428.1	306.227
1431.67	425.164
1435.23	430.992
