Measurement: Raman, 514 nm, ccw, Raman Data Processed
Mineral: Marialite
Rruff sample: R050123
Ideal chemistry: Na_4_Al_3_Si_9_O_24_Cl
Locality: Pakistan
Source: Syed Shah
Description: Purple fragment
Measured chemistry: (Na_0.88_Ca_0.07_K_0.05_)_4_Al_3.00_Si_9.00_O_24_Cl_0.97
Pin_id: L00549
Orientation: Laser parallel to -a* (-1 0 0). Fiducial mark perpendicular to laser is parallel to -c [0 0 -1]
Raman shift (cm-1)	intensity
49.365	0
53.566	287.271
57.765	749.522
61.962	1175.26
66.157	1157.44
70.349	826.446
74.54	272.774
78.729	3.369
82.916	54.77
87.101	83.257
91.284	360.507
95.465	1170.1
99.644	2587.24
103.82	4924.22
107.995	7120.45
112.168	6436.71
116.339	5458.85
120.508	5175.17
124.675	5401.06
128.84	5820.41
133.003	6695.21
137.164	7922.5
141.323	9791.72
145.48	11882.6
149.635	15253.9
153.788	19023.6
157.939	21703.5
162.088	21064.1
166.235	17525.4
170.38	13627.4
174.523	11190.1
178.664	10243.5
182.803	9128.31
186.94	7728.95
191.076	6294.2
195.209	5328.14
199.34	4570.74
203.47	4212.01
207.597	3854.92
211.722	3466.9
215.846	3199.13
219.967	3056.11
224.087	2970.19
228.204	2987.84
232.32	2685.1
236.434	2437.86
240.545	2408.97
244.655	2606.53
248.763	3410.78
252.869	5293.1
256.973	7762.57
261.075	7901.2
265.175	5720.59
269.273	3660.59
273.369	2761.16
277.463	2677.27
281.556	3027.9
285.646	2940.02
289.734	2666.6
293.821	3329.62
297.905	3563.06
301.988	2057.89
306.069	761.087
310.147	190.629
314.224	33.503
318.299	46.324
322.372	7.178
326.443	192.086
330.512	381.453
334.579	540.218
338.645	596.396
342.708	726.969
346.769	920.923
350.829	1691.2
354.887	2963.84
358.942	3716.81
362.996	3232.06
367.048	2508.58
371.098	1626.35
375.146	963.365
379.192	545.589
383.236	286.815
387.279	95.065
391.319	80.585
395.358	104.224
399.394	170.945
403.429	120.943
407.462	88.063
411.493	207.585
415.522	460.529
419.549	744.124
423.575	1132.56
427.598	1498.75
431.619	2060.66
435.639	2788.71
439.657	4389.9
443.673	6972.22
447.687	12244.7
451.699	23777.2
455.709	37880
459.717	34582.7
463.724	20915.5
467.728	11678.4
471.731	6681.43
475.732	3994.88
479.731	2539.66
483.728	1659.68
487.723	1278.86
491.716	991.443
495.708	731.379
499.697	675.567
503.685	708.607
507.671	500.131
511.655	255.719
515.637	299.889
519.617	525.645
523.596	819.875
527.572	1703.21
531.547	4640.46
535.52	11434
539.491	10808.2
543.46	4703.48
547.427	2103.94
551.393	1019.03
555.356	549.849
559.318	255.555
563.278	55.701
567.236	23.95
571.192	2.972
575.147	3.635
579.099	39.736
583.05	27.773
586.999	139.123
590.946	166.341
594.891	173.814
598.834	173.409
602.776	179.197
606.715	206.807
610.653	257.235
614.589	242.492
618.523	242.586
622.456	429.528
626.386	476.27
630.315	349.836
634.242	158.667
638.167	13.453
642.09	21.554
646.012	37.02
649.931	65.158
653.849	7.891
657.765	17.809
661.679	65.043
665.592	14.452
669.502	9.348
673.411	50.794
677.318	7.119
681.223	33.224
685.126	103.934
689.028	139.205
692.927	70.621
696.825	115.315
700.721	116.694
704.616	182.464
708.508	219.418
712.399	184.324
716.288	144.762
720.175	198.917
724.06	274.56
727.944	378.29
731.825	281.717
735.705	293.635
739.584	386.646
743.46	585.702
747.334	722.452
751.207	867.497
755.078	952.154
758.947	1092.57
762.815	1357.76
766.68	1625.7
770.544	1816.08
774.406	1853.45
778.267	2126.88
782.125	2346.02
785.982	2497.83
789.837	1978.35
793.69	1219.72
797.542	752.761
801.391	697.128
805.239	970.684
809.085	1579.13
812.93	2196.64
816.772	1216.66
820.613	542.249
824.452	278.706
828.29	288.976
832.125	187.529
835.959	131.88
839.791	25.851
843.621	45.788
847.45	103.721
851.277	85.271
855.102	58.187
858.925	0.887
862.746	64.261
866.566	17.387
870.384	16.571
874.2	44.029
878.015	39.074
881.828	4.762
885.639	17.444
889.448	2.672
893.256	37.812
897.061	113.776
900.865	75.53
904.668	38.081
908.468	69.495
912.267	95.798
916.064	129.994
919.86	127.074
923.653	121.02
927.445	3.774
931.236	29.386
935.024	8.889
938.811	40.245
942.596	55.487
946.379	54.608
950.161	49.67
953.94	6.774
957.719	60.906
961.495	53.079
965.27	53.291
969.043	90.546
972.814	152.885
976.583	111.323
980.351	192.82
984.117	609.11
987.882	929.296
991.644	1281.13
995.405	1166.62
999.165	524.848
1002.92	337.2
1006.68	323.565
1010.43	458.964
1014.18	536.397
1017.93	429.306
1021.68	429.609
1025.43	364.036
1029.18	423.665
1032.92	537.048
1036.66	653.633
1040.4	863.997
1044.14	829.348
1047.88	810.896
1051.62	848.29
1055.35	857.112
1059.08	966.431
1062.81	1078.75
1066.54	1199.01
1070.27	1403.34
1073.99	1453.91
1077.72	1556.05
1081.44	1683.33
1085.16	2068.51
1088.88	2495.01
1092.59	2889
1096.31	2853.14
1100.02	2624.29
1103.73	2255.14
1107.44	1819.31
1111.15	1715.95
1114.86	1572.99
1118.57	1368.45
1122.27	1274.3
1125.97	877.698
1129.67	631.2
1133.37	536.889
1137.07	513.184
1140.76	513.572
1144.45	406.755
1148.15	323.473
1151.84	213.13
1155.53	130.874
1159.21	49.781
1162.9	10.713
1166.58	39.403
1170.26	167.139
1173.94	170.908
1177.62	276.102
1181.3	270.997
1184.97	159.027
1188.65	214.766
1192.32	388.768
1195.99	497.559
1199.66	704.562
1203.33	952.444
1206.99	963.256
1210.65	852.454
1214.32	677.119
1217.98	461.075
1221.64	362.678
1225.29	293.67
1228.95	351.073
1232.6	423.182
1236.26	197.847
1239.91	262.04
1243.56	63.174
1247.2	99.465
1250.85	89.324
1254.49	79.745
1258.13	147.17
1261.78	280.164
1265.41	259.274
1269.05	227.772
1272.69	142.882
1276.32	102.01
1279.95	76.849
1283.59	100.046
1287.21	54.616
1290.84	157.223
1294.47	204.28
1298.09	137.627
1301.72	156.857
1305.34	35.743
1308.96	65.813
1312.58	95.999
1316.19	32.891
1319.81	55.888
1323.42	169.483
1327.03	248.506
1330.64	166.301
1334.25	73.668
1337.86	147.352
1341.46	4.957
1345.07	46.709
1348.67	76.826
1352.27	68.327
1355.87	54.821
1359.46	122.677
1363.06	283.2
1366.65	318.554
1370.25	156.082
1373.84	133.381
1377.43	73.978
1381.02	38.687
1384.6	43.858
1388.18	138.867
1391.77	117.797
1395.35	298.833
1398.93	240.735
1402.51	390.184
1406.08	427.389
1409.66	344.412
1413.23	204.669
1416.8	91.158
1420.37	50.81
1423.94	134.612
1427.51	103.136
1431.08	244.041
1434.64	298.652
1438.2	280.588
1441.76	360.573
1445.32	320.245
1448.88	273.241
1452.43	98.749
1455.99	142.898
1459.54	100.845
1463.09	59.844
1466.64	95.511
1470.19	188.006
1473.74	319.852
1477.28	290.801
1480.83	389.92
1484.37	404.235
1487.91	400.276
1491.45	268.166
1494.98	123.755
1498.52	74.174
1502.05	91.616
1505.59	77.083
1509.12	12.498
1512.65	147.034
1516.17	327.146
1519.7	0
