Measurement: Raman, 514 nm, ccw, Raman Data Processed
Mineral: Marialite
Rruff sample: R040043
Ideal chemistry: Na_4_Al_3_Si_9_O_24_Cl
Locality: Gouverneur, New York, USA
Source: University of Arizona Mineral Museum
Description: White prismatic crystals
Measured chemistry: (Na_.493_Ca_.446_K_.061_)_4_(Si_.634_Al_.366_)_12_O_24_((CO_3_)_.581_Cl_.419_)
Pin_id: S00036
Orientation: Laser parallel to c* (0 0 1). Fiducial mark perpendicular to laser is parallel to -a [-1 0 0]
Raman shift (cm-1)	intensity
103.124	0
107.3	2263.58
111.473	3032.59
115.644	958.307
119.813	265.609
123.981	548.699
128.146	823.992
132.309	1376.4
136.47	1052.23
140.63	2131.52
144.787	3748.12
148.942	6889.64
153.096	12231.6
157.247	17744.9
161.396	21741
165.544	20872.3
169.689	15219.6
173.833	9788.82
177.974	6709.85
182.114	5769.31
186.251	6442.07
190.387	7133.37
194.52	6886.64
198.652	6224.43
202.782	4999.22
206.909	4581.91
211.035	4529.72
215.159	4167.91
219.281	4328.62
223.4	4460.13
227.518	4242.46
231.634	3249.79
235.748	2072.2
239.86	1111.62
243.97	694.613
248.079	790.629
252.185	1493.72
256.289	3606.27
260.391	6729.93
264.492	8476.18
268.59	5126.99
272.687	2469.57
276.781	1141.11
280.874	1507.13
284.964	2728.87
289.053	4794.69
293.14	4252.03
297.225	3717.77
301.308	1519.38
305.389	61.563
309.468	717.433
313.545	809.521
317.62	620.217
321.693	219.418
325.765	801.033
329.834	1966.27
333.902	3930.8
337.967	4051.74
342.031	2302.19
346.093	1143.01
350.153	1005.45
354.21	1991.68
358.267	3752.89
362.321	4404.74
366.373	2351.45
370.423	1238.64
374.471	1367.74
378.518	1367.22
382.563	1339.6
386.605	1112.07
390.646	928.866
394.685	680.338
398.722	658.128
402.757	545.081
406.79	710.647
410.821	1199.5
414.851	1899.43
418.878	2959.61
422.904	3245.6
426.927	3456.15
430.949	3677.2
434.969	4795.95
438.987	6621.14
443.003	9651.85
447.018	15939.9
451.03	29806.8
455.041	45049.9
459.049	49270.1
463.056	44374.7
467.061	30901.2
471.064	17896
475.065	10375
479.064	6162
483.062	3945.92
487.057	2702.47
491.051	1835.26
495.043	1381.33
499.032	1030.31
503.02	758.703
507.007	587.709
510.991	736.332
514.973	585.443
518.954	714.518
522.933	1701.26
526.91	3529.22
530.885	7748.63
534.858	15715.6
538.829	16355.8
542.799	9512.28
546.766	4637.07
550.732	2779.36
554.696	1507.81
558.658	867.781
562.618	478.723
566.576	183.578
570.533	139.676
574.488	133.055
578.44	72.641
582.391	345.41
586.341	70.416
590.288	204.645
594.233	261.121
598.177	234.883
602.119	416.98
606.059	800.479
609.997	1180.43
613.933	1189.88
617.868	438.826
621.801	236.277
625.731	79.525
629.66	124.924
633.588	29.332
637.513	240.52
641.437	64.859
645.358	112.791
649.278	76.492
653.196	333.822
657.113	270.709
661.027	375.145
664.94	127.984
668.851	221.629
672.76	279.525
676.667	750.84
680.572	609.65
684.476	195.367
688.378	263.553
692.278	297.072
696.176	215.195
700.072	48.805
703.967	303.488
707.86	62.053
711.751	410.17
715.64	49.693
719.527	317.842
723.413	463.889
727.297	431.979
731.179	564.973
735.059	450.094
738.937	528.842
742.814	524.875
746.689	642.213
750.562	1350.88
754.433	1509.5
758.303	1944.51
762.17	3364.57
766.036	5271.95
769.901	7180.97
773.763	7505.1
777.624	6278.2
781.482	3230.7
785.339	1425.6
789.195	645.961
793.048	290.35
796.9	536.193
800.75	713.713
804.598	1186.45
808.445	1928.47
812.289	868.307
816.132	373.896
819.973	92.023
823.813	56.084
827.65	81.404
831.486	20.916
835.32	121.027
839.152	29.049
842.983	79.775
846.812	17.824
850.639	134.186
854.464	71.834
858.288	4.975
862.11	7.77
865.93	82.08
869.748	104.393
873.564	33.539
877.379	70.01
881.192	24.691
885.004	0.846
888.813	38.961
892.621	161.908
896.427	28.771
900.232	200.652
904.034	332.787
907.835	311.504
911.634	271.451
915.432	156.373
919.227	4.758
923.021	210.041
926.813	168.812
930.604	204.586
934.393	247.475
938.18	230.475
941.965	283.562
945.749	484.789
949.53	397.148
953.311	462.604
957.089	650.154
960.866	592.746
964.641	530.438
968.414	546.25
972.185	819.049
975.955	859.695
979.723	997.822
983.49	893.502
987.254	1165.87
991.017	1192.85
994.779	1108.19
998.538	954.496
1002.3	1445.62
1006.05	1306.32
1009.81	1199.14
1013.56	1285.49
1017.31	1563.93
1021.06	1713.49
1024.81	1624.29
1028.55	1976.58
1032.3	1779.47
1036.04	2091.7
1039.78	2679.04
1043.52	2753.62
1047.26	2562.29
1050.99	2961.81
1054.73	3220.2
1058.46	3563.46
1062.19	4153.35
1065.92	4432.29
1069.65	5109.02
1073.37	5654.43
1077.1	5200.74
1080.82	5255.01
1084.54	5270.05
1088.26	6441.49
1091.97	8527.26
1095.69	11499.6
1099.4	13393.2
1103.12	10652.6
1106.83	9161.96
1110.54	12642.9
1114.24	13830.2
1117.95	4629.62
1121.65	1756.86
1125.35	1111.68
1129.06	851.57
1132.75	455.971
1136.45	233.344
1140.15	215.141
1143.84	223.43
1147.53	186.803
1151.22	83.6
1154.91	218.217
1158.6	62.771
1162.28	3.258
1165.97	93.557
1169.65	463.211
1173.33	197.311
1177.01	41.795
1180.69	355.377
1184.36	462.58
1188.04	680.26
1191.71	840.561
1195.38	1128.53
1199.05	1537.05
1202.71	1360.33
1206.38	1471.36
1210.04	1119.06
1213.71	640.525
1217.37	657.084
1221.03	479.555
1224.68	532.766
1228.34	220.727
1231.99	32.16
1235.65	260.703
1239.3	372.98
1242.95	192.113
1246.59	369.887
1250.24	68.852
1253.88	54.82
1257.53	335.508
1261.17	44.172
1264.81	109.793
1268.45	303.023
1272.08	410.504
1275.72	266.547
1279.35	186.773
1282.98	81.102
1286.61	9.805
1290.24	155.094
1293.87	192.098
1297.49	205.902
1301.11	30.848
1304.73	96.988
1308.36	184.617
1311.97	380.809
1315.59	203.734
1319.2	382.801
1322.82	346.957
1326.43	221.582
1330.04	318.148
1333.65	177.465
1337.26	327.715
1340.86	406.656
1344.47	165.992
1348.07	332.656
1351.67	363.074
1355.27	148.191
1358.87	368.797
1362.46	382.777
1366.06	517.633
1369.65	19.66
1373.24	282.93
1376.83	147.289
1380.42	336.648
1384	415.887
1387.59	380.969
1391.17	70.945
1394.75	53.375
1398.33	88.957
1401.91	160.426
