Measurement: Raman, 514 nm, ccw, Raman Data Processed
Mineral: Marialite
Rruff sample: R040043
Ideal chemistry: Na_4_Al_3_Si_9_O_24_Cl
Locality: Gouverneur, New York, USA
Source: University of Arizona Mineral Museum
Description: White prismatic crystals
Measured chemistry: (Na_.493_Ca_.446_K_.061_)_4_(Si_.634_Al_.366_)_12_O_24_((CO_3_)_.581_Cl_.419_)
Pin_id: S00036
Orientation: Laser parallel to c* (0 0 1). Fiducial mark perpendicular to laser is parallel to -a [-1 0 0]
Raman shift (cm-1)	intensity
97.554	0
101.732	1595.14
105.908	6207.98
110.082	8188.08
114.254	4564.23
118.424	891.482
122.592	45.662
126.758	510.361
130.922	853.84
135.083	902.617
139.243	1324.13
143.401	2978.06
147.557	6206.62
151.711	11140.7
155.863	17547.6
160.013	21941.8
164.161	22494.2
168.308	17556.5
172.452	11298.4
176.594	7222.94
180.734	6064.33
184.872	6349.2
189.008	7142.03
193.143	7732.2
197.275	6844.66
201.405	6702.59
205.534	7773.48
209.66	7236.51
213.784	5472.98
217.907	4896.39
222.027	4921.34
226.146	4675.86
230.263	3754.23
234.377	2325.71
238.49	1384.6
242.601	702.133
246.709	488.903
250.816	1080.3
254.921	2692.44
259.024	5554.2
263.125	8035.93
267.224	5808.07
271.321	2239.39
275.416	562.077
279.51	59.473
283.601	80.164
287.69	595.998
291.778	679.542
295.863	1772.06
299.947	1432.1
304.029	148.729
308.108	659.854
312.186	806.838
316.262	732.179
320.336	431.412
324.408	15.825
328.478	729.63
332.546	1395.02
336.612	1666.38
340.677	1257.82
344.739	851.936
348.799	973.496
352.858	1762.13
356.915	3431.32
360.969	5055.66
365.022	3411.21
369.073	1781.4
373.122	1522.04
377.169	2003.27
381.215	1867.29
385.258	1722.47
389.299	1571.43
393.339	1259.62
397.376	1078.06
401.412	1088.57
405.446	1140.94
409.478	1574.17
413.508	2331.59
417.536	3366.57
421.562	3734.24
425.586	3587.27
429.609	4092.85
433.629	4749.68
437.648	6606.1
441.665	9166.8
445.68	13999.6
449.693	25766.4
453.704	42366.7
457.713	49412.5
461.721	47278.9
465.726	36195.3
469.73	22018.9
473.731	12583.9
477.731	7612.18
481.729	4734.48
485.725	3205.81
489.72	2178.71
493.712	1747.77
497.703	1260.83
501.691	1094.25
505.678	852.084
509.663	715.142
513.646	859.265
517.627	1068.41
521.607	1537.85
525.584	2703.27
529.56	6430.88
533.534	13442.9
537.506	17613.8
541.476	11729.9
545.444	6298.17
549.41	3331.64
553.375	1798
557.337	1107.96
561.298	789.226
565.257	545.071
569.214	376.622
573.17	341.161
577.123	237.21
581.075	226.485
585.024	206.053
588.972	180.089
592.918	119.166
596.863	178.665
600.805	134.873
604.746	473.244
608.685	638.35
612.621	312.055
616.557	146.341
620.49	2.83
624.421	244.879
628.351	97.166
632.279	93.054
636.205	76.8
640.129	37.456
644.051	148.25
647.972	143.202
651.89	256.209
655.807	185.034
659.722	342.715
663.636	471.288
667.547	153.461
671.457	116.826
675.365	291.814
679.271	274.389
683.175	194.634
687.077	3.884
690.978	20.121
694.877	22.94
698.774	137.333
702.669	89.53
706.562	250.686
710.454	310.93
714.344	433.388
718.232	395.036
722.118	356.877
726.002	377.974
729.885	556.857
733.766	407.854
737.645	353.987
741.522	384.103
745.397	428.998
749.271	835.882
753.143	1128.38
757.013	1820.48
760.881	2941.91
764.748	4602.73
768.613	6795.23
772.476	8614.92
776.337	8351.6
780.196	5461.37
784.054	2221.11
787.91	966.429
791.764	581.332
795.616	429.644
799.467	470.388
803.316	1034.29
807.163	1377.42
811.008	880.537
814.851	257.74
818.693	89.94
822.533	127.914
826.371	17.37
830.208	14.706
834.042	155.066
837.875	34.91
841.706	15.707
845.536	36.821
849.363	21.28
853.189	29.385
857.013	83.739
860.836	173.443
864.656	48.202
868.475	118.986
872.292	23.804
876.108	20.374
879.922	22.417
883.733	29.216
887.544	68.025
891.352	61.784
895.159	17.543
898.964	113.002
902.767	246.573
906.568	209.172
910.368	68.783
914.166	186.404
917.962	117.994
921.757	126.503
925.55	103.023
929.341	46.491
933.13	48.032
936.918	114.355
940.703	141.798
944.488	115.32
948.27	243.993
952.051	254.672
955.83	689.388
959.607	593.127
963.383	700.919
967.156	575.769
970.928	552.528
974.699	916.722
978.468	1202.44
982.234	1661.43
986	1575.59
989.763	1258.28
993.525	1113.03
997.285	1053.13
1001.04	1221.07
1004.8	1135.92
1008.55	1029.99
1012.31	1319.49
1016.06	1387.1
1019.81	1474.23
1023.56	1441.7
1027.31	1378.18
1031.05	1358.36
1034.79	1602.88
1038.53	1667.54
1042.27	1906.14
1046.01	2045.41
1049.75	2140.89
1053.48	2630.54
1057.22	3016.14
1060.95	3536.66
1064.68	4075.12
1068.4	4571.06
1072.13	5247.35
1075.86	5392.4
1079.58	4989.69
1083.3	5007.26
1087.02	5686.02
1090.74	7450.92
1094.45	10414.3
1098.17	12638.6
1101.88	11752.8
1105.59	8753.96
1109.3	10700.1
1113.01	14189.8
1116.71	7445.85
1120.42	2394.62
1124.12	1526.28
1127.82	1013.07
1131.52	696.084
1135.22	601.797
1138.91	347.123
1142.61	211.26
1146.3	156.094
1149.99	68.45
1153.68	62.999
1157.37	40.063
1161.06	7.328
1164.74	188.263
1168.42	62.359
1172.1	121.604
1175.78	277.362
1179.46	236.137
1183.14	268.365
1186.81	339.916
1190.48	494.254
1194.15	574.158
1197.83	791.161
1201.49	1030.47
1205.16	780.424
1208.82	546.135
1212.49	447.864
1216.15	285.252
1219.81	240.023
1223.46	150.426
1227.12	58.245
1230.78	47.176
1234.43	114.507
1238.08	166.3
1241.73	64.425
1245.38	147.984
1249.03	195.959
1252.67	63.278
1256.31	86.937
1259.95	57.715
1263.6	49.479
1267.23	92.57
1270.87	126.475
1274.51	72.198
1278.14	184.575
1281.77	146.099
1285.4	78.696
1289.03	127.656
1292.66	106.443
1296.28	4.427
1299.91	95.985
1303.53	229.216
1307.15	274.168
1310.77	98.918
1314.38	252.481
1318	208.248
1321.61	90.929
1325.23	244.095
1328.84	129.87
1332.45	111.096
1336.06	4.779
1339.66	156.65
1343.27	42.572
1346.87	213.709
1350.47	126.482
1354.07	253.334
1357.67	299.734
1361.26	173.998
1364.86	219.576
1368.45	74.73
1372.04	153.393
1375.63	217.559
1379.22	118.023
1382.81	162.119
1386.39	223.213
1389.98	173.527
1393.56	123.402
1397.14	182.859
1400.72	161.801
1404.3	15.625
1407.87	0
