Measurement: Raman, 514 nm, ccw, Raman Data Processed
Mineral: Marialite
Rruff sample: R050123
Ideal chemistry: Na_4_Al_3_Si_9_O_24_Cl
Locality: Pakistan
Source: Syed Shah
Description: Purple fragment
Measured chemistry: (Na_0.88_Ca_0.07_K_0.05_)_4_Al_3.00_Si_9.00_O_24_Cl_0.97
Pin_id: L00549
Orientation: Laser parallel to -a* (-1 0 0). Fiducial mark perpendicular to laser is parallel to -c [0 0 -1]
Raman shift (cm-1)	intensity
49.365	0
53.566	145.188
57.765	638.076
61.962	1062.83
66.157	744.853
70.349	1135.67
74.54	1038.08
78.729	453.843
82.916	312.295
87.101	102.899
91.284	25.615
95.465	474.193
99.644	1288.37
103.82	2404.52
107.995	3971.19
112.168	5492.26
116.339	6403.54
120.508	6341.45
124.675	5800.16
128.84	5025.58
133.003	4325.74
137.164	3725.13
141.323	3110.53
145.48	2759.37
149.635	2632.36
153.788	2750.35
157.939	3100.83
162.088	3097.89
166.235	2821.55
170.38	2339.83
174.523	2139.73
178.664	1980.09
182.803	1954.65
186.94	1958.46
191.076	1751.63
195.209	1648.17
199.34	1397.38
203.47	1178.22
207.597	1027.65
211.722	1096.68
215.846	1024.53
219.967	1109.71
224.087	1197.55
228.204	1283.03
232.32	1286.68
236.434	1366.01
240.545	1597.91
244.655	2212.22
248.763	3685
252.869	6450.04
256.973	10001.1
261.075	11538.3
265.175	8048.19
269.273	4888.56
273.369	3053.41
277.463	2096.96
281.556	1679.48
285.646	1593.75
289.734	1188.42
293.821	735.597
297.905	368.256
301.988	112.447
306.069	118.892
310.147	211.814
314.224	148.436
318.299	147.817
322.372	18.927
326.443	45.317
330.512	208.921
334.579	478.857
338.645	612.144
342.708	855.73
346.769	1649.29
350.829	2838.82
354.887	4942.56
358.942	6040.58
362.996	5628.88
367.048	4747.44
371.098	3640.25
375.146	2513.29
379.192	2087.56
383.236	1654.96
387.279	1358.49
391.319	1053.96
395.358	852.076
399.394	752.184
403.429	721.554
407.462	783.179
411.493	994.262
415.522	1320.46
419.549	1726.23
423.575	2176.86
427.598	2255.33
431.619	1836.98
435.639	1693.84
439.657	2000.06
443.673	3012.24
447.687	5532.18
451.699	10973.9
455.709	17707.2
459.717	16425.8
463.724	10111.9
467.728	6054.59
471.731	3942.3
475.732	2754.35
479.731	1769.2
483.728	1072.81
487.723	718.509
491.716	586.199
495.708	386.802
499.697	412.049
503.685	300.265
507.671	293.383
511.655	180.191
515.637	186.107
519.617	528.035
523.596	1072.71
527.572	2643.07
531.547	7165.27
535.52	17079.4
539.491	15273.6
543.46	6567.64
547.427	2793.66
551.393	1321.62
555.356	736.507
559.318	298.329
563.278	199.07
567.236	109.742
571.192	21.336
575.147	51.76
579.099	60.941
583.05	65.972
586.999	109.887
590.946	182.752
594.891	149.556
598.834	12.769
602.776	10.389
606.715	0.665
610.653	13.567
614.589	35.229
618.523	49.338
622.456	34.32
626.386	44.097
630.315	10.626
634.242	17.802
638.167	10.719
642.09	34.636
646.012	38.111
649.931	18.319
653.849	89.299
657.765	24.995
661.679	70.396
665.592	99.556
669.502	132.488
673.411	137.176
677.318	147.624
681.223	194.843
685.126	214.839
689.028	286.614
692.927	328.171
696.825	385.507
700.721	444.623
704.616	608.515
708.508	669.186
712.399	686.719
716.288	735.99
720.175	781.992
724.06	786.537
727.944	851.954
731.825	985.349
735.705	1082.75
739.584	1268.82
743.46	1591.01
747.334	1813.71
751.207	2114.65
755.078	2622.55
758.947	3264.94
762.815	4012.7
766.68	4917.36
770.544	5810.72
774.406	6467.24
778.267	8046.59
782.125	9694.37
785.982	10227.9
789.837	8283.99
793.69	4868.81
797.542	2547.25
801.391	1540.26
805.239	1082.69
809.085	778.081
812.93	591.292
816.772	558.591
820.613	215.951
824.452	337.5
828.29	291.696
832.125	165.779
835.959	236.032
839.791	246.381
843.621	132.752
847.45	141.022
851.277	118.198
855.102	113.28
858.925	160.274
862.746	39.185
866.566	79.014
870.384	117.768
874.2	19.549
878.015	10.981
881.828	64.495
885.639	41.953
889.448	67.574
893.256	3.25
897.061	30.055
900.865	24.92
904.668	6.75
908.468	24.542
912.267	23.596
916.064	68.276
919.86	1.197
923.653	8.781
927.445	0.25
931.236	29.521
935.024	102.151
938.811	25.74
942.596	6.279
946.379	33.689
950.161	36.868
953.94	50.574
957.719	22.342
961.495	98.222
965.27	121.201
969.043	99.254
972.814	92.363
976.583	210.546
980.351	355.858
984.117	720.265
987.882	1081.73
991.644	1365.3
995.405	1382.39
999.165	1042.39
1002.92	681.593
1006.68	557.994
1010.43	638.529
1014.18	709.568
1017.93	755.77
1021.68	708.013
1025.43	684.661
1029.18	637.985
1032.92	864.58
1036.66	982.438
1040.4	1197.72
1044.14	1269.05
1047.88	1313.13
1051.62	1539.43
1055.35	1679.43
1059.08	1809.83
1062.81	2038.5
1066.54	2229.13
1070.27	2597.3
1073.99	2924.42
1077.72	3464.17
1081.44	4093.99
1085.16	4859.65
1088.88	5737.16
1092.59	6687.86
1096.31	6699.22
1100.02	6311.07
1103.73	6043.44
1107.44	5435.48
1111.15	5112.19
1114.86	4744.39
1118.57	4146.71
1122.27	3879.32
1125.97	3016.73
1129.67	2582.66
1133.37	2105.94
1137.07	1658.07
1140.76	1445.97
1144.45	1155.44
1148.15	960.723
1151.84	864.94
1155.53	541.312
1159.21	296.151
1162.9	298.261
1166.58	216.967
1170.26	238.688
1173.94	305.555
1177.62	390.604
1181.3	299.264
1184.97	264.277
1188.65	299.691
1192.32	354.61
1195.99	337.392
1199.66	360.988
1203.33	460.04
1206.99	376.598
1210.65	317.576
1214.32	239.712
1217.98	134.047
1221.64	201.456
1225.29	297.337
1228.95	192.813
1232.6	134.646
1236.26	141.618
1239.91	164.757
1243.56	62.604
1247.2	72.967
1250.85	8.963
1254.49	71.502
1258.13	52.448
1261.78	133.243
1265.41	116.778
1269.05	217.422
1272.69	80.297
1276.32	123.629
1279.95	146.64
1283.59	75.811
1287.21	66.422
1290.84	102.386
1294.47	69.208
1298.09	56.891
1301.72	85.736
1305.34	55.001
1308.96	5.68
1312.58	9.873
1316.19	34.612
1319.81	11.016
1323.42	12.706
1327.03	93.168
1330.64	160.646
1334.25	143.847
1337.86	105.663
1341.46	104.882
1345.07	32.74
1348.67	84.794
1352.27	11.747
1355.87	31.054
1359.46	148.253
1363.06	187.526
1366.65	205.435
1370.25	132.893
1373.84	180.136
1377.43	186.38
1381.02	77.365
1384.6	111.506
1388.18	204.193
1391.77	131.652
1395.35	163.047
1398.93	204.262
1402.51	293.985
1406.08	320.836
1409.66	308.925
1413.23	257.455
1416.8	251.965
1420.37	278.71
1423.94	45.18
1427.51	41.932
1431.08	213.547
1434.64	181.611
1438.2	287.731
1441.76	336.377
1445.32	404.522
1448.88	343.688
1452.43	242.389
1455.99	190.887
1459.54	166.062
1463.09	161.634
1466.64	125.358
1470.19	160.148
1473.74	62.354
1477.28	223.353
1480.83	364.476
1484.37	318.254
1487.91	273.847
1491.45	358.121
1494.98	73.455
1498.52	218.359
1502.05	15.807
1505.59	21.845
1509.12	121.109
1512.65	49.131
1516.17	134.138
1519.7	0
