Measurement: Raman, 514 nm, ccw, Raman Data Processed
Mineral: Marialite
Rruff sample: R050123
Ideal chemistry: Na_4_Al_3_Si_9_O_24_Cl
Locality: Pakistan
Source: Syed Shah
Description: Purple fragment
Measured chemistry: (Na_0.88_Ca_0.07_K_0.05_)_4_Al_3.00_Si_9.00_O_24_Cl_0.97
Pin_id: L00138
Orientation: Laser parallel to c* (0 0 1). Fiducial mark perpendicular to laser is parallel to a [1 0 0]
Raman shift (cm-1)	intensity
49.365	0
53.566	122.858
57.765	512.109
61.962	1325.3
66.157	667.172
70.349	878.072
74.54	856.008
78.729	338.716
82.916	105.758
87.101	165.888
91.284	357.371
95.465	1684.82
99.644	3011.72
103.82	4951.4
107.995	6341.14
112.168	5054.93
116.339	3410.42
120.508	2869.01
124.675	3133.02
128.84	3345.36
133.003	4062.29
137.164	5250.31
141.323	6661.98
145.48	8265.03
149.635	10607.2
153.788	13077.4
157.939	14686.3
162.088	14434.6
166.235	12436.9
170.38	8999.06
174.523	7040.65
178.664	6551.67
182.803	6225.98
186.94	5101.74
191.076	4129.97
195.209	3656.95
199.34	3206.61
203.47	2953.44
207.597	2641.77
211.722	2120.62
215.846	1636.28
219.967	1479.06
224.087	1555.73
228.204	1621
232.32	1299.67
236.434	1151.2
240.545	1244.79
244.655	1348.62
248.763	1796.02
252.869	2959.08
256.973	5120.62
261.075	5614.4
265.175	3744.92
269.273	1988.16
273.369	996.082
277.463	465.67
281.556	275.855
285.646	202.483
289.734	168.51
293.821	137.952
297.905	200.841
301.988	31.181
306.069	95.187
310.147	221.553
314.224	176.058
318.299	33.584
322.372	10.068
326.443	89.098
330.512	223.62
334.579	391.535
338.645	400.819
342.708	462.238
346.769	617.833
350.829	1161.91
354.887	2156.35
358.942	2840.42
362.996	2505.18
367.048	2074.7
371.098	1481.95
375.146	950.974
379.192	632.768
383.236	521.118
387.279	419.963
391.319	287.297
395.358	227.118
399.394	290.448
403.429	295.471
407.462	359.091
411.493	424.08
415.522	714.655
419.549	936.002
423.575	1107.04
427.598	1418.25
431.619	1808.42
435.639	2377.01
439.657	3338.73
443.673	4857.01
447.687	8290.09
451.699	15870.5
455.709	27350
459.717	26260.9
463.724	15814.2
467.728	9216.33
471.731	5343.62
475.732	3132.86
479.731	2042.86
483.728	1463.51
487.723	1199.81
491.716	803.992
495.708	680.245
499.697	637.535
503.685	662.105
507.671	563.447
511.655	350.374
515.637	383.08
519.617	507.564
523.596	722.589
527.572	1104.99
531.547	2711.55
535.52	7946.73
539.491	8900.12
543.46	4112.52
547.427	1523.33
551.393	716.122
555.356	433.522
559.318	247.069
563.278	90.854
567.236	0.844
571.192	16.05
575.147	27.626
579.099	20.999
583.05	35.836
586.999	55.115
590.946	128.923
594.891	117.589
598.834	56.118
602.776	20.528
606.715	29.848
610.653	11.093
614.589	73.271
618.523	65.383
622.456	27.486
626.386	156.811
630.315	82.651
634.242	24.031
638.167	80.542
642.09	39.157
646.012	0.127
649.931	46.827
653.849	50.678
657.765	0.389
661.679	29.013
665.592	1.438
669.502	3.126
673.411	3.062
677.318	2.237
681.223	10.929
685.126	11.099
689.028	42.613
692.927	18.178
696.825	16.65
700.721	21.395
704.616	60.484
708.508	53.663
712.399	56.981
716.288	3.316
720.175	59.931
724.06	120.734
727.944	154.154
731.825	157.82
735.705	147.32
739.584	228.94
743.46	329.774
747.334	410.811
751.207	525.402
755.078	557.862
758.947	670.787
762.815	867.952
766.68	1152.52
770.544	1254.72
774.406	1256.25
778.267	1393.97
782.125	1570.39
785.982	1806.59
789.837	1492.08
793.69	862.518
797.542	407.495
801.391	324.541
805.239	309.029
809.085	432.327
812.93	592.444
816.772	317.39
820.613	99.346
824.452	58.126
828.29	145.12
832.125	118.679
835.959	44.742
839.791	73.911
843.621	4.739
847.45	73.355
851.277	95.511
855.102	38.02
858.925	54.546
862.746	24.707
866.566	27.165
870.384	51.781
874.2	79.186
878.015	45.412
881.828	29.4
885.639	70.224
889.448	12.229
893.256	80.663
897.061	72.467
900.865	80.15
904.668	50.723
908.468	2.196
912.267	33.564
916.064	114.844
919.86	121.049
923.653	89.166
927.445	88.186
931.236	30.882
935.024	3.914
938.811	38.619
942.596	95.242
946.379	71.784
950.161	24.211
953.94	43.582
957.719	31.937
961.495	77.269
965.27	113.584
969.043	75.857
972.814	136.131
976.583	111.091
980.351	207.097
984.117	415.962
987.882	742.629
991.644	996.453
995.405	971.777
999.165	558.026
1002.92	337.602
1006.68	338.847
1010.43	450.906
1014.18	564.839
1017.93	529.458
1021.68	489.786
1025.43	431.606
1029.18	432.333
1032.92	452.925
1036.66	543.732
1040.4	717.043
1044.14	616.124
1047.88	541.75
1051.62	545.669
1055.35	515.687
1059.08	648.114
1062.81	720.891
1066.54	868.115
1070.27	978.05
1073.99	1025.67
1077.72	1030.78
1081.44	1128.78
1085.16	1465.03
1088.88	1809.43
1092.59	2141.63
1096.31	2190.05
1100.02	1925.78
1103.73	1604.91
1107.44	1268.8
1111.15	1198.97
1114.86	1045.92
1118.57	982.063
1122.27	943.968
1125.97	671.854
1129.67	557.857
1133.37	364.514
1137.07	363.223
1140.76	328.356
1144.45	339.606
1148.15	281.32
1151.84	201.321
1155.53	89.74
1159.21	9.719
1162.9	27.39
1166.58	14.543
1170.26	238.39
1173.94	129.965
1177.62	214.354
1181.3	120.943
1184.97	115.788
1188.65	95.164
1192.32	176.953
1195.99	155.163
1199.66	408.264
1203.33	498.015
1206.99	529.317
1210.65	364.296
1214.32	284.015
1217.98	215.197
1221.64	151.074
1225.29	103.609
1228.95	138.594
1232.6	260.323
1236.26	237.822
1239.91	156.239
1243.56	39.598
1247.2	0.307
1250.85	32.974
1254.49	18.699
1258.13	74.204
1261.78	243.535
1265.41	169.071
1269.05	167.241
1272.69	121.544
1276.32	116.996
1279.95	82.686
1283.59	20.316
1287.21	65.679
1290.84	156.185
1294.47	236.909
1298.09	196.421
1301.72	213.558
1305.34	179.57
1308.96	5.734
1312.58	66.44
1316.19	35.317
1319.81	68.958
1323.42	105.135
1327.03	182.036
1330.64	173.14
1334.25	173.415
1337.86	104.948
1341.46	62.413
1345.07	46.34
1348.67	5.751
1352.27	7.799
1355.87	9.455
1359.46	129.979
1363.06	152.86
1366.65	217.673
1370.25	250.463
1373.84	75.697
1377.43	59.464
1381.02	14.708
1384.6	19.686
1388.18	54.027
1391.77	89.824
1395.35	217.51
1398.93	269.77
1402.51	324.46
1406.08	358.245
1409.66	242.035
1413.23	157.609
1416.8	119.653
1420.37	104.546
1423.94	72.38
1427.51	116.761
1431.08	204.625
1434.64	311.371
1438.2	277.308
1441.76	331.822
1445.32	369.361
1448.88	260.772
1452.43	228.338
1455.99	143.683
1459.54	154.645
1463.09	131.673
1466.64	83.15
1470.19	196.776
1473.74	208.165
1477.28	290.487
1480.83	394.901
1484.37	387.818
1487.91	375.771
1491.45	234.47
1494.98	165.511
1498.52	76.125
1502.05	101.041
1505.59	63.608
1509.12	18.713
1512.65	124.826
1516.17	238.294
1519.7	307.613
