Measurement: Raman, 514 nm, ccw, Raman Data Processed
Mineral: Marialite
Rruff sample: R040043
Ideal chemistry: Na_4_Al_3_Si_9_O_24_Cl
Locality: Gouverneur, New York, USA
Source: University of Arizona Mineral Museum
Description: White prismatic crystals
Measured chemistry: (Na_.493_Ca_.446_K_.061_)_4_(Si_.634_Al_.366_)_12_O_24_((CO_3_)_.581_Cl_.419_)
Pin_id: S00036
Orientation: Laser parallel to c* (0 0 1). Fiducial mark perpendicular to laser is parallel to -a [-1 0 0]
Raman shift (cm-1)	intensity
104.516	0
108.691	1894.77
112.864	1813.17
117.034	200.242
121.203	23.589
125.369	849.977
129.534	1518.18
133.696	1173.13
137.857	1515.98
142.016	2468.26
146.172	5029.33
150.327	8967.67
154.48	14890.7
158.63	20606.9
162.779	23162.6
166.926	19383.5
171.07	12950.8
175.213	8205.31
179.354	6359.44
183.493	6600.1
187.63	7339.58
191.765	7709.71
195.898	6956.47
200.029	5593.49
204.158	4729.91
208.285	4466.17
212.41	4346.22
216.533	4418.86
220.654	4564.17
224.773	4786.02
228.891	4073.9
233.006	2821.23
237.119	1694.5
241.231	933.284
245.34	738.373
249.448	1053.24
253.553	2431.36
257.657	5409.59
261.758	8479.05
265.858	7622.24
269.956	3862.7
274.052	1824.97
278.146	1403.93
282.237	2159
286.327	4400.89
290.416	5405.21
294.502	3910.04
298.586	3155.94
302.668	511.451
306.749	500.196
310.827	750.701
314.903	617.819
318.978	375.281
323.051	300.127
327.121	1239.84
331.19	3151.61
335.257	4504.71
339.322	3526.14
343.385	1851.53
347.446	1125.76
351.505	1441.32
355.563	2859.79
359.618	4687.15
363.672	3867.76
367.723	1723.29
371.773	1067.55
375.821	1267.63
379.866	1505.92
383.91	1343.6
387.952	1041.87
391.992	821.39
396.031	677.233
400.067	603.437
404.101	705.84
408.134	880.767
412.165	1421.88
416.193	2216.66
420.22	3126.07
424.245	3206.95
428.268	3452.07
432.289	4106.55
436.309	5400.46
440.326	7958.05
444.342	12132.5
448.355	21777.1
452.367	40524
456.377	49584.2
460.385	51091.6
464.391	40375.4
468.395	25148.8
472.398	14539.9
476.398	8313.52
480.397	4980.73
484.394	3197.75
488.389	2243.69
492.382	1659.36
496.373	1304.25
500.362	924.493
504.349	710.091
508.335	557.286
512.319	629.181
516.3	816.151
520.28	1160.45
524.259	2306.7
528.235	4928.7
532.209	11311.4
536.182	18172
540.152	13901.6
544.121	7414.3
548.088	3862.61
552.053	2052.51
556.017	1114.97
559.978	642.694
563.938	325.709
567.895	227.158
571.851	208.516
575.805	124.721
579.758	173.823
583.708	138.348
587.657	224.292
591.603	125.636
595.548	252.372
599.491	275.542
603.432	710.199
607.372	973.4
611.309	1389.2
615.245	724.613
619.179	267.646
623.111	63.379
627.041	126.761
630.97	11.149
634.896	181.155
638.821	89.684
642.744	87.08
646.665	36.571
650.584	127.402
654.502	134.12
658.418	303.655
662.331	323.902
666.244	366.463
670.154	72.735
674.062	275.013
677.969	790.72
681.874	397.188
685.777	103.738
689.678	15.494
693.577	77.688
697.475	48.539
701.371	167.402
705.265	353.261
709.157	388.463
713.047	225.243
716.936	339.587
720.823	341.738
724.708	456.102
728.591	570.255
732.472	442.855
736.352	404.743
740.23	438.004
744.106	677.28
747.98	935.657
751.853	1198
755.723	1463.16
759.592	2445.68
763.459	4068.73
767.325	5812.22
771.188	7307.91
775.05	7298.25
778.91	4695.9
782.768	2159.27
786.625	917.808
790.479	506.346
794.332	476.143
798.183	580.272
802.033	996.566
805.88	1953.9
809.726	1670.54
813.57	697.745
817.413	77.303
821.253	1.843
825.092	14.583
828.929	60.568
832.764	4.107
836.598	16.047
840.429	69.458
844.259	64.226
848.088	27.625
851.914	92.818
855.739	10.258
859.562	34.424
863.383	98.075
867.203	108.664
871.02	83.188
874.836	7.331
878.65	30.066
882.463	75.414
886.274	35.346
890.083	61.265
893.89	12.461
897.695	84.296
901.499	228.966
905.301	167.611
909.102	135.227
912.9	63.784
916.697	38.733
920.492	133.585
924.285	183.81
928.077	12.941
931.867	51.06
935.655	13.187
939.442	5.34
943.226	5.32
947.009	206.848
950.791	354.125
954.57	418.912
958.348	473.646
962.124	390.944
965.899	443.352
969.671	387.863
973.442	514.475
977.211	572.502
980.979	735.588
984.745	1036.54
988.509	1051.4
992.271	972.587
996.032	849.169
999.791	1155.14
1003.55	1057.4
1007.3	980.144
1011.06	921.111
1014.81	1035.13
1018.56	1204.03
1022.31	1344.42
1026.06	1379.8
1029.8	1591.59
1033.55	1627.86
1037.29	2028.56
1041.03	2204.82
1044.77	2305.4
1048.5	2564.39
1052.24	2849.37
1055.97	3083.61
1059.7	3592.16
1063.43	4109.88
1067.16	4999.28
1070.89	5424.63
1074.61	5649.44
1078.34	5423.68
1082.06	4978.6
1085.78	5408.1
1089.5	6612.52
1093.21	9421.26
1096.93	12478.2
1100.64	12455.2
1104.35	9711.99
1108.06	9348.53
1111.77	13747.8
1115.48	10815.3
1119.18	2497.89
1122.89	1482.91
1126.59	945.938
1130.29	665.781
1133.99	536.875
1137.68	591.293
1141.38	123.914
1145.07	75.823
1148.76	18.572
1152.45	88.474
1156.14	14.181
1159.83	183.99
1163.51	187.697
1167.19	305.188
1170.88	210.063
1174.56	353.002
1178.23	428.408
1181.91	390.036
1185.59	442.714
1189.26	656.778
1192.93	741.633
1196.6	1096.43
1200.27	1296.84
1203.94	1386.57
1207.6	975.772
1211.27	862.85
1214.93	652.27
1218.59	338.294
1222.25	160.962
1225.9	114.151
1229.56	106.777
1233.21	1.26
1236.86	67.953
1240.51	67.72
1244.16	64.221
1247.81	169.396
1251.45	39.548
1255.1	103.078
1258.74	59.602
1262.38	68.242
1266.02	52.35
1269.66	55.141
1273.29	30.809
1276.93	96.902
1280.56	130.895
1284.19	21.287
1287.82	86.395
1291.45	48.723
1295.07	141.9
1298.7	249.211
1302.32	37.23
1305.94	30.934
1309.56	202.422
1313.18	72.783
1316.8	404.105
1320.41	289.807
1324.02	256.859
1327.63	260.879
1331.24	116.855
1334.85	150.838
1338.46	5.271
1342.06	67.461
1345.67	85.486
1349.27	154.033
1352.87	232.35
1356.47	317.766
1360.07	371.729
1363.66	166.58
1367.25	264.467
1370.85	174.852
1374.44	108.393
1378.03	124.041
1381.61	53.973
1385.2	14.654
1388.78	313.865
1392.37	93.281
1395.95	190.893
1399.53	175.98
1403.1	140.545
1406.68	4.666
1410.26	0
