Measurement: Raman, 514 nm, ccw, Raman Data Processed
Mineral: Marialite
Rruff sample: R050123
Ideal chemistry: Na_4_Al_3_Si_9_O_24_Cl
Locality: Pakistan
Source: Syed Shah
Description: Purple fragment
Measured chemistry: (Na_0.88_Ca_0.07_K_0.05_)_4_Al_3.00_Si_9.00_O_24_Cl_0.97
Pin_id: L00138
Orientation: Laser parallel to c* (0 0 1). Fiducial mark perpendicular to laser is parallel to a [1 0 0]
Raman shift (cm-1)	intensity
49.365	0
53.566	274.196
57.765	1007.55
61.962	1600.29
66.157	1266.89
70.349	1317.45
74.54	794.545
78.729	220.076
82.916	40.646
87.101	138.025
91.284	205.292
95.465	883.502
99.644	1817.34
103.82	3300.06
107.995	4846.02
112.168	3992.99
116.339	3174.14
120.508	2859.45
124.675	3149.57
128.84	3321.4
133.003	3903.07
137.164	5115.29
141.323	6244.1
145.48	7603.8
149.635	10063.6
153.788	12780.9
157.939	14537.2
162.088	14653.5
166.235	12249.9
170.38	9026.21
174.523	7102.58
178.664	6518.97
182.803	5980.81
186.94	4957.16
191.076	3822.02
195.209	3254.12
199.34	2557.77
203.47	2081.42
207.597	1885.06
211.722	1779.69
215.846	1590.77
219.967	1521.5
224.087	1591.13
228.204	1647.4
232.32	1368.67
236.434	1229.74
240.545	1342.63
244.655	1418.53
248.763	1898.17
252.869	3117.16
256.973	5134.3
261.075	5838.28
265.175	3973.48
269.273	2306.78
273.369	1685.17
277.463	1567.61
281.556	1778.09
285.646	1942.55
289.734	1852.95
293.821	2283.29
297.905	2898.57
301.988	1719.78
306.069	603.88
310.147	23.851
314.224	138.371
318.299	74.005
322.372	41.064
326.443	31.596
330.512	177.123
334.579	393.567
338.645	390.92
342.708	399.205
346.769	524.306
350.829	985.637
354.887	2022.61
358.942	2671.53
362.996	2308.44
367.048	1892.31
371.098	1193.11
375.146	652.842
379.192	371.451
383.236	248.682
387.279	116.501
391.319	16.101
395.358	22.48
399.394	33.494
403.429	19.061
407.462	4.962
411.493	132.778
415.522	374.604
419.549	609.066
423.575	828.925
427.598	1075.86
431.619	1484.04
435.639	2034.87
439.657	2923.45
443.673	4534.6
447.687	8013.61
451.699	15982.6
455.709	27421.4
459.717	26009.8
463.724	15387.9
467.728	8935.91
471.731	5084.31
475.732	2935.16
479.731	1830.5
483.728	1308.04
487.723	995.448
491.716	680.434
495.708	492.205
499.697	547.951
503.685	618.081
507.671	466.979
511.655	252.65
515.637	237.777
519.617	428.562
523.596	654.073
527.572	1058.18
531.547	2659.15
535.52	8206.06
539.491	8881.77
543.46	3637.18
547.427	1428.79
551.393	766.262
555.356	449.843
559.318	257.242
563.278	62.073
567.236	31.444
571.192	20.312
575.147	12.064
579.099	18.791
583.05	35.265
586.999	119.522
590.946	160.591
594.891	211.477
598.834	183.183
602.776	153.71
606.715	188.061
610.653	196.234
614.589	197.242
618.523	289.093
622.456	316.806
626.386	464.354
630.315	386.755
634.242	145.126
638.167	6.309
642.09	1.608
646.012	44.035
649.931	59.471
653.849	45.683
657.765	12.302
661.679	55.535
665.592	29.886
669.502	25.999
673.411	34.795
677.318	34.604
681.223	9.226
685.126	56.121
689.028	110.091
692.927	111.127
696.825	0.362
700.721	14.049
704.616	140.431
708.508	168.531
712.399	81.858
716.288	80.361
720.175	73.301
724.06	158.975
727.944	240.317
731.825	211.23
735.705	206.037
739.584	237.715
743.46	364.128
747.334	552.174
751.207	696.688
755.078	683.167
758.947	800.593
762.815	943.024
766.68	1186.95
770.544	1289.01
774.406	1353.08
778.267	1364.81
782.125	1653.16
785.982	1905.73
789.837	1589.68
793.69	930.709
797.542	519.762
801.391	438.508
805.239	639.254
809.085	1080.69
812.93	1566.34
816.772	969.95
820.613	326.016
824.452	143.013
828.29	200.299
832.125	157.926
835.959	65.688
839.791	40.254
843.621	35.646
847.45	65.553
851.277	130.337
855.102	89.761
858.925	47.686
862.746	8.581
866.566	32.972
870.384	37.516
874.2	65.928
878.015	20.431
881.828	3.006
885.639	33.407
889.448	24.935
893.256	61.431
897.061	96.706
900.865	88.883
904.668	13.968
908.468	33.962
912.267	32.871
916.064	95.695
919.86	53.431
923.653	119.065
927.445	31.547
931.236	13.083
935.024	8.193
938.811	30.382
942.596	49.464
946.379	63.446
950.161	26.34
953.94	7.196
957.719	5.062
961.495	72.894
965.27	112.683
969.043	94.467
972.814	83.296
976.583	73.157
980.351	115.05
984.117	361.852
987.882	652.422
991.644	884.836
995.405	851.493
999.165	407.025
1002.92	254.916
1006.68	208.543
1010.43	318.869
1014.18	288.441
1017.93	297.706
1021.68	354.045
1025.43	297.161
1029.18	276.598
1032.92	574.869
1036.66	458.738
1040.4	657.347
1044.14	652.921
1047.88	642.815
1051.62	632.297
1055.35	715.041
1059.08	798.051
1062.81	839.075
1066.54	948.241
1070.27	1049.34
1073.99	1061.33
1077.72	1051.13
1081.44	1220.47
1085.16	1426.84
1088.88	1852.47
1092.59	2220.18
1096.31	2149.02
1100.02	1944.8
1103.73	1580.52
1107.44	1263.08
1111.15	1190.16
1114.86	1101.51
1118.57	956.579
1122.27	954.563
1125.97	642.418
1129.67	418.351
1133.37	343.245
1137.07	363.832
1140.76	354.617
1144.45	276.893
1148.15	300.574
1151.84	214.514
1155.53	125.584
1159.21	4.423
1162.9	14.114
1166.58	3.914
1170.26	158.115
1173.94	191.762
1177.62	277.855
1181.3	198.039
1184.97	113.726
1188.65	145.994
1192.32	183.488
1195.99	293.741
1199.66	460.495
1203.33	727.715
1206.99	835.409
1210.65	614.231
1214.32	509.255
1217.98	319.305
1221.64	197.712
1225.29	207.735
1228.95	248.898
1232.6	281.448
1236.26	211.572
1239.91	189.083
1243.56	41.839
1247.2	5.649
1250.85	23.607
1254.49	19.476
1258.13	142.362
1261.78	200.406
1265.41	246.263
1269.05	213.117
1272.69	226.755
1276.32	113.927
1279.95	122.371
1283.59	5.535
1287.21	95.066
1290.84	136.604
1294.47	222.964
1298.09	253.556
1301.72	244.976
1305.34	101.037
1308.96	32.146
1312.58	39.655
1316.19	1.912
1319.81	82.294
1323.42	90.167
1327.03	168.692
1330.64	241.807
1334.25	191.779
1337.86	91.794
1341.46	45.186
1345.07	61.646
1348.67	23.659
1352.27	33.983
1355.87	31.284
1359.46	139.425
1363.06	188.445
1366.65	335.104
1370.25	246.638
1373.84	50.297
1377.43	67.059
1381.02	43.007
1384.6	20.875
1388.18	47.531
1391.77	86.995
1395.35	112.543
1398.93	273.845
1402.51	249.272
1406.08	329.231
1409.66	262.202
1413.23	150.551
1416.8	128.957
1420.37	44.242
1423.94	70.383
1427.51	162.589
1431.08	178.161
1434.64	210.802
1438.2	284.142
1441.76	431.905
1445.32	374.233
1448.88	298.903
1452.43	151.163
1455.99	136.789
1459.54	21.792
1463.09	76.295
1466.64	86.854
1470.19	164.571
1473.74	207.204
1477.28	278.67
1480.83	314.124
1484.37	398.933
1487.91	275.304
1491.45	227.676
1494.98	176.057
1498.52	47.709
1502.05	18.075
1505.59	55.273
1509.12	48.295
1512.65	99.472
1516.17	158.696
1519.7	272.502
