Measurement: Raman, 514 nm, ccw, Raman Data Processed
Mineral: Marialite
Rruff sample: R040043
Ideal chemistry: Na_4_Al_3_Si_9_O_24_Cl
Locality: Gouverneur, New York, USA
Source: University of Arizona Mineral Museum
Description: White prismatic crystals
Measured chemistry: (Na_.493_Ca_.446_K_.061_)_4_(Si_.634_Al_.366_)_12_O_24_((CO_3_)_.581_Cl_.419_)
Pin_id: S00028
Orientation: Laser parallel to a* (1 0 0). Fiducial mark perpendicular to laser is parallel to c [0 0 1]
Raman shift (cm-1)	intensity
104.516	0
108.691	1850.12
112.864	1812.98
117.034	1093.56
121.203	180.479
125.369	204.256
129.534	488.635
133.696	489.547
137.857	755.035
142.016	594.951
146.172	1921.01
150.327	4140.39
154.48	7703.76
158.63	11265.2
162.779	13094.5
166.926	11277.4
171.07	7770.91
175.213	4596.82
179.354	3321.34
183.493	3193.15
187.63	3382.7
191.765	3710.81
195.898	3846.04
200.029	3239.13
204.158	2715.14
208.285	3111.72
212.41	3132.37
216.533	3291.2
220.654	3138.22
224.773	3215.73
228.891	2659.98
233.006	1958.88
237.119	1086.08
241.231	589.232
245.34	523.109
249.448	591.004
253.553	1965.38
257.657	4215.7
261.758	5994.44
265.858	5100.65
269.956	2554.11
274.052	870.75
278.146	519.59
282.237	1109.31
286.327	2063.66
290.416	3119.33
294.502	3176.44
298.586	2260.44
302.668	463.748
306.749	487.471
310.827	708.867
314.903	735.393
318.978	565.135
323.051	126.029
327.121	209.834
331.19	1206.37
335.257	2028.42
339.322	2127.03
343.385	1489.41
347.446	1132.89
351.505	1421.91
355.563	2537.97
359.618	3938.68
363.672	3700.91
367.723	2253.6
371.773	1763.76
375.821	1838.74
379.866	2203.55
383.91	2084.2
387.952	1966.12
391.992	1678.98
396.031	1635.94
400.067	1281.04
404.101	1410.18
408.134	1629.65
412.165	1869.86
416.193	2823.55
420.22	3898.45
424.245	3712.14
428.268	3474.35
432.289	4101.63
436.309	5140.6
440.326	7705.3
444.342	12716
448.355	20795.6
452.367	34154.9
456.377	39439
460.385	38950.9
464.391	31530.3
468.395	20835.5
472.398	13194.7
476.398	8145.23
480.397	5730.34
484.394	3868.58
488.389	2826.09
492.382	2116.65
496.373	1660.48
500.362	1189.91
504.349	1071.87
508.335	629.982
512.319	871.295
516.3	1288.16
520.28	1782.19
524.259	2929.93
528.235	6055.73
532.209	11668.9
536.182	14032.6
540.152	9134.6
544.121	5147.34
548.088	2939.58
552.053	1683.12
556.017	1121.11
559.978	609.562
563.938	604.748
567.895	513.389
571.851	369.129
575.805	409.715
579.758	455.406
583.708	384.152
587.657	386.945
591.603	193.818
595.548	343.758
599.491	373.934
603.432	558.385
607.372	604.1
611.309	824.152
615.245	603.537
619.179	169.254
623.111	21.707
627.041	113.49
630.97	172.221
634.896	192.869
638.821	89.082
642.744	94.785
646.665	128.217
650.584	43.129
654.502	156.561
658.418	389.08
662.331	78.848
666.244	453.9
670.154	196.068
674.062	376.439
677.969	857.627
681.874	394.693
685.777	464.418
689.678	120.963
693.577	396.223
697.475	190.959
701.371	686.678
705.265	908.906
709.157	975.688
713.047	1089.53
716.936	651.529
720.823	740.373
724.708	711.303
728.591	918.326
732.472	768.963
736.352	782.857
740.23	879.729
744.106	1098.73
747.98	1463.8
751.853	1805.7
755.723	2079.94
759.592	3169.7
763.459	4511.57
767.325	6042.65
771.188	6621.65
775.05	5937.95
778.91	3296.26
782.768	1789.5
786.625	686.955
790.479	627.16
794.332	548.93
798.183	695.33
802.033	1023.65
805.88	1549.73
809.726	873.674
813.57	332.562
817.413	58.145
821.253	45.201
825.092	181.785
828.929	146.814
832.764	523.893
836.598	3.701
840.429	152.406
844.259	183.248
848.088	49.717
851.914	70.059
855.739	88.061
859.562	86.654
863.383	16.34
867.203	109.414
871.02	166
874.836	88.381
878.65	271.543
882.463	155.506
886.274	56.178
890.083	162.541
893.89	30.252
897.695	306.773
901.499	11.699
905.301	210.533
909.102	392.66
912.9	262.916
916.697	25.588
920.492	351.658
924.285	269.723
928.077	4.316
931.867	441.639
935.655	139.75
939.442	276.035
943.226	124.393
947.009	410.936
950.791	767.604
954.57	784.416
958.348	820.377
962.124	939.436
965.899	946.652
969.671	978.438
973.442	834.498
977.211	768.154
980.979	1070.8
984.745	1261.24
988.509	1454.26
992.271	1389.48
996.032	1330.18
999.791	1855.04
1003.55	1654.79
1007.3	1554.29
1011.06	1525.87
1014.81	1535.43
1018.56	1627.79
1022.31	1881.62
1026.06	2185.93
1029.8	2469.09
1033.55	2732.5
1037.29	2657.09
1041.03	2748.13
1044.77	3089.93
1048.5	3311.97
1052.24	3323.01
1055.97	3259.08
1059.7	3608.36
1063.43	4012.03
1067.16	4654.89
1070.89	4851.85
1074.61	5022.96
1078.34	5398.75
1082.06	5698.02
1085.78	8244.13
1089.5	10209.1
1093.21	12266.5
1096.93	13174.2
1100.64	12422.2
1104.35	13375.7
1108.06	15109.6
1111.77	12228.1
1115.48	4869.27
1119.18	1578.5
1122.89	2463.29
1126.59	1234.09
1130.29	990.152
1133.99	358.902
1137.68	552.734
1141.38	462.531
1145.07	346.965
1148.76	10.258
1152.45	150.23
1156.14	92.695
1159.83	432.773
1163.51	469.129
1167.19	705.867
1170.88	333.949
1174.56	560.867
1178.23	558.695
1181.91	763.504
1185.59	622.766
1189.26	974.211
1192.93	1137.98
1196.6	1173.28
1200.27	1300.95
1203.94	1240.62
1207.6	585.703
1211.27	517.047
1214.93	548.32
1218.59	849.988
1222.25	65.289
1225.9	128.852
1229.56	170.523
1233.21	194.125
1236.86	215.133
1240.51	122.762
1244.16	19.723
1247.81	147.691
1251.45	5.082
1255.1	15.969
1258.74	213.578
1262.38	147.68
1266.02	281.367
1269.66	2.105
1273.29	42.641
1276.93	114.473
1280.56	419.879
1284.19	365.168
1287.82	356.559
1291.45	363.699
1295.07	336.41
1298.7	188.738
1302.32	327.797
1305.94	283.441
1309.56	401.219
1313.18	224.512
1316.8	198.871
1320.41	280.355
1324.02	237.91
1327.63	436.637
1331.24	396.785
1334.85	348.418
1338.46	44.613
1342.06	1.727
1345.67	131.648
1349.27	177.742
1352.87	451.875
1356.47	508.262
1360.07	672.988
1363.66	301.773
1367.25	355.418
1370.85	91.883
1374.44	168.961
1378.03	128.262
1381.61	64.359
1385.2	192.617
