Measurement: Raman, 514 nm, ccw, Raman Data Processed
Mineral: Marialite
Rruff sample: R040043
Ideal chemistry: Na_4_Al_3_Si_9_O_24_Cl
Locality: Gouverneur, New York, USA
Source: University of Arizona Mineral Museum
Description: White prismatic crystals
Measured chemistry: (Na_.493_Ca_.446_K_.061_)_4_(Si_.634_Al_.366_)_12_O_24_((CO_3_)_.581_Cl_.419_)
Pin_id: S00028
Orientation: Laser parallel to a* (1 0 0). Fiducial mark perpendicular to laser is parallel to c [0 0 1]
Raman shift (cm-1)	intensity
105.908	0
110.082	954.182
114.254	1443.88
118.424	671.689
122.592	646.793
126.758	1264.4
130.922	1598.78
135.083	1495.17
139.243	823.602
143.401	475.91
147.557	1414.72
151.711	3075.72
155.863	6500.53
160.013	9257.17
164.161	10222.9
168.308	8032.85
172.452	4816.99
176.594	2380.62
180.734	1456.68
184.872	1628.14
189.008	1940.63
193.143	2712.46
197.275	2365.17
201.405	1837.71
205.534	1923.74
209.66	2104.84
213.784	2180.18
217.907	2742.07
222.027	2950.43
226.146	2515.2
230.263	1958.69
234.377	1179.94
238.49	565.072
242.601	17.129
246.709	150.443
250.816	738.475
254.921	2265.94
259.024	4733.55
263.125	6212.34
267.224	4598.15
271.321	2045.67
275.416	673.6
279.51	410.111
283.601	1057.87
287.69	1879.63
291.778	2716.58
295.863	3430.55
299.947	2100.09
304.029	244.697
308.108	395.789
312.186	827.861
316.262	687.195
320.336	561.5
324.408	275.713
328.478	385.102
332.546	1303.08
336.612	2057.22
340.677	1982.81
344.739	1329.43
348.799	1186.6
352.858	1732.13
356.915	3051.95
360.969	4382.06
365.022	3680.91
369.073	2404.72
373.122	2103.98
377.169	2547.36
381.215	2769.09
385.258	3064.28
389.299	2353.18
393.339	1919.53
397.376	1716.28
401.412	1420.86
405.446	1622.35
409.478	2022.04
413.508	2523.04
417.536	3416.4
421.562	3798.58
425.586	3722.99
429.609	3414.8
433.629	3988.42
437.648	5704.72
441.665	8405.65
445.68	13583.1
449.693	22544.2
453.704	34082.7
457.713	37855.4
461.721	36710.2
465.726	28849.7
469.73	18691.7
473.731	11383
477.731	7589.28
481.729	4943.42
485.725	3464.52
489.72	2431.09
493.712	1840.19
497.703	1530.68
501.691	1244.72
505.678	1015.1
509.663	816.879
513.646	1164.03
517.627	1409.83
521.607	2045.45
525.584	3853.06
529.56	7831.16
533.534	13674.6
537.506	13861.8
541.476	8719.07
545.444	4681.93
549.41	2675.45
553.375	1622.69
557.337	1299.79
561.298	913.934
565.257	848.91
569.214	685.492
573.17	638.973
577.123	255.354
581.075	196.582
585.024	398.684
588.972	590.709
592.918	473.684
596.863	151.717
600.805	329.008
604.746	764.561
608.685	1047.38
612.621	588.402
616.557	439.602
620.49	77.938
624.421	403.582
628.351	28.533
632.279	69.941
636.205	58.789
640.129	164.996
644.051	197.16
647.972	92.68
651.89	28.428
655.807	31.756
659.722	345.576
663.636	570.9
667.547	17.844
671.457	121.102
675.365	596.434
679.271	680.662
683.175	318.988
687.077	109.898
690.978	302.359
694.877	13.59
698.774	678.248
702.669	755.979
706.562	868.52
710.454	698.145
714.344	1065.89
718.232	1070.07
722.118	818.002
726.002	934.031
729.885	857.135
733.766	881.354
737.645	983.432
741.522	1143.6
745.397	1366.31
749.271	1772.31
753.143	2285.7
757.013	3283.02
760.881	3963.2
764.748	5292.27
768.613	7244.43
772.476	7714.76
776.337	5776.65
780.196	3581.2
784.054	1671.61
787.91	1232.64
791.764	667.258
795.616	909.273
799.467	957.936
803.316	1605.89
807.163	1309.87
811.008	638.973
814.851	136.922
818.693	9.324
822.533	136.277
826.371	306.695
830.208	155.969
834.042	135.031
837.875	86.328
841.706	56.535
845.536	126.027
849.363	37.152
853.189	63.246
857.013	105.238
860.836	41.242
864.656	13.684
868.475	258.074
872.292	112.609
876.108	89.047
879.922	65.898
883.733	203.512
887.544	302.934
891.352	203.211
895.159	9.625
898.964	254.367
902.767	363.246
906.568	375.035
910.368	91.758
914.166	567.363
917.962	364.77
921.757	161.02
925.55	325.16
929.341	233.27
933.13	56.336
936.918	583.43
940.703	371.625
944.488	539.938
948.27	593.328
952.051	800.688
955.83	879.172
959.607	865.734
963.383	867.559
967.156	965.035
970.928	673.184
974.699	1333.14
978.468	1061.82
982.234	1838.64
986	1714.2
989.763	1360.66
993.525	1525.77
997.285	1911.97
1001.04	1684.29
1004.8	1803.56
1008.55	1881.9
1012.31	1938.25
1016.06	2053.08
1019.81	1995.46
1023.56	2469.31
1027.31	2334.06
1031.05	2620.16
1034.79	2837.26
1038.53	2890.23
1042.27	3159.21
1046.01	3244.4
1049.75	3086.46
1053.48	3340.35
1057.22	3622.67
1060.95	3741.87
1064.68	4242.35
1068.4	4372.93
1072.13	4824.19
1075.86	5166.74
1079.58	5545.44
1083.3	7128.47
1087.02	10092.9
1090.74	11372.3
1094.45	12638.1
1098.17	13133.9
1101.88	12644.1
1105.59	13674.9
1109.3	14937.7
1113.01	9963.62
1116.71	3782.63
1120.42	1640.83
1124.12	2041.95
1127.82	641.293
1131.52	791.703
1135.22	810.504
1138.91	313.16
1142.61	142.75
1146.3	154.441
1149.99	25.145
1153.68	97.754
1157.37	147.273
1161.06	106.508
1164.74	398.32
1168.42	532.531
1172.1	317.312
1175.78	544.496
1179.46	555.012
1183.14	612.086
1186.81	1071.02
1190.48	981.91
1194.15	1320.14
1197.83	1190.25
1201.49	1123.68
1205.16	1138.78
1208.82	742.285
1212.49	765.441
1216.15	453.004
1219.81	236.68
1223.46	263.34
1227.12	696.477
1230.78	149.766
1234.43	154.883
1238.08	58.18
1241.73	392.039
1245.38	195.344
1249.03	451.188
1252.67	235.93
1256.31	238.961
1259.95	292.617
1263.6	205.184
1267.23	6.574
1270.87	175.164
1274.51	30.449
1278.14	202.664
1281.77	224.008
1285.4	163.539
1289.03	101.105
1292.66	161.988
1296.28	315.527
1299.91	193.363
1303.53	204.504
1307.15	402.012
1310.77	331.098
1314.38	597.398
1318	218.07
1321.61	62.711
1325.23	613.48
1328.84	255.719
1332.45	126.176
1336.06	291.41
1339.66	733.492
1343.27	614.469
1346.87	614.902
1350.47	629.324
1354.07	783.113
1357.67	622.957
1361.26	104.773
1364.86	637.156
1368.45	519.746
1372.04	292.242
1375.63	418.938
1379.22	461.914
1382.81	628.371
1386.39	360.234
1389.98	622.977
1393.56	342.312
1397.14	525.258
1400.72	316.832
1404.3	149.105
1407.87	290.012
