Measurement: Raman, 514 nm, ccw, Raman Data Processed
Mineral: Marialite
Rruff sample: R050123
Ideal chemistry: Na_4_Al_3_Si_9_O_24_Cl
Locality: Pakistan
Source: Syed Shah
Description: Purple fragment
Measured chemistry: (Na_0.88_Ca_0.07_K_0.05_)_4_Al_3.00_Si_9.00_O_24_Cl_0.97
Pin_id: L00138
Orientation: Laser parallel to c* (0 0 1). Fiducial mark perpendicular to laser is parallel to a [1 0 0]
Raman shift (cm-1)	intensity
49.365	0
53.566	133.537
57.765	430.481
61.962	842.613
66.157	474.707
70.349	907.606
74.54	819.786
78.729	517.211
82.916	181.929
87.101	174.253
91.284	44.088
95.465	717.926
99.644	1452.85
103.82	2953.43
107.995	4157.58
112.168	3549.72
116.339	2636.4
120.508	2400.1
124.675	2614.51
128.84	2800.28
133.003	3384.49
137.164	4417.79
141.323	5618.64
145.48	6871.48
149.635	9106.81
153.788	11811.1
157.939	13484.4
162.088	13297.6
166.235	11200.6
170.38	8253.51
174.523	6426.27
178.664	5901.89
182.803	5488.81
186.94	4343.08
191.076	3421.44
195.209	2850.39
199.34	2321.03
203.47	1811.44
207.597	1716.72
211.722	1648.87
215.846	1366.88
219.967	1166.28
224.087	1296.78
228.204	1410.59
232.32	1089.54
236.434	909.245
240.545	996.306
244.655	1194.75
248.763	1591.78
252.869	2723.09
256.973	4611.2
261.075	5322.1
265.175	3534.13
269.273	2055.17
273.369	1557.2
277.463	1478.19
281.556	1682.13
285.646	1857.96
289.734	1706.63
293.821	2204.15
297.905	2837.51
301.988	1709.71
306.069	655.75
310.147	65.604
314.224	177.809
318.299	128.781
322.372	57.354
326.443	9.36
330.512	140.372
334.579	297.913
338.645	381.303
342.708	330.559
346.769	493.528
350.829	941.499
354.887	1870.93
358.942	2476.37
362.996	2170.58
367.048	1769.66
371.098	1185.61
375.146	679.42
379.192	325.076
383.236	253.496
387.279	165.633
391.319	25.561
395.358	59.224
399.394	55.439
403.429	30.23
407.462	43.67
411.493	209.712
415.522	372.575
419.549	641.46
423.575	806.54
427.598	1030.51
431.619	1406.71
435.639	1956.43
439.657	2795.98
443.673	4177
447.687	7518.91
451.699	14764.7
455.709	25914.1
459.717	24703.2
463.724	14682
467.728	8520.59
471.731	4871.92
475.732	2809.09
479.731	1751.39
483.728	1260.03
487.723	968.522
491.716	632.304
495.708	520.291
499.697	532.716
503.685	563.38
507.671	423.942
511.655	235.546
515.637	201.618
519.617	380.502
523.596	591.587
527.572	997.02
531.547	2469.37
535.52	7416.02
539.491	8464.87
543.46	3459.46
547.427	1414.38
551.393	681.239
555.356	392.636
559.318	246.678
563.278	25.988
567.236	11.827
571.192	35.822
575.147	36.255
579.099	2.97
583.05	24.565
586.999	133.894
590.946	176.072
594.891	191.092
598.834	164.959
602.776	132.65
606.715	119.164
610.653	157.502
614.589	225.67
618.523	280.672
622.456	350.511
626.386	527.2
630.315	315.762
634.242	109.328
638.167	1.846
642.09	24.795
646.012	31.25
649.931	46.159
653.849	25.876
657.765	55.637
661.679	43.413
665.592	19.481
669.502	20.135
673.411	20.283
677.318	0.571
681.223	10.588
685.126	52.27
689.028	131.975
692.927	73.133
696.825	53.99
700.721	14.494
704.616	69.927
708.508	109.847
712.399	79.808
716.288	40.596
720.175	73.009
724.06	136.404
727.944	298.239
731.825	238.51
735.705	256.514
739.584	253.492
743.46	392.714
747.334	553.288
751.207	729.343
755.078	679.648
758.947	760.031
762.815	873.294
766.68	1123.7
770.544	1238.94
774.406	1257.07
778.267	1299.25
782.125	1541.63
785.982	1722.34
789.837	1427.76
793.69	907.669
797.542	508.461
801.391	429.069
805.239	588.529
809.085	982.268
812.93	1522.99
816.772	859.799
820.613	324.221
824.452	145.997
828.29	136.777
832.125	101.165
835.959	108.768
839.791	40.124
843.621	30.667
847.45	38.988
851.277	75.93
855.102	83.952
858.925	13.001
862.746	4.928
866.566	2.03
870.384	4.374
874.2	57.589
878.015	41.586
881.828	16.304
885.639	68.329
889.448	7.448
893.256	16.144
897.061	82.71
900.865	76.132
904.668	71.396
908.468	30.548
912.267	52.615
916.064	57.603
919.86	97.509
923.653	49.332
927.445	2.072
931.236	27.274
935.024	31.74
938.811	43.67
942.596	11.989
946.379	51.26
950.161	22.46
953.94	29.648
957.719	6.816
961.495	80.964
965.27	75.108
969.043	128.245
972.814	67.409
976.583	117.612
980.351	83.875
984.117	327.004
987.882	587.057
991.644	831.78
995.405	823.646
999.165	406.939
1002.92	259.456
1006.68	184.018
1010.43	295.155
1014.18	357.462
1017.93	369.532
1021.68	362.434
1025.43	317.613
1029.18	287.352
1032.92	365.389
1036.66	447.881
1040.4	620.971
1044.14	652.69
1047.88	605.382
1051.62	633.537
1055.35	638.175
1059.08	740.191
1062.81	866.477
1066.54	872.665
1070.27	966.712
1073.99	965.691
1077.72	1076.59
1081.44	1127.92
1085.16	1344.3
1088.88	1707.48
1092.59	2083.25
1096.31	2065.18
1100.02	1854.47
1103.73	1476.25
1107.44	1203.48
1111.15	1164.62
1114.86	1023.26
1118.57	927.235
1122.27	934.206
1125.97	593.952
1129.67	487.055
1133.37	319.799
1137.07	304.31
1140.76	306.113
1144.45	262.374
1148.15	311.108
1151.84	239.79
1155.53	102.556
1159.21	5.589
1162.9	25.254
1166.58	35.891
1170.26	54.372
1173.94	171.691
1177.62	218.492
1181.3	154.272
1184.97	152.125
1188.65	181.547
1192.32	184.259
1195.99	315.808
1199.66	453.788
1203.33	635.285
1206.99	772.934
1210.65	672.668
1214.32	480.13
1217.98	295.036
1221.64	238.95
1225.29	161.963
1228.95	227.796
1232.6	245.368
1236.26	223.176
1239.91	130.821
1243.56	37.089
1247.2	25.104
1250.85	4.658
1254.49	91.307
1258.13	84.344
1261.78	158.928
1265.41	168.515
1269.05	176.007
1272.69	91.072
1276.32	89.051
1279.95	101.003
1283.59	33.135
1287.21	34.489
1290.84	141.906
1294.47	185.191
1298.09	220.976
1301.72	190.463
1305.34	141.768
1308.96	1.254
1312.58	27.685
1316.19	12.351
1319.81	19.344
1323.42	114.501
1327.03	106.151
1330.64	160.515
1334.25	145.618
1337.86	113.615
1341.46	6.195
1345.07	22.712
1348.67	15.073
1352.27	85.82
1355.87	25.058
1359.46	87.375
1363.06	173.838
1366.65	249.879
1370.25	201.761
1373.84	74.773
1377.43	57.533
1381.02	22.845
1384.6	49.936
1388.18	6.57
1391.77	58.616
1395.35	152.011
1398.93	231.02
1402.51	216.518
1406.08	221.682
1409.66	171.31
1413.23	189.104
1416.8	129.784
1420.37	87.963
1423.94	13.661
1427.51	112.68
1431.08	123.701
1434.64	208.831
1438.2	237.937
1441.76	335.877
1445.32	328.976
1448.88	285.86
1452.43	237.087
1455.99	97.886
1459.54	107.578
1463.09	39.193
1466.64	41.458
1470.19	87.628
1473.74	124.079
1477.28	202.637
1480.83	311.41
1484.37	249.886
1487.91	269.549
1491.45	211.365
1494.98	113.795
1498.52	59.473
1502.05	2.225
1505.59	71.771
1509.12	71.821
1512.65	101.822
1516.17	174.389
1519.7	0
