Measurement: Raman, 514 nm, ccw, Raman Data Processed
Mineral: Meionite
Rruff sample: R040169
Ideal chemistry: (Ca,Na)_4_(Si,Al)_12_O_24_(CO_3_,SO_4_,Cl)
Locality: Black Hills, South Dakota, USA
Source: University of Arizona Mineral Museum
Description: White massive
Measured chemistry: (Ca_0.73_Na_0.24_K_0.03_)_4_(Si_0.58_Al_0.41_)_12_O_24_((CO_3_)_0.90_Cl_0.10_)
Pin_id: L00447
Orientation: Laser parallel to c* (0 0 1). Fiducial mark perpendicular to laser is parallel to -a [-1 0 0]
Raman shift (cm-1)	intensity
82.916	0
87.101	69.421
91.284	174.907
95.465	970.896
99.644	1789.88
103.82	3706.78
107.995	6739.78
112.168	8573.86
116.339	7476.56
120.508	4994.12
124.675	3506.33
128.84	3716.93
133.003	3572.96
137.164	4023.35
141.323	4693.51
145.48	5798.93
149.635	7760.72
153.788	10625.5
157.939	13651.4
162.088	15559.6
166.235	14581
170.38	12016.8
174.523	9268.94
178.664	7279.23
182.803	6056.7
186.94	6010.3
191.076	6494.68
195.209	6606.93
199.34	6738.25
203.47	6877.06
207.597	7211.41
211.722	7048.07
215.846	6879.19
219.967	6339.48
224.087	5882.89
228.204	6015.52
232.32	5526.98
236.434	5137.14
240.545	4566.01
244.655	4424.56
248.763	4354.36
252.869	4887.18
256.973	5381.02
261.075	4579.91
265.175	3141.99
269.273	1716.22
273.369	651.836
277.463	558.258
281.556	574.925
285.646	711.4
289.734	787.39
293.821	1442.72
297.905	1137.34
301.988	461.171
306.069	45.909
310.147	244.791
314.224	346.395
318.299	341.062
322.372	488.742
326.443	319.457
330.512	182.897
334.579	138.782
338.645	143.178
342.708	273.501
346.769	533.15
350.829	1162.64
354.887	1960.52
358.942	3134.89
362.996	3555.7
367.048	3071.43
371.098	2522.39
375.146	1979.87
379.192	1895.63
383.236	1600.32
387.279	1604.14
391.319	1527.08
395.358	1549.96
399.394	1554.03
403.429	1339.26
407.462	1644.49
411.493	2098.9
415.522	2662.01
419.549	3674.99
423.575	4416.31
427.598	4410.12
431.619	4528.24
435.639	4946.42
439.657	6700.45
443.673	10891
447.687	20149.6
451.699	31033.9
455.709	32122
459.717	29401
463.724	26141.9
467.728	18716.5
471.731	12453.8
475.732	8505.84
479.731	6418.98
483.728	4650.64
487.723	3314.38
491.716	2337.9
495.708	1627.65
499.697	1221.59
503.685	902.704
507.671	624.474
511.655	682.838
515.637	863.16
519.617	1549.87
523.596	3176.13
527.572	7114.18
531.547	11382.3
535.52	9620.03
539.491	5416.58
543.46	2820.64
547.427	1672.56
551.393	953.731
555.356	564.143
559.318	313.548
563.278	341.718
567.236	249.65
571.192	286.834
575.147	93.189
579.099	198.641
583.05	93.225
586.999	96.886
590.946	30.538
594.891	10.837
598.834	188.391
602.776	350.888
606.715	609.754
610.653	427.911
614.589	235.313
618.523	18.083
622.456	47.567
626.386	82.397
630.315	117.027
634.242	151.977
638.167	197.729
642.09	4.951
646.012	214.231
649.931	115.07
653.849	142.425
657.765	60.66
661.679	95.913
665.592	167.571
669.502	313.65
673.411	565.475
677.318	779.03
681.223	407.261
685.126	283.72
689.028	301.378
692.927	279.351
696.825	379.69
700.721	610.787
704.616	607.823
708.508	830.182
712.399	1174.29
716.288	911.859
720.175	935.27
724.06	1102.46
727.944	1362.25
731.825	1358.28
735.705	1522.11
739.584	1880.1
743.46	2511.94
747.334	2828.17
751.207	3246.53
755.078	4258.35
758.947	5924.56
762.815	7614.96
766.68	8442.29
770.544	7881.12
774.406	5439.98
778.267	2931.71
782.125	1797.42
785.982	1112.03
789.837	675.637
793.69	519.225
797.542	410.979
801.391	360.27
805.239	324.969
809.085	53.768
812.93	3.758
816.772	13.818
820.613	105.523
824.452	116.373
828.29	218.514
832.125	58.918
835.959	21.246
839.791	192.498
843.621	181.912
847.45	174.428
851.277	13.303
855.102	110.043
858.925	172.719
862.746	58.795
866.566	104.453
870.384	283.5
874.2	81.438
878.015	81.967
881.828	46.748
885.639	287.25
889.448	350.15
893.256	131.939
897.061	212.578
900.865	82.275
904.668	81.062
908.468	248.742
912.267	85.266
916.064	130.672
919.86	164.986
923.653	18.178
927.445	230.346
931.236	241.654
935.024	312.154
938.811	421.934
942.596	500.865
946.379	238.029
950.161	463.666
953.94	637.23
957.719	788.791
961.495	957.066
965.27	1053.21
969.043	1138.57
972.814	1404.66
976.583	1312.86
980.351	1395.19
984.117	1359.53
987.882	1499.26
991.644	1401.28
995.405	1447.36
999.165	1330.2
1002.92	1319.2
1006.68	1798.85
1010.43	1756.73
1014.18	1835.78
1017.93	2150.88
1021.68	2549.03
1025.43	2636.62
1029.18	3313.17
1032.92	3354.78
1036.66	3351.85
1040.4	3294.7
1044.14	3190.59
1047.88	3819.38
1051.62	3694.62
1055.35	3647.61
1059.08	3505.74
1062.81	3388.95
1066.54	4429.48
1070.27	4893.8
1073.99	4841.27
1077.72	6796.42
1081.44	11002.1
1085.16	18939.8
1088.88	25490.6
1092.59	24287.7
1096.31	23312.3
1100.02	22025.1
1103.73	18546.4
1107.44	11148.7
1111.15	4746.15
1114.86	1933.13
1118.57	1010.08
1122.27	877.104
1125.97	664.574
1129.67	372.189
1133.37	99.49
1137.07	276.748
1140.76	504.092
1144.45	202.088
1148.15	39.598
1151.84	210.879
1155.53	118.189
1159.21	687.963
1162.9	348.365
1166.58	759.482
1170.26	630.738
1173.94	911.943
1177.62	763.676
1181.3	987.035
1184.97	949.678
1188.65	973.697
1192.32	1687.81
1195.99	1635.77
1199.66	1556.68
1203.33	1238.74
1206.99	686.152
1210.65	297.078
1214.32	299.316
1217.98	431.363
1221.64	602.77
1225.29	553.43
1228.95	747.539
1232.6	11.055
1236.26	294.238
1239.91	387.148
1243.56	271.984
1247.2	158.398
1250.85	2.645
