Measurement: Raman, 514 nm, ccw, Raman Data Processed
Mineral: Meionite
Rruff sample: R040169
Ideal chemistry: (Ca,Na)_4_(Si,Al)_12_O_24_(CO_3_,SO_4_,Cl)
Locality: Black Hills, South Dakota, USA
Source: University of Arizona Mineral Museum
Description: White massive
Measured chemistry: (Ca_0.73_Na_0.24_K_0.03_)_4_(Si_0.58_Al_0.41_)_12_O_24_((CO_3_)_0.90_Cl_0.10_)
Pin_id: L00447
Orientation: Laser parallel to c* (0 0 1). Fiducial mark perpendicular to laser is parallel to -a [-1 0 0]
Raman shift (cm-1)	intensity
95.465	0
99.644	136.792
103.82	929.638
107.995	2674.02
112.168	3985.77
116.339	3420.25
120.508	2715.68
124.675	1238.94
128.84	1240.47
133.003	1261.9
137.164	1414.44
141.323	1783.27
145.48	2236.09
149.635	3431.95
153.788	5136.09
157.939	7349.22
162.088	8636.82
166.235	8265.3
170.38	6736.05
174.523	4840.48
178.664	3599.12
182.803	3022.83
186.94	3109.78
191.076	3728.34
195.209	3925.34
199.34	3801.04
203.47	3668.28
207.597	3714.52
211.722	3714.87
215.846	3502.22
219.967	3570.88
224.087	3609.58
228.204	3757.69
232.32	3535.58
236.434	3352.98
240.545	3039.41
244.655	2796.77
248.763	3047.09
252.869	3525.05
256.973	3707.13
261.075	3369.9
265.175	2158.8
269.273	1017.15
273.369	370.082
277.463	355.447
281.556	813.05
285.646	1141.25
289.734	1479.85
293.821	2158.45
297.905	2056.72
301.988	1194.46
306.069	431.58
310.147	202.092
314.224	373.216
318.299	358.625
322.372	446.93
326.443	391.3
330.512	272.663
334.579	51.714
338.645	248.233
342.708	402.84
346.769	781.879
350.829	1111.11
354.887	1629.15
358.942	2532.64
362.996	2904.05
367.048	2603.97
371.098	1930.02
375.146	1510.96
379.192	1337.17
383.236	1241.21
387.279	1144.22
391.319	1056.4
395.358	1119.45
399.394	1013.86
403.429	979.399
407.462	1223.89
411.493	1687.71
415.522	2091.11
419.549	2732.71
423.575	3414.09
427.598	3386.21
431.619	3433.56
435.639	3676.94
439.657	5181.44
443.673	8374.76
447.687	15924.1
451.699	24481.9
455.709	25409.3
459.717	23197.8
463.724	20607
467.728	14874.5
471.731	9698.98
475.732	6752.98
479.731	4931.57
483.728	3611.98
487.723	2439.53
491.716	1641.95
495.708	1139.94
499.697	794.806
503.685	579.573
507.671	414.646
511.655	407.432
515.637	569.123
519.617	1197.96
523.596	2525.97
527.572	5694.06
531.547	8934.02
535.52	7542.81
539.491	4291.15
543.46	2208.01
547.427	1111.66
551.393	683.644
555.356	383.508
559.318	161.835
563.278	259.093
567.236	237.854
571.192	197.093
575.147	145.473
579.099	182.065
583.05	129.733
586.999	125.624
590.946	30.584
594.891	54.438
598.834	232.039
602.776	479.552
606.715	710.966
610.653	641.67
614.589	381.687
618.523	260.984
622.456	109.503
626.386	77.159
630.315	44.156
634.242	21.18
638.167	128.696
642.09	76.778
646.012	16.495
649.931	47.836
653.849	110.288
657.765	3.895
661.679	76.853
665.592	227.671
669.502	215.875
673.411	568.33
677.318	1174.4
681.223	522.756
685.126	209.227
689.028	271.599
692.927	288.479
696.825	378.672
700.721	554.801
704.616	619.979
708.508	753.71
712.399	1420.39
716.288	959.011
720.175	874.966
724.06	853.695
727.944	984.807
731.825	1120.4
735.705	1188.15
739.584	1631.73
743.46	1930.37
747.334	2271.84
751.207	2466.91
755.078	3196.75
758.947	4138.93
762.815	4951.6
766.68	5083.03
770.544	4549.09
774.406	3157.1
778.267	1860.56
782.125	1270.25
785.982	1050.28
789.837	738.295
793.69	655.859
797.542	452.915
801.391	607.572
805.239	529.716
809.085	204.701
812.93	148.56
816.772	28.594
820.613	93.117
824.452	120.567
828.29	190.606
832.125	9.75
835.959	28.709
839.791	146.169
843.621	26.472
847.45	128.189
851.277	108.758
855.102	79.371
858.925	190.203
862.746	140.102
866.566	19.17
870.384	217.127
874.2	45.871
878.015	110.082
881.828	44.482
885.639	238.098
889.448	250.698
893.256	182.252
897.061	162.721
900.865	12.297
904.668	41.039
908.468	188.865
912.267	115.744
916.064	11.654
919.86	3.404
923.653	80.475
927.445	23.43
931.236	235.504
935.024	296.816
938.811	427.406
942.596	377.254
946.379	206.35
950.161	384.033
953.94	571.301
957.719	545.881
961.495	868.557
965.27	718.902
969.043	837.867
972.814	905.764
976.583	743.738
980.351	936.85
984.117	837.221
987.882	984.572
991.644	971.418
995.405	962.986
999.165	1016.39
1002.92	958.377
1006.68	1413.89
1010.43	1607.22
1014.18	1619.78
1017.93	1795.04
1021.68	2076.78
1025.43	2173.14
1029.18	2717.35
1032.92	2837.57
1036.66	2825.53
1040.4	2740.55
1044.14	2567.3
1047.88	2876.64
1051.62	2864.33
1055.35	2971.31
1059.08	2688.67
1062.81	2684.23
1066.54	3410.38
1070.27	3956.81
1073.99	4019.28
1077.72	5425.11
1081.44	9645.56
1085.16	19474.1
1088.88	26617.7
1092.59	20506.4
1096.31	18804.3
1100.02	17832.8
1103.73	15119.9
1107.44	8980.62
1111.15	3736.58
1114.86	1440.39
1118.57	913.688
1122.27	723.457
1125.97	633.021
1129.67	22.391
1133.37	118.213
1137.07	201.195
1140.76	320.352
1144.45	109.545
1148.15	39.008
1151.84	31.256
1155.53	1028.81
1159.21	379.27
1162.9	549.961
1166.58	830.961
1170.26	1002.45
1173.94	1014.32
1177.62	696.24
1181.3	748.338
1184.97	780.773
1188.65	1073.55
1192.32	1377.1
1195.99	1571.18
1199.66	1434.71
1203.33	1074.83
1206.99	612.672
1210.65	156.861
1214.32	197.1
1217.98	306.697
1221.64	517.033
1225.29	416.824
1228.95	495.717
1232.6	65.863
1236.26	137.531
1239.91	126.996
1243.56	164.465
1247.2	274.51
1250.85	253.406
1254.49	510.844
1258.13	374.236
1261.78	332.375
