Measurement: Raman, 514 nm, ccw, Raman Data Processed
Mineral: Meionite
Rruff sample: R040169
Ideal chemistry: (Ca,Na)_4_(Si,Al)_12_O_24_(CO_3_,SO_4_,Cl)
Locality: Black Hills, South Dakota, USA
Source: University of Arizona Mineral Museum
Description: White massive
Measured chemistry: (Ca_0.73_Na_0.24_K_0.03_)_4_(Si_0.58_Al_0.41_)_12_O_24_((CO_3_)_0.90_Cl_0.10_)
Pin_id: L00216
Orientation: Laser parallel to a* (1 0 0). Fiducial mark perpendicular to laser is parallel to c [0 0 1]
Raman shift (cm-1)	intensity
102.428	0
106.604	50.782
110.777	200.062
114.949	819.368
119.119	906.506
123.286	854.815
127.452	732.817
131.615	1044.51
135.777	1571.78
139.937	2028.65
144.094	2689.98
148.25	3353.19
152.403	3917.03
156.555	3724.71
160.705	3265.45
164.853	2518.39
168.998	1834.13
173.142	853.052
177.284	496.16
181.424	144.191
185.562	157.773
189.698	548.169
193.831	1036.6
197.963	1313.56
202.093	1339.31
206.221	1257.16
210.347	1382.17
214.472	1417.43
218.594	1919.79
222.714	2305.58
226.832	2865
230.948	3322.99
235.063	3480.78
239.175	3738.27
243.286	4355.29
247.394	5621.43
251.501	7686.66
255.605	9911.04
259.708	10414.6
263.808	7927.46
267.907	5012.6
272.004	3106.87
276.099	2055.1
280.192	1575.25
284.283	1466.49
288.372	1968.28
292.459	2700.3
296.544	2802.37
300.627	1354.33
304.709	645.997
308.788	217.223
312.865	102.332
316.941	33.023
321.015	205.026
325.086	268.706
329.156	304.484
333.224	162.45
337.29	147.656
341.354	188.39
345.416	538.062
349.476	1316.49
353.534	2063.65
357.591	2568.43
361.645	2862.34
365.698	2435.38
369.748	1797.48
373.797	1287.66
377.844	1254.6
381.889	1068
385.932	1388.81
389.973	1358.69
394.012	1407.95
398.049	1346.61
402.084	1415.66
406.118	1554.16
410.15	1943.44
414.179	3021.64
418.207	4039.4
422.233	4808.05
426.257	4565.81
430.279	3672.57
434.299	3011.19
438.318	3029.96
442.334	4102.42
446.349	7390.58
450.361	14018.1
454.372	16549.8
458.381	13362.1
462.388	11643.7
466.394	8825.25
470.397	6149.4
474.398	4013.92
478.398	2813.85
482.396	2885.2
486.391	1842.26
490.385	1397.5
494.377	838.441
498.368	704.309
502.356	722.775
506.342	737.936
510.327	507.973
514.31	876.725
518.291	1784.54
522.27	3770.71
526.247	8316.92
530.222	14931.5
534.196	13404.3
538.167	7405.4
542.137	4146.13
546.105	2316.06
550.071	1504.94
554.035	973.139
557.998	750.666
561.958	577.5
565.917	493.666
569.874	459.328
573.829	724.355
577.782	548.766
581.733	462.512
585.683	155.498
589.63	547.818
593.576	269.381
597.52	100.049
601.462	139.766
605.402	48.555
609.341	136.422
613.277	6.73
617.212	130.994
621.145	226.436
625.076	166.812
629.006	219.119
632.933	90.846
636.859	27.57
640.783	205.168
644.705	176.988
648.625	340.475
652.543	195.252
656.46	58.129
660.375	185.283
664.288	272.256
668.199	413.129
672.108	316.379
676.016	288.531
679.921	263.508
683.825	334.295
687.727	500.951
691.628	564.809
695.526	456.111
699.423	525.582
703.318	905.398
707.211	920.717
711.102	895.961
714.992	1079.72
718.879	1235.15
722.765	1459.81
726.649	1691.02
730.532	2001.69
734.412	2501.77
738.291	2843.68
742.168	3506.68
746.043	4715.23
749.916	5924.1
753.788	7092.18
757.658	8417.43
761.526	9772.37
765.392	9337.16
769.257	7234.01
773.119	4761.9
776.98	2699.64
780.839	1834.57
784.697	1335.06
788.552	994.193
792.406	766.465
796.258	492.971
800.108	439.965
803.957	308.504
807.804	414.932
811.649	237.33
815.492	222.109
819.333	25.975
823.173	80.711
827.011	24.773
830.847	298.484
834.681	162.258
838.514	125.137
842.345	47.713
846.174	30.486
850.001	142.75
853.827	104.59
857.651	135.85
861.473	66.479
865.293	16.422
869.112	175.666
872.928	404.221
876.744	541.928
880.557	48.541
884.369	195.715
888.178	100.998
891.987	212.854
895.793	336.035
899.598	158.479
903.401	100.348
907.202	18.279
911.001	142.648
914.799	373.113
918.595	403.131
922.389	382.797
926.182	322.168
929.972	501.254
933.761	380.104
937.549	398.586
941.334	1106.68
945.118	994.209
948.9	460.229
952.681	405.953
956.459	759.805
960.236	693.115
964.012	1132.68
967.785	1063.72
971.557	1229.28
975.327	1290.37
979.095	1229.92
982.862	1301.42
986.627	1129.57
990.39	1469.1
994.152	1591.15
997.912	1336.15
1001.67	1673.96
1005.43	1662.41
1009.18	2098.97
1012.93	2509.26
1016.68	3048.93
1020.43	2988.95
1024.18	3105.59
1027.93	2859.33
1031.67	3370.28
1035.42	3646.02
1039.16	4223.78
1042.9	4436.37
1046.63	3660.35
1050.37	3328.12
1054.11	3235.14
1057.84	3155.12
1061.57	3764.14
1065.3	3942.75
1069.03	3681.65
1072.75	3560.27
1076.47	3298.81
1080.2	3267.25
1083.92	4145.56
1087.64	5763.9
1091.36	6052.45
1095.07	4991.11
1098.79	4789.65
1102.5	3868.05
1106.21	2287.49
1109.92	1438.66
1113.62	991.305
1117.33	924.684
1121.04	978.57
1124.74	833.051
1128.44	258.266
1132.14	45.582
1135.83	231.742
1139.53	680.5
1143.22	511.113
1146.92	1033.72
1150.61	858.391
1154.3	475.602
1157.98	30.531
1161.67	16.605
1165.35	76.281
1169.04	417.402
1172.72	640.156
1176.4	413.973
