Measurement: Raman, 514 nm, ccw, Raman Data Processed
Mineral: Meionite
Rruff sample: R040169
Ideal chemistry: (Ca,Na)_4_(Si,Al)_12_O_24_(CO_3_,SO_4_,Cl)
Locality: Black Hills, South Dakota, USA
Source: University of Arizona Mineral Museum
Description: White massive
Measured chemistry: (Ca_0.73_Na_0.24_K_0.03_)_4_(Si_0.58_Al_0.41_)_12_O_24_((CO_3_)_0.90_Cl_0.10_)
Pin_id: L00216
Orientation: Laser parallel to a* (1 0 0). Fiducial mark perpendicular to laser is parallel to c [0 0 1]
Raman shift (cm-1)	intensity
85.706	0
89.89	1161.68
94.071	2468.47
98.251	1993.26
102.428	2224.29
106.604	3262.78
110.777	4713.92
114.949	6326.21
119.119	7164.06
123.286	8014.91
127.452	8037.43
131.615	7865.33
135.777	7656.57
139.937	6881.06
144.094	5509.11
148.25	4755.17
152.403	4473.19
156.555	4162.88
160.705	3872.6
164.853	3313.75
168.998	2077.23
173.142	735.85
177.284	277.168
181.424	654.52
185.562	523.746
189.698	350.018
193.831	122.08
197.963	301.509
202.093	517.764
206.221	767.222
210.347	990.472
214.472	950.366
218.594	1073.16
222.714	1127.99
226.832	1363.89
230.948	1259.93
235.063	1128.8
239.175	1271.56
243.286	1462.56
247.394	1994.19
251.501	2526.18
255.605	3487.45
259.708	3661.69
263.808	2460.97
267.907	1021.95
272.004	372.927
276.099	52.826
280.192	110.035
284.283	214.452
288.372	706.287
292.459	1135.7
296.544	1381.69
300.627	882.862
304.709	466.794
308.788	98.72
312.865	121.831
316.941	145.457
321.015	62.301
325.086	192.261
329.156	215.364
333.224	38.403
337.29	200.584
341.354	344.066
345.416	423.135
349.476	903.943
353.534	1294.19
357.591	1696.18
361.645	1922.58
365.698	1825.12
369.748	1572.85
373.797	1444.74
377.844	1365.28
381.889	1382.61
385.932	1648.44
389.973	1663.03
394.012	1597.93
398.049	1432.2
402.084	1456.57
406.118	1409.29
410.15	1441.48
414.179	2192.63
418.207	2720.5
422.233	3135.88
426.257	3048.65
430.279	2851.89
434.299	2859.56
438.318	3049.16
442.334	4158.41
446.349	7269.33
450.361	12842.5
454.372	15473.3
458.381	13106.1
462.388	11525.8
466.394	9271.31
470.397	6893.03
474.398	4565.43
478.398	3348.51
482.396	2825.25
486.391	2113.17
490.385	1449.8
494.377	1027.76
498.368	749.949
502.356	662.057
506.342	599.205
510.327	542.326
514.31	539.875
518.291	1029.23
522.27	2114.31
526.247	4382.4
530.222	7829.39
534.196	7412.48
538.167	4283.76
542.137	2413.25
546.105	1472.18
550.071	761.062
554.035	748.143
557.998	611.848
561.958	473.723
565.917	405.154
569.874	355.678
573.829	766.771
577.782	706.898
581.733	646.125
585.683	484.395
589.63	351.857
593.576	348.377
597.52	244.09
601.462	359.152
605.402	73.434
609.341	376.855
613.277	149.328
617.212	49.225
621.145	188.797
625.076	100.484
629.006	79.025
632.933	68.018
636.859	103.059
640.783	173.293
644.705	57.352
648.625	289.752
652.543	47.055
656.46	46.582
660.375	108.914
664.288	14.643
668.199	141.266
672.108	124.93
676.016	528.072
679.921	331.752
683.825	292.609
687.727	474.293
691.628	412.141
695.526	150.166
699.423	304.76
703.318	458.312
707.211	424.52
711.102	569.523
714.992	387.061
718.879	532.668
722.765	843.186
726.649	958.238
730.532	1089.27
734.412	1399.85
738.291	1526.73
742.168	1864.27
746.043	2890.62
749.916	2964.02
753.788	3662.83
757.658	4326.57
761.526	5309.15
765.392	5013.25
769.257	4053.47
773.119	2816.72
776.98	1616.88
780.839	1108.91
784.697	1001.38
788.552	972.098
792.406	907.459
796.258	458.539
800.108	261.957
803.957	320.006
807.804	460.211
811.649	321.447
815.492	341.471
819.333	73.266
823.173	135.117
827.011	83.738
830.847	379.049
834.681	242.34
838.514	29.049
842.345	0.758
846.174	107.039
850.001	82.717
853.827	198.896
857.651	225.381
861.473	200.105
865.293	195.285
869.112	229.24
872.928	303.059
876.744	605.883
880.557	46.953
884.369	73.322
888.178	164.887
891.987	282.111
895.793	217.764
899.598	122.092
903.401	35.381
907.202	87.66
911.001	256.633
914.799	339.27
918.595	258.758
922.389	297.41
926.182	85.225
929.972	302.254
933.761	538.625
937.549	374.291
941.334	968.424
945.118	801.852
948.9	542.834
952.681	482.389
956.459	590.656
960.236	647.719
964.012	973.609
967.785	1149.63
971.557	1205.1
975.327	1089.07
979.095	957.215
982.862	982.168
986.627	1100.42
990.39	1201.48
994.152	1461.23
997.912	1316.25
1001.67	1352.83
1005.43	1177.09
1009.18	1786.88
1012.93	2186.33
1016.68	2345.9
1020.43	2264.12
1024.18	2372.66
1027.93	2152.75
1031.67	2460.79
1035.42	2538.6
1039.16	3262.51
1042.9	3357.7
1046.63	2617.61
1050.37	2357.35
1054.11	2259.06
1057.84	2212.68
1061.57	2813.82
1065.3	3337.42
1069.03	3361.78
1072.75	3268.04
1076.47	4242.48
1080.2	4268.45
1083.92	6733.72
1087.64	9768.58
1091.36	11093
1095.07	10436.8
1098.79	10529.5
1102.5	9011.47
1106.21	5372.75
1109.92	2154.65
1113.62	1058.06
1117.33	1073.34
1121.04	1120.08
1124.74	667.621
1128.44	195.891
1132.14	124.504
1135.83	103.469
1139.53	562.863
1143.22	462.949
1146.92	1094.2
1150.61	847.094
1154.3	650.285
1157.98	236.172
1161.67	168.422
1165.35	220.574
1169.04	585.305
1172.72	689.203
1176.4	665.109
1180.07	987.562
1183.75	566.895
1187.42	0
