Measurement: Raman, 514 nm, ccw, Raman Data Processed
Mineral: Meionite
Rruff sample: R040169
Ideal chemistry: (Ca,Na)_4_(Si,Al)_12_O_24_(CO_3_,SO_4_,Cl)
Locality: Black Hills, South Dakota, USA
Source: University of Arizona Mineral Museum
Description: White massive
Measured chemistry: (Ca_0.73_Na_0.24_K_0.03_)_4_(Si_0.58_Al_0.41_)_12_O_24_((CO_3_)_0.90_Cl_0.10_)
Pin_id: L00216
Orientation: Laser parallel to a* (1 0 0). Fiducial mark perpendicular to laser is parallel to c [0 0 1]
Raman shift (cm-1)	intensity
89.89	0
94.071	69.149
98.251	15.719
102.428	390.895
106.604	1102.7
110.777	2173.28
114.949	2488.09
119.119	2019.5
123.286	1461.36
127.452	990.126
131.615	916.205
135.777	1051.37
139.937	1223.15
144.094	1303.51
148.25	1720.28
152.403	2810.57
156.555	3785.16
160.705	4944.24
164.853	5478.47
168.998	4648.5
173.142	3374.85
177.284	2608.19
181.424	2239.67
185.562	2181.94
189.698	2491.1
193.831	3169.43
197.963	3197.01
202.093	2992
206.221	2882.78
210.347	2957.22
214.472	2718.39
218.594	2540.15
222.714	2607.75
226.832	2862.9
230.948	2927.86
235.063	2692.38
239.175	2716.24
243.286	2599.4
247.394	2642.68
251.501	2744.72
255.605	3076.39
259.708	2793.13
263.808	1904.57
267.907	903.767
272.004	423.601
276.099	268.488
280.192	320.029
284.283	478.882
288.372	885.796
292.459	1502.55
296.544	1526.02
300.627	1150.15
304.709	683.891
308.788	277.188
312.865	98.082
316.941	109.416
321.015	161.265
325.086	327.859
329.156	323.406
333.224	68.78
337.29	93.463
341.354	245.638
345.416	326.062
349.476	659.271
353.534	1199.69
357.591	1642.38
361.645	1953.83
365.698	1888.32
369.748	1566.62
373.797	1183.58
377.844	1007.61
381.889	995.488
385.932	949.811
389.973	883.659
394.012	894.52
398.049	768.487
402.084	842.102
406.118	915.828
410.15	1007.29
414.179	1480.17
418.207	1984.97
422.233	2434.26
426.257	2493.39
430.279	2603.22
434.299	2742.45
438.318	3326.01
442.334	4862.55
446.349	8915.93
450.361	16447.5
454.372	19879.4
458.381	16421.3
462.388	14794.8
466.394	11456.7
470.397	7966.94
474.398	5257.08
478.398	3926.04
482.396	3213.4
486.391	2412.08
490.385	1653.1
494.377	1052.54
498.368	797.573
502.356	667.874
506.342	536.709
510.327	272.509
514.31	405.518
518.291	750.845
522.27	1589.15
526.247	3397.25
530.222	6185.85
534.196	5974.85
538.167	3454.22
542.137	1812.21
546.105	1039.31
550.071	545.672
554.035	400.528
557.998	314.164
561.958	113.919
565.917	99.603
569.874	121.781
573.829	163.392
577.782	234.415
581.733	134.854
585.683	34.726
589.63	24.003
593.576	92.618
597.52	90.51
601.462	277.802
605.402	344.503
609.341	460.645
613.277	366.221
617.212	8.796
621.145	70.89
625.076	89.232
629.006	12.27
632.933	114.966
636.859	22.97
640.783	9.317
644.705	2.334
648.625	117.252
652.543	53.396
656.46	30.592
660.375	42.836
664.288	153.299
668.199	148.306
672.108	365.045
676.016	865.688
679.921	464.462
683.825	351.648
687.727	316.406
691.628	179.894
695.526	212.96
699.423	246.76
703.318	317.164
707.211	505.299
711.102	602.782
714.992	595.188
718.879	466.666
722.765	657.145
726.649	783.041
730.532	827.711
734.412	1038.74
738.291	1006.29
742.168	1269.92
746.043	1666.52
749.916	1953.53
753.788	2272.44
757.658	2680.95
761.526	2999.29
765.392	3167.5
769.257	2632.54
773.119	1735.93
776.98	1087.56
780.839	658.227
784.697	635.7
788.552	780.688
792.406	816.311
796.258	592.327
800.108	217.479
803.957	246.105
807.804	263.605
811.649	233.442
815.492	182.438
819.333	2.188
823.173	18.042
827.011	77.17
830.847	204.163
834.681	194.871
838.514	95.947
842.345	11.389
846.174	56.578
850.001	30.813
853.827	205.1
857.651	179.165
861.473	102.935
865.293	3.623
869.112	29.508
872.928	141.864
876.744	453.361
880.557	153.94
884.369	6.295
888.178	67.297
891.987	40.854
895.793	228.22
899.598	214.848
903.401	50.792
907.202	24.002
911.001	40.398
914.799	114.137
918.595	217.225
922.389	259.658
926.182	71.479
929.972	12.697
933.761	163.316
937.549	223.402
941.334	592.779
945.118	471.975
948.9	140.402
952.681	236.709
956.459	322.361
960.236	476.506
964.012	618.748
967.785	760.646
971.557	810.615
975.327	649.15
979.095	553.199
982.862	554.828
986.627	680.531
990.39	889.863
994.152	813.393
997.912	702.646
1001.67	559.031
1005.43	780.377
1009.18	1077.46
1012.93	1405.11
1016.68	1850.23
1020.43	1586.36
1024.18	1729.14
1027.93	1418.38
1031.67	1738.64
1035.42	1888.61
1039.16	2319.23
1042.9	2461.82
1046.63	1972.53
1050.37	1527.46
1054.11	1400.47
1057.84	1422.44
1061.57	1916.4
1065.3	2734.87
1069.03	2978.82
1072.75	3003.35
1076.47	3190.02
1080.2	4773.34
1083.92	8278.74
1087.64	12993.8
1091.36	15158.9
1095.07	14773
1098.79	14746.4
1102.5	12870.1
1106.21	7335.1
1109.92	2510.76
1113.62	896.129
1117.33	592.287
1121.04	658.373
1124.74	644.414
1128.44	9.557
1132.14	3.664
1135.83	87.916
1139.53	307.781
1143.22	323.654
1146.92	769.979
1150.61	626.613
1154.3	433.645
1157.98	191.135
1161.67	179.096
1165.35	157.24
1169.04	415.602
1172.72	864.275
1176.4	873.273
1180.07	932.721
1183.75	1002.57
1187.42	782.877
1191.1	693.627
1194.77	749.777
1198.44	820.02
1202.1	1033.61
1205.77	1174.64
1209.43	722.17
1213.1	151.166
1216.76	49.84
1220.42	71.51
1224.07	246.586
1227.73	675.219
1231.38	938.424
1235.04	860.775
1238.69	748.838
1242.34	628.762
1245.99	327.227
1249.63	309.521
1253.28	2.828
