Measurement: Raman, 514 nm, ccw, Raman Data Processed
Mineral: Meionite
Rruff sample: R040169
Ideal chemistry: (Ca,Na)_4_(Si,Al)_12_O_24_(CO_3_,SO_4_,Cl)
Locality: Black Hills, South Dakota, USA
Source: University of Arizona Mineral Museum
Description: White massive
Measured chemistry: (Ca_0.73_Na_0.24_K_0.03_)_4_(Si_0.58_Al_0.41_)_12_O_24_((CO_3_)_0.90_Cl_0.10_)
Pin_id: L00447
Orientation: Laser parallel to c* (0 0 1). Fiducial mark perpendicular to laser is parallel to -a [-1 0 0]
Raman shift (cm-1)	intensity
87.101	0
91.284	12.737
95.465	263.141
99.644	605.298
103.82	1544.28
107.995	3239.98
112.168	4414.09
116.339	4044.08
120.508	2908.03
124.675	2232.24
128.84	2178.64
133.003	2362.37
137.164	2570.93
141.323	2832.82
145.48	3312.51
149.635	4584.39
153.788	6406.04
157.939	8810.92
162.088	10299.7
166.235	9933.41
170.38	8282.78
174.523	6068.03
178.664	4890.72
182.803	4024.12
186.94	4183.99
191.076	4542.97
195.209	4841.16
199.34	4769.19
203.47	4672.47
207.597	4416.69
211.722	4401.57
215.846	4100.8
219.967	3985.71
224.087	4064.98
228.204	4184.19
232.32	4112.97
236.434	3717.76
240.545	3418.65
244.655	3319.15
248.763	3408.2
252.869	3973.58
256.973	4009.31
261.075	3804.2
265.175	2703.48
269.273	1220.19
273.369	409.89
277.463	305.406
281.556	711.713
285.646	1088.42
289.734	1755.16
293.821	2421.72
297.905	2537.95
301.988	1503.79
306.069	549.236
310.147	36.859
314.224	185.173
318.299	295.48
322.372	441.062
326.443	458.074
330.512	323.566
334.579	172.234
338.645	102.52
342.708	416.293
346.769	784.026
350.829	1086.14
354.887	1656.65
358.942	2633.13
362.996	2928.19
367.048	2500.58
371.098	1938.65
375.146	1462.42
379.192	1324.28
383.236	1105.4
387.279	1075.9
391.319	915.767
395.358	946.058
399.394	777.607
403.429	881.196
407.462	1125.05
411.493	1437.93
415.522	1959.35
419.549	2670.85
423.575	3372.16
427.598	3403.52
431.619	3519.93
435.639	3682.16
439.657	5068.91
443.673	8502.26
447.687	15991
451.699	25548.8
455.709	27045.5
459.717	24443.5
463.724	21765.2
467.728	15763.6
471.731	10298.9
475.732	6984.63
479.731	5089.6
483.728	3712.55
487.723	2482.56
491.716	1760.44
495.708	1193.8
499.697	794.192
503.685	551.881
507.671	308.164
511.655	304.972
515.637	599.427
519.617	1090.92
523.596	2441.72
527.572	5622.05
531.547	9394.04
535.52	8086.05
539.491	4548.02
543.46	2408.92
547.427	1476.8
551.393	743.275
555.356	487.928
559.318	130.062
563.278	121.592
567.236	124.335
571.192	156.96
575.147	28.819
579.099	69.883
583.05	330.13
586.999	129.604
590.946	78.125
594.891	24.421
598.834	92.179
602.776	588.023
606.715	883.14
610.653	707.545
614.589	481.302
618.523	264.402
622.456	136.682
626.386	48.058
630.315	88.641
634.242	41.111
638.167	19.201
642.09	99.882
646.012	161.158
649.931	14.668
653.849	99.924
657.765	6.633
661.679	52.207
665.592	176.654
669.502	286.445
673.411	799.055
677.318	1327.27
681.223	670.686
685.126	422.967
689.028	311.607
692.927	198.169
696.825	198.344
700.721	470.89
704.616	529.6
708.508	605.851
712.399	649.175
716.288	741.222
720.175	699.055
724.06	873.755
727.944	969.792
731.825	1170.74
735.705	1258.84
739.584	1737.29
743.46	2053.93
747.334	2317.76
751.207	2565.64
755.078	3203.19
758.947	4235.46
762.815	5238.61
766.68	5141.65
770.544	4612.16
774.406	3311.38
778.267	1972.61
782.125	1163.92
785.982	1035.37
789.837	821.757
793.69	649.661
797.542	617.064
801.391	602.011
805.239	453.653
809.085	164.96
812.93	156.344
816.772	18.187
820.613	140.013
824.452	77.867
828.29	11.583
832.125	52.264
835.959	16.317
839.791	156.977
843.621	145.991
847.45	47.163
851.277	12.883
855.102	147.469
858.925	148.202
862.746	78.043
866.566	47.178
870.384	165.267
874.2	7.639
878.015	81.698
881.828	76.95
885.639	246.636
889.448	119.184
893.256	40.66
897.061	121.002
900.865	170.441
904.668	40.977
908.468	226.488
912.267	82.955
916.064	48.441
919.86	17.039
923.653	3.666
927.445	198.713
931.236	200.289
935.024	291.158
938.811	311.33
942.596	210.76
946.379	139.438
950.161	497.312
953.94	504.404
957.719	528.543
961.495	709.717
965.27	539.713
969.043	715.98
972.814	824.908
976.583	752.652
980.351	988.234
984.117	1015.58
987.882	997.18
991.644	1060.4
995.405	945.133
999.165	876.246
1002.92	1057.33
1006.68	1391.28
1010.43	1441.89
1014.18	1623.08
1017.93	1883.11
1021.68	2343.83
1025.43	2271.77
1029.18	2718.43
1032.92	2891.38
1036.66	2957.85
1040.4	2892.09
1044.14	2695.01
1047.88	3056.85
1051.62	3144.56
1055.35	2884.07
1059.08	2747.97
1062.81	2754.56
1066.54	3621.12
1070.27	3955.12
1073.99	4125.08
1077.72	5421.47
1081.44	8898.28
1085.16	15089.5
1088.88	20704.3
1092.59	21402.1
1096.31	20050
1100.02	18728.7
1103.73	16315
1107.44	9520.66
1111.15	3745.65
1114.86	1562.23
1118.57	891.85
1122.27	681.076
1125.97	510.26
1129.67	109.49
1133.37	48.592
1137.07	207.547
1140.76	356.385
1144.45	205.199
1148.15	104.445
1151.84	55.928
1155.53	194.225
1159.21	534.756
1162.9	475.869
1166.58	967.412
1170.26	1039.67
1173.94	901.783
1177.62	793.93
1181.3	686.412
1184.97	899.418
1188.65	973.135
1192.32	1707.36
1195.99	1549.44
1199.66	1363.57
1203.33	1061.83
1206.99	593.346
1210.65	266.748
1214.32	250.898
1217.98	285.285
1221.64	269.918
1225.29	414.682
1228.95	519.506
1232.6	92.242
1236.26	260.654
1239.91	288.896
1243.56	165.062
1247.2	310.756
1250.85	135.787
1254.49	305.785
1258.13	221.25
