Measurement: Raman, 514 nm, ccw, Raman Data Processed
Mineral: Mesolite
Rruff sample: R050013
Ideal chemistry: Na_2_Ca_2_(Si_9_Al_6_)O_30_8H_2_O
Locality: Poona, Maharashtra, India
Source: University of Arizona Mineral Museum
Description: Clear to white elongated prismatic single crystal
Measured chemistry: Na_2.00_Ca_2.00_(Si_9.00_Al_6.00_)O_30_Â·8H_2_O
Pin_id: M00325
Orientation: Laser parallel to -c* (0 0 -1). Fiducial mark perpendicular to laser is parallel to a [1 0 0]
Raman shift (cm-1)	intensity
123.377	0
127.556	409.723
131.734	2527.95
135.909	2233.07
140.083	2376.57
144.254	4511.4
148.423	4713.63
152.59	6169.82
156.755	5992.2
160.918	4765.91
165.078	5148.96
169.237	5399.19
173.393	3213.14
177.548	1476.33
181.7	1020.12
185.85	918.287
189.998	199.266
194.144	16.101
198.288	239.123
202.429	277.336
206.569	67.33
210.707	208.326
214.842	262.601
218.976	1110.08
223.107	3683.44
227.236	5476.26
231.363	3584.6
235.488	2630.33
239.611	3226.71
243.732	2950.54
247.851	1292.2
251.967	818.843
256.082	1092.95
260.195	637.577
264.305	7.264
268.414	356.194
272.52	486.208
276.624	337.35
280.726	110.242
284.827	266.198
288.925	1340.71
293.021	2783.53
297.115	2700.2
301.207	2261.13
305.296	1634.92
309.384	1161.9
313.47	966.465
317.554	584.456
321.635	330.863
325.715	212.558
329.792	262.652
333.868	393.553
337.941	387.433
342.013	595.494
346.082	1065.85
350.15	1255.59
354.215	1165.8
358.278	1008.75
362.339	1064.7
366.399	1024.27
370.456	708.555
374.511	401.804
378.564	205.853
382.615	158.695
386.664	258.541
390.711	301.355
394.756	373.15
398.799	531.941
402.84	928.718
406.879	1844.47
410.916	3376.21
414.951	4123.93
418.983	4511.56
423.014	4618.17
427.043	4132.61
431.07	3573.5
435.095	4410.43
439.118	6911.75
443.138	9358.41
447.157	9615.57
451.174	8122.63
455.189	6168.72
459.202	4130.73
463.212	2567.59
467.221	1640.39
471.228	1181.11
475.233	945.443
479.236	829.842
483.237	724.853
487.235	770.727
491.232	828.886
495.227	909.815
499.22	991.083
503.211	1206.42
507.2	1776.81
511.187	2664.28
515.172	4314.79
519.155	6810.31
523.136	12105.9
527.115	21762.5
531.092	28399.3
535.067	20126.5
539.04	11327.6
543.011	6107.16
546.98	3571.55
550.947	2173.76
554.913	1358.35
558.876	910.027
562.837	656.787
566.797	488.628
570.754	344.549
574.709	230.548
578.663	216.627
582.614	266.783
586.564	312.057
590.511	211.065
594.457	156.347
598.401	216.953
602.343	277.578
606.282	247.601
610.22	218.686
614.156	123.82
618.09	43
622.022	34.224
625.952	49.401
629.88	47.734
633.807	123.289
637.731	78.631
641.653	57.007
645.574	8.942
649.492	47.735
653.409	99.968
657.323	290.122
661.236	448.926
665.147	880.061
669.056	1462.58
672.963	1732.54
676.868	1297.78
680.771	710.585
684.672	336.837
688.571	242.571
692.468	354.929
696.364	459.137
700.257	593.239
704.149	838.154
708.038	1391.2
711.926	2151.34
715.812	1998.42
719.696	1294.24
723.578	766.923
727.458	501.67
731.336	402.344
735.213	368.883
739.087	405.174
742.96	514.339
746.83	607.522
750.699	889.547
754.566	1105.48
758.431	1077.2
762.294	1000.62
766.155	743.764
770.014	458.547
773.872	284.159
777.727	190.571
781.581	101.597
785.433	55.496
789.282	23.096
793.13	29.573
796.977	2.533
800.821	22.26
804.663	34.99
808.504	17.164
812.342	41.805
816.179	15.903
820.014	13.424
823.847	16.617
827.678	10.33
831.507	14.228
835.334	12.938
839.16	17.881
842.983	46.609
846.805	56.136
850.625	59.467
854.443	68.602
858.259	38.546
862.074	46.297
865.886	53.852
869.697	73.211
873.506	58.377
877.313	58.354
881.118	64.142
884.921	67.742
888.722	74.159
892.522	70.396
896.319	34.461
900.115	64.346
903.909	57.054
907.701	54.586
911.492	55.944
915.28	90.135
919.067	107.163
922.852	86.035
926.635	142.756
930.416	203.331
934.195	299.566
937.973	395.269
941.748	314.221
945.522	231.578
949.294	220.125
953.064	206.484
956.832	223.615
960.599	247.162
964.364	348.056
968.127	523.401
971.888	658.874
975.647	659.382
979.404	631.51
983.16	755.083
986.914	1022.05
990.666	1265.12
994.416	1776.87
998.164	2586.55
1001.91	2392.29
1005.65	1339.12
1009.4	877.914
1013.14	688.695
1016.88	688.303
1020.62	792.936
1024.35	1262.65
1028.09	2002.44
1031.82	2794.1
1035.55	3074.74
1039.28	2513.13
1043	1976.43
1046.73	1543.31
1050.45	1259.24
1054.17	1148.07
1057.89	1317.91
1061.61	1448.91
1065.33	1448.13
1069.04	1590.34
1072.75	1913.72
1076.46	2162.17
1080.17	2321.83
1083.88	2099.31
1087.59	1663.83
1091.29	1119.41
1094.99	841.158
1098.69	773.98
1102.39	771.026
1106.09	715.462
1109.78	593.077
1113.47	477.985
1117.16	417.589
1120.85	396.712
1124.54	371.889
1128.23	362.459
1131.91	284.489
1135.59	236.962
1139.27	152.81
1142.95	146.148
1146.63	75.478
1150.3	76.131
1153.98	56.528
1157.65	51.128
1161.32	39.12
1164.99	38.604
1168.65	27.111
1172.32	1.354
1175.98	10.867
1179.64	12.667
1183.3	27.687
1186.96	0.22
1190.62	7.48
1194.27	11.619
1197.92	14.389
1201.57	3.372
1205.22	5.387
1208.87	1.289
1212.51	20.945
1216.16	31
1219.8	48.696
1223.44	8.448
1227.08	29.48
1230.72	23.692
1234.35	17.365
1237.98	1.091
1241.62	7.316
1245.25	17.287
1248.87	35.161
1252.5	32.786
1256.12	5.244
1259.75	29.711
1263.37	12.007
1266.99	1.661
1270.61	16.47
1274.22	15.218
1277.84	0.929
1281.45	19.495
1285.06	31.407
1288.67	27.115
1292.28	9.719
1295.88	18.265
1299.49	6.7
1303.09	29.946
1306.69	18.292
1310.29	25.46
1313.89	14.566
1317.48	36.518
1321.08	53.458
1324.67	13.311
1328.26	20.528
1331.85	39.987
1335.44	6.995
1339.02	0.405
1342.61	9.747
1346.19	22.997
1349.77	41.078
1353.35	49.187
1356.92	3.219
1360.5	49.137
1364.07	8.988
1367.64	6.571
1371.21	2.389
1374.78	14.042
1378.35	41.301
1381.91	42.888
1385.48	86.301
1389.04	39.538
1392.6	78.719
1396.16	53.094
1399.71	16.824
1403.27	28.268
1406.82	21.234
1410.38	32.351
1413.92	26.682
1417.47	25.488
1421.02	68.516
1424.57	41.063
1428.11	55.613
1431.65	51.507
1435.19	58.404
1438.73	27.123
1442.27	32.502
1445.8	31.728
1449.33	43.074
1452.87	51.88
1456.4	66.858
1459.92	31.344
1463.45	62.036
1466.98	67.506
1470.5	72.385
1474.02	52.924
1477.54	44.635
1481.06	30.543
1484.58	46.492
1488.09	21.291
1491.61	0.905
1495.12	0.947
1498.63	23.482
1502.14	31.105
1505.64	27.668
1509.15	37.556
1512.65	40.431
1516.15	80.458
