Measurement: Raman, 514 nm, ccw, Raman Data Processed
Mineral: Mesolite
Rruff sample: R040139
Ideal chemistry: Na_2_Ca_2_(Si_9_Al_6_)O_30_8H_2_O
Locality: Lake Superior beach,  41 miles north of Tofte, Minnesota, USA
Source: University of Arizona Mineral Museum
Description: Aggregate of white radiating thin acicular crystals.
Measured chemistry: Na_1.95_Ca_1.89_(Si_9.21_Al_5.82_)O_30_Â·8H_2_O
Pin_id: L00494
Raman shift (cm-1)	intensity
74.587	0
78.758	479.307
82.928	2.037
87.096	268.963
91.262	655.776
95.426	2174.18
99.588	2452.8
103.748	2784.16
107.907	3628.6
112.063	4075.93
116.218	4207.53
120.371	3390.33
124.522	2298.26
128.671	2604.62
132.818	4217.91
136.963	4591.41
141.107	4133.24
145.248	5761.44
149.388	8355.86
153.526	9677.12
157.662	11786.3
161.796	11033.1
165.929	9678.49
170.059	9783.02
174.188	9207.34
178.315	7151.5
182.44	5523.89
186.563	4792.82
190.684	3995.32
194.803	2723.23
198.921	2201.3
203.037	1571.85
207.15	871.677
211.262	613.812
215.373	997.312
219.481	907.537
223.588	1256.47
227.692	2725.17
231.795	3032.85
235.896	1749.47
239.995	1332.22
244.093	1725.69
248.188	1157.97
252.282	279.076
256.374	138.412
260.464	285.986
264.552	409.348
268.638	76.935
272.723	395.61
276.806	380.4
280.887	326.442
284.966	95.609
289.043	469.575
293.118	1686.18
297.192	2435.05
301.264	1962.26
305.334	1467.85
309.402	1054.86
313.469	485.333
317.533	267.328
321.596	133.875
325.657	20.919
329.716	57.254
333.774	250.982
337.829	289.047
341.883	312.326
345.935	367.376
349.985	621.18
354.034	955.83
358.08	782.32
362.125	573.631
366.168	562.301
370.209	694.551
374.249	652.634
378.286	310.568
382.322	190.358
386.356	154.981
390.388	223.404
394.419	146.596
398.447	178.465
402.474	489.106
406.499	983.647
410.523	1951.01
414.544	3312.14
418.564	4388.01
422.582	5968.59
426.598	6951.86
430.613	6112.14
434.625	5659.12
438.636	6675.39
442.646	9199.57
446.653	10442.7
450.658	9343.12
454.662	7074.61
458.664	4736.91
462.665	3146.91
466.663	2233.54
470.66	1800.44
474.655	1705.87
478.648	1756.68
482.64	2037.39
486.629	2536.53
490.617	3650.58
494.603	4089.93
498.588	3749.38
502.571	3419.63
506.552	3370.88
510.531	3849.97
514.508	4918.2
518.484	6809.56
522.458	10921
526.43	19702.4
530.4	34293.9
534.369	41045.5
538.336	29006.9
542.301	15777.4
546.265	8534.93
550.226	5022.2
554.186	3290.53
558.145	2335.52
562.101	1801.81
566.056	1354.45
570.009	1035.11
573.96	710.791
577.91	583.482
581.858	507.188
585.804	401.908
589.748	411.859
593.691	313.604
597.632	251.525
601.571	214.537
605.508	184.379
609.444	192.426
613.378	130.491
617.311	73.573
621.241	20.662
625.17	41.263
629.097	36.762
633.023	60.635
636.946	38.794
640.868	34.734
644.789	56.544
648.707	15.438
652.624	186.989
656.539	287.127
660.453	538.212
664.364	787.35
668.274	989.043
672.183	926.806
676.089	623.896
679.994	403.626
683.898	244.962
687.799	216.957
691.699	356.056
695.597	475.99
699.493	688.16
703.388	869.495
707.281	1304.02
711.172	2255.02
715.062	2839.05
718.95	2358.05
722.836	1380.76
726.721	855.42
730.604	593.864
734.485	476.864
738.364	399.612
742.242	436.22
746.118	526.384
749.993	716.443
753.866	942.333
757.737	1098.03
761.606	986.532
765.474	844.821
769.34	636.897
773.204	437.754
777.067	286.511
780.928	189.56
784.787	63.721
788.645	2.788
792.501	15.96
796.355	2.474
800.208	29.778
804.059	67.717
807.908	30.258
811.756	62.349
815.602	25.097
819.446	46.477
823.289	45.514
827.13	21.109
830.969	5.831
834.807	15.388
838.643	29.594
842.477	36.505
846.31	63.137
850.141	29.508
853.971	67.604
857.798	132.445
861.624	146.032
865.449	108.37
869.272	79.463
873.093	92.311
876.912	81.92
880.73	68.296
884.546	110.449
888.361	151.382
892.174	126.111
895.985	151.635
899.795	148.954
903.603	187.081
907.409	219.016
911.214	185.755
915.017	214.303
918.818	269.663
922.618	354.836
926.416	519.832
930.213	690.669
934.008	1279.35
937.801	2191.12
941.593	2188.28
945.383	1428.87
949.171	899.264
952.958	687.895
956.743	632.364
960.526	614.459
964.308	886.238
968.089	1302.33
971.867	1760.59
975.644	2480.58
979.42	2729.87
983.193	2006.87
986.966	1356.88
990.736	1287.17
994.505	1462.32
998.272	1711.32
1002.04	1755.94
1005.8	1690.81
1009.57	1500.42
1013.33	1243.57
1017.09	1176.99
1020.84	1314.34
1024.6	1632.92
1028.35	2328.55
1032.11	3267.25
1035.86	3900.49
1039.61	4521.77
1043.36	6307.51
1047.1	7484.17
1050.85	5323.3
1054.59	3529.89
1058.33	2320.49
1062.07	1922.42
1065.81	1791.22
1069.55	1945.99
1073.28	2288.04
1077.02	2551.33
1080.75	2709.85
1084.48	2774.79
1088.21	2504.75
1091.93	1948.8
1095.66	1501.96
1099.38	1293.32
1103.11	1182.95
1106.83	1101.76
1110.55	1086.89
1114.26	1016.33
1117.98	856.774
1121.69	668.273
1125.41	526.926
1129.12	434.87
1132.83	314.83
1136.54	235.851
1140.24	213.302
1143.95	167.716
1147.65	179.358
1151.36	90.581
1155.06	81.839
1158.76	109.573
1162.45	59.591
1166.15	15.276
1169.84	35.732
1173.53	71.623
1177.22	48.438
1180.91	66.814
1184.6	73.865
1188.29	52.119
1191.97	14.821
1195.66	20.927
1199.34	2.52
1203.02	41.974
1206.7	40.217
1210.37	16.495
1214.05	0.945
1217.72	38.899
1221.4	2.829
1225.07	24.619
1228.74	25.431
1232.4	32.435
1236.07	33.366
1239.73	19.789
1243.4	8.955
1247.06	9.606
1250.72	41.316
1254.38	19.796
1258.03	2.726
1261.69	10.549
1265.34	4.912
1268.99	17.125
1272.65	12.188
1276.3	5.03
1279.94	36.046
1283.59	3.695
1287.23	3.044
1290.88	3.228
1294.52	16.757
1298.16	9.081
1301.8	29.752
1305.43	16.257
1309.07	40.616
1312.7	12.187
1316.33	13.85
1319.96	29.348
1323.59	11.241
1327.22	21.494
1330.85	35.414
1334.47	47.828
1338.1	45.462
1341.72	61.15
1345.34	24.072
1348.96	51.281
1352.57	8.061
1356.19	11.79
1359.8	5.32
1363.41	54.516
1367.03	113.784
1370.63	94.241
1374.24	64.569
1377.85	70.655
1381.45	72.525
1385.06	24.02
1388.66	88.255
1392.26	72.762
1395.86	58.543
1399.46	81.654
1403.05	91.54
1406.65	92.465
1410.24	150.592
1413.83	128.908
1417.42	78.141
1421.01	25.43
1424.6	2.104
1428.18	69.769
1431.77	57.055
1435.35	52.164
1438.93	88.168
1442.51	66.969
1446.09	82.526
1449.66	93.575
1453.24	96.46
1456.81	117.746
1460.38	89.626
1463.95	34.537
1467.52	44.073
1471.09	30.906
1474.65	37.701
1478.22	25.539
1481.78	62.248
1485.34	82.749
1488.9	130.51
1492.46	131.48
1496.02	123.673
1499.58	100.246
1503.13	58.306
