Measurement: Raman, 514 nm, ccw, Raman Data Processed
Mineral: Mesolite
Rruff sample: R050013
Ideal chemistry: Na_2_Ca_2_(Si_9_Al_6_)O_30_8H_2_O
Locality: Poona, Maharashtra, India
Source: University of Arizona Mineral Museum
Description: Clear to white elongated prismatic single crystal
Measured chemistry: Na_2.00_Ca_2.00_(Si_9.00_Al_6.00_)O_30_Â·8H_2_O
Pin_id: M00156
Orientation: Laser parallel to -a* (-1 0 0). Fiducial mark perpendicular to laser is parallel to b [0 1 0]
Raman shift (cm-1)	intensity
113.208	0
118.134	71.3301
123.058	93.2559
127.979	815.881
132.898	1792.75
137.814	4283.98
142.728	7814.74
147.639	8892.41
152.549	10044.6
157.455	8900.05
162.359	8938.51
167.261	7727.88
172.161	6169.76
177.058	4848.31
181.952	4286.36
186.845	3097.07
191.734	2499.2
196.622	1751.82
201.507	1026.09
206.389	1388.89
211.269	1859.82
216.147	1140.18
221.022	1011.08
225.895	590.525
230.765	43.918
235.633	9.96875
240.498	88.6191
245.361	71.5644
250.222	89.9043
255.08	457.848
259.936	522.152
264.789	414.883
269.64	185.916
274.488	516.621
279.334	288.619
284.178	734.295
289.019	1334.37
293.857	752.471
298.693	195.268
303.527	128.81
308.358	99.9297
313.187	70.4238
318.013	192.299
322.837	14.9297
327.659	146.69
332.478	95.0254
337.294	264.596
342.108	767.389
346.92	810.426
351.729	601.729
356.535	322.951
361.34	21.0605
366.141	6.59375
370.94	72.0215
375.737	26.9434
380.531	45.7656
385.323	122.773
390.113	89.957
394.9	439.975
399.684	500.56
404.466	1018.4
409.245	1560
414.022	2950.36
418.797	4217.78
423.569	3956.97
428.338	4041.56
433.105	4794.51
437.87	5679.84
442.632	5473.82
447.391	4136.57
452.149	2679.44
456.903	1799.42
461.655	1502.81
466.405	1647.05
471.152	1973.61
475.897	2899.45
480.639	3926.56
485.378	5814.26
490.116	6146.69
494.85	5354.85
499.582	4593.52
504.312	4199.88
509.039	4876.61
513.764	7108.95
518.486	13211.1
523.206	24672.2
527.923	33196.8
532.638	24482.3
537.35	11824.2
542.059	5911.24
546.766	3446.69
551.471	2587.47
556.173	1764.54
560.873	1443.77
565.57	822.754
570.264	697.549
574.957	730.154
579.646	536.572
584.333	502.815
589.018	623.947
593.7	354.348
598.379	198
603.056	298.074
607.73	354.295
612.402	226.674
617.072	822.307
621.739	1093.96
626.403	1809.44
631.065	1369.9
635.724	691.074
640.381	1116.85
645.035	1596.82
649.687	1893.23
654.336	1336.64
658.983	811.166
663.627	312.809
668.268	27.6719
672.907	112.772
677.544	56.1074
682.178	83.7305
686.809	119.357
691.438	49.8984
696.065	402.676
700.688	617.166
705.31	1283.3
709.929	1819.12
714.545	1198.65
719.158	725.875
723.77	213.799
728.378	169.43
732.984	222.762
737.588	152.764
742.189	128.441
746.787	177.662
751.383	370.721
755.976	386.477
760.567	296.935
765.155	129.107
769.741	322.004
774.324	11.5801
778.904	35.543
783.482	27.7051
788.058	89.9883
792.631	75.8828
797.201	82.2676
801.769	127.861
806.334	11.7773
810.897	55.5996
815.457	158.445
820.014	12.1602
824.569	58.9258
829.122	170.17
833.671	0.982422
838.219	485.617
842.763	542.242
847.306	785.85
851.845	637.457
856.382	1123.07
860.917	1515.7
865.448	1138.37
869.978	585.906
874.505	755.709
879.029	281.533
883.55	325.619
888.069	485.418
892.586	327.525
897.1	426.184
901.611	193.254
906.12	401.387
910.626	395.603
915.129	202.457
919.63	546.934
924.129	515.625
928.625	1669.52
933.118	2794.44
937.609	2301.43
942.097	968.211
946.582	286.871
951.065	575.25
955.546	404.754
960.023	564.352
964.499	1311.56
968.971	1672.17
973.441	2403.19
977.909	1165.59
982.374	738.078
986.836	631.531
991.295	899.078
995.753	1275.02
1000.21	1412.35
1004.66	1406.28
1009.11	380.199
1013.55	768.074
1018	1274.43
1022.44	1971.48
1026.88	2779.66
1031.32	3323.36
1035.75	4580.72
1040.18	7788.39
1044.61	6449.42
1049.04	3695.93
1053.46	1898.79
1057.88	1301.34
1062.3	807.34
1066.71	1231.35
1071.13	1317.15
1075.54	1392.27
1079.94	1504.72
1084.35	1211.48
1088.75	870.418
1093.15	821.023
1097.55	596.019
1101.94	620.223
1106.34	573.629
1110.73	745.234
1115.11	658.027
1119.5	275.996
1123.88	250.137
1128.26	47.4492
1132.63	313.008
1137.01	141.82
1141.38	39.7461
1145.75	156.481
1150.12	100.887
1154.48	100.848
1158.84	41.2969
1163.2	85.3164
1167.55	444.473
1171.91	309.332
1176.26	149.277
1180.61	470.266
1184.95	382.219
1189.29	341.242
1193.63	172.332
1197.97	47.2891
1202.31	320.113
1206.64	168.66
1210.97	327.883
1215.29	225.812
1219.62	162.754
1223.94	187.664
1228.26	280.586
1232.57	431.508
1236.89	741.43
1241.2	562.344
1245.51	770.246
1249.81	635.125
1254.12	626.086
1258.42	660.078
1262.72	480.934
1267.01	841.723
1271.3	886.055
1275.59	982.254
1279.88	803.894
1284.17	797.441
1288.45	574.215
1292.73	1023.94
1297.01	719.312
1301.28	641.133
1305.55	567.18
1309.82	944.156
1314.09	1094.18
1318.35	1279.19
1322.61	928.188
1326.87	877.637
1331.13	235.738
1335.38	553.902
1339.63	381.141
1343.88	162.453
1348.12	232.16
1352.37	232.633
1356.61	272.062
1360.85	55.4375
1365.08	348.535
1369.31	289.527
1373.54	159.332
1377.77	533.125
1381.99	386.91
1386.22	531.414
1390.43	460.367
1394.65	203.836
1398.87	55.1914
1403.08	43.3398
1407.29	171.562
1411.49	81.0664
1415.69	78.3359
1419.89	155.266
1424.09	0.039063
1428.29	299.496
1432.48	620.723
1436.67	1012.91
1440.86	1537.64
1445.04	1825.31
1449.23	2244.07
1453.4	2367.38
1457.58	2320.85
1461.76	1887.53
1465.93	1251.42
1470.1	1152.52
1474.26	885.91
1478.43	726.328
1482.59	601.684
1486.75	423.199
1490.9	306.082
1495.06	87.375
1499.21	367.891
1503.35	108.207
1507.5	340.93
1511.64	162.266
1515.78	23.3477
1519.92	33.2305
1524.05	302.867
1528.18	292.773
1532.31	423.652
1536.44	138.176
1540.56	204.879
1544.69	139.488
1548.8	289.18
1552.92	558.5
1557.03	211.84
1561.14	158.871
1565.25	203.488
1569.36	1.08203
