Measurement: Raman, 514 nm, ccw, Raman Data Processed
Mineral: Mesolite
Rruff sample: R050013
Ideal chemistry: Na_2_Ca_2_(Si_9_Al_6_)O_30_8H_2_O
Locality: Poona, Maharashtra, India
Source: University of Arizona Mineral Museum
Description: Clear to white elongated prismatic single crystal
Measured chemistry: Na_2.00_Ca_2.00_(Si_9.00_Al_6.00_)O_30_Â·8H_2_O
Pin_id: M00096
Orientation: Laser parallel to b* (0 1 0). Fiducial mark perpendicular to laser is parallel to c [0 0 1]
Raman shift (cm-1)	intensity
88.542	0
93.48	1948.06
98.416	3551.76
103.349	4003.63
108.28	4150.2
113.208	1127.61
118.134	338.514
123.058	12.834
127.979	217.697
132.898	1469.29
137.814	2954.2
142.728	3490.74
147.639	5745.29
152.549	4177.46
157.455	4475.08
162.359	3838.81
167.261	3396.17
172.161	3678.43
177.058	2643.67
181.952	2287.69
186.845	1461.66
191.734	926.102
196.622	362.557
201.507	506.557
206.389	22.8906
211.269	322.215
216.147	60.3613
221.022	92.9082
225.895	182.045
230.765	132.818
235.633	320.232
240.498	454.551
245.361	721.826
250.222	94.457
255.08	155.549
259.936	155.059
264.789	27.1152
269.64	250.996
274.488	747.072
279.334	1160.17
284.178	2177.86
289.019	2742.2
293.857	3361.24
298.693	2553.24
303.527	1326.96
308.358	815.232
313.187	596.566
318.013	535.072
322.837	577.385
327.659	479.603
332.478	320.123
337.294	103.564
342.108	564.775
346.92	956.072
351.729	1062.78
356.535	1227.58
361.34	1027.44
366.141	540.029
370.94	433.338
375.737	164.916
380.531	171.973
385.323	87.9141
390.113	125.057
394.9	149.641
399.684	520.812
404.466	1095.63
409.245	1944.15
414.022	2485.78
418.797	2330.44
423.569	2095.24
428.338	1784.18
433.105	2158.31
437.87	2592.63
442.632	3180.2
447.391	2621.06
452.149	1947.28
456.903	1276.87
461.655	633.943
466.405	497.363
471.152	319.623
475.897	356.85
480.639	297.834
485.378	541.383
490.116	611.594
494.85	811.193
499.582	1313.09
504.312	2128.42
509.039	3527.11
513.764	5701.29
518.486	10917.5
523.206	20836.8
527.923	29817.3
532.638	33151.6
537.35	22645.3
542.059	10629.2
546.766	5181.89
551.471	3188.3
556.173	2320.95
560.873	1526.79
565.57	888.613
570.264	687.436
574.957	506.277
579.646	320.147
584.333	244.055
589.018	299.844
593.7	159.06
598.379	76.2754
603.056	53.8086
607.73	86.6875
612.402	157.066
617.072	352.018
621.739	779.506
626.403	1230.4
631.065	383.85
635.724	303.365
640.381	343.428
645.035	758.537
649.687	826.547
654.336	573.205
658.983	245.522
663.627	394.451
668.268	9.71094
672.907	44.7109
677.544	4.40039
682.178	64.9356
686.809	134.244
691.438	172.254
696.065	312.768
700.688	614.174
705.31	1238.48
709.929	1882.69
714.545	2043.79
719.158	1373.78
723.77	454.648
728.378	253.4
732.984	141.023
737.588	442.51
742.189	268.752
746.787	744.959
751.383	1122.32
755.976	996.232
760.567	917.008
765.155	523.625
769.741	259.078
774.324	81.2695
778.904	48.8867
783.482	50.1621
788.058	14.1641
792.631	36.6348
797.201	8.94336
801.769	52.2695
806.334	154.984
810.897	6.45117
815.457	17.6953
820.014	279.102
824.569	211.51
829.122	161.644
833.671	335.68
838.219	212.291
842.763	427.652
847.306	512.764
851.845	813.621
856.382	1035.24
860.917	1475.42
865.448	861.736
869.978	651.602
874.505	452.17
879.029	581.764
883.55	287.143
888.069	222.457
892.586	438.863
897.1	226.162
901.611	442.557
906.12	249.699
910.626	314.818
915.129	196.4
919.63	212.023
924.129	106.678
928.625	186.672
933.118	444.4
937.609	217.914
942.097	173.734
946.582	227.383
951.065	306.975
955.546	12.1055
960.023	359.891
964.499	386.877
968.971	506.256
973.441	744.635
977.909	922.008
982.374	428.377
986.836	584.756
991.295	712.148
995.753	847.555
1000.21	1544.99
1004.66	919.449
1009.11	465.562
1013.55	246.576
1018	702.334
1022.44	1036.38
1026.88	1280.27
1031.32	1457.96
1035.75	1770.7
1040.18	2909.73
1044.61	3109.64
1049.04	2010.19
1053.46	946.824
1057.88	411.381
1062.3	326.018
1066.71	277.674
1071.13	282.695
1075.54	318.18
1079.94	827.996
1084.35	821.701
1088.75	799.379
1093.15	717.184
1097.55	947.072
1101.94	430.719
1106.34	521.846
1110.73	367.072
1115.11	284.397
1119.5	244.812
1123.88	438.315
1128.26	356.906
1132.63	280.586
1137.01	191.357
1141.38	26.9258
1145.75	54.6855
1150.12	86.4238
1154.48	17.1387
1158.84	53.5605
1163.2	125.754
1167.55	0.605469
1171.91	237.273
1176.26	72.9609
1180.61	185.734
1184.95	101.43
1189.29	171.113
1193.63	134.766
1197.97	253.059
1202.31	135.328
1206.64	32.543
1210.97	108.797
1215.29	522.519
1219.62	145.148
1223.94	204.836
1228.26	169.578
1232.57	352.797
1236.89	320.656
1241.2	347.312
1245.51	295.469
1249.81	504.703
1254.12	291.981
1258.42	334.32
1262.72	608.988
1267.01	569.445
1271.3	533
1275.59	494.574
1279.88	567.031
1284.17	265.816
1288.45	703.547
1292.73	558.977
1297.01	260.938
1301.28	426.996
1305.55	510.504
1309.82	878.844
1314.09	827.598
1318.35	823.457
1322.61	624.473
1326.87	317.566
1331.13	222.516
1335.38	195.336
1339.63	118.871
1343.88	351.418
1348.12	189.023
1352.37	182.727
1356.61	304.527
1360.85	58.7344
1365.08	11.4922
1369.31	343.266
1373.54	255.731
1377.77	225.519
1381.99	546.457
1386.22	216.914
1390.43	276.82
1394.65	166.981
1398.87	188.383
1403.08	2.91016
1407.29	183.312
1411.49	314.371
1415.69	95.5
1419.89	171.031
1424.09	242.316
1428.29	284.367
1432.48	533.824
1436.67	777.531
1440.86	1253.02
1445.04	1590.07
1449.23	1859.56
1453.4	1956.04
1457.58	1876.7
1461.76	1360.76
1465.93	987.82
1470.1	689.965
1474.26	794.856
1478.43	605.856
1482.59	524.691
1486.75	751.738
1490.9	310.297
1495.06	54.6992
1499.21	378.281
1503.35	276.777
1507.5	384.668
1511.64	18.8555
1515.78	332.773
1519.92	209.512
1524.05	359.672
1528.18	313.91
1532.31	439.644
1536.44	552.066
1540.56	446.215
1544.69	254.008
1548.8	381.848
1552.92	291.555
1557.03	231.949
1561.14	154.367
1565.25	280.938
1569.36	148.461
