Measurement: Raman, 514 nm, ccw, Raman Data Processed
Mineral: Mesolite
Rruff sample: R050013
Ideal chemistry: Na_2_Ca_2_(Si_9_Al_6_)O_30_8H_2_O
Locality: Poona, Maharashtra, India
Source: University of Arizona Mineral Museum
Description: Clear to white elongated prismatic single crystal
Measured chemistry: Na_2.00_Ca_2.00_(Si_9.00_Al_6.00_)O_30_Â·8H_2_O
Pin_id: M00156
Orientation: Laser parallel to -a* (-1 0 0). Fiducial mark perpendicular to laser is parallel to b [0 1 0]
Raman shift (cm-1)	intensity
113.208	0
118.134	4.88184
123.058	641.302
127.979	1911.19
132.898	2264.56
137.814	4324.4
142.728	7356.55
147.639	7437.33
152.549	8907.74
157.455	7990.86
162.359	7819.24
167.261	7157.91
172.161	6349.01
177.058	4665.61
181.952	3684.34
186.845	2641.81
191.734	2519.69
196.622	2003.99
201.507	1090.27
206.389	432.85
211.269	267.848
216.147	126.193
221.022	138.727
225.895	151.784
230.765	49.251
235.633	328.498
240.498	437.835
245.361	407.83
250.222	728.739
255.08	628.312
259.936	750.277
264.789	805.487
269.64	905.118
274.488	621.07
279.334	843.643
284.178	1670.52
289.019	2844.16
293.857	2397.88
298.693	1315.29
303.527	580.936
308.358	165.641
313.187	143.936
318.013	361.231
322.837	259.444
327.659	355.137
332.478	471.664
337.294	481.227
342.108	913.836
346.92	1133.62
351.729	877.218
356.535	472.629
361.34	282.813
366.141	263.795
370.94	31.8486
375.737	359.478
380.531	82.4785
385.323	128.299
390.113	94.1484
394.9	556.254
399.684	692.027
404.466	1194.91
409.245	1915.62
414.022	2405.5
418.797	3133.82
423.569	3217.1
428.338	2984.69
433.105	3515.42
437.87	4629.35
442.632	4578.54
447.391	3681.72
452.149	2114.89
456.903	1348.91
461.655	886.906
466.405	722.359
471.152	704.842
475.897	1052.21
480.639	1567.51
485.378	2447.72
490.116	2840.91
494.85	2765.92
499.582	2697.13
504.312	3145.75
509.039	4246.47
513.764	7192.04
518.486	13085.8
523.206	26417.5
527.923	37689
532.638	28432.7
537.35	14444.4
542.059	6861.17
546.766	3866.84
551.471	2560.53
556.173	1717.84
560.873	1319.41
565.57	919.898
570.264	677.275
574.957	505.551
579.646	477.736
584.333	292.832
589.018	560.854
593.7	244.918
598.379	188.639
603.056	169.234
607.73	261.613
612.402	457.039
617.072	779.486
621.739	1441.93
626.403	1849.35
631.065	980.082
635.724	530.74
640.381	845.787
645.035	1272.62
649.687	1391.67
654.336	1041.91
658.983	374.299
663.627	115.269
668.268	0.205078
672.907	193.723
677.544	199.277
682.178	44.1152
686.809	116.094
691.438	101.24
696.065	331.998
700.688	760.416
705.31	1591.5
709.929	2206.24
714.545	1580.65
719.158	857.725
723.77	365.461
728.378	187.853
732.984	300.91
737.588	109.613
742.189	238.955
746.787	826.961
751.383	846.631
755.976	760.973
760.567	626.988
765.155	253.684
769.741	198.043
774.324	112.076
778.904	106.885
783.482	163.59
788.058	96.0391
792.631	149.066
797.201	35.209
801.769	36.3535
806.334	24.9727
810.897	178.867
815.457	15.4316
820.014	31.2227
824.569	112.867
829.122	216.912
833.671	254.514
838.219	339.277
842.763	443.94
847.306	646.512
851.845	827.006
856.382	1307.43
860.917	1764.81
865.448	1128.14
869.978	676.43
874.505	628.977
879.029	269.514
883.55	216.447
888.069	367.678
892.586	443.215
897.1	298.863
901.611	288.58
906.12	277.965
910.626	186.273
915.129	276.441
919.63	294.746
924.129	363.772
928.625	930.207
933.118	1562.9
937.609	1375.03
942.097	824.621
946.582	200.316
951.065	483.766
955.546	486.832
960.023	519.695
964.499	932.023
968.971	1450.66
973.441	1691.57
977.909	803.777
982.374	708.269
986.836	1032.06
991.295	1261.14
995.753	1387.52
1000.21	1969.2
1004.66	1535
1009.11	725.123
1013.55	899.988
1018	1340.19
1022.44	1741.32
1026.88	2346.08
1031.32	2741.32
1035.75	3561.18
1040.18	5636.28
1044.61	5043.62
1049.04	2459.47
1053.46	1580.99
1057.88	669.777
1062.3	688.814
1066.71	738.445
1071.13	579.17
1075.54	925.518
1079.94	1127.34
1084.35	1197.11
1088.75	857.482
1093.15	761.785
1097.55	647.912
1101.94	511.764
1106.34	596.021
1110.73	652.731
1115.11	658.518
1119.5	396.377
1123.88	437.305
1128.26	405.299
1132.63	331.35
1137.01	364.447
1141.38	151.441
1145.75	132.025
1150.12	72.8418
1154.48	60.1719
1158.84	26.625
1163.2	100.998
1167.55	358.125
1171.91	91.7519
1176.26	273.66
1180.61	210.58
1184.95	123.502
1189.29	63.8164
1193.63	24.2812
1197.97	84.6055
1202.31	203.346
1206.64	178.887
1210.97	354.096
1215.29	222.256
1219.62	315.379
1223.94	13.5371
1228.26	199.441
1232.57	426.379
1236.89	605.881
1241.2	402.748
1245.51	480.606
1249.81	551.521
1254.12	152.414
1258.42	605.436
1262.72	935.518
1267.01	811.986
1271.3	988.576
1275.59	939.672
1279.88	894.639
1284.17	765.014
1288.45	457.185
1292.73	969.998
1297.01	664.496
1301.28	886.021
1305.55	1270.57
1309.82	1130.12
1314.09	1535.69
1318.35	1530.82
1322.61	892.879
1326.87	610.502
1331.13	509.272
1335.38	238.156
1339.63	271.637
1343.88	263.783
1348.12	98.0606
1352.37	65.7812
1356.61	258.381
1360.85	392.137
1365.08	90.9336
1369.31	375.887
1373.54	154.34
1377.77	739.656
1381.99	373.953
1386.22	274.359
1390.43	287.656
1394.65	222.639
1398.87	171.391
1403.08	295.418
1407.29	284.848
1411.49	132.736
1415.69	106.621
1419.89	186.787
1424.09	203.307
1428.29	417.164
1432.48	884.971
1436.67	1392.24
1440.86	2134
1445.04	2358.75
1449.23	2565.6
1453.4	2979.78
1457.58	2746.78
1461.76	2443.2
1465.93	1653.13
1470.1	1062.57
1474.26	1195.25
1478.43	1049.08
1482.59	783.715
1486.75	771.225
1490.9	352.103
1495.06	253.545
1499.21	110.578
1503.35	253.238
1507.5	179.68
1511.64	40.0586
1515.78	226.139
1519.92	152.797
1524.05	371.168
1528.18	396.185
1532.31	438.518
1536.44	671.217
1540.56	513.951
1544.69	332.07
1548.8	443.088
1552.92	406.685
1557.03	231.492
1561.14	365.928
1565.25	11.4648
1569.36	345.904
