Measurement: Raman, 514 nm, ccw, Raman Data Processed
Mineral: Mesolite
Rruff sample: R040139
Ideal chemistry: Na_2_Ca_2_(Si_9_Al_6_)O_30_8H_2_O
Locality: Lake Superior beach,  41 miles north of Tofte, Minnesota, USA
Source: University of Arizona Mineral Museum
Description: Aggregate of white radiating thin acicular crystals.
Measured chemistry: Na_1.95_Ca_1.89_(Si_9.21_Al_5.82_)O_30_Â·8H_2_O
Pin_id: L00551
Raman shift (cm-1)	intensity
83.57	0
87.705	44.278
91.839	205.772
95.971	1426.17
100.101	1800.87
104.23	2255.79
108.358	3095.54
112.484	3092.43
116.608	3284.88
120.731	1994.06
124.853	935.06
128.973	1267.35
133.092	2684.69
137.209	3987.72
141.325	4175.66
145.439	6562.67
149.552	10842.6
153.664	11643.8
157.774	14087
161.882	13764
165.989	11885.4
170.095	11929.5
174.199	11498.9
178.301	9705.31
182.403	7342.96
186.502	6283.78
190.601	5457.51
194.698	3451.83
198.793	2536.48
202.887	1926.62
206.979	1166.66
211.07	821.82
215.16	1342.68
219.248	1045.38
223.335	1476.17
227.42	3344.11
231.504	3994.35
235.586	2663.19
239.667	1909.79
243.746	2191.87
247.824	1819.34
251.901	646.672
255.976	180.679
260.05	352.852
264.122	165.092
268.193	309.544
272.262	597.338
276.33	663.267
280.396	393.66
284.461	38.799
288.525	606.781
292.587	1986.77
296.648	3385.58
300.707	2897.69
304.765	2286.19
308.821	1603.27
312.876	1014.02
316.93	648.59
320.982	331.054
325.033	121.46
329.082	205.969
333.13	363.874
337.176	452.635
341.221	525.765
345.265	876.402
349.307	1319.37
353.347	1803.78
357.387	1471.81
361.425	1242.45
365.461	1189.61
369.496	1158.97
373.529	953.555
377.562	595.595
381.592	481.222
385.622	352.444
389.65	556.266
393.676	573.715
397.701	715.706
401.725	1011.25
405.747	1528.46
409.768	2875.36
413.787	4826.43
417.805	6175.71
421.822	7017.57
425.837	7287.47
429.85	6845.51
433.863	6801.99
437.874	8630.14
441.883	12339
445.891	15748.2
449.898	16058.5
453.903	13421.4
457.907	9903.86
461.91	6375.95
465.911	4009.42
469.91	2770.44
473.908	2210.97
477.905	2045.64
481.901	2102.31
485.895	2375.74
489.887	2782.15
493.879	3316.07
497.868	3758.98
501.857	3843.8
505.844	4151.51
509.83	4882.07
513.814	6462.74
517.797	9503.54
521.778	14694.4
525.758	25245.2
529.737	43736
533.714	53955.7
537.69	42465.6
541.664	22712
545.638	12116.2
549.609	7162.6
553.58	4630.32
557.548	3301.47
561.516	2319.71
565.482	1776.8
569.447	1366.08
573.41	1070.77
577.372	855.521
581.333	675.368
585.292	689.305
589.25	541.815
593.206	449.762
597.161	286.555
601.115	207.026
605.067	296.634
609.018	258.631
612.968	218.672
616.916	43.734
620.863	76.179
624.808	92.123
628.752	30.966
632.695	72.026
636.636	142.311
640.576	151.547
644.514	144.068
648.452	43.859
652.387	155.775
656.322	228.687
660.255	389.726
664.186	583.113
668.117	960.52
672.046	1369.22
675.973	1382.94
679.899	958.731
683.824	604.518
687.748	536.417
691.67	379.449
695.59	473.241
699.51	792.437
703.428	1034.93
707.344	1681.13
711.26	2672.04
715.173	3673.66
719.086	3325.86
722.997	2176.05
726.907	1361.46
730.815	837.898
734.723	639.389
738.628	620.683
742.533	587.884
746.436	697.894
750.337	891.259
754.238	1160.57
758.137	1321.69
762.034	1355.34
765.931	1199.72
769.825	896.826
773.719	601.651
777.611	430.471
781.502	261.38
785.392	268.47
789.28	150.389
793.167	87.699
797.052	21.09
800.936	33.615
804.819	106.575
808.7	10.878
812.58	39.424
816.459	98.505
820.336	143.424
824.212	52.187
828.087	0.379
831.961	51.607
835.833	44.833
839.703	11.042
843.573	45.659
847.441	72.999
851.307	143.001
855.173	91.686
859.037	107.051
862.899	103.101
866.76	102.841
870.62	160.28
874.479	179.429
878.336	128.287
882.192	69.847
886.047	146.111
889.9	102.104
893.752	123.846
897.603	150.342
901.452	204.582
905.3	134.57
909.147	121.312
912.992	193.802
916.836	309.051
920.679	396.062
924.52	509.849
928.36	538.411
932.199	724.349
936.036	1019.91
939.872	1708.74
943.707	2223.16
947.541	1923.71
951.373	1400.51
955.204	1257.63
959.033	1021.18
962.861	965.552
966.688	1062.02
970.513	1575.55
974.338	2232.12
978.16	2564.11
981.982	2276.24
985.802	1868.97
989.621	1672.34
993.439	1819.19
997.255	2073.15
1001.07	2497.49
1004.88	3004.17
1008.7	2922.91
1012.51	2243.63
1016.32	1696.51
1020.12	1632.68
1023.93	1748.35
1027.74	2167.06
1031.54	3168.48
1035.35	4783.71
1039.15	6459.85
1042.95	7066.67
1046.75	7144.68
1050.55	6622.14
1054.34	4988.39
1058.14	3585.56
1061.93	3072.04
1065.72	3038.68
1069.52	3185.38
1073.31	3202.25
1077.1	3329.74
1080.88	3446.54
1084.67	3563.38
1088.45	3610.43
1092.24	3367.37
1096.02	2830.46
1099.8	2204.48
1103.58	1713.88
1107.36	1688.59
1111.14	1627.66
1114.91	1488.13
1118.69	1296.76
1122.46	1147.77
1126.23	947.426
1130	710.195
1133.77	575.298
1137.54	482.804
1141.31	355.532
1145.07	290.855
1148.84	276.336
1152.6	221.382
1156.36	228.17
1160.12	260.461
1163.88	168.25
1167.64	47.872
1171.4	1.439
1175.15	64.281
1178.9	35.667
1182.66	103.386
1186.41	31.009
1190.16	88.947
1193.91	106.223
1197.66	25.162
1201.4	2.572
1205.15	22.212
1208.89	6.418
1212.63	28.771
1216.38	28.856
1220.12	77.591
1223.85	15.057
1227.59	80.27
1231.33	69.62
1235.06	13.522
1238.8	102.267
1242.53	141.301
1246.26	98.154
1249.99	146.887
1253.72	101.546
1257.44	51.844
1261.17	114.948
1264.89	52.019
1268.62	81.089
1272.34	48.53
1276.06	70.207
1279.78	65.289
1283.5	66.154
1287.22	15.831
1290.93	6.729
1294.65	17.863
1298.36	28.034
1302.07	172.179
1305.78	95.202
1309.49	179.182
1313.2	101.184
1316.91	218.712
1320.61	205.821
1324.32	96.917
1328.02	66.567
1331.72	91.983
1335.42	73.962
1339.12	3.807
1342.82	58.822
1346.52	249.281
1350.21	419.945
1353.91	208.244
1357.6	171.622
1361.29	226.198
1364.98	13.425
1368.67	69.454
1372.36	21.532
1376.05	25.085
1379.73	159.629
1383.42	79.566
1387.1	144.231
1390.78	149.519
1394.46	177.472
1398.14	122.185
1401.82	132.898
1405.5	147.348
1409.17	16.298
1412.85	29.677
1416.52	150.066
1420.19	140.734
1423.87	224.77
1427.53	238.172
1431.2	296.231
1434.87	282.25
1438.54	112.239
1442.2	137.965
1445.86	26.964
1449.53	25.455
1453.19	67.981
1456.85	11.211
1460.5	210.501
1464.16	212.231
1467.82	252.036
1471.47	391.314
1475.12	319.035
1478.78	267.289
1482.43	260.292
1486.08	227.995
1489.73	96.155
1493.37	190.404
1497.02	254.639
1500.66	163.354
1504.31	266.82
1507.95	249.321
1511.59	340.391
1515.23	348.092
1518.87	396.48
1522.51	367.194
1526.14	204.361
1529.78	94.748
1533.41	118.131
1537.05	161.583
1540.68	0.652
