Measurement: Raman, 514 nm, ccw, Raman Data Processed
Mineral: Mesolite
Rruff sample: R050013
Ideal chemistry: Na_2_Ca_2_(Si_9_Al_6_)O_30_8H_2_O
Locality: Poona, Maharashtra, India
Source: University of Arizona Mineral Museum
Description: Clear to white elongated prismatic single crystal
Measured chemistry: Na_2.00_Ca_2.00_(Si_9.00_Al_6.00_)O_30_Â·8H_2_O
Pin_id: M00325
Orientation: Laser parallel to -c* (0 0 -1). Fiducial mark perpendicular to laser is parallel to a [1 0 0]
Raman shift (cm-1)	intensity
123.377	0
127.556	9.532
131.734	276.969
135.909	872.304
140.083	2588.62
144.254	5205.43
148.423	5435.86
152.59	6723.61
156.755	7341.52
160.918	7187.21
165.078	7726.22
169.237	7295.64
173.393	6145.65
177.548	4869.23
181.7	4340.13
185.85	3736.49
189.998	2244.59
194.144	1415.89
198.288	1081.26
202.429	704.717
206.569	769.334
210.707	1409.81
214.842	1523.53
218.976	1129.94
223.107	1429.71
227.236	1249.19
231.363	443.101
235.488	146.165
239.611	105.041
243.732	8.049
247.851	156.957
251.967	32.65
256.082	124.525
260.195	132.625
264.305	1.292
268.414	43.414
272.52	139.568
276.624	10.148
280.726	102.374
284.827	166.762
288.925	460.552
293.021	824.933
297.115	610.265
301.207	331.108
305.296	128.441
309.384	38.785
313.47	43.223
317.554	69.884
321.635	78.399
325.715	26.954
329.792	109.427
333.868	139.97
337.941	49.806
342.013	161.905
346.082	520.222
350.15	706.302
354.215	542.191
358.278	240.498
362.339	180.597
366.399	165.424
370.456	200.97
374.511	149.393
378.564	164.679
382.615	92.609
386.664	108.545
390.711	146.657
394.756	226.524
398.799	349.404
402.84	569.863
406.879	971.735
410.916	1618.49
414.951	2044.81
418.983	2307.89
423.014	2508.38
427.043	2440.56
431.07	2654.53
435.095	3575.57
439.118	5147.98
443.138	6398.75
447.157	6755.56
451.174	6842.8
455.189	5745.98
459.202	3585.11
463.212	2129.22
467.221	1416.74
471.228	1235.54
475.233	1252.88
479.236	1398.44
483.237	1564.32
487.235	1941.63
491.232	2463.4
495.227	2933.24
499.22	2967.27
503.211	2800.11
507.2	3090.31
511.187	3902.72
515.172	5412.19
519.155	8225.73
523.136	13517.6
527.115	24189.6
531.092	29481.2
535.067	22443.4
539.04	11925.2
543.011	6407.67
546.98	4038.54
550.947	2780.78
554.913	1873.48
558.876	1477.61
562.837	1109.86
566.797	853.221
570.754	610.946
574.709	466.192
578.663	390.689
582.614	329.266
586.564	262.968
590.511	150.935
594.457	91.262
598.401	41.963
602.343	72.864
606.282	89.853
610.22	30.905
614.156	19.015
618.09	11.817
622.022	33.403
625.952	4.749
629.88	8.608
633.807	32.833
637.731	0.196
641.653	18.56
645.574	35.722
649.492	85.752
653.409	154.362
657.323	251.513
661.236	252.806
665.147	246.457
669.056	297.045
672.963	212.302
676.868	185.716
680.771	161.621
684.672	99.748
688.571	124.565
692.468	237.961
696.364	422.649
700.257	551.119
704.149	822.597
708.038	1221.78
711.926	1779
715.812	1550.38
719.696	964.721
723.578	547.859
727.458	350.895
731.336	195.958
735.213	183.832
739.087	164.655
742.96	152.426
746.83	155.14
750.699	214.79
754.566	311.371
758.431	321.877
762.294	290.253
766.155	237.601
770.014	195.867
773.872	106.855
777.727	82.828
781.581	40.676
785.433	9.118
789.282	35.697
793.13	17.398
796.977	3.167
800.821	15.105
804.663	45.416
808.504	37.125
812.342	36.242
816.179	29.741
820.014	17.614
823.847	5.819
827.678	13.328
831.507	7.891
835.334	0.073
839.16	2.233
842.983	21.397
846.805	20.852
850.625	3.137
854.443	29.25
858.259	68.228
862.074	63.079
865.886	54.803
869.697	65.399
873.506	71.865
877.313	68.205
881.118	58.423
884.921	106.524
888.722	120.509
892.522	113.376
896.319	101.133
900.115	134.776
903.909	178.309
907.701	204.738
911.492	213.066
915.28	255.291
919.067	300.408
922.852	372.421
926.635	568.36
930.416	937.211
934.195	1496.83
937.973	1961.03
941.748	1490.7
945.522	1319.5
949.294	1522.15
953.064	1325.97
956.832	969.927
960.599	984.77
964.364	1590.63
968.127	2575.73
971.888	2694.82
975.647	1898.95
979.404	1296.18
983.16	1057.05
986.914	1147.68
990.666	1088.43
994.416	1020.79
998.164	1242.41
1001.91	1311.95
1005.65	1026.53
1009.4	837.292
1013.14	865.186
1016.88	1039.05
1020.62	1454.83
1024.35	2338.61
1028.09	3774.54
1031.82	5100.62
1035.55	5364.16
1039.28	4300.3
1043	3290.67
1046.73	2620.07
1050.45	2079.31
1054.17	2109.11
1057.89	2281.63
1061.61	2376.9
1065.33	2224.26
1069.04	2077.67
1072.75	1959.99
1076.46	1968.44
1080.17	2040.89
1083.88	1893.02
1087.59	1628.53
1091.29	1221.13
1094.99	977.814
1098.69	951.917
1102.39	993.867
1106.09	1062.24
1109.78	896.356
1113.47	666.213
1117.16	496.884
1120.85	325.684
1124.54	270.658
1128.23	234.79
1131.91	252.419
1135.59	189.322
1139.27	135.057
1142.95	97.282
1146.63	47.751
1150.3	38.767
1153.98	49.16
1157.65	63.839
1161.32	17.328
1164.99	23.21
1168.65	4.022
1172.32	25.757
1175.98	7.232
1179.64	18.728
1183.3	14.96
1186.96	29.147
1190.62	7.025
1194.27	19.86
1197.92	13.631
1201.57	9.938
1205.22	24.456
1208.87	13.406
1212.51	15.957
1216.16	28.567
1219.8	47.356
1223.44	24.899
1227.08	34.295
1230.72	14.86
1234.35	7.629
1237.98	21.192
1241.62	15.484
1245.25	30.778
1248.87	33.029
1252.5	27.574
1256.12	36.778
1259.75	4.857
1263.37	33.069
1266.99	29.984
1270.61	2.883
1274.22	2.409
1277.84	16.219
1281.45	34.761
1285.06	21.19
1288.67	16.575
1292.28	26.794
1295.88	21.057
1299.49	11.955
1303.09	40.073
1306.69	13.794
1310.29	31.501
1313.89	40.128
1317.48	15.661
1321.08	28.004
1324.67	46.922
1328.26	3.14
1331.85	21.691
1335.44	14.74
1339.02	20.032
1342.61	8.953
1346.19	21.988
1349.77	60.813
1353.35	61.453
1356.92	21.031
1360.5	27.25
1364.07	22.789
1367.64	25.179
1371.21	37.366
1374.78	26.958
1378.35	64.227
1381.91	74.077
1385.48	74.718
1389.04	69.133
1392.6	83.733
1396.16	59.767
1399.71	54.253
1403.27	13.641
1406.82	49.678
1410.38	30.634
1413.92	67.885
1417.47	64.417
1421.02	55.42
1424.57	61.134
1428.11	42.557
1431.65	58.01
1435.19	55.103
1438.73	73.516
1442.27	29.225
1445.8	24.192
1449.33	54.975
1452.87	68.828
1456.4	106.662
1459.92	87.907
1463.45	108.743
1466.98	95.106
1470.5	80.609
1474.02	79.073
1477.54	64.879
1481.06	19.755
1484.58	51.577
1488.09	16.765
1491.61	35.278
1495.12	53.097
1498.63	79.604
1502.14	62.822
1505.64	78.292
1509.15	60.504
1512.65	45.519
1516.15	0
