Measurement: Raman, 514 nm, ccw, Raman Data Processed
Mineral: Mesolite
Rruff sample: R050013
Ideal chemistry: Na_2_Ca_2_(Si_9_Al_6_)O_30_8H_2_O
Locality: Poona, Maharashtra, India
Source: University of Arizona Mineral Museum
Description: Clear to white elongated prismatic single crystal
Measured chemistry: Na_2.00_Ca_2.00_(Si_9.00_Al_6.00_)O_30_Â·8H_2_O
Pin_id: M00096
Orientation: Laser parallel to b* (0 1 0). Fiducial mark perpendicular to laser is parallel to c [0 0 1]
Raman shift (cm-1)	intensity
88.542	0
93.48	2082.07
98.416	4200.09
103.349	2482.47
108.28	2334.39
113.208	2061.45
118.134	4632.09
123.058	9379.88
127.979	10555.4
132.898	12201.7
137.814	5157.85
142.728	2437.04
147.639	3624.59
152.549	4193.36
157.455	4440.06
162.359	5243.86
167.261	5163.22
172.161	4758.19
177.058	4094.48
181.952	3969.5
186.845	3110.26
191.734	2718.2
196.622	799.758
201.507	133.6
206.389	571.602
211.269	1374.43
216.147	487.451
221.022	761.064
225.895	1368.24
230.765	2462.95
235.633	2152.98
240.498	1185.52
245.361	447.883
250.222	102.879
255.08	123.461
259.936	285.424
264.789	352.668
269.64	69.0879
274.488	179.172
279.334	585.785
284.178	1360.78
289.019	2201.81
293.857	2384.34
298.693	1870.67
303.527	1266.6
308.358	954.894
313.187	1116.53
318.013	1426.97
322.837	1806.85
327.659	1686.11
332.478	2002.36
337.294	1540.85
342.108	1527.49
346.92	1595.32
351.729	1344.06
356.535	1350.38
361.34	1506.62
366.141	1823.83
370.94	1641.56
375.737	1205.28
380.531	612.002
385.323	280.103
390.113	357.016
394.9	416.471
399.684	686.613
404.466	1926.56
409.245	2385.13
414.022	3106.99
418.797	4083.85
423.569	3892.94
428.338	3952.47
433.105	4400.93
437.87	5849.1
442.632	6680.78
447.391	6353.19
452.149	4554.12
456.903	2658.68
461.655	1312.54
466.405	638.678
471.152	254.416
475.897	89.6016
480.639	204.305
485.378	117.01
490.116	239.666
494.85	316.065
499.582	673.543
504.312	1696.1
509.039	3050.36
513.764	6044.6
518.486	12350.7
523.206	23513.5
527.923	29783.7
532.638	25183.4
537.35	15418.7
542.059	7544.72
546.766	4324.78
551.471	2733.97
556.173	1882.86
560.873	1408.23
565.57	742.607
570.264	496.332
574.957	466.934
579.646	132.178
584.333	463.039
589.018	499.557
593.7	204.766
598.379	159.691
603.056	187.299
607.73	41.5488
612.402	158.748
617.072	805.188
621.739	1379.81
626.403	1678.56
631.065	852.047
635.724	314.812
640.381	696.34
645.035	1019.32
649.687	1390.52
654.336	1349.58
658.983	1100.72
663.627	1079.99
668.268	748.744
672.907	545.508
677.544	177.893
682.178	198.707
686.809	148.094
691.438	151.553
696.065	298.676
700.688	770.041
705.31	1757.66
709.929	2104.56
714.545	1809.74
719.158	1060.15
723.77	732.953
728.378	519.949
732.984	614.281
737.588	585.867
742.189	738.305
746.787	969.144
751.383	1319.81
755.976	1005.27
760.567	964.646
765.155	641.023
769.741	125.545
774.324	61.3027
778.904	184.551
783.482	102.789
788.058	50.332
792.631	113.769
797.201	24.9766
801.769	44.4414
806.334	170.603
810.897	131.715
815.457	43.0488
820.014	111.856
824.569	320.715
829.122	335.002
833.671	468.639
838.219	515.57
842.763	845.092
847.306	950.039
851.845	865.434
856.382	1576.3
860.917	1772.65
865.448	1346.51
869.978	938.9
874.505	871.049
879.029	579.896
883.55	629.439
888.069	702.857
892.586	603.941
897.1	690.393
901.611	564.074
906.12	422.904
910.626	608.348
915.129	331.066
919.63	155.346
924.129	344.025
928.625	443.984
933.118	609.805
937.609	882.502
942.097	372.35
946.582	316.731
951.065	325.365
955.546	330.853
960.023	551.557
964.499	786.684
968.971	1079.37
973.441	1948.17
977.909	1977.11
982.374	1361.16
986.836	850.338
991.295	976.648
995.753	1311.11
1000.21	2639.74
1004.66	1690.89
1009.11	867.719
1013.55	552.275
1018	1245.47
1022.44	1511.24
1026.88	2034.98
1031.32	2156.86
1035.75	2748.94
1040.18	4332.23
1044.61	4249.8
1049.04	3058.06
1053.46	1702.84
1057.88	919.025
1062.3	580.941
1066.71	740.93
1071.13	864.131
1075.54	1384.18
1079.94	2323.22
1084.35	2167.03
1088.75	1543.35
1093.15	1195.95
1097.55	762.908
1101.94	663
1106.34	755.262
1110.73	977.695
1115.11	845.291
1119.5	753.051
1123.88	1039.96
1128.26	450.039
1132.63	531.268
1137.01	232.393
1141.38	98.3965
1145.75	64.4492
1150.12	4.33203
1154.48	126.853
1158.84	104.406
1163.2	494.256
1167.55	239.299
1171.91	281.488
1176.26	273.797
1180.61	10.7852
1184.95	61.3867
1189.29	249.764
1193.63	48.1348
1197.97	65.7109
1202.31	38.4453
1206.64	207.086
1210.97	78.4336
1215.29	468.199
1219.62	286.019
1223.94	3.13281
1228.26	332.859
1232.57	617.984
1236.89	872.082
1241.2	498.156
1245.51	768.762
1249.81	816.227
1254.12	627.293
1258.42	972.594
1262.72	995.938
1267.01	942.094
1271.3	1654.72
1275.59	1243.64
1279.88	841.125
1284.17	1112.31
1288.45	609.582
1292.73	1304.59
1297.01	949.5
1301.28	754.777
1305.55	1287.98
1309.82	1356.03
1314.09	1628.42
1318.35	1624.35
1322.61	1241.71
1326.87	721.719
1331.13	560.465
1335.38	401.219
1339.63	276.398
1343.88	222.273
1348.12	356.231
1352.37	116.129
1356.61	97.207
1360.85	335.289
1365.08	454.441
1369.31	425.465
1373.54	626.234
1377.77	552.668
1381.99	561.762
1386.22	545.078
1390.43	412.586
1394.65	363.844
1398.87	127.688
1403.08	153.09
1407.29	189.137
1411.49	70.4492
1415.69	565.277
1419.89	59.1445
1424.09	344.547
1428.29	473.504
1432.48	1026.86
1436.67	1658.67
1440.86	2833.26
1445.04	3296.05
1449.23	3682.78
1453.4	3816.99
1457.58	3634.54
1461.76	3025.7
1465.93	2213.53
1470.1	1791
1474.26	1591.76
1478.43	992.383
1482.59	1119.59
1486.75	558.641
1490.9	569.797
1495.06	223.91
1499.21	3.52344
1503.35	62.9453
1507.5	35.8672
1511.64	197.066
1515.78	162.262
1519.92	273.812
1524.05	481.664
1528.18	446.531
1532.31	453.824
1536.44	509.449
1540.56	235.301
1544.69	236.84
1548.8	196.566
1552.92	229.844
1557.03	203.734
1561.14	166.672
1565.25	164.523
1569.36	1.85547
