Measurement: Raman, 514 nm, ccw, Raman Data Processed
Mineral: Mesolite
Rruff sample: R040139
Ideal chemistry: Na_2_Ca_2_(Si_9_Al_6_)O_30_8H_2_O
Locality: Lake Superior beach,  41 miles north of Tofte, Minnesota, USA
Source: University of Arizona Mineral Museum
Description: Aggregate of white radiating thin acicular crystals.
Measured chemistry: Na_1.95_Ca_1.89_(Si_9.21_Al_5.82_)O_30_Â·8H_2_O
Pin_id: L00551
Raman shift (cm-1)	intensity
86.327	0
90.461	26.353
94.593	702.64
98.724	1703.39
102.854	1846.01
106.982	2802.24
111.108	3355.65
115.233	3459.13
119.357	2198.52
123.479	1033.54
127.6	911.709
131.719	1967.16
135.837	3525.9
139.953	4169.35
144.068	5343.47
148.181	9728.06
152.293	11515.7
156.404	13285
160.513	14254.3
164.62	12256
168.726	11771.4
172.831	11820.9
176.934	10228.2
181.036	8038.52
185.136	6578.26
189.235	5848.37
193.332	4045.02
197.428	2732.17
201.522	2174.03
205.615	1258.89
209.707	842.552
213.797	813.396
217.885	982.861
221.973	1092.25
226.058	2440.36
230.143	4159.23
234.225	3094.32
238.307	1792.6
242.387	2128.63
246.465	2163.66
250.542	851.223
254.618	214.507
258.692	304.901
262.765	257.224
266.836	221.092
270.906	512.342
274.974	624.403
279.041	548.598
283.107	218.739
287.171	387.805
291.233	1449.78
295.294	3216.38
299.354	3231.19
303.412	2619.72
307.469	1974.17
311.525	1182.79
315.579	818.605
319.631	562.806
323.683	365.513
327.732	308.656
331.781	401.484
335.827	636.382
339.873	1315.99
343.917	797.625
347.96	1401.09
352.001	1950.74
356.04	1896.77
360.079	1397.24
364.116	1268.12
368.151	1498.17
372.185	1294.85
376.218	927.375
380.249	580.611
384.279	632.379
388.307	671.562
392.334	691.189
396.36	763.245
400.384	1060.62
404.406	1589.42
408.428	2602.74
412.447	4354.19
416.466	6062.71
420.483	7097.15
424.499	7685.19
428.513	7294.9
432.526	6986.64
436.537	8236.49
440.547	11388.8
444.555	15128.5
448.563	16421.9
452.568	15172.5
456.573	11625.1
460.576	7607.08
464.577	4808.54
468.577	3314.84
472.576	2573.42
476.573	2152
480.569	2202.73
484.564	2375.45
488.557	2743.63
492.548	3289.03
496.539	3747.2
500.528	4103.83
504.515	4198.31
508.501	4784.91
512.486	6033.29
516.469	8341.79
520.451	13220.3
524.432	22238.7
528.411	37857
532.388	54865.3
536.365	49482.5
540.34	29234.8
544.313	15415.8
548.285	8757.68
552.256	5550.51
556.226	3784.45
560.194	2774.51
564.16	2031.27
568.125	1501.96
572.089	1187.62
576.052	1021.32
580.013	806.199
583.972	661.182
587.931	645.623
591.888	562.403
595.843	407.064
599.797	267.724
603.75	179.98
607.701	217.949
611.651	245.039
615.6	71.134
619.547	60.236
623.493	15.343
627.438	134.386
631.381	10.159
635.322	78.854
639.263	104.361
643.202	87.3
647.139	92.287
651.076	103.055
655.01	393.187
658.944	291.149
662.876	447.356
666.807	854.233
670.736	1203.45
674.664	1470.21
678.591	1108.31
682.516	690.318
686.44	524.502
690.362	464.378
694.284	545.208
698.203	653.919
702.122	904.829
706.039	1359.02
709.955	2844.16
713.869	3715.33
717.782	3741.92
721.694	2597.82
725.604	1532.59
729.513	1031.77
733.42	882.008
737.327	565.015
741.231	588.514
745.135	680.079
749.037	845.855
752.938	1074.38
756.837	1345.7
760.735	1324.77
764.632	1237.56
768.527	1040.08
772.421	784.325
776.314	542.266
780.205	305.553
784.095	189.773
787.984	93.633
791.871	30.399
795.757	44.623
799.642	62.664
803.525	61.397
807.407	125.838
811.287	172.289
815.166	331.041
819.044	27.755
822.921	108.438
826.796	29.053
830.67	9.366
834.542	68.778
838.413	90.489
842.283	92.771
846.151	75.725
850.018	78.622
853.884	77.663
857.749	136.63
861.612	105.247
865.474	110.553
869.334	43.56
873.193	90.259
877.051	116.666
880.907	63.799
884.762	134.644
888.616	79.19
892.468	112.457
896.32	85.458
900.169	153.196
904.018	205.683
907.865	170.898
911.711	195.023
915.555	452.847
919.398	264.442
923.24	359.838
927.08	503.011
930.92	698.967
934.757	884.712
938.594	1456.84
942.429	2120.23
946.263	1986.34
950.096	1606.6
953.927	1500.37
957.757	1291.27
961.585	958.464
965.412	907.229
969.238	1354.1
973.063	2189.96
976.886	2752.42
980.708	2457.47
984.529	1923.13
988.348	1623.65
992.166	1671.78
995.983	1925.64
999.799	2232.6
1003.61	3054.66
1007.42	3207.82
1011.24	2554.1
1015.05	1693.77
1018.86	1545.66
1022.66	1698.31
1026.47	2088.81
1030.28	2939.03
1034.08	4595.06
1037.88	6098.97
1041.68	7323.46
1045.48	7378.31
1049.28	6873.23
1053.08	5878.64
1056.87	4164.25
1060.67	3384.19
1064.46	3060.03
1068.25	3095.86
1072.04	3093.82
1075.83	3129.67
1079.62	3445.49
1083.41	3641.56
1087.19	3727.56
1090.98	3373.5
1094.76	2949.8
1098.54	2305.93
1102.32	1781.75
1106.1	1703.54
1109.88	1725.74
1113.65	1692.18
1117.43	1500.28
1121.2	1157
1124.97	962.72
1128.75	824.12
1132.52	635.096
1136.29	578.907
1140.05	454.324
1143.82	327.691
1147.58	260.272
1151.35	231.171
1155.11	96.233
1158.87	69.4
1162.63	111.171
1166.39	139.188
1170.14	146.156
1173.9	176.593
1177.65	70.577
1181.41	66.498
1185.16	12.184
1188.91	73.547
1192.66	24.904
1196.41	122.299
1200.15	130.912
1203.9	99.691
1207.64	90.945
1211.39	0.8
1215.13	41.257
1218.87	13.455
1222.61	80.887
1226.35	156.077
1230.08	149.646
1233.82	110.11
1237.55	92.832
1241.28	7.137
1245.02	128.998
1248.74	30.44
1252.47	193.427
1256.2	143.143
1259.93	184.061
1263.65	229.879
1267.38	76.554
1271.1	2.745
1274.82	65.437
1278.54	26.149
1282.26	28.494
1285.98	135.038
1289.69	155.849
1293.41	153.185
1297.12	152.103
1300.84	152.971
1304.55	42.587
1308.26	143.379
1311.96	50.556
1315.67	76.137
1319.38	10.044
1323.08	155.659
1326.79	145.274
1330.49	180.316
1334.19	85.247
1337.89	152.896
1341.59	85.028
1345.29	47.046
1348.98	25.969
1352.68	14.356
1356.37	53.412
1360.06	88.431
1363.75	268.425
1367.44	231.013
1371.13	202.648
1374.82	225.157
1378.51	131.647
1382.19	74.512
1385.87	30.031
1389.56	1.747
1393.24	132.044
1396.92	321.081
1400.6	350.841
1404.27	307.062
1407.95	236.911
1411.62	249.048
1415.3	169.525
1418.97	11.735
1422.64	128.052
1426.31	113.902
1429.98	77.488
1433.65	261.341
1437.31	284.927
1440.98	196.889
1444.64	153.921
1448.31	206.79
1451.97	456.845
1455.63	102.693
1459.29	119.492
1462.94	140.914
1466.6	250.336
1470.25	116.382
1473.91	256.791
1477.56	384.335
1481.21	422.069
1484.86	753.078
1488.51	406.235
1492.16	316.539
1495.8	285.501
1499.45	276.557
1503.09	146.155
1506.74	168.749
1510.38	71.06
1514.02	76.607
1517.66	140.663
1521.3	234.185
1524.93	272.273
1528.57	417.586
1532.2	357.649
1535.83	301.153
1539.47	350.814
