Measurement: Raman, 514 nm, ccw, Raman Data Processed
Mineral: Mesolite
Rruff sample: R050013
Ideal chemistry: Na_2_Ca_2_(Si_9_Al_6_)O_30_8H_2_O
Locality: Poona, Maharashtra, India
Source: University of Arizona Mineral Museum
Description: Clear to white elongated prismatic single crystal
Measured chemistry: Na_2.00_Ca_2.00_(Si_9.00_Al_6.00_)O_30_Â·8H_2_O
Pin_id: M00096
Orientation: Laser parallel to b* (0 1 0). Fiducial mark perpendicular to laser is parallel to c [0 0 1]
Raman shift (cm-1)	intensity
88.542	0
93.48	695.669
98.416	1960.96
103.349	2746.41
108.28	2817.8
113.208	2219.57
118.134	1159.13
123.058	2792
127.979	3937.59
132.898	6481.24
137.814	9263.28
142.728	6592.14
147.639	11384
152.549	11150.4
157.455	12684.8
162.359	10980.5
167.261	9112
172.161	8588.65
177.058	4539.89
181.952	2327.21
186.845	2213.19
191.734	1054.69
196.622	520.843
201.507	133.899
206.389	722.326
211.269	32.8926
216.147	3055.95
221.022	6113.17
225.895	9352.26
230.765	11319
235.633	7469.29
240.498	6516.53
245.361	7075.72
250.222	3427.24
255.08	2431.46
259.936	2212.66
264.789	481.341
269.64	469.562
274.488	675.724
279.334	58.6963
284.178	1680.43
289.019	3491.31
293.857	5557.16
298.693	5447.02
303.527	4201.12
308.358	3097.96
313.187	1988.57
318.013	1241.92
322.837	738.979
327.659	488.291
332.478	600.68
337.294	663.91
342.108	1018.4
346.92	1070.28
351.729	1165.21
356.535	1354.45
361.34	1427.98
366.141	1391.94
370.94	1118.5
375.737	446.716
380.531	159.672
385.323	58.5342
390.113	212.786
394.9	246.683
399.684	860.328
404.466	2364.98
409.245	4244.5
414.022	7745.31
418.797	9478.49
423.569	11578.9
428.338	11270.8
433.105	10536.9
437.87	13258.5
442.632	16535.5
447.391	17210.2
452.149	13179.6
456.903	8612.71
461.655	5201.5
466.405	3043.03
471.152	1927.96
475.897	954.079
480.639	212.833
485.378	7.80273
490.116	72.6084
494.85	455.119
499.582	1234.9
504.312	2494.3
509.039	4414.19
513.764	7777.73
518.486	15410.8
523.206	28174.2
527.923	39092.2
532.638	42808.5
537.35	27600.9
542.059	12170.2
546.766	5412.92
551.471	2782.28
556.173	1455.71
560.873	680.905
565.57	489.681
570.264	277.396
574.957	82.2627
579.646	479.279
584.333	510.447
589.018	823.76
593.7	766.211
598.379	839.798
603.056	672.512
607.73	507.344
612.402	179.332
617.072	551.526
621.739	1279.88
626.403	1672.2
631.065	585.702
635.724	218.039
640.381	732.454
645.035	1558.8
649.687	1814.67
654.336	2237.94
658.983	2657.16
663.627	3106.01
668.268	2912.78
672.907	1792.32
677.544	531.279
682.178	28.3789
686.809	164.688
691.438	286.167
696.065	139.405
700.688	308.227
705.31	1578.27
709.929	2586.73
714.545	2909.6
719.158	1778.87
723.77	844.516
728.378	387.534
732.984	384.913
737.588	468.641
742.189	741.709
746.787	1358.11
751.383	1801.83
755.976	1944.56
760.567	1841.88
765.155	1300.83
769.741	591.764
774.324	318.979
778.904	59.4131
783.482	35.9492
788.058	7.08203
792.631	28.7188
797.201	91.832
801.769	83.9981
806.334	14.3066
810.897	110.735
815.457	244.404
820.014	164.015
824.569	241.412
829.122	142.708
833.671	292.242
838.219	519.64
842.763	574.665
847.306	828.168
851.845	1001.16
856.382	1343.65
860.917	1737.65
865.448	1300.18
869.978	960.248
874.505	669.874
879.029	678.09
883.55	378.956
888.069	387.588
892.586	369.933
897.1	369.988
901.611	335.765
906.12	233.372
910.626	309.001
915.129	130.177
919.63	38.0078
924.129	11.833
928.625	222.531
933.118	528.125
937.609	490.981
942.097	205.647
946.582	22.7822
951.065	77.9531
955.546	351.231
960.023	260.065
964.499	658.455
968.971	1738.37
973.441	3259.94
977.909	3853.57
982.374	2669.26
986.836	1439.03
991.295	1153.89
995.753	1551.85
1000.21	3126.91
1004.66	2543.16
1009.11	1285.18
1013.55	805.691
1018	835.826
1022.44	1303.01
1026.88	1902.8
1031.32	2136.93
1035.75	3024.19
1040.18	4914.14
1044.61	5615.62
1049.04	3799.32
1053.46	2046.33
1057.88	1247.28
1062.3	1060.12
1066.71	1305.89
1071.13	1822.72
1075.54	2863.97
1079.94	3309.88
1084.35	2669.61
1088.75	1598.58
1093.15	927.125
1097.55	840.309
1101.94	614.719
1106.34	853.219
1110.73	853.803
1115.11	862.471
1119.5	405.227
1123.88	406.059
1128.26	359.971
1132.63	278.963
1137.01	44.0273
1141.38	43.1465
1145.75	55.6309
1150.12	34.4883
1154.48	3.62891
1158.84	42.8105
1163.2	42.9746
1167.55	57.4199
1171.91	133.949
1176.26	211.371
1180.61	31.8398
1184.95	74.6406
1189.29	183.607
1193.63	94.7695
1197.97	81.8281
1202.31	170.85
1206.64	21.3047
1210.97	3.85156
1215.29	136.475
1219.62	6.76953
1223.94	44.1484
1228.26	337.637
1232.57	524.387
1236.89	479.102
1241.2	320.781
1245.51	445.42
1249.81	712.023
1254.12	402.639
1258.42	579.264
1262.72	713.896
1267.01	762.498
1271.3	1198.45
1275.59	984.713
1279.88	739.064
1284.17	629.154
1288.45	663.269
1292.73	1031.86
1297.01	485.647
1301.28	577.121
1305.55	961.574
1309.82	1096.03
1314.09	1318.34
1318.35	1233.02
1322.61	956.391
1326.87	620.742
1331.13	138.109
1335.38	208.967
1339.63	168.938
1343.88	256.408
1348.12	136.193
1352.37	164.252
1356.61	219.906
1360.85	33.5957
1365.08	68.2168
1369.31	312.762
1373.54	196.531
1377.77	581.234
1381.99	284.777
1386.22	372.373
1390.43	174.785
1394.65	261.594
1398.87	114.357
1403.08	203.334
1407.29	159.613
1411.49	138.322
1415.69	134.803
1419.89	143.971
1424.09	221.316
1428.29	304.256
1432.48	678.051
1436.67	1296.28
1440.86	1798.49
1445.04	2278.82
1449.23	2474.02
1453.4	2606.36
1457.58	2443.34
1461.76	1917.68
1465.93	1494.63
1470.1	1173.84
1474.26	943.291
1478.43	914.854
1482.59	888.402
1486.75	419.236
1490.9	423.291
1495.06	138.217
1499.21	145.201
1503.35	54.4492
1507.5	85.0586
1511.64	146.098
1515.78	0.521484
1519.92	153.023
1524.05	258.631
1528.18	324.244
1532.31	317.289
1536.44	510.17
1540.56	403.481
1544.69	368.822
1548.8	302.881
1552.92	532.527
1557.03	169.613
1561.14	238.174
1565.25	187.551
1569.36	100.736
