Measurement: Raman, 514 nm, ccw, Raman Data Processed
Mineral: Mesolite
Rruff sample: R050013
Ideal chemistry: Na_2_Ca_2_(Si_9_Al_6_)O_30_8H_2_O
Locality: Poona, Maharashtra, India
Source: University of Arizona Mineral Museum
Description: Clear to white elongated prismatic single crystal
Measured chemistry: Na_2.00_Ca_2.00_(Si_9.00_Al_6.00_)O_30_Â·8H_2_O
Pin_id: M00156
Orientation: Laser parallel to -a* (-1 0 0). Fiducial mark perpendicular to laser is parallel to b [0 1 0]
Raman shift (cm-1)	intensity
113.208	0
118.134	3.51172
123.058	197.066
127.979	1638.18
132.898	2618.21
137.814	4792.62
142.728	6546.26
147.639	5354.49
152.549	5629.45
157.455	4403.82
162.359	4624
167.261	4453.2
172.161	3789.35
177.058	3011.91
181.952	2050.74
186.845	1326.02
191.734	915.532
196.622	589.461
201.507	395.305
206.389	33.0478
211.269	6.26758
216.147	80.042
221.022	104.451
225.895	214.966
230.765	261.748
235.633	742.799
240.498	1084.72
245.361	159.203
250.222	19.1055
255.08	14.6104
259.936	213.367
264.789	315.526
269.64	587.813
274.488	782.9
279.334	1734.61
284.178	2711.65
289.019	4072.72
293.857	3366.71
298.693	1791.61
303.527	662.408
308.358	504.807
313.187	427.926
318.013	776.883
322.837	510.9
327.659	39.9668
332.478	10.1621
337.294	286.506
342.108	738.082
346.92	1201.87
351.729	1271.87
356.535	1200.09
361.34	871.893
366.141	476.127
370.94	94.8555
375.737	129.557
380.531	171.619
385.323	24.2402
390.113	72.4727
394.9	412.603
399.684	803.99
404.466	1621.88
409.245	2431.21
414.022	2530.67
418.797	2452.66
423.569	2222
428.338	1829.71
433.105	2352.79
437.87	3350.27
442.632	3524.17
447.391	2364.49
452.149	1696.3
456.903	1151.2
461.655	630.072
466.405	504.435
471.152	311.738
475.897	124.334
480.639	539.051
485.378	480.023
490.116	828.379
494.85	1037.44
499.582	1716.36
504.312	2596.41
509.039	4421.77
513.764	7167.08
518.486	14139.2
523.206	28030.8
527.923	40284.6
532.638	31191.5
537.35	15803.4
542.059	7810.4
546.766	4399.66
551.471	2884.96
556.173	1912.08
560.873	1417.12
565.57	845.998
570.264	732.795
574.957	595.518
579.646	473.176
584.333	573.775
589.018	346.588
593.7	153.881
598.379	382.389
603.056	260.027
607.73	159.121
612.402	341.459
617.072	1018.71
621.739	1843.24
626.403	2229.29
631.065	1162.23
635.724	590.771
640.381	843.564
645.035	1426.87
649.687	1419.52
654.336	1190.56
658.983	741.752
663.627	180.713
668.268	299.668
672.907	40.8516
677.544	13.459
682.178	338.732
686.809	79.1094
691.438	108.457
696.065	125.551
700.688	325.359
705.31	1606.99
709.929	2550.43
714.545	1681.69
719.158	781.766
723.77	387.647
728.378	85.6699
732.984	235.574
737.588	400.769
742.189	508.621
746.787	1239.29
751.383	1333.63
755.976	964.928
760.567	709.047
765.155	420.971
769.741	32.6836
774.324	202.156
778.904	140.383
783.482	25.416
788.058	160.992
792.631	150.889
797.201	64.9141
801.769	56.3652
806.334	95.4707
810.897	123.543
815.457	9.7832
820.014	148.975
824.569	150.793
829.122	373.424
833.671	261.088
838.219	376.51
842.763	1014.77
847.306	861.871
851.845	1396.82
856.382	1845.61
860.917	2121.26
865.448	1610.9
869.978	951.092
874.505	576.922
879.029	833.184
883.55	585.008
888.069	506.766
892.586	452.59
897.1	576.582
901.611	511.522
906.12	592.012
910.626	630.791
915.129	233.701
919.63	284.281
924.129	103.189
928.625	272.834
933.118	333.717
937.609	289.123
942.097	120.525
946.582	76.8477
951.065	176.885
955.546	228.014
960.023	371.863
964.499	472.035
968.971	509.312
973.441	876.016
977.909	719.668
982.374	286.43
986.836	601.305
991.295	596.297
995.753	1283.41
1000.21	2096.68
1004.66	1612.17
1009.11	353.324
1013.55	598.535
1018	1080.7
1022.44	1061.05
1026.88	1393.68
1031.32	1799.41
1035.75	1889.23
1040.18	3479.53
1044.61	2929.92
1049.04	1368.44
1053.46	656.644
1057.88	270.06
1062.3	193.078
1066.71	171.988
1071.13	540.291
1075.54	572.732
1079.94	1090.31
1084.35	1246.25
1088.75	924.49
1093.15	950.57
1097.55	600.939
1101.94	617.365
1106.34	676.84
1110.73	480.367
1115.11	347.945
1119.5	472.572
1123.88	281.248
1128.26	220.977
1132.63	107.125
1137.01	65.4102
1141.38	99
1145.75	44.3613
1150.12	107.068
1154.48	60.4336
1158.84	1.20898
1163.2	91.707
1167.55	35.9688
1171.91	146.512
1176.26	383.461
1180.61	77.4668
1184.95	112.254
1189.29	171.947
1193.63	1.66992
1197.97	85.1602
1202.31	280.547
1206.64	71.9688
1210.97	190.424
1215.29	518.9
1219.62	312.408
1223.94	137.953
1228.26	313.535
1232.57	490.152
1236.89	737.814
1241.2	549.512
1245.51	768.252
1249.81	354.047
1254.12	371.103
1258.42	484.393
1262.72	1111.74
1267.01	1313.27
1271.3	1355.21
1275.59	1147.95
1279.88	1083.15
1284.17	903.311
1288.45	891.961
1292.73	1260.21
1297.01	1110.03
1301.28	1067.56
1305.55	1210.17
1309.82	1620.86
1314.09	1305.69
1318.35	1782.49
1322.61	1419.65
1326.87	1019.2
1331.13	520.344
1335.38	489.66
1339.63	488.82
1343.88	146.516
1348.12	358.664
1352.37	408.516
1356.61	53.8203
1360.85	553.305
1365.08	515.957
1369.31	423.176
1373.54	543.188
1377.77	604.988
1381.99	648.824
1386.22	371.723
1390.43	583.988
1394.65	24.918
1398.87	30.6406
1403.08	394.191
1407.29	125.363
1411.49	93.2578
1415.69	215.574
1419.89	325.125
1424.09	113.961
1428.29	568.719
1432.48	1080.91
1436.67	1610.43
1440.86	2693.11
1445.04	2981.03
1449.23	3075.77
1453.4	3399.05
1457.58	3109.76
1461.76	2326.89
1465.93	1548.43
1470.1	1481.43
1474.26	1353.92
1478.43	933.191
1482.59	978.336
1486.75	652.008
1490.9	253.621
1495.06	351.539
1499.21	130.012
1503.35	111.992
1507.5	102.785
1511.64	425.578
1515.78	138.848
1519.92	282.402
1524.05	281.156
1528.18	343.125
1532.31	352.348
1536.44	812.426
1540.56	486.633
1544.69	8.27734
1548.8	584.422
1552.92	390.035
1557.03	23.6602
1561.14	428.051
1565.25	272.086
1569.36	222.356
