Measurement: Raman, 514 nm, ccw, Raman Data Processed
Mineral: Mesolite
Rruff sample: R050013
Ideal chemistry: Na_2_Ca_2_(Si_9_Al_6_)O_30_8H_2_O
Locality: Poona, Maharashtra, India
Source: University of Arizona Mineral Museum
Description: Clear to white elongated prismatic single crystal
Measured chemistry: Na_2.00_Ca_2.00_(Si_9.00_Al_6.00_)O_30_Â·8H_2_O
Pin_id: M00325
Orientation: Laser parallel to -c* (0 0 -1). Fiducial mark perpendicular to laser is parallel to a [1 0 0]
Raman shift (cm-1)	intensity
123.377	0
127.556	25.53
131.734	303.836
135.909	1382.73
140.083	4566.62
144.254	7988.63
148.423	8190.38
152.59	9990.59
156.755	10190.6
160.918	9711.71
165.078	10301.6
169.237	9970.97
173.393	8558.42
177.548	6710.83
181.7	6254.22
185.85	5232.91
189.998	3300.98
194.144	2369.27
198.288	1711.68
202.429	1125.12
206.569	1215.23
210.707	1901.95
214.842	1921.29
218.976	1226.81
223.107	1399.05
227.236	998.795
231.363	327.847
235.488	112.81
239.611	188.128
243.732	30.493
247.851	157.142
251.967	114.354
256.082	39.829
260.195	50.475
264.305	39.744
268.414	29.679
272.52	61.219
276.624	20.405
280.726	159.605
284.827	359.83
288.925	975.13
293.021	1334.03
297.115	877.388
301.207	510.453
305.296	238.495
309.384	0.914
313.47	129.683
317.554	126.076
321.635	58.457
325.715	12.947
329.792	92.483
333.868	124.071
337.941	109.931
342.013	243.029
346.082	801.279
350.15	1131.32
354.215	746.651
358.278	337.166
362.339	310.569
366.399	269.047
370.456	203.357
374.511	162.59
378.564	167.737
382.615	160.475
386.664	188.206
390.711	206.455
394.756	338.902
398.799	556.765
402.84	885.675
406.879	1481.77
410.916	2423.17
414.951	3034.89
418.983	3390.94
423.014	3618.53
427.043	3664.47
431.07	3997.05
435.095	5485.04
439.118	7729.97
443.138	9484.2
447.157	9855.71
451.174	9947.44
455.189	8049.15
459.202	4901.15
463.212	2791.22
467.221	1886.64
471.228	1631.52
475.233	1608.46
479.236	1752.03
483.237	1994.45
487.235	2518.22
491.232	3211.34
495.227	3720.89
499.22	3879.59
503.211	3902.54
507.2	4370.27
511.187	5558.14
515.172	7822.16
519.155	11664.3
523.136	20146.6
527.115	35679.1
531.092	44391.6
535.067	30963.7
539.04	16185.7
543.011	8677.91
546.98	5327.6
550.947	3743.71
554.913	2649.96
558.876	1941.36
562.837	1536.93
566.797	1183.66
570.754	893.811
574.709	683.655
578.663	542.932
582.614	465.391
586.564	395.072
590.511	285.054
594.457	152.423
598.401	88.122
602.343	35.019
606.282	72.034
610.22	65.153
614.156	21.624
618.09	17.692
622.022	7.102
625.952	6.379
629.88	16.32
633.807	36.979
637.731	14.554
641.653	18.405
645.574	44.181
649.492	115.889
653.409	229.072
657.323	293.518
661.236	256.391
665.147	211.893
669.056	202.283
672.963	166.355
676.868	111.222
680.771	127.147
684.672	135.221
688.571	184.345
692.468	332.74
696.364	562.364
700.257	776.008
704.149	1143.58
708.038	1880.85
711.926	2517.42
715.812	2122.55
719.696	1348.57
723.578	797.604
727.458	475.611
731.336	294.413
735.213	201.174
739.087	214.86
742.96	225.484
746.83	232.04
750.699	321.522
754.566	407.923
758.431	458.237
762.294	444.461
766.155	369.591
770.014	254.401
773.872	186.195
777.727	102.478
781.581	50.124
785.433	36.309
789.282	31.002
793.13	58.701
796.977	17.15
800.821	20.956
804.663	20.951
808.504	40.391
812.342	45.324
816.179	39.738
820.014	36.602
823.847	17.113
827.678	18.448
831.507	14.519
835.334	9.207
839.16	57.675
842.983	81.927
846.805	46.966
850.625	67.828
854.443	49.522
858.259	70.049
862.074	32.414
865.886	78.608
869.697	91.646
873.506	81.534
877.313	72.267
881.118	98.847
884.921	118.286
888.722	145.591
892.522	164.753
896.319	141.772
900.115	143.648
903.909	160.382
907.701	181.977
911.492	251.435
915.28	294.766
919.067	325.966
922.852	452.034
926.635	683.977
930.416	1170.8
934.195	1896.44
937.973	2476.51
941.748	1875.67
945.522	1596.28
949.294	1761.02
953.064	1534.31
956.832	1134.05
960.599	1225.13
964.364	1903.89
968.127	3095.91
971.888	3134.15
975.647	2145.54
979.404	1484.12
983.16	1210.97
986.914	1249.14
990.666	1254.92
994.416	1353.11
998.164	1663.74
1001.91	1740.59
1005.65	1293.88
1009.4	1059.11
1013.14	1164.23
1016.88	1388.76
1020.62	1884.81
1024.35	3109.44
1028.09	5156.09
1031.82	6983.85
1035.55	7245.68
1039.28	5694.38
1043	4342.37
1046.73	3466.35
1050.45	2717.36
1054.17	2738.39
1057.89	3030.59
1061.61	3074.65
1065.33	2905.77
1069.04	2629.88
1072.75	2519.2
1076.46	2458.36
1080.17	2511.05
1083.88	2379.59
1087.59	1918.87
1091.29	1461.6
1094.99	1164.9
1098.69	1147.05
1102.39	1242.08
1106.09	1314.92
1109.78	1122.16
1113.47	804.55
1117.16	611.366
1120.85	449.195
1124.54	383.383
1128.23	264.356
1131.91	208.589
1135.59	207.344
1139.27	197.401
1142.95	113.184
1146.63	53.077
1150.3	31.635
1153.98	37.155
1157.65	45.594
1161.32	29.229
1164.99	33.062
1168.65	29.851
1172.32	4.331
1175.98	12.842
1179.64	32.355
1183.3	29.067
1186.96	2.287
1190.62	18.269
1194.27	39.738
1197.92	15.095
1201.57	6.123
1205.22	29.337
1208.87	26.753
1212.51	12.958
1216.16	35.435
1219.8	25.8
1223.44	31.12
1227.08	34.212
1230.72	16.926
1234.35	25.42
1237.98	17.156
1241.62	10.348
1245.25	20.351
1248.87	24.365
1252.5	16.357
1256.12	24.602
1259.75	14.624
1263.37	30.148
1266.99	16.067
1270.61	22.279
1274.22	6.927
1277.84	17.627
1281.45	10.496
1285.06	16.631
1288.67	4.391
1292.28	4.973
1295.88	42.556
1299.49	33.008
1303.09	14.636
1306.69	18.498
1310.29	24.513
1313.89	12.002
1317.48	53.748
1321.08	47.408
1324.67	1.939
1328.26	13.528
1331.85	6.255
1335.44	5.786
1339.02	1.797
1342.61	30.628
1346.19	58.355
1349.77	37.825
1353.35	25.582
1356.92	53.735
1360.5	56.067
1364.07	41.19
1367.64	20.363
1371.21	6.026
1374.78	10.899
1378.35	10.219
1381.91	66.521
1385.48	67.425
1389.04	71.561
1392.6	76.109
1396.16	39.319
1399.71	67.099
1403.27	27.687
1406.82	19.555
1410.38	9.382
1413.92	71.842
1417.47	78.805
1421.02	51.246
1424.57	60.474
1428.11	62.89
1431.65	44.49
1435.19	64.317
1438.73	68.318
1442.27	16.365
1445.8	52.874
1449.33	81.45
1452.87	63.379
1456.4	75.106
1459.92	98.81
1463.45	63.577
1466.98	82.093
1470.5	107.053
1474.02	83.798
1477.54	50.399
1481.06	66.636
1484.58	61.315
1488.09	44.051
1491.61	22.969
1495.12	51.21
1498.63	58.437
1502.14	51.43
1505.64	76.016
1509.15	55.508
1512.65	46.901
1516.15	40.056
