Measurement: Raman, 514 nm, ccw, Raman Data Processed
Mineral: Mesolite
Rruff sample: R040139
Ideal chemistry: Na_2_Ca_2_(Si_9_Al_6_)O_30_8H_2_O
Locality: Lake Superior beach,  41 miles north of Tofte, Minnesota, USA
Source: University of Arizona Mineral Museum
Description: Aggregate of white radiating thin acicular crystals.
Measured chemistry: Na_1.95_Ca_1.89_(Si_9.21_Al_5.82_)O_30_Â·8H_2_O
Pin_id: L00551
Raman shift (cm-1)	intensity
86.327	0
90.461	38.082
94.593	748.572
98.724	1671.39
102.854	1577.29
106.982	2567.2
111.108	2994.54
115.233	3071.7
119.357	1854.62
123.479	763.312
127.6	832.094
131.719	1864.65
135.837	3337.24
139.953	3822.62
144.068	4909.45
148.181	9297.25
152.293	11037.2
156.404	12821.1
160.513	13705.4
164.62	11822.4
168.726	11262.4
172.831	11347.8
176.934	9705.31
181.036	7634.77
185.136	6320.01
189.235	5510.05
193.332	3784.32
197.428	2529.08
201.522	2036.96
205.615	1190.23
209.707	718.3
213.797	847.002
217.885	912.532
221.973	1079.64
226.058	2411.54
230.143	4198.24
234.225	3030.64
238.307	2368.43
242.387	2141.44
246.465	2193.89
250.542	863.65
254.618	220.309
258.692	347.212
262.765	243.144
266.836	324.322
270.906	475.879
274.974	509.593
279.041	485.959
283.107	192.064
287.171	383.638
291.233	1542.86
295.294	3104.78
299.354	3266.96
303.412	2617.95
307.469	1958.93
311.525	1174.1
315.579	844.546
319.631	618.465
323.683	361.95
327.732	259.973
331.781	385.553
335.827	636.426
339.873	688.034
343.917	792.457
347.96	1380.21
352.001	1948.34
356.04	1973.88
360.079	1375.87
364.116	1290.29
368.151	1980.94
372.185	1291.22
376.218	888.977
380.249	578.846
384.279	542.229
388.307	613.046
392.334	678.322
396.36	821.048
400.384	1056.14
404.406	1584.67
408.428	2672.74
412.447	4404.37
416.466	6004.15
420.483	6890.21
424.499	7547.17
428.513	7067.9
432.526	6804.63
436.537	7891.16
440.547	11064
444.555	14619.7
448.563	16106.1
452.568	14736.5
456.573	11258.2
460.576	7319.27
464.577	4640.12
468.577	3162.07
472.576	2520.32
476.573	2031.26
480.569	2072.75
484.564	2321.53
488.557	2643.87
492.548	3030.12
496.539	3519.67
500.528	3800.72
504.515	4023.02
508.501	4499.3
512.486	5736.92
516.469	8044.64
520.451	12752.4
524.432	21550
528.411	36877.6
532.388	52775.2
536.365	47521.6
540.34	28123.8
544.313	14844.8
548.285	8405.81
552.256	5288.35
556.226	3612.29
560.194	2623.38
564.16	1930.53
568.125	1426.65
572.089	1135.73
576.052	916.838
580.013	803.086
583.972	587.437
587.931	594.282
591.888	479.579
595.843	334.754
599.797	289.771
603.75	225.262
607.701	287.423
611.651	286.694
615.6	214.977
619.547	15.726
623.493	34.425
627.438	89.13
631.381	53.809
635.322	73.945
639.263	145.299
643.202	132.58
647.139	30.775
651.076	135.435
655.01	198.062
658.944	399.353
662.876	441.252
666.807	842.33
670.736	1292.47
674.664	1478.18
678.591	1033
682.516	597.949
686.44	443.747
690.362	464.765
694.284	593.418
698.203	657.014
702.122	927.877
706.039	1366.09
709.955	2223.19
713.869	3605.31
717.782	3571.56
721.694	2585.22
725.604	1565.9
729.513	1004.96
733.42	781.501
737.327	574.812
741.231	585.957
745.135	643.951
749.037	761.856
752.938	1067.27
756.837	1328.29
760.735	1265.02
764.632	1243.5
768.527	953.716
772.421	733.663
776.314	493.048
780.205	310.756
784.095	115.347
787.984	83.496
791.871	34.402
795.757	26.579
799.642	42.314
803.525	85.865
807.407	33.483
811.287	69.875
815.166	17.035
819.044	49.065
822.921	53.053
826.796	100.54
830.67	74.093
834.542	64.246
838.413	101.956
842.283	65.265
846.151	32.14
850.018	88.62
853.884	77.766
857.749	357.547
861.612	128.012
865.474	97.158
869.334	18.979
873.193	64.472
877.051	124.672
880.907	112.565
884.762	162.162
888.616	162.482
892.468	92.526
896.32	159.295
900.169	175.795
904.018	211.021
907.865	280.982
911.711	194.688
915.555	253.175
919.398	341.432
923.24	452.462
927.08	458.265
930.92	720.837
934.757	835.188
938.594	1458.78
942.429	2011.51
946.263	1918.93
950.096	1416.86
953.927	1391.84
957.757	1245.75
961.585	1000.22
965.412	904.629
969.238	1273.96
973.063	2101.3
976.886	2560.45
980.708	2337.04
984.529	1867.65
988.348	1518.56
992.166	1691.49
995.983	1910.12
999.799	2247.07
1003.61	2921.38
1007.42	3152.11
1011.24	2391.18
1015.05	1669.9
1018.86	1507.93
1022.66	1694.32
1026.47	2158.01
1030.28	2857.82
1034.08	4270.21
1037.88	5974.86
1041.68	6878.79
1045.48	6972.31
1049.28	6646.34
1053.08	5809.88
1056.87	4123.61
1060.67	3387.49
1064.46	2981.71
1068.25	3009.63
1072.04	3095.09
1075.83	3190.06
1079.62	3834.11
1083.41	3648.65
1087.19	3722.8
1090.98	3456.94
1094.76	2942.13
1098.54	2247.51
1102.32	1885.75
1106.1	1581.27
1109.88	1710.1
1113.65	1602.8
1117.43	1436.28
1121.2	1138.04
1124.97	854.552
1128.75	809.535
1132.52	666.758
1136.29	565.895
1140.05	523.326
1143.82	510.438
1147.58	208.38
1151.35	112.252
1155.11	121.717
1158.87	87.044
1162.63	169.263
1166.39	93.862
1170.14	40.068
1173.9	208.443
1177.65	41.808
1181.41	50.632
1185.16	29.147
1188.91	17.92
1192.66	128.469
1196.41	119.133
1200.15	20.146
1203.9	38.779
1207.64	4.132
1211.39	9.538
1215.13	80.143
1218.87	15.836
1222.61	123.085
1226.35	154.095
1230.08	9.095
1233.82	108.759
1237.55	80.914
1241.28	17.974
1245.02	101.636
1248.74	2.52
1252.47	72.034
1256.2	182.306
1259.93	46.534
1263.65	216.977
1267.38	164.414
1271.1	8.35
1274.82	28.651
1278.54	17.785
1282.26	60.659
1285.98	158.211
1289.69	168.315
1293.41	189.101
1297.12	82.823
1300.84	186.353
1304.55	120.671
1308.26	1.032
1311.96	33.875
1315.67	19.687
1319.38	55.941
1323.08	131.59
1326.79	261.104
1330.49	174.214
1334.19	182.384
1337.89	163.16
1341.59	86.908
1345.29	98.585
1348.98	60.146
1352.68	62.742
1356.37	136.608
1360.06	121.364
1363.75	192.316
1367.44	258.964
1371.13	123.065
1374.82	148.317
1378.51	95.917
1382.19	75.742
1385.87	5.524
1389.56	64.841
1393.24	196.245
1396.92	275.857
1400.6	282.271
1404.27	265.988
1407.95	285.09
1411.62	227.426
1415.3	129.064
1418.97	7.608
1422.64	37.966
1426.31	51.582
1429.98	48.333
1433.65	227.981
1437.31	265.78
1440.98	330.306
1444.64	210.572
1448.31	244.69
1451.97	225.763
1455.63	60.712
1459.29	178.094
1462.94	15.195
1466.6	172.485
1470.25	134.71
1473.91	262.74
1477.56	287.805
1481.21	369.938
1484.86	383.376
1488.51	454.018
1492.16	367.152
1495.8	131.249
1499.45	321.228
1503.09	119.101
1506.74	76.033
1510.38	19.32
1514.02	37.952
1517.66	89.325
1521.3	207.551
1524.93	258.687
1528.57	439.15
1532.2	267.35
1535.83	309.848
1539.47	259.142
