Measurement: Raman, 514 nm, ccw, Raman Data Processed
Mineral: Mesolite
Rruff sample: R040139
Ideal chemistry: Na_2_Ca_2_(Si_9_Al_6_)O_30_8H_2_O
Locality: Lake Superior beach,  41 miles north of Tofte, Minnesota, USA
Source: University of Arizona Mineral Museum
Description: Aggregate of white radiating thin acicular crystals.
Measured chemistry: Na_1.95_Ca_1.89_(Si_9.21_Al_5.82_)O_30_Â·8H_2_O
Pin_id: L00494
Raman shift (cm-1)	intensity
74.587	0
78.758	563.779
82.928	75.256
87.096	356.64
91.262	707.147
95.426	2354.07
99.588	3526.51
103.748	4403.65
107.907	5193.41
112.063	4591.89
116.218	4946.33
120.371	4775.78
124.522	4352.39
128.671	5637.56
132.818	7532.69
136.963	6215.75
141.107	4577.44
145.248	4887.35
149.388	6086.7
153.526	6422.03
157.662	7428.01
161.796	7343.28
165.929	6779.97
170.059	6842.63
174.188	6672.23
178.315	5468.32
182.44	4678.96
186.563	4210.21
190.684	3479.82
194.803	2265.03
198.921	1797.83
203.037	1432.19
207.15	787.772
211.262	237.239
215.373	63.436
219.481	50.547
223.588	47.276
227.692	750.902
231.795	946.41
235.896	512.278
239.995	549.374
244.093	625.686
248.188	283.182
252.282	197.252
256.374	136.73
260.464	57.542
264.552	52.544
268.638	151.131
272.723	95.517
276.806	22.859
280.887	82.041
284.966	126.052
289.043	531.75
293.118	1583.02
297.192	2106.88
301.264	1592.37
305.334	950.501
309.402	407.294
313.469	74.386
317.533	19.064
321.596	99.406
325.657	213.462
329.716	240.484
333.774	377.097
337.829	407.577
341.883	237.235
345.935	192.661
349.985	388.935
354.034	656.062
358.08	540.031
362.125	404.677
366.168	392.101
370.209	577.375
374.249	554.484
378.286	354.537
382.322	134.091
386.356	100.716
390.388	35.146
394.419	1.224
398.447	11.328
402.474	261.493
406.499	734.22
410.523	1401.82
414.544	2156.47
418.564	2515.59
422.582	3179.12
426.598	3540.8
430.613	3146.24
434.625	2955.78
438.636	3646.76
442.646	5621.12
446.653	5918.1
450.658	5259.67
454.662	3930.13
458.664	2454.68
462.665	1517.8
466.663	959.461
470.66	760.386
474.655	645.149
478.648	657.636
482.64	750.316
486.629	1036.62
490.617	1578.29
494.603	1874.05
498.588	1824.36
502.571	1784.53
506.552	1957.06
510.531	2476.26
514.508	3389.45
518.484	4955.7
522.458	8344.96
526.43	15198.2
530.4	26461.3
534.369	31304.4
538.336	22087.3
542.301	12139.7
546.265	6723.03
550.226	4046.98
554.186	2727.1
558.145	2044.83
562.101	1593.73
566.056	1153.15
570.009	866.902
573.96	606.493
577.91	471.526
581.858	374.837
585.804	234.302
589.748	248.971
593.691	120.922
597.632	106.035
601.571	123.15
605.508	55.795
609.444	45.24
613.378	28.996
617.311	44.035
621.241	12.196
625.17	49.459
629.097	16.636
633.023	27.428
636.946	50.143
640.868	6.868
644.789	66.751
648.707	51.07
652.624	31.748
656.539	178.157
660.453	243.78
664.364	443.476
668.274	556.501
672.183	618.423
676.089	465.734
679.994	378.281
683.898	380.049
687.799	443.197
691.699	464.108
695.597	565.698
699.493	703.348
703.388	840.492
707.281	1274.36
711.172	1903.61
715.062	2566.78
718.95	2065.55
722.836	1252.41
726.721	808.873
730.604	623.177
734.485	485.362
738.364	459.973
742.242	531.345
746.118	654.618
749.993	900.725
753.866	1121.62
757.737	1156.23
761.606	1019.6
765.474	766.792
769.34	580.648
773.204	376.116
777.067	286.208
780.928	168.144
784.787	65.923
788.645	17.925
792.501	2.555
796.355	15.347
800.208	0.192
804.059	34.004
807.908	13.504
811.756	28.875
815.602	14.802
819.446	1.826
823.289	27.882
827.13	45.368
830.969	15.181
834.807	14.294
838.643	53.027
842.477	51.543
846.31	42.846
850.141	58.944
853.971	94.839
857.798	133.536
861.624	55.043
865.449	57.353
869.272	95.469
873.093	54.4
876.912	65.144
880.73	101.705
884.546	33.09
888.361	111.301
892.174	117.351
895.985	115.245
899.795	89.986
903.603	144.572
907.409	135.008
911.214	124.3
915.017	115.455
918.818	185.481
922.618	273.382
926.416	304.161
930.213	500.827
934.008	785.379
937.801	1302.79
941.593	1329.2
945.383	967.675
949.171	648.245
952.958	544.586
956.743	458.214
960.526	469.439
964.308	655.856
968.089	933.762
971.867	1257.68
975.644	1841.21
979.42	1845.46
983.193	1461.19
986.966	1067.22
990.736	1115.56
994.505	1358.16
998.272	1490.83
1002.04	1433.77
1005.8	1354
1009.57	1238.81
1013.33	1102.79
1017.09	1116.82
1020.84	1169.17
1024.6	1323.54
1028.35	1779.89
1032.11	2398.61
1035.86	2841.22
1039.61	3288.21
1043.36	4496.4
1047.1	5237.8
1050.85	3778.82
1054.59	2407.03
1058.33	1666.32
1062.07	1347.58
1065.81	1253.01
1069.55	1285.39
1073.28	1322.8
1077.02	1544.28
1080.75	1557.93
1084.48	1528.88
1088.21	1437.06
1091.93	1265.14
1095.66	1129.88
1099.38	1004.71
1103.11	861.675
1106.83	806.89
1110.55	786.279
1114.26	684.635
1117.98	655.922
1121.69	482.836
1125.41	522.314
1129.12	357.948
1132.83	265.392
1136.54	201.279
1140.24	166.362
1143.95	165.808
1147.65	141.655
1151.36	120.109
1155.06	129.053
1158.76	79.021
1162.45	63.867
1166.15	59.145
1169.84	44.976
1173.53	67.51
1177.22	44.581
1180.91	8.488
1184.6	22.578
1188.29	17.819
1191.97	9.823
1195.66	20.49
1199.34	12.31
1203.02	55.237
1206.7	79.302
1210.37	83.218
1214.05	30.202
1217.72	21.915
1221.4	4.867
1225.07	2.321
1228.74	3.333
1232.4	55.137
1236.07	21.538
1239.73	19.111
1243.4	43.529
1247.06	61.896
1250.72	4.09
1254.38	6.289
1258.03	3.274
1261.69	39.119
1265.34	23.841
1268.99	19.857
1272.65	27.75
1276.3	1.085
1279.94	0.298
1283.59	39.32
1287.23	40.434
1290.88	9.72
1294.52	32.376
1298.16	36.033
1301.8	12.703
1305.43	3.418
1309.07	42.624
1312.7	5.513
1316.33	3.289
1319.96	12.921
1323.59	5.424
1327.22	7.755
1330.85	4.608
1334.47	54.563
1338.1	27.296
1341.72	55.738
1345.34	29.304
1348.96	45.722
1352.57	27.357
1356.19	19.126
1359.8	9.865
1363.41	69.343
1367.03	115.024
1370.63	72.839
1374.24	79.637
1377.85	69.426
1381.45	62.774
1385.06	30.28
1388.66	27.508
1392.26	65.687
1395.86	29.339
1399.46	71.827
1403.05	89.858
1406.65	114.443
1410.24	147.619
1413.83	49.196
1417.42	53.74
1421.01	60.416
1424.6	9.418
1428.18	26.176
1431.77	1.911
1435.35	32.704
1438.93	87.697
1442.51	135.758
1446.09	122.808
1449.66	131.114
1453.24	106.311
1456.81	107.065
1460.38	24.759
1463.95	50.833
1467.52	11.166
1471.09	12.854
1474.65	68.595
1478.22	74.615
1481.78	63.656
1485.34	128.22
1488.9	128.981
1492.46	140.701
1496.02	106.79
1499.58	97.424
1503.13	49.748
1506.68	29.956
1510.23	30.47
1513.78	3.938
1517.33	65.421
1520.88	0
