Measurement: Raman, 514 nm, ccw, Raman Data Processed
Mineral: Mesolite
Rruff sample: R040139
Ideal chemistry: Na_2_Ca_2_(Si_9_Al_6_)O_30_8H_2_O
Locality: Lake Superior beach,  41 miles north of Tofte, Minnesota, USA
Source: University of Arizona Mineral Museum
Description: Aggregate of white radiating thin acicular crystals.
Measured chemistry: Na_1.95_Ca_1.89_(Si_9.21_Al_5.82_)O_30_Â·8H_2_O
Pin_id: L00494
Raman shift (cm-1)	intensity
74.587	0
78.758	1029.66
82.928	390.507
87.096	74.507
91.262	223.37
95.426	1291.41
99.588	2458.11
103.748	4301.57
107.907	5893.37
112.063	4997.25
116.218	6666.33
120.371	5477.32
124.522	2593.08
128.671	2541.29
132.818	3586.11
136.963	3577.9
141.107	3423.67
145.248	4571.44
149.388	5547.19
153.526	5046.28
157.662	5479.77
161.796	5016.51
165.929	4472.39
170.059	4807.05
174.188	4714.64
178.315	3924.66
182.44	3540.51
186.563	2815.68
190.684	1967.02
194.803	1392.54
198.921	1302.72
203.037	1018.13
207.15	478.607
211.262	154.919
215.373	98.789
219.481	25.749
223.588	18.682
227.692	343.754
231.795	190.115
235.896	80.567
239.995	267.52
244.093	570.198
248.188	324.33
252.282	108.977
256.374	236.248
260.464	230.375
264.552	107.683
268.638	84.52
272.723	36.534
276.806	321.087
280.887	515.156
284.966	884.731
289.043	1578.61
293.118	2541.7
297.192	3003.07
301.264	2032.8
305.334	1331.94
309.402	738.488
313.469	357.917
317.533	329.589
321.596	475.816
325.657	600.691
329.716	355.344
333.774	236.339
337.829	231.895
341.883	260.935
345.935	380.753
349.985	723.359
354.034	1033.75
358.08	978.935
362.125	892.891
366.168	832.632
370.209	773.133
374.249	576.24
378.286	224.181
382.322	71.373
386.356	32.037
390.388	22.103
394.419	47.763
398.447	206.407
402.474	403.611
406.499	770.226
410.523	1614.57
414.544	2317.51
418.564	2483.15
422.582	2453.58
426.598	2311.29
430.613	1927.19
434.625	1885.07
438.636	2362.82
442.646	3350.93
446.653	3594.79
450.658	3077.41
454.662	2219.8
458.664	1314.98
462.665	851.979
466.663	535.945
470.66	415.532
474.655	315.418
478.648	314.829
482.64	369.708
486.629	541.998
490.617	715.963
494.603	859.795
498.588	1123.83
502.571	1321.98
506.552	1877.25
510.531	2528.16
514.508	3650.03
518.484	5492.89
522.458	9100.76
526.43	16747.6
530.4	29194.3
534.369	34351
538.336	24407
542.301	13339
546.265	7455.58
550.226	4479.14
554.186	3093.86
558.145	2402.1
562.101	1891.96
566.056	1476.72
570.009	1054.45
573.96	749.264
577.91	639.613
581.858	548.679
585.804	447.333
589.748	274.316
593.691	160.549
597.632	133.834
601.571	138.1
605.508	132.343
609.444	91.565
613.378	74.767
617.311	48.95
621.241	1.114
625.17	33.255
629.097	27.418
633.023	19.961
636.946	0.995
640.868	2.58
644.789	79.86
648.707	66.794
652.624	22.167
656.539	75.926
660.453	153.387
664.364	300.219
668.274	430.48
672.183	438.948
676.089	439.024
679.994	411.967
683.898	530.961
687.799	600.738
691.699	624.227
695.597	612.81
699.493	630.179
703.388	813.928
707.281	1264.3
711.172	2173.97
715.062	2649.55
718.95	2092.12
722.836	1264.68
726.721	836.053
730.604	607.22
734.485	520.297
738.364	420.106
742.242	546.763
746.118	681.397
749.993	974.819
753.866	1269.06
757.737	1299.13
761.606	1032.08
765.474	768.504
769.34	534.634
773.204	340.15
777.067	241.396
780.928	147.564
784.787	72.672
788.645	40.558
792.501	6.963
796.355	18.804
800.208	5.308
804.059	25.526
807.908	27.13
811.756	55.022
815.602	10.039
819.446	42.294
823.289	3.855
827.13	26.628
830.969	1.281
834.807	21.934
838.643	61.405
842.477	38.715
846.31	63.887
850.141	60.922
853.971	24.824
857.798	73.588
861.624	2.218
865.449	66.685
869.272	55.011
873.093	32.202
876.912	75.257
880.73	90.183
884.546	107.981
888.361	43.655
892.174	60.209
895.985	53.66
899.795	39
903.603	65.225
907.409	66.341
911.214	68.351
915.017	46.257
918.818	54.059
922.618	129.761
926.416	191.365
930.213	212.874
934.008	337.292
937.801	553.393
941.593	573.985
945.383	419.366
949.171	299.597
952.958	254.894
956.743	221.456
960.526	292.107
964.308	437.066
968.089	641.848
971.867	875.345
975.644	1136.78
979.42	1203.09
983.193	924.898
986.966	711.608
990.736	777.773
994.505	931.847
998.272	1136.36
1002.04	937.613
1005.8	798.91
1009.57	695.397
1013.33	707.224
1017.09	734.233
1020.84	806.696
1024.6	932.071
1028.35	1209.77
1032.11	1652.35
1035.86	1928.03
1039.61	2212.9
1043.36	3005.19
1047.1	3452.16
1050.85	2366.03
1054.59	1417.15
1058.33	940.271
1062.07	779.48
1065.81	679.543
1069.55	659.704
1073.28	613.927
1077.02	635.7
1080.75	640.828
1084.48	625.742
1088.21	621.178
1091.93	724.546
1095.66	812.879
1099.38	797.478
1103.11	653.11
1106.83	571.838
1110.55	522.596
1114.26	440.456
1117.98	396.659
1121.69	334.697
1125.41	290.106
1129.12	241.688
1132.83	146.359
1136.54	119.223
1140.24	127.231
1143.95	114.977
1147.65	120.899
1151.36	114.115
1155.06	47.972
1158.76	41.52
1162.45	41.903
1166.15	28.391
1169.84	2.567
1173.53	52.942
1177.22	19.085
1180.91	55.5
1184.6	2.209
1188.29	0.216
1191.97	27.756
1195.66	1.021
1199.34	17.597
1203.02	14.669
1206.7	4.151
1210.37	11.553
1214.05	18.237
1217.72	27.901
1221.4	35.7
1225.07	30.221
1228.74	14.465
1232.4	50.773
1236.07	25.103
1239.73	10.409
1243.4	53.696
1247.06	54.911
1250.72	16.391
1254.38	35.351
1258.03	0.567
1261.69	61.053
1265.34	61.567
1268.99	38.387
1272.65	0.827
1276.3	19.991
1279.94	26.61
1283.59	47.375
1287.23	27.14
1290.88	32.873
1294.52	2.843
1298.16	10.093
1301.8	9.668
1305.43	33.621
1309.07	12.86
1312.7	3.551
1316.33	14.082
1319.96	1.109
1323.59	1.931
1327.22	15.998
1330.85	23.792
1334.47	50.176
1338.1	0.491
1341.72	6.205
1345.34	37.115
1348.96	32.333
1352.57	32.4
1356.19	42.392
1359.8	11.337
1363.41	23.254
1367.03	94.066
1370.63	66.821
1374.24	55.618
1377.85	40.97
1381.45	36.819
1385.06	36.638
1388.66	51.361
1392.26	31.858
1395.86	90.098
1399.46	74.874
1403.05	67.451
1406.65	126.399
1410.24	95.514
1413.83	32.823
1417.42	82.749
1421.01	18.051
1424.6	4.157
1428.18	47.055
1431.77	3.36
1435.35	52.696
1438.93	79.023
1442.51	99.574
1446.09	89.956
1449.66	75.673
1453.24	80.806
1456.81	80.583
1460.38	51.178
1463.95	98.985
1467.52	74.623
1471.09	31.065
1474.65	48.546
1478.22	47.529
1481.78	83.393
1485.34	102.289
1488.9	73.258
1492.46	98.483
1496.02	32.098
1499.58	12.019
1503.13	46.572
1506.68	16.879
1510.23	46.381
1513.78	2.76
1517.33	0.279
