Measurement: Raman, 514 nm, ccw, Raman Data Processed
Mineral: Metatorbernite
Rruff sample: R040171
Ideal chemistry: Cu(UO_2_)_2_(PO_4_)_2_8H_2_O
Locality: La Luz de Cobre, Sonora, Mexico
Source: University of Arizona Mineral Museum
Description: Green thin tabular crystals
Measured chemistry: (Cu_0.80_[box]_0.20_)_Σ=1_(U_1.00_O_2_)_2_(P_1.00_O_4_)_2_·8((H_2_O)_0.95_(H_3_O)^+^_0.05_)
Pin_id: M00079
Orientation: Laser parallel to -c* (0 0 -1). Fiducial mark perpendicular to laser is parallel to a [1 0 0]
Raman shift (cm-1)	intensity
80.823	0
85.009	79.115
89.193	688.289
93.375	2082.41
97.554	2996
101.732	1745.09
105.908	1510.65
110.082	1872.48
114.254	1419.72
118.424	926.641
122.592	795.012
126.758	675.807
130.922	502.175
135.083	257.118
139.243	343.286
143.401	187.807
147.557	221.752
151.711	126.15
155.863	25.017
160.013	34.274
164.161	25.237
168.308	26.203
172.452	215.736
176.594	286.491
180.734	507.614
184.872	1238.88
189.008	2644.74
193.143	3446.44
197.275	2207.68
201.405	921.2
205.534	453.949
209.66	443.845
213.784	807.838
217.907	1481.91
222.027	1928.05
226.146	1624.26
230.263	837.189
234.377	258.846
238.49	74.784
242.601	18.379
246.709	20.311
250.816	85.864
254.921	106.89
259.024	103.831
263.125	159.546
267.224	93.536
271.321	7.904
275.416	7.639
279.51	172.571
283.601	486.587
287.69	609.588
291.778	544.432
295.863	243.039
299.947	260.393
304.029	248.483
308.108	232.299
312.186	242.827
316.262	284.055
320.336	217.968
324.408	361.504
328.478	552.182
332.546	364.917
336.612	370.329
340.677	457.109
344.739	589.46
348.799	570.519
352.858	820.277
356.915	939.732
360.969	953.897
365.022	1140.73
369.073	1175.22
373.122	1273.37
377.169	1281.18
381.215	1461.81
385.258	1557.17
389.299	1734.22
393.339	2244.98
397.376	3960.5
401.412	4910.9
405.446	6472.57
409.478	5234.42
413.508	3045.98
417.536	2478.7
421.562	2370.31
425.586	2327.22
429.609	2376.96
433.629	2949.8
437.648	3208.67
441.665	3440.5
445.68	2979.99
449.693	2348.1
453.704	2182.81
457.713	1915.11
461.721	1925.96
465.726	1901.35
469.73	1553.26
473.731	1342.58
477.731	1258.56
481.729	1115.94
485.725	948.79
489.72	993.108
493.712	903.896
497.703	745.144
501.691	790.845
505.678	856.99
509.663	794.883
513.646	625.893
517.627	663.872
521.607	577.259
525.584	554.146
529.56	473.583
533.534	428.54
537.506	451.47
541.476	338.46
545.444	346.917
549.41	267.642
553.375	256.374
557.337	181.029
561.298	156.331
565.257	100.782
569.214	133.724
573.17	143.376
577.123	54.584
581.075	35.82
585.024	59.994
588.972	232.835
592.918	53.36
596.863	184.139
600.805	168.182
604.746	184.255
608.685	166.348
612.621	255.127
616.557	303.034
620.49	362.424
624.421	280.281
628.351	360.156
632.279	355.031
636.205	341.894
640.129	201.732
644.051	93.541
647.972	254.305
651.89	116.02
655.807	182.672
659.722	378.252
663.636	590.752
667.547	110.159
671.457	79.457
675.365	9.401
679.271	174.549
683.175	36.366
687.077	56.012
690.978	106.447
694.877	177.582
698.774	63.813
702.669	21.383
706.562	86.163
710.454	149.53
714.344	22.577
718.232	45.445
722.118	33.178
726.002	51.633
729.885	67.48
733.766	29.04
737.645	14.881
741.522	6.152
745.397	16.493
749.271	34.029
753.143	19.19
757.013	33.931
760.881	166.272
764.748	101.261
768.613	74.054
772.476	184.547
776.337	240.146
780.196	578.545
784.054	688.413
787.91	449.042
791.764	579.427
795.616	904.585
799.467	1207.48
803.316	1534.11
807.163	2150.51
811.008	2993.64
814.851	4295.54
818.693	8126.17
822.533	20685.2
826.371	54469.3
830.208	25488
834.042	7981.58
837.875	4437.95
841.706	3021.36
845.536	1360.27
849.363	711.209
853.189	380.369
857.013	505.439
860.836	303.03
864.656	265.639
868.475	131.285
872.292	100.838
876.108	101.378
879.922	187.467
883.733	266.651
887.544	262.073
891.352	530.121
895.159	607.538
898.964	1008.38
902.767	941.154
906.568	787.412
910.368	427.969
914.166	337.069
917.962	75.077
921.757	288.875
925.55	228.249
929.341	135.946
933.13	85.166
936.918	126.528
940.703	124.317
944.488	167.706
948.27	432.684
952.051	390.269
955.83	645.284
959.607	969.704
963.383	915.704
967.156	1273.04
970.928	1928.32
974.699	3265.56
978.468	6044.27
982.234	11058.9
986	25184.5
989.763	39961
993.525	35182.1
997.285	36255.4
1001.04	22393.7
1004.8	11245.2
1008.55	5762.83
1012.31	2903.58
1016.06	1695.46
1019.81	1129.25
1023.56	888.529
1027.31	673.532
1031.05	564.951
1034.79	578.714
1038.53	356.616
1042.27	186.661
1046.01	309.857
1049.75	429.259
1053.48	247.841
1057.22	252.574
1060.95	82.463
1064.68	92.486
1068.4	149.538
1072.13	40.455
1075.86	55.385
1079.58	169.936
1083.3	49.574
1087.02	40.767
1090.74	2.092
1094.45	5.001
1098.17	67.963
1101.88	18.959
1105.59	18.19
1109.3	5.584
1113.01	32.736
1116.71	97.145
1120.42	110.634
1124.12	95.382
1127.82	65.208
1131.52	9.168
1135.22	6.748
1138.91	84.051
1142.61	1.196
1146.3	144.306
1149.99	254.966
1153.68	279.785
1157.37	287.762
1161.06	329.901
1164.74	373.202
1168.42	373.669
1172.1	412.311
1175.78	487.136
1179.46	514.136
1183.14	789.304
1186.81	624.639
1190.48	716.146
1194.15	731.825
1197.83	925.68
1201.49	894.707
1205.16	947.912
1208.82	960.299
1212.49	1127.87
1216.15	1098.94
1219.81	1133.92
1223.46	1067.12
1227.12	1123.51
1230.78	1258.49
1234.43	1246.4
1238.08	1188.36
1241.73	1191.71
1245.38	1106.11
1249.03	988.875
1252.67	1135.96
1256.31	1085.64
1259.95	1140.48
1263.6	1016.4
1267.23	961.944
1270.87	986.113
1274.51	907.532
1278.14	909.792
1281.77	872.55
1285.4	722.136
1289.03	708.871
1292.66	552.898
1296.28	567.15
1299.91	615.63
1303.53	443.339
1307.15	431.275
1310.77	523.441
1314.38	368.844
1318	360.486
1321.61	406.374
1325.23	276.496
1328.84	167.856
1332.45	398.469
1336.06	285.353
1339.66	259.52
1343.27	242.978
1346.87	144.739
1350.47	209.819
1354.07	193.232
1357.67	276.193
1361.26	287.439
1364.86	276.24
1368.45	331.651
1372.04	355.206
1375.63	166.395
1379.22	174.229
1382.81	165.655
1386.39	293.47
1389.98	155.696
1393.56	87.328
1397.14	99.295
1400.72	89.605
1404.3	65.315
1407.87	20.394
1411.45	19.167
1415.02	4.367
1418.59	38.205
1422.16	170.321
1425.73	121.217
1429.29	14.482
1432.86	11.112
1436.42	105.104
1439.98	143.433
1443.54	159.062
1447.1	270.871
1450.66	246.802
1454.21	247.218
1457.77	389.262
1461.32	319.947
1464.87	350.837
1468.42	115.686
1471.96	163.621
1475.51	96.791
1479.06	191.722
1482.6	21.483
1486.14	95.213
1489.68	45.095
1493.22	110.292
1496.75	169.342
1500.29	62.503
1503.82	159.072
1507.35	40.782
1510.88	14.961
1514.41	158.631
1517.94	39.522
