Measurement: Raman, 514 nm, ccw, Raman Data Processed
Mineral: Metatorbernite
Rruff sample: R040171
Ideal chemistry: Cu(UO_2_)_2_(PO_4_)_2_8H_2_O
Locality: La Luz de Cobre, Sonora, Mexico
Source: University of Arizona Mineral Museum
Description: Green thin tabular crystals
Measured chemistry: (Cu_0.80_[box]_0.20_)_Σ=1_(U_1.00_O_2_)_2_(P_1.00_O_4_)_2_·8((H_2_O)_0.95_(H_3_O)^+^_0.05_)
Pin_id: S00039
Orientation: Laser parallel to -b* (0 -1 0). Fiducial mark perpendicular to laser is parallel to c [0 0 1]
Raman shift (cm-1)	intensity
137.857	0
142.016	23.107
146.172	80.615
150.327	125.104
154.48	152.341
158.63	53.52
162.779	50.837
166.926	15.543
171.07	46.694
175.213	84.64
179.354	255.943
183.493	495.142
187.63	1422.58
191.765	2564.78
195.898	2385.51
200.029	925.628
204.158	431.043
208.285	303.696
212.41	402.555
216.533	887.593
220.654	1296.74
224.773	1476.04
228.891	910.074
233.006	471.761
237.119	284.211
241.231	238.328
245.34	350.708
249.448	419.273
253.553	505.054
257.657	604.071
261.758	728.344
265.858	895.437
269.956	1131.73
274.052	1309.9
278.146	1889.45
282.237	1988.54
286.327	2315.61
290.416	2550.22
294.502	2553.12
298.586	2732.31
302.668	2829.98
306.749	2927.37
310.827	3114.1
314.903	3072.87
318.978	3310.9
323.051	3291.51
327.121	3281.7
331.19	3482.95
335.257	3364.89
339.322	3365.94
343.385	3323.51
347.446	3262.18
351.505	3237.9
355.563	3247.88
359.618	3212.3
363.672	3205.04
367.723	3178.67
371.773	3043.23
375.821	3026.7
379.866	3058.16
383.91	3018.57
387.952	3004.9
391.992	3231.33
396.031	3922.81
400.067	4956.16
404.101	5492.98
408.134	5880.76
412.165	3907.05
416.193	3117.13
420.22	2856.28
424.245	2853.16
428.268	2677.21
432.289	3012.29
436.309	3095.94
440.326	3473.28
444.342	3097.39
448.355	2568.23
452.367	2318.72
456.377	2064.84
460.385	1952.58
464.391	1871.91
468.395	1579.97
472.398	1489.73
476.398	1268.19
480.397	1133.34
484.394	1055.17
488.389	984.717
492.382	848.927
496.373	793.806
500.362	766.291
504.349	708.352
508.335	678.968
512.319	589.629
516.3	452.452
520.28	456.069
524.259	318.307
528.235	337.023
532.209	268.763
536.182	308.737
540.152	213.645
544.121	144.696
548.088	183.38
552.053	133.319
556.017	92.238
559.978	7.048
563.938	6.506
567.895	30.309
571.851	8.241
575.805	37.789
579.758	15.784
583.708	24.479
587.657	23.729
591.603	12.419
595.548	103.335
599.491	33.326
603.432	124.449
607.372	124.531
611.309	94.065
615.245	105.595
619.179	139.596
623.111	151.539
627.041	194.623
630.97	185.991
634.896	104.928
638.821	132.884
642.744	49.698
646.665	88.336
650.584	163.78
654.502	89.012
658.418	39.299
662.331	66.773
666.244	97.271
670.154	60.487
674.062	20.408
677.969	10.978
681.874	7.293
685.777	5.215
689.678	7.276
693.577	32.229
697.475	30.856
701.371	33.063
705.265	103.195
709.157	0.11
713.047	11.46
716.936	5.493
720.823	31.317
724.708	31.62
728.591	55.933
732.472	12.037
736.352	28.606
740.23	19.267
744.106	6.647
747.98	34.594
751.853	10.727
755.723	8.051
759.592	99.568
763.459	132.739
767.325	87.604
771.188	104.014
775.05	213.912
778.91	219.134
782.768	263.698
786.625	390.489
790.479	463.509
794.332	610.343
798.183	930.654
802.033	1150.38
805.88	1592.66
809.726	2195.06
813.57	3122.02
817.413	4792.4
821.253	9857.19
825.092	31237.3
828.929	32356.9
832.764	10505.4
836.598	5543.83
840.429	3090.03
844.259	1513.56
848.088	726.575
851.914	445.99
855.739	378.899
859.562	247.769
863.383	148.099
867.203	143.418
871.02	128.995
874.836	72.889
878.65	82.786
882.463	525.902
886.274	901.802
890.083	952.219
893.89	441.251
897.695	648.843
901.499	647.714
905.301	587.747
909.102	396.333
912.9	230.755
916.697	54.898
920.492	36.766
924.285	29.367
928.077	19.407
931.867	110.695
935.655	106.254
939.442	52.485
943.226	39.03
947.009	43.148
950.791	75.146
954.57	254.984
958.348	362.676
962.124	519.234
965.899	810.673
969.671	1223.01
973.442	1935.24
977.211	3481.41
980.979	6590.52
984.745	14533.6
988.509	28620.6
992.271	27771.6
996.032	27634.7
999.791	21644.8
1003.55	10693.1
1007.3	6251.57
1011.06	2872.29
1014.81	1598.6
1018.56	983.544
1022.31	732.539
1026.06	474.384
1029.8	333.784
1033.55	283.16
1037.29	188.867
1041.03	100.902
1044.77	48.259
1048.5	133.96
1052.24	60.046
1055.97	46.487
1059.7	36.284
1063.43	2.416
1067.16	50.833
1070.89	18.085
1074.61	49.876
1078.34	155.005
1082.06	124.511
1085.78	106.17
1089.5	296.176
1093.21	245.256
1096.93	350.711
1100.64	420.076
1104.35	604.806
1108.06	574.918
1111.77	717.406
1115.48	756.281
1119.18	815.613
1122.89	1830.47
1126.59	1324.82
1130.29	1080.61
1133.99	1158.86
1137.68	1271.56
1141.38	1351.72
1145.07	1429.32
1148.76	1406.36
1152.45	1570.85
1156.14	1440.77
1159.83	1506.15
1163.51	1575
1167.19	1633.35
1170.88	1509.22
1174.56	1653.62
1178.23	1586.57
1181.91	1627.06
1185.59	1549.02
1189.26	1555.43
1192.93	1600.79
1196.6	1511.58
1200.27	1505.32
1203.94	1636.52
1207.6	1458.16
1211.27	1518.83
1214.93	1463.19
1218.59	1550.33
1222.25	1420.63
1225.9	1402.04
1229.56	1465.83
1233.21	1330.09
1236.86	1267.04
1240.51	1315.32
1244.16	1242.27
1247.81	1188.38
1251.45	1181.15
1255.1	1106.1
1258.74	1073.46
1262.38	1047.67
1266.02	957.407
1269.66	809.376
1273.29	829.356
1276.93	757.406
1280.56	789.187
1284.19	673.076
1287.82	641.689
1291.45	607.767
1295.07	503.252
1298.7	501.141
1302.32	367.545
1305.94	406.207
1309.56	383.266
1313.18	279.72
1316.8	363.552
1320.41	281.764
1324.02	218.078
1327.63	211.312
1331.24	181.668
1334.85	148.292
1338.46	128.119
1342.06	100.219
1345.67	8.338
1349.27	85.466
1352.87	165.515
1356.47	62.456
1360.07	88.244
1363.66	111.146
1367.25	35.825
1370.85	8.686
1374.44	107.015
1378.03	10.589
1381.61	2.956
1385.2	12.983
1388.78	28.167
1392.37	81.417
1395.95	40.066
1399.53	51.552
1403.1	9.282
1406.68	113.967
1410.26	145.233
1413.83	9.094
1417.4	3.562
1420.97	9.342
1424.54	22.387
1428.1	0.719
1431.67	54.359
1435.23	70.188
1438.8	110.981
1442.36	43.76
1445.91	78.821
1449.47	85.591
1453.03	213.676
1456.58	215.173
1460.13	218.907
1463.68	234.857
1467.23	91.486
1470.78	101.021
1474.33	127.202
1477.87	100.799
1481.42	47.433
1484.96	84.561
1488.5	5.468
1492.04	89.248
1495.57	154.141
1499.11	13.385
1502.64	227.555
1506.17	17.171
1509.71	19.017
1513.23	36.144
1516.76	1.82
1520.29	0
