Measurement: Raman, 514 nm, ccw, Raman Data Processed
Mineral: Metatorbernite
Rruff sample: R070686
Ideal chemistry: Cu(UO_2_)_2_(PO_4_)_2_8H_2_O
Locality: Fichtelgebirge, Franconia, Bavaria, Germany
Source: Michael Scott
Description: Green tabular crystals
Pin_id: M00978
Orientation: Laser parallel to -a* (-1 0 0). Fiducial mark perpendicular to laser is parallel to c [0 0 1]
Raman shift (cm-1)	intensity
170.705	0
175.635	140.18
180.563	430.136
185.487	959.819
190.409	1770.35
195.327	1988.06
200.242	1573.71
205.155	511.394
210.064	544.09
214.97	388.238
219.873	28.8477
224.773	41.3145
229.67	45.3125
234.564	109.648
239.455	51.5918
244.342	165.359
249.227	256.424
254.109	33.5195
258.988	91.1289
263.864	184.435
268.736	358.492
273.606	420.258
278.473	424.746
283.337	644.871
288.197	711.637
293.055	634.019
297.91	742.076
302.762	751.643
307.611	646.795
312.456	732.906
317.299	589.086
322.139	585.514
326.976	764.617
331.81	712.254
336.641	717.516
341.469	519.981
346.294	717.18
351.116	610.965
355.936	668.125
360.752	718.594
365.565	724.012
370.376	716.029
375.183	626.936
379.988	735.844
384.789	663.982
389.588	634.602
394.384	728.779
399.177	881.144
403.967	886.971
408.754	726.209
413.538	729.67
418.319	637.629
423.097	586.092
427.873	545.268
432.646	746.396
437.415	651.158
442.182	724.746
446.946	620.852
451.707	455.516
456.465	319.865
461.221	467.295
465.973	448.758
470.723	458.369
475.47	393.008
480.214	316.205
484.955	325.682
489.693	255.723
494.429	204.941
499.161	230.496
503.891	205.549
508.618	204.75
513.342	161.297
518.063	132.535
522.782	200.068
527.497	155.316
532.21	58.0684
536.92	153.889
541.627	14.2539
546.332	217.514
551.034	195.41
555.732	222.793
560.428	259.938
565.122	22.7031
569.812	122.772
574.5	136.059
579.185	12.2812
583.867	51.3418
588.546	23.2363
593.223	82.6426
597.897	22.3086
602.568	237.494
607.236	91.8066
611.902	51.4434
616.565	78.4727
621.225	121.457
625.882	149.875
630.537	237.916
635.189	203.643
639.838	115.459
644.484	138.654
649.128	189.471
653.769	106.799
658.407	296.748
663.043	158.211
667.676	216.51
672.306	219.055
676.933	91.666
681.558	189.221
686.18	222.938
690.799	150.762
695.416	274.33
700.03	283.352
704.641	132.414
709.25	287.984
713.856	278.014
718.459	247.938
723.059	376.746
727.657	261.375
732.253	4.91211
736.845	223.191
741.435	0.025391
746.022	224.307
750.607	427.92
755.189	354.922
759.768	304.318
764.345	211.156
768.919	279.818
773.49	513.615
778.059	222.174
782.625	780.783
787.189	904.193
791.749	1458.95
796.308	1937.3
800.863	2217.18
805.416	2561.22
809.967	3318.81
814.515	5092.23
819.06	9658.22
823.603	15396.5
828.143	15190.5
832.68	6990.22
837.215	3592.39
841.747	2403.09
846.277	1440.66
850.804	1094.08
855.328	792.127
859.85	451.4
864.37	519.838
868.886	156.492
873.401	266.26
877.912	269.606
882.421	182.848
886.928	200.014
891.432	334.467
895.933	438.453
900.432	458.389
904.929	359.062
909.423	38.7266
913.914	124.031
918.403	3.54883
922.889	16.5801
927.373	154.691
931.854	183.43
936.332	85.8477
940.809	9.625
945.282	55.6719
949.753	197.822
954.222	285.783
958.688	338.459
963.152	366.445
967.613	26.1172
972.071	357.269
976.527	673.949
980.981	958.229
985.432	1741.11
989.881	1866.65
994.327	1942.86
998.771	1526.05
1003.21	836.311
1007.65	557.434
1012.09	359.629
1016.52	150.225
1020.95	150.293
1025.38	401.785
1029.81	228.137
1034.23	187.004
1038.65	263.756
1043.07	143.562
1047.49	298.916
1051.9	265.047
1056.31	206.035
1060.72	253.754
1065.13	198.047
1069.54	317.098
1073.94	172.844
1078.34	12.1328
1082.73	142.062
1087.13	40.6719
1091.52	178.012
1095.91	122.656
1100.3	198.519
1104.68	191.719
1109.07	344.297
1113.45	331.168
1117.82	309.348
1122.2	294.856
1126.57	71.7109
1130.94	288.945
1135.31	413.574
1139.68	215.633
1144.04	443.144
1148.4	478.109
1152.76	427.582
1157.12	623.523
1161.47	237.934
1165.82	31.832
1170.17	246.234
1174.52	453.223
1178.87	353.844
1183.21	381.43
1187.55	484.621
1191.88	561.449
1196.22	530.32
1200.55	374.066
1204.88	636.926
1209.21	548.648
1213.54	446.965
1217.86	387.207
1222.18	278.148
1226.5	681.375
1230.82	414.769
1235.13	423.856
1239.44	309.727
1243.75	326.258
1248.06	305.43
1252.37	250.305
1256.67	601.519
1260.97	433.785
1265.27	434.66
1269.56	371.16
1273.86	421.273
1278.15	398.969
1282.44	377.301
1286.72	134.195
1291.01	141.66
1295.29	197.676
1299.57	345.949
1303.85	212.102
1308.12	56.0781
1312.39	208.152
1316.67	416.055
1320.93	336.43
1325.2	439.223
1329.46	236.738
1333.73	254.328
1337.98	313.488
1342.24	254.305
1346.5	280.469
1350.75	81.1172
1355	217.227
1359.25	603.309
1363.49	194.793
1367.74	403.269
1371.98	203.965
1376.22	309.047
1380.46	209.625
1384.69	205.059
1388.92	200.629
1393.15	135.211
1397.38	262.695
1401.61	366.684
1405.83	153.414
1410.05	183.188
1414.27	346.328
1418.49	130.383
1422.7	223.859
1426.92	293.031
1431.13	90.8438
1435.34	9.16406
1439.54	67.2734
1443.75	214.008
1447.95	15.7109
1452.15	5.67969
1456.35	183.363
1460.54	36.8672
1464.73	30.9336
1468.92	45.8867
1473.11	164.273
1477.3	167.449
1481.48	31.6367
1485.67	163.981
1489.85	109.309
1494.02	300.957
1498.2	540.656
1502.37	56.5898
1506.55	368.981
1510.71	397.644
1514.88	500.191
1519.05	409.676
1523.21	410.797
1527.37	232.875
1531.53	106.398
1535.68	324.418
1539.84	400.816
1543.99	269.66
1548.14	484.352
1552.29	333.957
1556.44	280.992
1560.58	363.43
1564.72	150.848
1568.86	258.777
1573	290.625
1577.13	1.21484
