Measurement: Raman, 514 nm, ccw, Raman Data Processed
Mineral: Metatorbernite
Rruff sample: R040171
Ideal chemistry: Cu(UO_2_)_2_(PO_4_)_2_8H_2_O
Locality: La Luz de Cobre, Sonora, Mexico
Source: University of Arizona Mineral Museum
Description: Green thin tabular crystals
Measured chemistry: (Cu_0.80_[box]_0.20_)_Σ=1_(U_1.00_O_2_)_2_(P_1.00_O_4_)_2_·8((H_2_O)_0.95_(H_3_O)^+^_0.05_)
Pin_id: M00079
Orientation: Laser parallel to -c* (0 0 -1). Fiducial mark perpendicular to laser is parallel to a [1 0 0]
Raman shift (cm-1)	intensity
89.193	0
93.375	867.128
97.554	1937.94
101.732	820.706
105.908	563.212
110.082	1010.43
114.254	697.539
118.424	420.462
122.592	434.492
126.758	519.975
130.922	363.417
135.083	122.537
139.243	133.639
143.401	108.533
147.557	84.252
151.711	25.738
155.863	32.133
160.013	111.333
164.161	90.842
168.308	88.225
172.452	17.938
176.594	148.756
180.734	448.614
184.872	1098.88
189.008	2547.07
193.143	3978.04
197.275	2608.63
201.405	915.807
205.534	365.559
209.66	403.362
213.784	601.893
217.907	1010.83
222.027	1472.39
226.146	1217.57
230.263	657.364
234.377	192.771
238.49	47.21
242.601	63.574
246.709	190.721
250.816	150.282
254.921	77.725
259.024	93.526
263.125	58.699
267.224	40.683
271.321	83.957
275.416	69.829
279.51	195.693
283.601	530.658
287.69	654.734
291.778	614.051
295.863	404.42
299.947	357.931
304.029	353.868
308.108	340.224
312.186	339.924
316.262	296.165
320.336	304.307
324.408	388.223
328.478	255.063
332.546	310.769
336.612	347.76
340.677	433.401
344.739	495.461
348.799	568.888
352.858	698.715
356.915	774.935
360.969	768.542
365.022	921.534
369.073	1004.95
373.122	1028.74
377.169	1057.92
381.215	1270.61
385.258	1266.78
389.299	1469.37
393.339	1769.41
397.376	2894.94
401.412	3961.54
405.446	4835.52
409.478	4084.93
413.508	2637.44
417.536	1960.75
421.562	1889.06
425.586	1883.64
429.609	1834.74
433.629	2290.5
437.648	2577.38
441.665	2824.64
445.68	2381.28
449.693	1901.31
453.704	1832.69
457.713	1608.42
461.721	1618.49
465.726	1477.88
469.73	1247.59
473.731	1179.61
477.731	979.945
481.729	948.597
485.725	849.618
489.72	872.166
493.712	742.15
497.703	737.555
501.691	726.265
505.678	702.252
509.663	680.53
513.646	556.056
517.627	566.842
521.607	430.88
525.584	385.283
529.56	391.021
533.534	372.922
537.506	397.543
541.476	300.508
545.444	295.286
549.41	275.43
553.375	234.012
557.337	174.842
561.298	197.562
565.257	121.886
569.214	196.043
573.17	78.473
577.123	106.036
581.075	55.864
585.024	84.717
588.972	194.026
592.918	38.607
596.863	97.682
600.805	87.354
604.746	184.879
608.685	170.738
612.621	183.859
616.557	254.912
620.49	256.963
624.421	243.859
628.351	332.653
632.279	347.463
636.205	189.259
640.129	189.035
644.051	135.782
647.972	117.018
651.89	61.155
655.807	101.765
659.722	166.312
663.636	57.793
667.547	162.198
671.457	28.521
675.365	55.756
679.271	93.899
683.175	0.094
687.077	59.745
690.978	29.471
694.877	87.009
698.774	51.807
702.669	22.929
706.562	41.689
710.454	41.005
714.344	60.062
718.232	19.415
722.118	38.059
726.002	46.942
729.885	22.553
733.766	76.248
737.645	58.62
741.522	50.451
745.397	59.343
749.271	76.054
753.143	2.485
757.013	46.396
760.881	49.356
764.748	42.811
768.613	83.009
772.476	116.064
776.337	193.649
780.196	224.625
784.054	157.264
787.91	203.693
791.764	472.93
795.616	681.985
799.467	896.884
803.316	1133.6
807.163	1502.13
811.008	2137.47
814.851	3361.63
818.693	5623.59
822.533	15438.3
826.371	44412.9
830.208	21655.3
834.042	6527.54
837.875	3476.28
841.706	2401.26
845.536	1067.95
849.363	424.971
853.189	325.78
857.013	378.329
860.836	221.116
864.656	217.248
868.475	87.867
872.292	29.747
876.108	33.966
879.922	83.09
883.733	162.668
887.544	112.288
891.352	316.722
895.159	527.295
898.964	779.278
902.767	838.075
906.568	599.077
910.368	445.442
914.166	307.836
917.962	74.896
921.757	208.655
925.55	181.294
929.341	11.387
933.13	3.285
936.918	61.769
940.703	119.755
944.488	161.808
948.27	216.821
952.051	221.192
955.83	429.116
959.607	545.911
963.383	593.303
967.156	982.048
970.928	1273.77
974.699	2179.48
978.468	4248.18
982.234	7846.19
986	18732.9
989.763	30992.3
993.525	26910
997.285	28267.8
1001.04	17299.6
1004.8	8657.57
1008.55	4531.62
1012.31	2191.75
1016.06	1345.01
1019.81	961.379
1023.56	641.922
1027.31	617.864
1031.05	509.005
1034.79	434.962
1038.53	335.076
1042.27	266.451
1046.01	278.99
1049.75	380.602
1053.48	257.29
1057.22	98.473
1060.95	124.083
1064.68	86.197
1068.4	98.44
1072.13	169.712
1075.86	99.95
1079.58	21.301
1083.3	14.546
1087.02	44.408
1090.74	38.109
1094.45	24.439
1098.17	69.921
1101.88	14.607
1105.59	48.239
1109.3	13.024
1113.01	75.804
1116.71	73.745
1120.42	102.803
1124.12	852.977
1127.82	110.284
1131.52	49.772
1135.22	44.792
1138.91	91.266
1142.61	78.213
1146.3	149.792
1149.99	115.504
1153.68	234.35
1157.37	87.33
1161.06	304.447
1164.74	284.701
1168.42	364.094
1172.1	223.631
1175.78	412.32
1179.46	398.167
1183.14	589.153
1186.81	469.283
1190.48	658.552
1194.15	565.965
1197.83	676.519
1201.49	633.221
1205.16	772.068
1208.82	738.067
1212.49	848.215
1216.15	840.518
1219.81	918.879
1223.46	880.115
1227.12	891.854
1230.78	985.587
1234.43	912.794
1238.08	1005.14
1241.73	942.388
1245.38	858.49
1249.03	787.243
1252.67	834.041
1256.31	951.454
1259.95	870.642
1263.6	812.132
1267.23	760.629
1270.87	748.271
1274.51	604.953
1278.14	548.455
1281.77	616.089
1285.4	555.368
1289.03	529.129
1292.66	529.793
1296.28	435.635
1299.91	377.657
1303.53	345.857
1307.15	366.238
1310.77	370.801
1314.38	173.552
1318	228.496
1321.61	180.635
1325.23	215.965
1328.84	64.442
1332.45	269.12
1336.06	168.013
1339.66	133.125
1343.27	32.467
1346.87	63.049
1350.47	114.88
1354.07	274.977
1357.67	256.363
1361.26	125.065
1364.86	124.175
1368.45	150.899
1372.04	223.625
1375.63	211.93
1379.22	100.6
1382.81	120.742
1386.39	111.465
1389.98	56.984
1393.56	76.985
1397.14	126.216
1400.72	14.701
1404.3	70.692
1407.87	90.099
1411.45	93.781
1415.02	112.741
1418.59	0.977
1422.16	150.488
1425.73	42.278
1429.29	121.348
1432.86	68.69
1436.42	188.296
1439.98	113.148
1443.54	183.155
1447.1	122.272
1450.66	243.666
1454.21	284.554
1457.77	223.956
1461.32	326.901
1464.87	352.991
1468.42	78.784
1471.96	207.242
1475.51	203.89
1479.06	158.153
1482.6	131.072
1486.14	101.183
1489.68	117.348
1493.22	160.924
1496.75	148.452
1500.29	140.693
1503.82	28.072
1507.35	15.362
1510.88	196.756
1514.41	148.372
1517.94	0
