Measurement: Raman, 514 nm, ccw, Raman Data Processed
Mineral: Metatorbernite
Rruff sample: R070686
Ideal chemistry: Cu(UO_2_)_2_(PO_4_)_2_8H_2_O
Locality: Fichtelgebirge, Franconia, Bavaria, Germany
Source: Michael Scott
Description: Green tabular crystals
Pin_id: M01699
Orientation: Laser parallel to c* (0 0 1). Fiducial mark perpendicular to laser is parallel to b [0 1 0]
Raman shift (cm-1)	intensity
136.104	0
141.056	31.8648
146.005	87.7812
150.951	32.2407
155.894	61.3125
160.834	116.394
165.771	369.356
170.705	238.445
175.635	520.643
180.563	1146.53
185.487	2696.29
190.409	4068.09
195.327	4366.47
200.242	2241.11
205.155	920.755
210.064	859.157
214.97	1520.38
219.873	1932.23
224.773	1829.23
229.67	1198.27
234.564	533.607
239.455	120.357
244.342	300.583
249.227	401.296
254.109	475.487
258.988	335.141
263.864	474.235
268.736	650.74
273.606	756.615
278.473	1060.84
283.337	1417.56
288.197	1603.8
293.055	1599.77
297.91	1500.33
302.762	1304.5
307.611	1506.2
312.456	1423.71
317.299	1487.82
322.139	1357.11
326.976	1427.35
331.81	1606.38
336.641	1772.11
341.469	1893.44
346.294	2015.28
351.116	1965.53
355.936	2029.12
360.752	2173
365.565	2373.14
370.376	2404.55
375.183	2657.2
379.988	2675.07
384.789	2780.12
389.588	3132.34
394.384	4113.62
399.177	5763.92
403.967	6865.26
408.754	6759.81
413.538	4547.42
418.319	3626.07
423.097	3295.68
427.873	3395.49
432.646	3703.41
437.415	4274.81
442.182	4367.87
446.946	3670.07
451.707	2953.19
456.465	2763.02
461.221	2545.1
465.973	2375.04
470.723	2026.29
475.47	1670.41
480.214	1524.58
484.955	1178.98
489.693	1053.96
494.429	1018.39
499.161	859.201
503.891	751.298
508.618	827.599
513.342	669.576
518.063	590.313
522.782	535.632
527.497	447.031
532.21	364.459
536.92	401.997
541.627	351.864
546.332	153.998
551.034	176.727
555.732	330.594
560.428	69.7842
565.122	36.9316
569.812	100.343
574.5	57.8813
579.185	88.4087
583.867	84.5898
588.546	70.0283
593.223	121.575
597.897	186.387
602.568	102.296
607.236	22.2642
611.902	71.6382
616.565	47.398
621.225	83.144
625.882	159.477
630.537	112.111
635.189	172.412
639.838	62.2417
644.484	117.43
649.128	99.3135
653.769	128.635
658.407	72.7349
663.043	37.5435
667.676	66.1113
672.306	133.048
676.933	83.0381
681.558	112.921
686.18	37.52
690.799	101.366
695.416	44.6738
700.03	105.307
704.641	87.1299
709.25	125.331
713.856	213.561
718.459	243.167
723.059	132.778
727.657	54.1494
732.253	120.736
736.845	54.1377
741.435	91.6045
746.022	49.0693
750.607	118.744
755.189	181.506
759.768	138.184
764.345	96.5117
768.919	234.079
773.49	301.033
778.059	389.401
782.625	588.282
787.189	685.96
791.749	932.51
796.308	1566.28
800.863	1946.72
805.416	2793.1
809.967	3950.68
814.515	6675.48
819.06	16531
823.603	37580.1
828.143	44761
832.68	14873.9
837.215	5956.5
841.747	3731.05
846.277	2050.45
850.804	1296.42
855.328	894.92
859.85	653.302
864.37	264.457
868.886	193.285
873.401	207.255
877.912	207.872
882.421	206.081
886.928	370.725
891.432	564.648
895.933	844.604
900.432	865.409
904.929	807.481
909.423	476.74
913.914	246.74
918.403	113.521
922.889	26.8926
927.373	64.1445
931.854	130.04
936.332	71.3101
940.809	3.7168
945.282	57.8594
949.753	233.161
954.222	474.411
958.688	918.354
963.152	1186.21
967.613	1760.92
972.071	2993.56
976.527	6394.15
980.981	14280.8
985.432	28992.4
989.881	40220.1
994.327	37650.9
998.771	28598.8
1003.21	14003.9
1007.65	6730.57
1012.09	3053.22
1016.52	1507.33
1020.95	990.762
1025.38	609.858
1029.81	420.326
1034.23	299.236
1038.65	155.607
1043.07	98.4126
1047.49	49.6738
1051.9	137.093
1056.31	75.6021
1060.72	7.02295
1065.13	12.0244
1069.54	33.8779
1073.94	35.7002
1078.34	19.3438
1082.73	18.689
1087.13	68.5625
1091.52	249.317
1095.91	75.9795
1100.3	391.574
1104.68	191.128
1109.07	338.663
1113.45	213.48
1117.82	444.772
1122.2	536.666
1126.57	509.068
1130.94	526.845
1135.31	660.793
1139.68	655.039
1144.04	704.592
1148.4	774.626
1152.76	900.584
1157.12	796.612
1161.47	982.516
1165.82	961.785
1170.17	1080.32
1174.52	1180.18
1178.87	1376.32
1183.21	1253.81
1187.55	1514.72
1191.88	1480.32
1196.22	1570.77
1200.55	1525.78
1204.88	1677.75
1209.21	1678.79
1213.54	1782.42
1217.86	1794.71
1222.18	1736.35
1226.5	1813.24
1230.82	1818.43
1235.13	1824.87
1239.44	1778.61
1243.75	1612.58
1248.06	1620.77
1252.37	1593.14
1256.67	1488.68
1260.97	1495.58
1265.27	1450.17
1269.56	1332.5
1273.86	1241.07
1278.15	1251.62
1282.44	1093.26
1286.72	1095.34
1291.01	1010.19
1295.29	860.475
1299.57	817.006
1303.85	865.866
1308.12	619.148
1312.39	638.492
1316.67	577.384
1320.93	538.898
1325.2	582.435
1329.46	343.931
1333.73	479.736
1337.98	247.608
1342.24	325.043
1346.5	265.918
1350.75	277.769
1355	182.412
1359.25	152.842
1363.49	288.228
1367.74	81.2271
1371.98	148.498
1376.22	96.0156
1380.46	149.973
1384.69	6.88623
1388.92	107.59
1393.15	46.8355
1397.38	31.3833
1401.61	92.3462
1405.83	65.3735
1410.05	51.1836
1414.27	25.2119
1418.49	70.0542
1422.7	58.4966
1426.92	22.8267
1431.13	16.1719
1435.34	39.4048
1439.54	30.4741
1443.75	34.8477
1447.95	86.8247
1452.15	43.1655
1456.35	108.481
1460.54	146.536
1464.73	13.769
1468.92	100.18
1473.11	107.69
1477.3	191.243
1481.48	20.9458
1485.67	114.215
1489.85	24.374
1494.02	146.299
1498.2	48.4477
1502.37	150.547
1506.55	59.7803
1510.71	95.7656
1514.88	133.257
1519.05	200.111
1523.21	98.7793
1527.37	87.4028
1531.53	128.827
1535.68	101.451
1539.84	122.352
1543.99	121.758
1548.14	71.7388
1552.29	56.9805
1556.44	219.452
1560.58	70.606
1564.72	101.835
1568.86	99.1069
1573	130.091
1577.13	68.6421
