Measurement: Raman, 514 nm, ccw, Raman Data Processed
Mineral: Metatorbernite
Rruff sample: R040171
Ideal chemistry: Cu(UO_2_)_2_(PO_4_)_2_8H_2_O
Locality: La Luz de Cobre, Sonora, Mexico
Source: University of Arizona Mineral Museum
Description: Green thin tabular crystals
Measured chemistry: (Cu_0.80_[box]_0.20_)_Σ=1_(U_1.00_O_2_)_2_(P_1.00_O_4_)_2_·8((H_2_O)_0.95_(H_3_O)^+^_0.05_)
Pin_id: M00079
Orientation: Laser parallel to -c* (0 0 -1). Fiducial mark perpendicular to laser is parallel to a [1 0 0]
Raman shift (cm-1)	intensity
85.009	0
89.193	281.105
93.375	1366.33
97.554	2556.6
101.732	1357.27
105.908	1148.87
110.082	1580.1
114.254	1379.88
118.424	662.723
122.592	616.412
126.758	699.744
130.922	554.652
135.083	324.117
139.243	352.223
143.401	219.707
147.557	185.359
151.711	116.926
155.863	50.25
160.013	12.264
164.161	0.786
168.308	57.614
172.452	52.809
176.594	3.155
180.734	224.505
184.872	624.176
189.008	1503.93
193.143	2601.65
197.275	1939.3
201.405	659.887
205.534	232.398
209.66	249.507
213.784	570.983
217.907	1118.83
222.027	1551.82
226.146	1299.76
230.263	639.629
234.377	188.43
238.49	11.16
242.601	33.817
246.709	151.394
250.816	247.542
254.921	170.033
259.024	53.539
263.125	150.707
267.224	77.506
271.321	45.77
275.416	4.224
279.51	159.453
283.601	398.816
287.69	451.834
291.778	493.912
295.863	196.589
299.947	233.804
304.029	198.751
308.108	294.405
312.186	229.74
316.262	229.735
320.336	207.369
324.408	301.844
328.478	279.755
332.546	317.616
336.612	332.066
340.677	386.285
344.739	470.152
348.799	534.596
352.858	650.612
356.915	815.193
360.969	867.331
365.022	934.026
369.073	1021.33
373.122	1062.21
377.169	1137.71
381.215	1251.9
385.258	1401.73
389.299	1375.19
393.339	1598.29
397.376	1941.98
401.412	2413.56
405.446	2665.07
409.478	2497.47
413.508	2139.75
417.536	1906.98
421.562	1942.14
425.586	2034.67
429.609	2073.73
433.629	2476.23
437.648	2871.77
441.665	3147.52
445.68	2654.99
449.693	2108.93
453.704	1874.33
457.713	1885.2
461.721	1809.52
465.726	1674.3
469.73	1359.52
473.731	1274.16
477.731	1047.21
481.729	937.677
485.725	853.549
489.72	755.876
493.712	821.706
497.703	761.079
501.691	707.963
505.678	760.227
509.663	649.878
513.646	577.126
517.627	561.426
521.607	360.275
525.584	335.614
529.56	360.978
533.534	370.574
537.506	262.846
541.476	216.87
545.444	285.851
549.41	235.194
553.375	192.406
557.337	150.359
561.298	135.933
565.257	120.461
569.214	171.361
573.17	32.352
577.123	52.622
581.075	24.889
585.024	25.427
588.972	92.187
592.918	1.406
596.863	24.876
600.805	29.579
604.746	87.833
608.685	17.135
612.621	41.639
616.557	69.763
620.49	74.035
624.421	20.04
628.351	120.089
632.279	231.171
636.205	91.269
640.129	190.426
644.051	106.62
647.972	188.841
651.89	35.04
655.807	177.192
659.722	134.288
663.636	96.319
667.547	218.275
671.457	67.141
675.365	105.913
679.271	130.563
683.175	96.044
687.077	33.683
690.978	38.706
694.877	59.917
698.774	70.857
702.669	59.024
706.562	110.32
710.454	76.337
714.344	74.061
718.232	65.404
722.118	71.657
726.002	39.457
729.885	11.029
733.766	101.274
737.645	36.748
741.522	50.609
745.397	42.704
749.271	135.586
753.143	28.532
757.013	41.328
760.881	104.271
764.748	120.975
768.613	136.751
772.476	179.982
776.337	330.418
780.196	248.659
784.054	279.004
787.91	425.725
791.764	601.982
795.616	818.652
799.467	1063.56
803.316	1394.84
807.163	1848.25
811.008	2649.42
814.851	3768.34
818.693	6538.01
822.533	17274.4
826.371	49508.3
830.208	24787.2
834.042	7456.64
837.875	4009.66
841.706	2734.2
845.536	1158.62
849.363	623.741
853.189	562.216
857.013	476.49
860.836	398.238
864.656	275.461
868.475	136.332
872.292	119.856
876.108	57.969
879.922	172.891
883.733	239.38
887.544	295.693
891.352	411.621
895.159	563.771
898.964	894.459
902.767	873.895
906.568	683.215
910.368	393.505
914.166	312.756
917.962	151.747
921.757	239.528
925.55	63.322
929.341	71.087
933.13	0.987
936.918	99.281
940.703	23.661
944.488	25.094
948.27	102.699
952.051	56.263
955.83	179.626
959.607	242.856
963.383	207.315
967.156	406.32
970.928	632.218
974.699	1086.01
978.468	1957.72
982.234	3850.33
986	9211.88
989.763	15632.4
993.525	14672.9
997.285	14362.4
1001.04	9412.93
1004.8	5659.57
1008.55	3006.26
1012.31	1269.08
1016.06	620.926
1019.81	442.796
1023.56	280.45
1027.31	227.278
1031.05	170.032
1034.79	127.834
1038.53	60.955
1042.27	78.122
1046.01	94.335
1049.75	173.547
1053.48	17.685
1057.22	32.25
1060.95	60.062
1064.68	3.23
1068.4	95.331
1072.13	7.891
1075.86	9.202
1079.58	114.55
1083.3	93.035
1087.02	77.35
1090.74	30.884
1094.45	124.141
1098.17	78.571
1101.88	108.136
1105.59	136.886
1109.3	15.044
1113.01	90.102
1116.71	165.335
1120.42	144.149
1124.12	112.079
1127.82	192.598
1131.52	219.219
1135.22	40.958
1138.91	263.827
1142.61	197.818
1146.3	165.926
1149.99	244.152
1153.68	305.501
1157.37	246.974
1161.06	302.591
1164.74	391.299
1168.42	530.156
1172.1	486.15
1175.78	484.748
1179.46	542.58
1183.14	550.737
1186.81	671.601
1190.48	756.332
1194.15	737.212
1197.83	950.137
1201.49	874.305
1205.16	1065.5
1208.82	862.694
1212.49	1106.31
1216.15	1016.24
1219.81	1108.81
1223.46	1006.33
1227.12	1045.01
1230.78	1092.54
1234.43	1106.13
1238.08	1187.8
1241.73	1092.06
1245.38	1126.71
1249.03	1052.61
1252.67	1114.71
1256.31	1019.05
1259.95	1030.52
1263.6	1042.24
1267.23	900.098
1270.87	840.148
1274.51	848.4
1278.14	668.857
1281.77	778.756
1285.4	706.116
1289.03	647.208
1292.66	652.518
1296.28	577.049
1299.91	577.803
1303.53	461.783
1307.15	499.988
1310.77	509.424
1314.38	258.091
1318	444.992
1321.61	342.131
1325.23	300.52
1328.84	221.168
1332.45	351.022
1336.06	229.098
1339.66	240.447
1343.27	203.106
1346.87	230.588
1350.47	269.925
1354.07	190.632
1357.67	189.689
1361.26	237.204
1364.86	187.228
1368.45	226.124
1372.04	155.991
1375.63	261.834
1379.22	162.77
1382.81	146.647
1386.39	73.868
1389.98	33.421
1393.56	90.314
1397.14	187.55
1400.72	84.135
1404.3	62.01
1407.87	113.211
1411.45	56.768
1415.02	118.676
1418.59	137.366
1422.16	7.423
1425.73	60.568
1429.29	126.922
1432.86	4.641
1436.42	273.689
1439.98	197.062
1443.54	174.725
1447.1	216.503
1450.66	73.489
1454.21	251.939
1457.77	303.983
1461.32	270.683
1464.87	294.754
1468.42	103.626
1471.96	164.013
1475.51	225.024
1479.06	123.351
1482.6	39.386
1486.14	111.235
1489.68	93.029
1493.22	225.935
1496.75	181.964
1500.29	93.575
1503.82	16.34
1507.35	23.116
1510.88	120.368
1514.41	121.236
1517.94	50.279
