Measurement: Raman, 514 nm, ccw, Raman Data Processed
Mineral: Metatorbernite
Rruff sample: R040171
Ideal chemistry: Cu(UO_2_)_2_(PO_4_)_2_8H_2_O
Locality: La Luz de Cobre, Sonora, Mexico
Source: University of Arizona Mineral Museum
Description: Green thin tabular crystals
Measured chemistry: (Cu_0.80_[box]_0.20_)_Σ=1_(U_1.00_O_2_)_2_(P_1.00_O_4_)_2_·8((H_2_O)_0.95_(H_3_O)^+^_0.05_)
Pin_id: S00039
Orientation: Laser parallel to -b* (0 -1 0). Fiducial mark perpendicular to laser is parallel to c [0 0 1]
Raman shift (cm-1)	intensity
140.63	0
144.787	168.982
148.942	195.694
153.096	114.997
157.247	44.408
161.396	8.808
165.544	4.509
169.689	7.83
173.833	142.526
177.974	304.373
182.114	801.596
186.251	2056.07
190.387	4973.48
194.52	7247.93
198.652	3623
202.782	1251.85
206.909	547.471
211.035	342.824
215.159	322.901
219.281	318.697
223.4	379.191
227.518	273.18
231.634	126.411
235.748	18.337
239.86	12.793
243.97	19.968
248.079	12.228
252.185	106.813
256.289	92.802
260.391	90.202
264.492	189.022
268.59	184.265
272.687	299.929
276.781	516.998
280.874	798.489
284.964	894.458
289.053	896.896
293.14	970.771
297.225	873.059
301.308	869.746
305.389	966.327
309.468	898.607
313.545	849.098
317.62	830.544
321.693	764.148
325.765	813.6
329.834	732.154
333.902	776.889
337.967	887.255
342.031	761.999
346.093	742.108
350.153	743.594
354.21	763.315
358.267	766.642
362.321	776.16
366.373	839.043
370.423	846.25
374.471	857.256
378.518	810.632
382.563	896.792
386.605	950.254
390.646	882.038
394.685	1062.1
398.722	1399.44
402.757	1697.81
406.79	1765.33
410.821	1421.49
414.851	1078.93
418.878	1033.67
422.904	1019.54
426.927	986.885
430.949	990.377
434.969	1122.3
438.987	1307.28
443.003	1282.88
447.018	1125.51
451.03	908.11
455.041	856.094
459.049	771.054
463.056	733.173
467.061	691.448
471.064	596.898
475.065	539.596
479.064	404.431
483.062	420.478
487.057	350.209
491.051	354.696
495.043	280.382
499.032	302.249
503.02	326.689
507.007	292.081
510.991	262.551
514.973	183.645
518.954	158.589
522.933	223.325
526.91	225.552
530.885	200.147
534.858	193.797
538.829	156.647
542.799	99.605
546.766	116.823
550.732	129.331
554.696	175.131
558.658	187.477
562.618	134.883
566.576	35.97
570.533	137.094
574.488	1.902
578.44	43.789
582.391	54.932
586.341	49.811
590.288	36.248
594.233	52.187
598.177	20.243
602.119	7.415
606.059	44.293
609.997	49.386
613.933	67.481
617.868	35.219
621.801	93.969
625.731	41.649
629.66	2.664
633.588	73.031
637.513	27.741
641.437	75.448
645.358	27.117
649.278	64.105
653.196	52.268
657.113	11.74
661.027	10.865
664.94	54.572
668.851	11.52
672.76	48.444
676.667	42.236
680.572	29.139
684.476	2.251
688.378	5.417
692.278	4.481
696.176	38.332
700.072	101.951
703.967	4.337
707.86	11.5
711.751	37.455
715.64	5.203
719.527	36.745
723.413	17.873
727.297	4.278
731.179	26.188
735.059	5.097
738.937	74.429
742.814	80.591
746.689	5.122
750.562	27.317
754.433	61.512
758.303	52.793
762.17	79.913
766.036	132.021
769.901	142.781
773.763	85.583
777.624	102.409
781.482	263.639
785.339	732.161
789.195	788.686
793.048	643.097
796.9	845.249
800.75	1103.67
804.598	1519.78
808.445	1666.45
812.289	2352.72
816.132	3660.23
819.973	7221.72
823.813	22544.9
827.65	43716.9
831.486	15739.1
835.32	6430.06
839.152	3506.77
842.983	1981.07
846.812	1026.98
850.639	636.371
854.464	466.388
858.288	343.095
862.11	210.4
865.93	189.424
869.748	161.347
873.564	110.102
877.379	66.038
881.192	134.886
885.004	182.327
888.813	171.176
892.621	332.513
896.427	538.679
900.232	645.705
904.034	657.595
907.835	574.329
911.634	395.674
915.432	321.468
919.227	188.831
923.021	152.983
926.813	117.879
930.604	81.131
934.393	34.057
938.18	15.297
941.965	18.907
945.749	30.668
949.53	18.407
953.311	23.423
957.089	91.379
960.866	79.288
964.641	217.16
968.414	250
972.185	513.834
975.955	813.696
979.723	1603.57
983.49	3823.44
987.254	7441.35
991.017	9176.3
994.779	8463.25
998.538	8003.27
1002.3	4396.31
1006.05	2539.41
1009.81	1160.59
1013.56	593.793
1017.31	388.056
1021.06	231.38
1024.81	189.74
1028.55	149.149
1032.3	81.621
1036.04	91.165
1039.78	33.802
1043.52	50.505
1047.26	30.218
1050.99	39.963
1054.73	45.827
1058.46	41.758
1062.19	35.747
1065.92	52.266
1069.65	18.316
1073.37	52.675
1077.1	17.279
1080.82	43.641
1084.54	18.058
1088.26	14.071
1091.97	72.937
1095.69	36.15
1099.4	140.998
1103.12	110.436
1106.83	121.25
1110.54	119.919
1114.24	152.687
1117.95	222.571
1121.65	518.547
1125.35	540.617
1129.06	281.784
1132.75	236.048
1136.45	165.412
1140.15	288.876
1143.84	340.46
1147.53	358.153
1151.22	354.949
1154.91	341.85
1158.6	371.857
1162.28	440.971
1165.97	394.19
1169.65	450.518
1173.33	460.953
1177.01	393.499
1180.69	449.152
1184.36	534.917
1188.04	507.791
1191.71	562.385
1195.38	553.808
1199.05	599.045
1202.71	591.724
1206.38	555.228
1210.04	578.863
1213.71	526.976
1217.37	598.817
1221.03	571.435
1224.68	575.217
1228.34	578.33
1231.99	602.384
1235.65	596.738
1239.3	591.346
1242.95	562.108
1246.59	541.061
1250.24	499.21
1253.88	480.007
1257.53	486.083
1261.17	474.514
1264.81	429.062
1268.45	488.733
1272.08	419.548
1275.72	332.611
1279.35	256.657
1282.98	361.829
1286.61	177.377
1290.24	352.484
1293.87	257.047
1297.49	221.746
1301.11	241.581
1304.73	108.512
1308.36	148.513
1311.97	224.583
1315.59	184.782
1319.2	89.938
1322.82	104.498
1326.43	174.961
1330.04	77.539
1333.65	71.017
1337.26	101.846
1340.86	53.918
1344.47	95.074
1348.07	75.976
1351.67	103.768
1355.27	36.38
1358.87	25.897
1362.46	141.631
1366.06	20.584
1369.65	0.749
1373.24	57.098
1376.83	31.593
1380.42	44.208
1384	10.95
1387.59	58.864
1391.17	3.945
1394.75	42.857
1398.33	2.485
1401.91	19.985
1405.49	27.649
1409.06	53.476
1412.64	33.613
1416.21	52.609
1419.78	17.853
1423.35	74.255
1426.91	17.868
1430.48	69.752
1434.05	52.907
1437.61	12.34
1441.17	67.061
1444.73	104.918
1448.29	147.303
1451.84	71.724
1455.4	123.527
1458.95	79.893
1462.5	68.881
1466.05	204.114
1469.6	185.03
1473.15	73.946
1476.69	80.998
1480.24	118.102
1483.78	21.254
1487.32	156.573
1490.86	70.602
1494.39	0.185
