Measurement: Raman, 514 nm, ccw, Raman Data Processed
Mineral: Metatorbernite
Rruff sample: R070686
Ideal chemistry: Cu(UO_2_)_2_(PO_4_)_2_8H_2_O
Locality: Fichtelgebirge, Franconia, Bavaria, Germany
Source: Michael Scott
Description: Green tabular crystals
Pin_id: M01699
Orientation: Laser parallel to c* (0 0 1). Fiducial mark perpendicular to laser is parallel to b [0 1 0]
Raman shift (cm-1)	intensity
136.104	0
141.056	50.293
146.005	120.17
150.951	106.518
155.894	29.7734
160.834	338.199
165.771	423.375
170.705	485.008
175.635	900.26
180.563	1373.81
185.487	2503.29
190.409	3442.5
195.327	4462.89
200.242	3203.61
205.155	2341.3
210.064	2479.45
214.97	3178.81
219.873	3678.94
224.773	3700.44
229.67	3491.2
234.564	2717.21
239.455	2843.93
244.342	2981.51
249.227	3197.38
254.109	3309.03
258.988	3483.72
263.864	3593.85
268.736	3722.26
273.606	4376.74
278.473	5005.07
283.337	5415.74
288.197	5487.44
293.055	5799.6
297.91	5839.55
302.762	5896.98
307.611	6112.11
312.456	6062.51
317.299	6013.87
322.139	6362.76
326.976	6506.48
331.81	6556.64
336.641	7024.49
341.469	6782.51
346.294	6923.12
351.116	6867.88
355.936	6940.45
360.752	7094.72
365.565	7082.6
370.376	7010.12
375.183	7034.19
379.988	7020.77
384.789	6835.58
389.588	7096.49
394.384	7295
399.177	7498.27
403.967	7498.53
408.754	7539.2
413.538	7046.48
418.319	6476.74
423.097	6241.96
427.873	6537.5
432.646	6498.6
437.415	7185.6
442.182	6897.01
446.946	6282.97
451.707	5914.59
456.465	5414.5
461.221	4944.94
465.973	4827.61
470.723	4590.68
475.47	4168.81
480.214	3620.06
484.955	3377.48
489.693	2788.34
494.429	2868.61
499.161	2829.33
503.891	2337.72
508.618	2357.36
513.342	2007.06
518.063	1853.32
522.782	1517.27
527.497	1282.29
532.21	1063.72
536.92	868.113
541.627	588.572
546.332	640.457
551.034	436.326
555.732	414.273
560.428	203.873
565.122	184.361
569.812	39.2363
574.5	108.062
579.185	157.631
583.867	119.523
588.546	283.74
593.223	410.129
597.897	370.152
602.568	45.459
607.236	212.656
611.902	191.738
616.565	26.4277
621.225	25.2715
625.882	158.065
630.537	213.096
635.189	119.803
639.838	175.287
644.484	196.766
649.128	122.389
653.769	149.859
658.407	209.287
663.043	36.0723
667.676	322.961
672.306	106.723
676.933	146.766
681.558	358.769
686.18	336.389
690.799	220.627
695.416	325.137
700.03	324.06
704.641	476.584
709.25	586.404
713.856	415.977
718.459	521.803
723.059	582.861
727.657	504.438
732.253	416.471
736.845	527.492
741.435	717.336
746.022	574.162
750.607	511.881
755.189	621.92
759.768	797.055
764.345	826.102
768.919	900.193
773.49	962
778.059	914.264
782.625	1093.87
787.189	1245.73
791.749	1593.53
796.308	1929.17
800.863	2347.31
805.416	3157.53
809.967	4368.67
814.515	6762.4
819.06	13966.5
823.603	32326.2
828.143	42280.6
832.68	15329.7
837.215	6559.19
841.747	3860.68
846.277	2346.03
850.804	1653.59
855.328	1229.94
859.85	1006.69
864.37	767.842
868.886	644.154
873.401	586.236
877.912	587.641
882.421	777.762
886.928	491.252
891.432	678.311
895.933	947.539
900.432	900.588
904.929	848.539
909.423	581.125
913.914	191.705
918.403	27.1973
922.889	11.5586
927.373	74.6523
931.854	170.705
936.332	213.94
940.809	259.791
945.282	204.309
949.753	176.385
954.222	108.174
958.688	8.07617
963.152	152.459
967.613	403.152
972.071	831.236
976.527	1878.67
980.981	5143.69
985.432	10935.4
989.881	16192.1
994.327	16148
998.771	11752.8
1003.21	6681.18
1007.65	3528.33
1012.09	1385.57
1016.52	648.191
1020.95	233.912
1025.38	140.008
1029.81	57.1348
1034.23	179.568
1038.65	264.139
1043.07	325.457
1047.49	262.203
1051.9	226.315
1056.31	360.725
1060.72	300.262
1065.13	459.721
1069.54	494.199
1073.94	705.318
1078.34	686.4
1082.73	827.496
1087.13	876.234
1091.52	1056.18
1095.91	1356.91
1100.3	1468.29
1104.68	1627.4
1109.07	1772.36
1113.45	1841.26
1117.82	2317.51
1122.2	2365.24
1126.57	2495.6
1130.94	2485.43
1135.31	2704.95
1139.68	2784.29
1144.04	3067.52
1148.4	2990.61
1152.76	3205.5
1157.12	3183.14
1161.47	3415.49
1165.82	3311.75
1170.17	3505.36
1174.52	3570
1178.87	3776.86
1183.21	3672.45
1187.55	3895.86
1191.88	3727.17
1196.22	3938.64
1200.55	4221.37
1204.88	4188.58
1209.21	4069.29
1213.54	4093.55
1217.86	3841.81
1222.18	3971.63
1226.5	4199.69
1230.82	3972.95
1235.13	4115.26
1239.44	3905.73
1243.75	3585.24
1248.06	3666.65
1252.37	3552.89
1256.67	3676.85
1260.97	3427.44
1265.27	3141.56
1269.56	3067.51
1273.86	2923.86
1278.15	2791.66
1282.44	2448.13
1286.72	2289
1291.01	2054.93
1295.29	2026.05
1299.57	1854.31
1303.85	1830.78
1308.12	1654.45
1312.39	1517.61
1316.67	1561.48
1320.93	1553.38
1325.2	1347.88
1329.46	1074.79
1333.73	829.668
1337.98	842.494
1342.24	797.137
1346.5	564.09
1350.75	722.527
1355	507.19
1359.25	724.689
1363.49	501.494
1367.74	443.897
1371.98	486.393
1376.22	336.715
1380.46	343.478
1384.69	363.527
1388.92	433.981
1393.15	35.3711
1397.38	156.916
1401.61	162.391
1405.83	40.5645
1410.05	64.5684
1414.27	270.06
1418.49	109.508
1422.7	229.287
1426.92	94.7422
1431.13	162.996
1435.34	194.31
1439.54	42.3789
1443.75	84.1816
1447.95	33.1562
1452.15	3.23633
1456.35	40.1348
1460.54	75.1699
1464.73	153.891
1468.92	139.131
1473.11	59.6309
1477.3	202.074
1481.48	217.973
1485.67	385.117
1489.85	276.486
1494.02	486.194
1498.2	437.677
1502.37	575.439
1506.55	702.282
1510.71	491.212
1514.88	754.099
1519.05	627.931
1523.21	653.423
1527.37	566.524
1531.53	572.692
1535.68	492.204
1539.84	382.771
1543.99	465.534
1548.14	471.543
1552.29	440.998
1556.44	276.455
1560.58	89.0391
1564.72	252.066
1568.86	200.977
1573	117.874
1577.13	99.585
