Measurement: Raman, 514 nm, ccw, Raman Data Processed
Mineral: Metatorbernite
Rruff sample: R070686
Ideal chemistry: Cu(UO_2_)_2_(PO_4_)_2_8H_2_O
Locality: Fichtelgebirge, Franconia, Bavaria, Germany
Source: Michael Scott
Description: Green tabular crystals
Pin_id: M00978
Orientation: Laser parallel to -a* (-1 0 0). Fiducial mark perpendicular to laser is parallel to c [0 0 1]
Raman shift (cm-1)	intensity
170.705	0
175.635	132.797
180.563	497.28
185.487	1550.08
190.409	2999.19
195.327	3423.8
200.242	1831.24
205.155	529.295
210.064	592.571
214.97	945.327
219.873	1576.26
224.773	1494.64
229.67	1092.4
234.564	252.051
239.455	158.051
244.342	89.8603
249.227	17.7949
254.109	81.8096
258.988	43.3809
263.864	131.872
268.736	5.66992
273.606	122.142
278.473	352.574
283.337	577.875
288.197	666.721
293.055	805.771
297.91	597.696
302.762	572.818
307.611	450.138
312.456	536.656
317.299	575.217
322.139	356.377
326.976	533.439
331.81	563.553
336.641	728.974
341.469	791.236
346.294	816.015
351.116	1060.32
355.936	1130.94
360.752	1248.41
365.565	1386.34
370.376	1519.6
375.183	1553.45
379.988	1768.84
384.789	2127.72
389.588	2275.83
394.384	2888.53
399.177	4400.31
403.967	5628.62
408.754	6199.06
413.538	4152.46
418.319	3011.83
423.097	2671.73
427.873	2847.25
432.646	3027.09
437.415	3616.53
442.182	3970.48
446.946	3246.09
451.707	2652.44
456.465	2450.33
461.221	2309.09
465.973	2138.82
470.723	1885.95
475.47	1635.38
480.214	1274.08
484.955	1235.99
489.693	1133.13
494.429	942.456
499.161	943.879
503.891	952.351
508.618	874.858
513.342	892.382
518.063	592.894
522.782	758.368
527.497	701.773
532.21	378.103
536.92	401.369
541.627	424.428
546.332	286.269
551.034	193.258
555.732	234.966
560.428	168.362
565.122	238.706
569.812	66.8115
574.5	87.2324
579.185	48.5322
583.867	72.6523
588.546	87.8564
593.223	37.2168
597.897	41.6728
602.568	69.7793
607.236	99.6016
611.902	324.925
616.565	34.249
621.225	251.989
625.882	191.333
630.537	158.808
635.189	170.376
639.838	106.161
644.484	89.5078
649.128	85.8144
653.769	130.044
658.407	207.327
663.043	187.705
667.676	8.05273
672.306	71.1592
676.933	3.94043
681.558	47.3164
686.18	28.0469
690.799	36.9922
695.416	49.7031
700.03	22.4209
704.641	53.7559
709.25	18.8408
713.856	34.6611
718.459	26.7793
723.059	57.707
727.657	19.1533
732.253	115.031
736.845	53.4629
741.435	136.019
746.022	48.0547
750.607	91.0693
755.189	221.932
759.768	129.28
764.345	207.695
768.919	90.1299
773.49	235.598
778.059	424.22
782.625	459.483
787.189	592.987
791.749	764.453
796.308	1292.19
800.863	1745.61
805.416	2345.86
809.967	3549.22
814.515	5684.44
819.06	12363.2
823.603	31271.1
828.143	42226.1
832.68	15063.3
837.215	5976.37
841.747	3679.18
846.277	1799.41
850.804	984.648
855.328	797.913
859.85	495.088
864.37	309.091
868.886	245.102
873.401	211.097
877.912	140.669
882.421	162.545
886.928	316.624
891.432	370.129
895.933	827.387
900.432	892.799
904.929	883.412
909.423	399.934
913.914	217.545
918.403	148.557
922.889	48.8418
927.373	157.531
931.854	64.1582
936.332	51.5469
940.809	92.6816
945.282	317.293
949.753	325.853
954.222	831.519
958.688	1154.45
963.152	1333.17
967.613	1705.91
972.071	2623.43
976.527	5393.07
980.981	11457.5
985.432	23286.9
989.881	34899.7
994.327	33739
998.771	26775
1003.21	13712.6
1007.65	6772.52
1012.09	2997.99
1016.52	1562.22
1020.95	1068.21
1025.38	772.113
1029.81	523.639
1034.23	387.203
1038.65	289.852
1043.07	149.565
1047.49	292.312
1051.9	165.496
1056.31	221.199
1060.72	64.7422
1065.13	196.584
1069.54	23.8145
1073.94	51.8047
1078.34	35.6973
1082.73	18.7969
1087.13	114.484
1091.52	86.3281
1095.91	109.35
1100.3	72.6738
1104.68	206.315
1109.07	141.287
1113.45	252.602
1117.82	203.279
1122.2	198.312
1126.57	247.731
1130.94	2.45312
1135.31	34.8301
1139.68	344.676
1144.04	423.094
1148.4	299.072
1152.76	483.518
1157.12	451.469
1161.47	626.916
1165.82	613.856
1170.17	532.346
1174.52	656.418
1178.87	998.029
1183.21	723.225
1187.55	878.109
1191.88	1023.69
1196.22	939.955
1200.55	1016.44
1204.88	1171.86
1209.21	1273.87
1213.54	1156.62
1217.86	1243.56
1222.18	1108.06
1226.5	1311.56
1230.82	1210.83
1235.13	1382.75
1239.44	1208.39
1243.75	1215.71
1248.06	1298.7
1252.37	1183.96
1256.67	1227.36
1260.97	1117.42
1265.27	1134.16
1269.56	1042.99
1273.86	1115.94
1278.15	995.672
1282.44	1006.32
1286.72	759.215
1291.01	783.951
1295.29	730.904
1299.57	772.977
1303.85	694.547
1308.12	544.736
1312.39	515.061
1316.67	545.639
1320.93	493.756
1325.2	443.727
1329.46	362.264
1333.73	522.521
1337.98	325.252
1342.24	301.898
1346.5	155.199
1350.75	406.508
1355	214.731
1359.25	69.7441
1363.49	136.008
1367.74	341.07
1371.98	206.5
1376.22	249.408
1380.46	243.426
1384.69	135.156
1388.92	11.8809
1393.15	141.34
1397.38	42.248
1401.61	40.4082
1405.83	115.826
1410.05	9.40625
1414.27	135.176
1418.49	132.185
1422.7	77.7305
1426.92	26.1641
1431.13	17.8242
1435.34	87.793
1439.54	98.2519
1443.75	35.9883
1447.95	126.106
1452.15	342.643
1456.35	77.5371
1460.54	254.719
1464.73	44.4102
1468.92	11.5957
1473.11	111.162
1477.3	145.184
1481.48	91.6465
1485.67	85.5215
1489.85	193.162
1494.02	76.1856
1498.2	295.766
1502.37	171.693
1506.55	213.58
1510.71	243.586
1514.88	281.076
1519.05	100.562
1523.21	53.7168
1527.37	391.912
1531.53	191.17
1535.68	206.685
1539.84	361.217
1543.99	126.703
1548.14	45.543
1552.29	174.906
1556.44	99.9805
1560.58	175.94
1564.72	88.8828
1568.86	276.125
1573	204.135
1577.13	118.978
