Measurement: Raman, 514 nm, ccw, Raman Data Processed
Mineral: Metatorbernite
Rruff sample: R070686
Ideal chemistry: Cu(UO_2_)_2_(PO_4_)_2_8H_2_O
Locality: Fichtelgebirge, Franconia, Bavaria, Germany
Source: Michael Scott
Description: Green tabular crystals
Pin_id: M00978
Orientation: Laser parallel to -a* (-1 0 0). Fiducial mark perpendicular to laser is parallel to c [0 0 1]
Raman shift (cm-1)	intensity
170.705	0
175.635	96.1406
180.563	698.783
185.487	1743.61
190.409	3458.44
195.327	4182.83
200.242	2012.57
205.155	702.341
210.064	295.313
214.97	306.462
219.873	323.912
224.773	223.056
229.67	199.178
234.564	13.0547
239.455	17.8223
244.342	54.7559
249.227	16.6465
254.109	121.95
258.988	1.19922
263.864	173.943
268.736	119.336
273.606	258.961
278.473	410.7
283.337	608.444
288.197	567.233
293.055	470.024
297.91	370.041
302.762	476.38
307.611	368.185
312.456	399.366
317.299	217.985
322.139	370.777
326.976	249.701
331.81	244.943
336.641	284.212
341.469	317.891
346.294	357.055
351.116	403.016
355.936	492.603
360.752	630.892
365.565	412.852
370.376	605.721
375.183	580.433
379.988	664.536
384.789	563.947
389.588	938.821
394.384	941.465
399.177	1268.95
403.967	1513.31
408.754	1513.6
413.538	1194.16
418.319	936.46
423.097	1095.2
427.873	847.28
432.646	1076.59
437.415	1061.48
442.182	1190.07
446.946	1080.79
451.707	900.908
456.465	870.558
461.221	620.72
465.973	757.688
470.723	704.767
475.47	498.851
480.214	557.403
484.955	275.401
489.693	434.843
494.429	385.669
499.161	406.891
503.891	387.139
508.618	361.978
513.342	380.069
518.063	241.622
522.782	194.518
527.497	80.5283
532.21	206.913
536.92	176.77
541.627	137.003
546.332	106.743
551.034	174.895
555.732	211.422
560.428	26.8125
565.122	38.1826
569.812	26.0732
574.5	30.1846
579.185	27.0566
583.867	1.12891
588.546	139.387
593.223	29.4697
597.897	81.3457
602.568	25.6572
607.236	77.5644
611.902	117.894
616.565	36.7959
621.225	166.549
625.882	112.65
630.537	36.8164
635.189	117.195
639.838	157.024
644.484	175.472
649.128	61.9258
653.769	251.074
658.407	134.946
663.043	151.464
667.676	111.738
672.306	13.7031
676.933	251.446
681.558	126.961
686.18	81.9463
690.799	228.478
695.416	47.5352
700.03	51.1631
704.641	171.74
709.25	104.986
713.856	99.5039
718.459	196.742
723.059	78.9697
727.657	188.189
732.253	90.1875
736.845	163.438
741.435	104.363
746.022	34.0039
750.607	187.065
755.189	80.2422
759.768	284.496
764.345	272.228
768.919	242.44
773.49	138.201
778.059	214.006
782.625	241.361
787.189	245.357
791.749	375.268
796.308	590.322
800.863	789.838
805.416	1176.27
809.967	1629.93
814.515	3037.13
819.06	7618.11
823.603	17188.5
828.143	20928.5
832.68	7592.7
837.215	3013.27
841.747	1842.58
846.277	1108.64
850.804	695.975
855.328	339.664
859.85	200.213
864.37	100.701
868.886	340.441
873.401	113.228
877.912	175.266
882.421	199.326
886.928	298.205
891.432	233.668
895.933	349.096
900.432	329.947
904.929	487.195
909.423	303.566
913.914	335.815
918.403	141.092
922.889	149.754
927.373	180.102
931.854	35.1094
936.332	56.7578
940.809	64.1856
945.282	31.0215
949.753	65.8906
954.222	239.633
958.688	117.795
963.152	450.197
967.613	367.103
972.071	818.686
976.527	1328.08
980.981	2987.35
985.432	6208.41
989.881	8904.29
994.327	8283.35
998.771	6268.13
1003.21	3344.51
1007.65	1618.39
1012.09	780.686
1016.52	413.764
1020.95	31.3359
1025.38	51.9297
1029.81	198.844
1034.23	104.688
1038.65	85.4492
1043.07	156.982
1047.49	39.7168
1051.9	125.59
1056.31	232.191
1060.72	273.416
1065.13	73.707
1069.54	59.4707
1073.94	64.6777
1078.34	77.0859
1082.73	300.685
1087.13	87.7227
1091.52	39.293
1095.91	55.1855
1100.3	208.914
1104.68	63.0918
1109.07	192.359
1113.45	170.725
1117.82	156.191
1122.2	61.7793
1126.57	194.494
1130.94	256.348
1135.31	229.361
1139.68	14.6543
1144.04	330.24
1148.4	86.0195
1152.76	292.99
1157.12	501.266
1161.47	163.752
1165.82	319.502
1170.17	308.594
1174.52	322.266
1178.87	314.894
1183.21	370.783
1187.55	265.94
1191.88	425.397
1196.22	486.133
1200.55	689.217
1204.88	603.394
1209.21	490.103
1213.54	649.518
1217.86	647.232
1222.18	602.365
1226.5	655.707
1230.82	750.533
1235.13	854.697
1239.44	652.195
1243.75	531.986
1248.06	593.164
1252.37	786.021
1256.67	490.459
1260.97	313.67
1265.27	463.223
1269.56	371.41
1273.86	524.637
1278.15	522.461
1282.44	374.252
1286.72	387.367
1291.01	362.473
1295.29	394.519
1299.57	437.381
1303.85	372.106
1308.12	438.652
1312.39	330.172
1316.67	442.731
1320.93	321.928
1325.2	212.435
1329.46	210.277
1333.73	551.352
1337.98	44.8086
1342.24	180.754
1346.5	153.057
1350.75	209.764
1355	289.815
1359.25	283.897
1363.49	164.539
1367.74	207.44
1371.98	173.438
1376.22	408.941
1380.46	216.078
1384.69	271.359
1388.92	95.7988
1393.15	59.4746
1397.38	171.35
1401.61	92.418
1405.83	85.1856
1410.05	141.531
1414.27	141.031
1418.49	17.3457
1422.7	127.371
1426.92	223.225
1431.13	90.7441
1435.34	142.379
1439.54	306.603
1443.75	141.092
1447.95	115.844
1452.15	188.816
1456.35	137.865
1460.54	186.391
1464.73	126.84
1468.92	232.025
1473.11	70.4941
1477.3	261.266
1481.48	2.30078
1485.67	103.66
1489.85	137.748
1494.02	401.56
1498.2	256.961
1502.37	159.568
1506.55	11.1855
1510.71	287.676
1514.88	189.711
1519.05	157.871
1523.21	303.992
1527.37	256.91
1531.53	122.59
1535.68	308.576
1539.84	130.252
1543.99	252.416
1548.14	294.529
1552.29	165.027
1556.44	157.635
1560.58	71.5898
1564.72	196.143
1568.86	66.5273
1573	95.8301
1577.13	11.0293
