Measurement: Raman, 514 nm, ccw, Raman Data Processed
Mineral: Metatorbernite
Rruff sample: R040171
Ideal chemistry: Cu(UO_2_)_2_(PO_4_)_2_8H_2_O
Locality: La Luz de Cobre, Sonora, Mexico
Source: University of Arizona Mineral Museum
Description: Green thin tabular crystals
Measured chemistry: (Cu_0.80_[box]_0.20_)_Σ=1_(U_1.00_O_2_)_2_(P_1.00_O_4_)_2_·8((H_2_O)_0.95_(H_3_O)^+^_0.05_)
Pin_id: S00039
Orientation: Laser parallel to -b* (0 -1 0). Fiducial mark perpendicular to laser is parallel to c [0 0 1]
Raman shift (cm-1)	intensity
137.857	0
142.016	59.352
146.172	96.882
150.327	55.739
154.48	11.157
158.63	1.403
162.779	27.854
166.926	41.461
171.07	45.905
175.213	150.977
179.354	301.64
183.493	541.846
187.63	1361.96
191.765	2748.41
195.898	2808.1
200.029	1048.72
204.158	485.697
208.285	237.01
212.41	183.65
216.533	107.625
220.654	108.937
224.773	116.451
228.891	36.058
233.006	10.263
237.119	2.448
241.231	19.521
245.34	57.662
249.448	27.984
253.553	76.487
257.657	25.176
261.758	15.052
265.858	54.121
269.956	141.375
274.052	181.813
278.146	256.419
282.237	373.207
286.327	493.246
290.416	393.588
294.502	345.257
298.586	347.071
302.668	361.618
306.749	390.198
310.827	402.475
314.903	332.687
318.978	325.205
323.051	341.06
327.121	280.858
331.19	368.74
335.257	309.613
339.322	260.917
343.385	323.386
347.446	234.04
351.505	308.861
355.563	324.834
359.618	304.912
363.672	338.144
367.723	268.52
371.773	287.02
375.821	279.636
379.866	308.458
383.91	339.465
387.952	267.592
391.992	343.818
396.031	520.038
400.067	471.426
404.101	470.948
408.134	548.536
412.165	365.783
416.193	316.592
420.22	356.487
424.245	372.713
428.268	368.619
432.289	460.995
436.309	517.143
440.326	616.748
444.342	569.095
448.355	405.504
452.367	411.972
456.377	357.906
460.385	349.134
464.391	405.757
468.395	242.444
472.398	314.597
476.398	204.426
480.397	199.672
484.394	199.743
488.389	183.789
492.382	173.896
496.373	131.065
500.362	130.57
504.349	224.516
508.335	152.464
512.319	139.46
516.3	166.877
520.28	119.356
524.259	57.441
528.235	139.972
532.209	57.296
536.182	60.813
540.152	18.358
544.121	168.239
548.088	160.899
552.053	79.575
556.017	40.266
559.978	85.315
563.938	5.027
567.895	66.753
571.851	22.49
575.805	39.232
579.758	49.979
583.708	61.727
587.657	4.272
591.603	37.086
595.548	96.713
599.491	48.185
603.432	55.563
607.372	40.928
611.309	24.308
615.245	61.662
619.179	52.993
623.111	7.311
627.041	111.621
630.97	64.864
634.896	34.068
638.821	6.243
642.744	53.36
646.665	49.467
650.584	62.647
654.502	74.822
658.418	5.01
662.331	43.106
666.244	31.141
670.154	130.083
674.062	49.986
677.969	88.854
681.874	76.65
685.777	0.603
689.678	48.105
693.577	89.741
697.475	54.829
701.371	41.428
705.265	163.664
709.157	72.88
713.047	67.075
716.936	80.26
720.823	43.414
724.708	51.43
728.591	81.526
732.472	59.603
736.352	68.66
740.23	126.448
744.106	124.379
747.98	100.38
751.853	91.427
755.723	51.072
759.592	78.057
763.459	152.043
767.325	216.026
771.188	170.609
775.05	170.026
778.91	267.094
782.768	196.158
786.625	270.837
790.479	425.916
794.332	587.579
798.183	814.648
802.033	1080.4
805.88	1576.98
809.726	2066.06
813.57	3015.94
817.413	4954.47
821.253	11349.9
825.092	36740.4
828.929	37186.5
832.764	11201.5
836.598	5332.06
840.429	3170.47
844.259	1680.51
848.088	994.702
851.914	732.781
855.739	642.794
859.562	360.942
863.383	458.103
867.203	317.278
871.02	252.568
874.836	330.776
878.65	264.998
882.463	273.237
886.274	237.491
890.083	354.763
893.89	482.056
897.695	755.405
901.499	743.783
905.301	727.208
909.102	594.102
912.9	499.058
916.697	302.655
920.492	384.549
924.285	267.485
928.077	262.48
931.867	138.537
935.655	22.281
939.442	10.979
943.226	0.229
947.009	39.601
950.791	45.514
954.57	29.033
958.348	13.67
962.124	6.096
965.899	12.388
969.671	94.123
973.442	171.9
977.211	160.738
980.979	469.592
984.745	894.138
988.509	1689.07
992.271	1677.04
996.032	1643.02
999.791	1495.06
1003.55	762.236
1007.3	486.461
1011.06	274.703
1014.81	127.96
1018.56	24.766
1022.31	138.495
1026.06	74.787
1029.8	18.1
1033.55	106.426
1037.29	45.772
1041.03	76.651
1044.77	40.676
1048.5	105.206
1052.24	105.753
1055.97	192.316
1059.7	81.919
1063.43	65.501
1067.16	82.135
1070.89	139.754
1074.61	2.928
1078.34	131.711
1082.06	142.135
1085.78	28.438
1089.5	59.945
1093.21	30.316
1096.93	73.715
1100.64	34.115
1104.35	62.322
1108.06	10.279
1111.77	13.145
1115.48	64.268
1119.18	42.303
1122.89	253.99
1126.59	78.344
1130.29	27.578
1133.99	58.136
1137.68	167.501
1141.38	35.872
1145.07	170.248
1148.76	65.63
1152.45	96.013
1156.14	56.395
1159.83	154.776
1163.51	104.157
1167.19	258.091
1170.88	153.41
1174.56	238.788
1178.23	241.17
1181.91	227.545
1185.59	208.453
1189.26	271.165
1192.93	195.842
1196.6	274.564
1200.27	475.357
1203.94	900.703
1207.6	359.45
1211.27	262.551
1214.93	377.921
1218.59	206.967
1222.25	270.722
1225.9	1382.04
1229.56	321.003
1233.21	327.395
1236.86	245.734
1240.51	370.075
1244.16	189.558
1247.81	265.912
1251.45	322.702
1255.1	198.558
1258.74	170.348
1262.38	183.866
1266.02	202.464
1269.66	42.003
1273.29	60.554
1276.93	92.45
1280.56	170.01
1284.19	179.575
1287.82	140.963
1291.45	116.329
1295.07	173.627
1298.7	87.436
1302.32	70.012
1305.94	100.189
1309.56	82.78
1313.18	13.455
1316.8	94.718
1320.41	46.885
1324.02	71.045
1327.63	87.964
1331.24	28.319
1334.85	19.637
1338.46	4.66
1342.06	18.321
1345.67	162.315
1349.27	73.672
1352.87	87.318
1356.47	66.352
1360.07	128.395
1363.66	127.52
1367.25	69.944
1370.85	93.364
1374.44	96.116
1378.03	50.684
1381.61	119.612
1385.2	80.425
1388.78	88.267
1392.37	83.178
1395.95	69.134
1399.53	47.104
1403.1	153.139
1406.68	15.206
1410.26	161.311
1413.83	82.467
1417.4	92.681
1420.97	136.646
1424.54	55.94
1428.1	139.244
1431.67	111.739
1435.23	155.863
1438.8	184.666
1442.36	174.813
1445.91	195.972
1449.47	113.124
1453.03	192.205
1456.58	621.916
1460.13	230.649
1463.68	333.339
1467.23	212.638
1470.78	268.854
1474.33	255.817
1477.87	216.5
1481.42	69.946
1484.96	64.2
1488.5	135.63
1492.04	230.384
1495.57	172.639
1499.11	110.742
1502.64	59.954
1506.17	22.345
1509.71	130.419
1513.23	155.045
1516.76	58.928
1520.29	14.831
