Measurement: Raman, 514 nm, ccw, Raman Data Processed
Mineral: Metatorbernite
Rruff sample: R070686
Ideal chemistry: Cu(UO_2_)_2_(PO_4_)_2_8H_2_O
Locality: Fichtelgebirge, Franconia, Bavaria, Germany
Source: Michael Scott
Description: Green tabular crystals
Pin_id: M01699
Orientation: Laser parallel to c* (0 0 1). Fiducial mark perpendicular to laser is parallel to b [0 1 0]
Raman shift (cm-1)	intensity
153.423	0
158.365	77.2578
163.303	116.793
168.238	134.826
173.17	37.3965
178.1	569.271
183.026	1523.66
187.948	3693.45
192.868	5434.9
197.785	4456.8
202.699	2171.1
207.609	1962.29
212.517	2272.13
217.422	3029.97
222.323	3664.49
227.222	3732.45
232.117	3329.57
237.01	3389.13
241.899	3527.3
246.785	3833.81
251.669	4153.3
256.549	4451.02
261.426	4937.01
266.3	5469.13
271.172	5995.19
276.04	6921.01
280.905	7563.37
285.767	8373.04
290.627	8737.93
295.483	9037.58
300.336	9421.7
305.186	9543.4
310.034	9688.52
314.878	10125.8
319.72	10236.5
324.558	10148.5
329.393	10265.3
334.226	10505.9
339.055	10616.4
343.882	10139.9
348.706	10443.9
353.526	10228.9
358.344	10038.5
363.159	10172.4
367.971	9939.23
372.78	9803.62
377.586	9798.34
382.389	9278.38
387.189	9309.7
391.986	9434.12
396.78	10536.5
401.572	11576.7
406.36	12581.5
411.146	11074.9
415.929	8773.09
420.709	7996.15
425.486	7588.53
430.26	7647.61
435.031	7722.55
439.799	8037.72
444.564	7401.49
449.327	6150.57
454.087	5727.1
458.843	5118.1
463.597	4895.93
468.348	4589.82
473.097	3993.22
477.842	3291.7
482.585	3138.9
487.324	2580.85
492.061	2212.14
496.795	2054.5
501.526	1806.97
506.255	1585.86
510.98	1409.29
515.703	1026.09
520.423	1126.48
525.14	819.512
529.854	704.922
534.566	654.715
539.274	478.648
543.98	272.865
548.683	136.115
553.383	7.63477
558.081	10.4043
562.775	43.7988
567.467	11.5215
572.156	259.482
576.843	226.6
581.526	272.158
586.207	244.583
590.885	299.211
595.56	260.821
600.233	184.121
604.902	25.7549
609.569	119.622
614.234	4.92578
618.895	149.738
623.554	187.576
628.21	321.647
632.863	295.687
637.514	298.756
642.161	300.993
646.806	391.379
651.449	414.414
656.088	347.398
660.725	385.762
665.36	322.756
669.991	444.539
674.62	486.738
679.246	551.83
683.869	495.096
688.49	564.968
693.108	583.114
697.723	432.263
702.336	677.93
706.946	530.404
711.553	755.825
716.158	604.044
720.759	570.35
725.359	535.586
729.955	605.803
734.549	492.789
739.14	420.188
743.729	574.097
748.315	478.916
752.898	462.226
757.479	468.155
762.057	550.896
766.632	519.422
771.205	513.1
775.775	579.476
780.342	714.403
784.907	773.592
789.469	973.893
794.029	1346.77
798.586	1850.49
803.14	2490.34
807.692	3435.73
812.241	4999.71
816.788	9372.15
821.332	23685.7
825.873	47662.1
830.412	32098.3
834.948	10134.8
839.481	4884.83
844.012	2908.64
848.541	1969.81
853.066	1412.7
857.59	1204.02
862.11	633.883
866.628	461.147
871.144	347.594
875.657	200.102
880.167	432.178
884.675	344.425
889.18	427.31
893.683	752.626
898.183	805.865
902.681	844.682
907.176	588.495
911.669	242.682
916.159	17.5312
920.646	147.036
925.131	146.003
929.613	181.947
934.093	200.492
938.571	456.787
943.046	234.834
947.518	269.554
951.988	126.722
956.455	270.454
960.92	436.192
965.382	742.165
969.842	1723.59
974.3	3055.73
978.754	7449.66
983.207	17427.6
987.657	33762.5
992.104	38133
996.549	33306.8
1000.99	20106.8
1005.43	9749.62
1009.87	4646.48
1014.3	2476.93
1018.74	1362.86
1023.17	1147.65
1027.59	764.896
1032.02	901.094
1036.44	820.18
1040.86	856.268
1045.28	1044.18
1049.7	1004.37
1054.11	1316.06
1058.52	1252.23
1062.93	1324
1067.33	1306.03
1071.74	1571.64
1076.14	1601.12
1080.54	1935.18
1084.93	1813.4
1089.33	2148.79
1093.72	2300.47
1098.11	2737.87
1102.49	2838.09
1106.88	2889.26
1111.26	3250.25
1115.64	3323.74
1120.01	3743.21
1124.39	3869.99
1128.76	3823.31
1133.13	4099.5
1137.49	4341.72
1141.86	4219.2
1146.22	4367.12
1150.58	4742.43
1154.94	4676.91
1159.3	4764.62
1163.65	4738.55
1168	4677.77
1172.35	5044.88
1176.69	5017.62
1181.04	4943.52
1185.38	5088.65
1189.72	4802.98
1194.05	5058.56
1198.39	4795.74
1202.72	4870.3
1207.05	4989.16
1211.38	4541.97
1215.7	4675.43
1220.02	4315.86
1224.34	4258.07
1228.66	4371.97
1232.97	4093.52
1237.29	3952.02
1241.6	3767.35
1245.91	3553.91
1250.21	3449.57
1254.52	3225.29
1258.82	3035.22
1263.12	2922.09
1267.41	2521.19
1271.71	2355.11
1276	2303.09
1280.29	2106.84
1284.58	1890.58
1288.87	1685.4
1293.15	1463.14
1297.43	1475.96
1301.71	1324.81
1305.98	1032.89
1310.26	945.65
1314.53	1009.42
1318.8	637.215
1323.07	700.293
1327.33	658.465
1331.6	460.761
1335.86	221.711
1340.11	387.014
1344.37	197.961
1348.62	105.52
1352.88	108.244
1357.12	176.57
1361.37	69.6894
1365.62	77.1894
1369.86	114.414
1374.1	5.11133
1378.34	5.54004
1382.57	214.918
1386.81	115.599
1391.04	32.3027
1395.27	129.05
1399.49	11.5371
1403.72	23.2881
1407.94	69.6143
1412.16	26.1084
1416.38	128.003
1420.6	144.23
1424.81	248.555
1429.02	110.014
1433.23	38.5449
1437.44	15.1221
1441.64	51.8906
1445.85	35.6289
1450.05	122.276
1454.25	200.167
1458.44	133.417
1462.64	236.142
1466.83	218.159
1471.02	348.481
1475.21	460.353
1479.39	587.278
1483.58	501.124
1487.76	493.325
1491.93	695.206
1496.11	661.464
1500.29	567.895
1504.46	489.973
1508.63	627.802
1512.8	562.436
1516.96	527.347
1521.13	560.254
1525.29	424.147
1529.45	423.807
1533.61	412.556
1537.76	358.647
1541.92	495.044
1546.07	408.911
1550.22	239.343
1554.36	371.157
1558.51	211.255
1562.65	230.373
1566.79	205.388
1570.93	102.056
1575.07	17.6025
