Measurement: Raman, 514 nm, ccw, Raman Data Processed
Mineral: Microcline
Rruff sample: R040154
Ideal chemistry: KAlSi_3_O_8_
Locality: Mitchell County, North Carolina, USA
Source: University of Arizona Mineral Museum
Description: White cleavage fragment with some perthitic character
Measured chemistry: (K_0.90_Na_0.09_Ba_0.01_)Al_1.00_(Si_2.99_Al_0.01_)_Î£=3_O_8_
Pin_id: L00168
Orientation: Laser parallel to (0 1 1). Fiducial mark perpendicular to laser is parallel to -a [-1 0 0]
Raman shift (cm-1)	intensity
90.587	0
94.768	249.832
98.947	637.791
103.124	2760.6
107.3	5736.79
111.473	4173.53
115.644	2155.56
119.813	3184.76
123.981	5591.65
128.146	7218.38
132.309	5253.07
136.47	4082.54
140.63	5967.2
144.787	6950.98
148.942	9829.63
153.096	11182.2
157.247	11693.6
161.396	9502.7
165.544	5091.03
169.689	3634.26
173.833	4774.32
177.974	6824.86
182.114	4732.08
186.251	2510.2
190.387	1956.17
194.52	3003.17
198.652	4918.21
202.782	3067.55
206.909	1342.49
211.035	529.842
215.159	7.908
219.281	80.92
223.4	214.523
227.518	259.184
231.634	95.314
235.748	9.004
239.86	12.412
243.97	476.084
248.079	1548.49
252.185	3414.13
256.289	6891.51
260.391	7904.86
264.492	8487.49
268.59	7167.81
272.687	4726.44
276.781	5047.66
280.874	8803.36
284.964	12200.1
289.053	8730.34
293.14	4237.71
297.225	2075.8
301.308	1009.45
305.389	393.555
309.468	40.018
313.545	56.293
317.62	59.301
321.693	88.434
325.765	944.564
329.834	1759.73
333.902	1481.82
337.967	458.896
342.031	105.049
346.093	165.33
350.153	158.881
354.21	446.889
358.267	523.898
362.321	252.797
366.373	666.596
370.423	1810.65
374.471	1849.59
378.518	436.605
382.563	53.574
386.605	170.436
390.646	172.086
394.685	180.352
398.722	1064.86
402.757	1801.24
406.79	1532.21
410.821	1486.26
414.851	1020.87
418.878	205.396
422.904	23.984
426.927	195.955
430.949	136.273
434.969	354.764
438.987	593
443.003	1426.46
447.018	3524.06
451.03	7297.15
455.041	8904.36
459.049	5367.06
463.056	3959.96
467.061	5595.51
471.064	10678
475.065	15730.3
479.064	12026.2
483.062	8107.52
487.057	5084.95
491.051	3058.02
495.043	2716.71
499.032	4312.03
503.02	8085.34
507.007	19181.8
510.991	35779.6
514.973	35014.4
518.954	17065.8
522.933	7961.59
526.91	4411.3
530.885	2646.53
534.858	1883.14
538.829	1467.72
542.799	1019.69
546.766	697.672
550.732	763.381
554.696	460.76
558.658	440.434
562.618	449.93
566.576	202.094
570.533	484.055
574.488	529.994
578.44	777.629
582.391	1048.66
586.341	850.711
590.288	350.039
594.233	191.686
598.177	127.199
602.119	76.689
606.059	46.758
609.997	98.641
613.933	399.02
617.868	328.961
621.801	554.504
625.731	285.668
629.66	546.482
633.588	862.066
637.513	821.605
641.437	1341.09
645.358	1914.27
649.278	2238.12
653.196	2421.64
657.113	1565.82
661.027	1027.72
664.94	356.705
668.851	493.727
672.76	439.422
676.667	164.721
680.572	50.412
684.476	175.859
688.378	395.969
692.278	308.73
696.176	218.012
700.072	79.016
703.967	315.812
707.86	37.748
711.751	365.1
715.64	38.324
719.527	185.346
723.413	146.393
727.297	260.969
731.179	540.799
735.059	714.432
738.937	1783.55
742.814	3107.52
746.689	5543.29
750.562	6275.71
754.433	3807.55
758.303	2003.88
762.17	1707.86
766.036	1647.63
769.901	1156.51
773.763	449.943
777.624	695.6
781.482	434.125
785.339	555.5
789.195	382.674
793.048	401.752
796.9	444.516
800.75	679.078
804.598	687.443
808.445	2534.62
812.289	4384.61
816.132	3783.42
819.973	1670.05
823.813	1054.9
827.65	465.316
831.486	135.637
835.32	355.18
839.152	114.809
842.983	153.223
846.812	51.594
850.639	161.043
854.464	149.113
858.288	35.219
862.11	198.816
865.93	121.691
869.748	66.297
873.564	77.004
877.379	216.734
881.192	19.656
885.004	65.777
888.813	38.992
892.621	100.73
896.427	101.457
900.232	31.188
904.034	114.039
907.835	257.676
911.634	262.484
915.432	124.418
919.227	37.723
923.021	227.844
926.813	113.039
930.604	332.281
934.393	457.625
938.18	150.008
941.965	190.406
945.749	405.766
949.53	533.105
953.311	64.477
957.089	311.887
960.866	287.348
964.641	440.945
968.414	271.66
972.185	687.438
975.955	766.273
979.723	681.172
983.49	539.766
987.254	1307.4
991.017	2794.34
994.779	3914.77
998.538	2692.22
1002.3	2485.41
1006.05	1995.55
1009.81	1465.94
1013.56	806.367
1017.31	887.305
1021.06	1164.77
1024.81	430.504
1028.55	1114.58
1032.3	826.719
1036.04	934.371
1039.78	1146.91
1043.52	1237.19
1047.26	580.055
1050.99	949.566
1054.73	374.078
1058.46	568.266
1062.19	504.352
1065.92	89.875
1069.65	328.73
1073.37	471.211
1077.1	395.227
1080.82	403.137
1084.54	430.836
1088.26	509.141
1091.97	623.613
1095.69	830.48
1099.4	1565.17
1103.12	956.484
1106.83	900.695
1110.54	857.352
1114.24	1123.78
1117.95	2004.92
1121.65	3079.85
1125.35	3823.79
1129.06	2718.03
1132.75	2104.54
1136.45	2179.52
1140.15	2754
1143.84	1892.44
1147.53	1342.84
1151.22	709.453
1154.91	347.836
1158.6	256.059
1162.28	224.941
1165.97	268.062
1169.65	414.617
1173.33	228.605
1177.01	182.777
1180.69	204.285
1184.36	149.172
1188.04	299.645
1191.71	382.195
1195.38	239.141
1199.05	404.605
1202.71	25.16
1206.38	606.969
1210.04	438.754
1213.71	465.363
1217.37	448.461
1221.03	442.691
1224.68	620.441
1228.34	452.344
1231.99	296.523
1235.65	203.816
1239.3	641.52
1242.95	184.492
1246.59	761.57
1250.24	249.375
1253.88	304.871
1257.53	603.883
1261.17	488.406
1264.81	62.738
1268.45	594.328
1272.08	537.676
1275.72	307.273
1279.35	111.816
1282.98	150.141
1286.61	99.594
1290.24	352.828
1293.87	532.906
1297.49	159.148
1301.11	59.961
1304.73	126.633
1308.36	93.242
1311.97	295.895
1315.59	5.82
1319.2	309.859
1322.82	202.012
1326.43	127.121
1330.04	355.516
1333.65	86.555
1337.26	188.672
1340.86	357.762
1344.47	153.984
1348.07	502.766
1351.67	498.145
1355.27	90.152
1358.87	300.301
1362.46	596.43
1366.06	474.371
1369.65	269.355
1373.24	694.043
1376.83	754.414
1380.42	660.855
1384	920.535
1387.59	881.992
1391.17	499.516
1394.75	597.184
1398.33	611.074
1401.91	787.805
1405.49	704.887
1409.06	520.145
1412.64	190.906
1416.21	365.23
1419.78	274.18
1423.35	326.473
1426.91	293.395
1430.48	218.09
1434.05	168.578
1437.61	364.809
1441.17	347.863
1444.73	313.25
1448.29	600.289
1451.84	647.117
1455.4	503.637
1458.95	474.211
1462.5	150.75
1466.05	1065.43
1469.6	539.121
1473.15	485.234
1476.69	254.879
1480.24	101.438
1483.78	246.703
