Measurement: Raman, 514 nm, ccw, Raman Data Processed
Mineral: Microcline
Rruff sample: R050150
Ideal chemistry: KAlSi_3_O_8_
Locality: Crystal Peak area, Park/Teller Counties, Colorado, USA
Source: Dave Bunk Minerals
Description: Pale blue prismatic crystals
Measured chemistry: (K_0.95_Na_0.05_)_Î£=1_Al_1.00_Si_3.00_O_8_
Pin_id: L00945
Orientation: Laser parallel to a* (1 0 0). Fiducial mark perpendicular to laser is parallel to b [0 1 0]
Raman shift (cm-1)	intensity
137.683	0
142.633	420.79
147.579	2197.13
152.522	2943.59
157.462	666.53
162.4	62.5283
167.334	723.37
172.265	2241.82
177.193	5179.2
182.117	5358.3
187.039	2059.32
191.958	1171.1
196.874	1689.51
201.787	1809.31
206.696	553.835
211.603	101.51
216.506	20.7383
221.407	153.785
226.304	81.4717
231.199	132.693
236.091	43.6016
240.979	155.882
245.864	773.291
250.747	1751.58
255.626	3987.83
260.503	6339.01
265.376	7000.27
270.247	5762.55
275.114	4082.08
279.979	4628.85
284.84	6898.27
289.699	5436.66
294.554	2874.03
299.407	1428.59
304.257	868.304
309.103	181.965
313.947	78.4141
318.788	51.3408
323.626	141.852
328.461	396.272
333.292	742.062
338.121	419.615
342.947	256.058
347.771	341.481
352.591	400.901
357.408	730.477
362.222	741.761
367.034	542.062
371.842	919.122
376.648	601.16
381.45	5.64062
386.25	51.0801
391.047	66.4629
395.841	1136.54
400.632	2536.73
405.42	3314.07
410.205	1862.56
414.988	1192.2
419.767	224.091
424.544	86.2529
429.318	48.5498
434.089	287.651
438.857	849.474
443.622	2327.05
448.384	5461.41
453.143	9176.02
457.9	8615.43
462.654	6039.96
467.405	9932.21
472.153	18102
476.898	24307.2
481.64	14077.5
486.38	7524.55
491.116	3698.15
495.85	3224.91
500.581	5621.95
505.309	15001.6
510.035	30176.1
514.757	39381.3
519.477	20239.1
524.194	7617.76
528.908	3735.84
533.62	1917.51
538.328	1335.68
543.034	865.043
547.737	499.773
552.437	484.639
557.134	478.537
561.829	420.516
566.521	243.279
571.21	288.887
575.896	455.648
580.58	359.619
585.261	423.799
589.939	88.2461
594.614	30.0664
599.286	9.23047
603.956	111.908
608.623	33.7969
613.287	148.256
617.949	149.602
622.608	269.223
627.264	397.082
631.917	648.352
636.568	874.894
641.215	1323.77
645.861	1604.83
650.503	1746.16
655.143	2021.61
659.78	1479.1
664.414	854.646
669.046	422.281
673.674	75.1016
678.301	167.965
682.924	560.84
687.545	121.309
692.163	15.8184
696.778	169.58
701.391	73.25
706.001	219.326
710.609	333.406
715.213	436.809
719.815	218.947
724.415	540.572
729.011	578.131
733.606	895.488
738.197	1765.34
742.786	3005.78
747.372	5081.7
751.955	4727.95
756.536	2459.8
761.114	1345.96
765.69	796.346
770.262	719.154
774.833	211.324
779.4	368.236
783.965	392.299
788.528	109.359
793.087	476.695
797.645	397.775
802.199	686.594
806.751	1513.15
811.3	2561.43
815.847	2600.44
820.391	1225.18
824.933	462.678
829.471	219.143
834.008	18.5117
838.541	174.277
843.073	100.607
847.601	162.574
852.127	0.830078
856.65	94.4102
861.171	84.2891
865.69	118.723
870.205	180.809
874.718	44.5781
879.229	10.5566
883.737	0.419922
888.242	31.748
892.745	209.088
897.246	71.209
901.743	176.953
906.239	119.527
910.731	35.5137
915.221	133.986
919.709	61.8535
924.194	110.791
928.677	140.297
933.157	247.652
937.634	129.869
942.109	204.947
946.582	246.898
951.052	232.734
955.519	367.459
959.984	268.141
964.447	165.914
968.906	171.207
973.364	434.975
977.819	540.703
982.271	848.373
986.721	1261.5
991.169	2219.08
995.614	2568.01
1000.06	1992.03
1004.5	1677.13
1008.93	1013.1
1013.37	772.996
1017.8	721.271
1022.23	867.637
1026.66	1093.18
1031.09	1223.57
1035.51	946.621
1039.93	1185.56
1044.35	1065.56
1048.76	1427.04
1053.17	1622.41
1057.58	1001.64
1061.99	590.471
1066.4	388.283
1070.8	322.199
1075.2	238.344
1079.6	405.728
1084	575.607
1088.39	631.316
1092.78	859.369
1097.17	1613.31
1101.56	1293.96
1105.94	1470.75
1110.32	2184.08
1114.7	3795.61
1119.08	6957.46
1123.45	9364.11
1127.82	7504.66
1132.19	5247.51
1136.56	4873.27
1140.92	4526.97
1145.29	2618.77
1149.65	1483.46
1154	849.6
1158.36	714.684
1162.71	385.961
1167.06	261.432
1171.41	285.428
1175.76	197.357
1180.1	95.8125
1184.44	132.545
1188.78	213.596
1193.11	15.8359
1197.45	103.258
1201.78	83.8711
1206.11	143.67
1210.43	130.666
1214.76	124.842
1219.08	153.195
1223.4	66.2871
1227.72	145.299
1232.03	126.75
1236.35	220.93
1240.66	54.9609
1244.96	35.1328
1249.27	30.5488
1253.57	145.26
1257.88	53.3242
1262.17	145.219
1266.47	185.022
1270.76	61.3574
1275.06	41.7617
1279.35	84.1074
1283.63	72.2617
1287.92	41.8398
1292.2	204.666
1296.48	110.371
1300.76	76.0137
1305.04	263.492
1309.31	260.699
1313.58	110.865
1317.85	222.043
1322.12	236.869
1326.38	300.945
1330.64	296.148
1334.9	164.348
1339.16	386.498
1343.41	201.676
1347.67	207.83
1351.92	262.338
1356.17	214.348
1360.41	115.332
1364.66	417.266
1368.9	183.019
1373.14	362.758
1377.38	182.312
1381.61	34.1016
1385.84	360.631
1390.08	146.908
1394.3	415.523
1398.53	111.152
1402.75	190.236
1406.97	49.875
1411.19	197.322
1415.41	173.315
1419.63	51.5645
1423.84	128.195
1428.05	271.416
1432.26	80.1152
1436.46	294.498
1440.67	112.656
1444.87	231.447
1449.07	14.1602
1453.27	55.752
1457.46	262.219
1461.66	15.3496
1465.85	318.994
1470.04	99.2285
1474.22	6.61328
1478.41	413.643
1482.59	200.893
1486.77	15.3281
1490.95	67.0781
1495.12	249.043
1499.3	122.512
1503.47	199.662
1507.63	61.8887
1511.8	39.2402
1515.97	250.322
1520.13	170.996
1524.29	282.598
1528.45	203.164
1532.61	18.1348
1536.76	65.5273
1540.91	184.67
1545.06	166.547
1549.21	167.428
1553.35	29.7852
1557.5	212.381
1561.64	145.25
