Measurement: Raman, 514 nm, ccw, Raman Data Processed
Mineral: Microcline
Rruff sample: R050193
Ideal chemistry: KAlSi_3_O_8_
Locality: Devil's Head, Douglas County, Colorado, USA
Source: Dave Bunk Minerals
Description: White to colorless heterogeneous mixture of K and Na feldspar in a cluster of crystals. Crystal structure determined, presented below. This sample is known as an intermediate microcline in the literature.
Measured chemistry: (K_0.929_Na_0.071_)(Al_1.005_Si_2.994_Fe_0.001_)O_7.993_F_0.007_  ; Light Band :  (Na_0.973_K_0.007_Ca_0.020_)(Al_1.020_Si_2.980_)O_8_ ; Dark Band
Pin_id: L00660
Orientation: Laser parallel to c* (0 0 1). Fiducial mark perpendicular to laser is parallel to a [1 0 0]
Raman shift (cm-1)	intensity
127.763	0
132.697	90.0566
137.628	711.848
142.556	1423.13
147.482	1879.02
152.405	3161.61
157.326	3417.14
162.244	2524.6
167.159	1681.36
172.072	1349.01
176.982	1666.41
181.89	1272.97
186.795	951.58
191.697	642.342
196.597	847.949
201.494	1098.23
206.389	579.723
211.281	414.785
216.17	310.496
221.057	245.773
225.941	198.772
230.823	213.537
235.702	269.068
240.578	224.119
245.452	345.416
250.323	429.977
255.192	952.551
260.058	1531.4
264.921	1607.47
269.782	1667.81
274.64	2008.42
279.495	2780.39
284.348	2665.4
289.198	1743.16
294.046	1028.58
298.891	468.732
303.733	267.25
308.573	185.787
313.41	32.082
318.245	107.959
323.077	196.258
327.906	375.861
332.733	66.7031
337.557	97.6484
342.379	104.603
347.198	54.543
352.014	143.143
356.828	50.7344
361.639	20.8008
366.447	11.4434
371.253	95.5312
376.056	117.568
380.857	83.9707
385.655	259.109
390.451	27.2441
395.243	48.9824
400.034	252.842
404.821	443.065
409.606	292.893
414.389	160.435
419.168	35.8301
423.945	204.402
428.72	0.646484
433.492	107.059
438.261	204.203
443.028	290.297
447.792	614.166
452.553	1056.78
457.312	1248.52
462.068	830.422
466.822	1327.51
471.573	1945.97
476.321	2718.95
481.067	1780.54
485.81	1229.73
490.551	826.465
495.289	1152.83
500.024	1958.15
504.757	3764.09
509.487	5659.32
514.214	6728.95
518.939	3584.47
523.661	1611.14
528.381	744.174
533.098	746.908
537.812	372.602
542.524	291.971
547.233	280.342
551.94	334.869
556.644	130.141
561.345	323.482
566.044	278.883
570.74	155.969
575.433	217.678
580.124	295.156
584.812	151.562
589.498	323.705
594.181	292.578
598.861	21.5312
603.539	40.8789
608.214	48.5762
612.887	70.6191
617.557	353.961
622.224	243.652
626.889	202.715
631.551	444.199
636.21	295.172
640.867	236.615
645.521	190.539
650.173	304.629
654.822	244.127
659.468	501.859
664.112	198.574
668.753	90.4258
673.392	35.2852
678.028	110.371
682.661	163.262
687.292	159.633
691.92	130.617
696.545	418.785
701.168	196.777
705.788	157.019
710.406	90.3828
715.021	19.9766
719.633	23.9414
724.243	145.516
728.85	120.664
733.455	215.125
738.056	78.5
742.656	417.312
747.252	618.664
751.846	492.305
756.438	448.883
761.027	1108.34
765.613	395.438
770.196	323.348
774.777	466.285
779.356	59.9219
783.932	306.84
788.505	262.731
793.075	286.387
797.643	273.496
802.208	130.375
806.771	549.34
811.331	1013.41
815.888	636.766
820.443	414.68
824.995	93.0273
829.545	275.156
834.092	157.16
838.636	102.559
843.178	282.203
847.717	154.93
852.254	159.957
856.788	14.9023
861.319	167.078
865.848	458.82
870.374	279.562
874.897	191.18
879.418	111.707
883.936	187.324
888.452	273.176
892.965	122.211
897.475	91.5352
901.983	53.0039
906.488	108.07
910.99	159.871
915.49	265.84
919.988	60.0391
924.482	310.531
928.974	165.57
933.464	183.59
937.951	274.223
942.435	12.1211
946.917	430.527
951.396	327.144
955.872	42.2109
960.346	35.7969
964.817	75.3945
969.285	141.723
973.751	360.988
978.215	323.207
982.675	324.719
987.134	271.688
991.589	433.481
996.042	331.551
1000.49	233.375
1004.94	122.07
1009.38	315.293
1013.83	136.094
1018.27	452.277
1022.7	152.164
1027.14	374.727
1031.57	280.769
1036	502.477
1040.43	96.4883
1044.85	64.5742
1049.27	35.0664
1053.69	44.1758
1058.11	196.867
1062.52	227
1066.93	123.809
1071.34	138.137
1075.75	9.03125
1080.15	335.336
1084.55	272.723
1088.95	522.934
1093.35	285.531
1097.74	399.035
1102.13	230.957
1106.52	428.297
1110.9	360.664
1115.28	565.328
1119.66	600.734
1124.04	564.527
1128.41	739.481
1132.79	539.477
1137.16	571.324
1141.52	759.906
1145.89	588.242
1150.25	666.848
1154.61	309.434
1158.96	362.316
1163.32	406.019
1167.67	97.8867
1172.02	317.332
1176.36	143.566
1180.71	193.742
1185.05	157.785
1189.38	40.6289
1193.72	225.465
1198.05	238.012
1202.38	220.863
1206.71	127.758
1211.04	243.852
1215.36	283.922
1219.68	325.969
1224	491.074
1228.31	299.863
1232.62	9.44141
1236.93	20.7344
1241.24	313.414
1245.54	257.547
1249.84	92.4297
1254.14	137.359
1258.44	305.992
1262.73	246.981
1267.03	344.574
1271.31	265.109
1275.6	202.75
1279.88	98.8047
1284.16	87.3984
1288.44	289.566
1292.72	307.66
1296.99	236.285
1301.26	19.1602
1305.53	46.3906
1309.79	36.9648
1314.06	262.137
1318.32	640.312
1322.57	394.894
1326.83	448.106
1331.08	531.371
1335.33	143.32
1339.58	86.5273
1343.82	302.121
1348.06	214.164
1352.3	212.711
1356.54	306.207
1360.77	172.273
1365.01	435.129
1369.23	261.293
1373.46	294.566
1377.68	540.422
1381.9	76.1172
1386.12	437.047
1390.34	177.035
1394.55	543.668
1398.76	198.926
1402.97	36.9297
1407.18	204.684
1411.38	207.394
1415.58	233.332
1419.78	81.4727
1423.97	62.1328
1428.17	405.547
1432.36	175.211
1436.54	227.848
1440.73	372.242
1444.91	122.656
1449.09	155.449
1453.27	247.152
1457.44	85.9141
1461.61	480.16
1465.78	132.559
1469.95	268.035
1474.11	324.258
1478.27	478.551
1482.43	228.684
1486.59	476.301
1490.74	67.4766
1494.89	287.332
1499.04	515.566
1503.19	329.606
1507.33	670.273
1511.47	312.019
1515.61	244.137
1519.75	357.617
1523.88	383.93
1528.01	340.211
1532.14	418.504
1536.26	243.633
1540.38	383.543
1544.51	542.617
1548.62	226.113
1552.74	202.203
1556.85	15.6992
1560.96	30.5195
