Measurement: Raman, 514 nm, ccw, Raman Data Processed
Mineral: Microcline
Rruff sample: R050150
Ideal chemistry: KAlSi_3_O_8_
Locality: Crystal Peak area, Park/Teller Counties, Colorado, USA
Source: Dave Bunk Minerals
Description: Pale blue prismatic crystals
Measured chemistry: (K_0.95_Na_0.05_)_Î£=1_Al_1.00_Si_3.00_O_8_
Pin_id: L01538
Orientation: Laser parallel to c* (0 0 1). Fiducial mark perpendicular to laser is parallel to a [1 0 0]
Raman shift (cm-1)	intensity
140.09	0
145.044	386.931
149.995	1451.86
154.942	1881.48
159.887	1363.1
164.828	628.058
169.765	986.113
174.7	3351.73
179.631	4162.75
184.56	2233.38
189.484	1815.27
194.406	3005.72
199.325	4377.03
204.24	1962.35
209.153	483.994
214.062	94.0234
218.968	83.6172
223.87	29.0127
228.77	79.6689
233.666	120.403
238.56	216.919
243.45	689.945
248.337	1873.85
253.221	4548.45
258.102	8510.95
262.979	11175.3
267.854	10934.1
272.726	6656.91
277.594	5905.56
282.459	8653.1
287.321	8017.52
292.18	3641.36
297.036	1098.7
301.889	389.558
306.739	151.326
311.586	60.7598
316.43	69.9736
321.271	33.0947
326.108	292.198
330.943	754.969
335.774	543.436
340.603	26.9355
345.428	143.168
350.251	15.9785
355.07	470.568
359.887	315.733
364.7	507.137
369.511	899.654
374.318	934.32
379.123	359.217
383.924	62.0918
388.723	38.1953
393.518	266.11
398.311	1019.24
403.1	2293.32
407.887	2148.39
412.671	2482.79
417.451	805.601
422.229	215.644
427.004	78.7695
431.776	432.902
436.545	724.671
441.311	2257.97
446.074	6672.59
450.834	14477.7
455.591	16575
460.346	8914.49
465.097	6302.63
469.846	9999.1
474.591	15854
479.334	12521.4
484.074	7993.87
488.811	4554.9
493.545	3504.59
498.276	4995.61
503.005	12109.3
507.73	29777.9
512.453	50678.3
517.173	35465.3
521.89	13736.9
526.604	6252.51
531.315	3383.59
536.024	2290.58
540.729	1495.03
545.432	1085.89
550.132	875.236
554.83	868.62
559.524	805.584
564.216	772.784
568.904	580.08
573.59	523.329
578.274	529.669
582.954	559.11
587.632	187.695
592.307	192.44
596.979	243.539
601.648	24.2393
606.315	18.5498
610.979	19.9258
615.64	37.4502
620.298	76.2939
624.954	201.27
629.607	439.809
634.257	676.891
638.904	1131.28
643.549	1878.86
648.191	2452.62
652.83	2836.49
657.467	1963.45
662.101	1263.51
666.732	694.628
671.36	142.876
675.986	121.199
680.609	8.55957
685.23	89.8936
689.847	178.99
694.462	58.3838
699.075	29.834
703.685	45.0332
708.292	211.932
712.896	193.836
717.498	196.586
722.097	188.358
726.694	511.384
731.287	977.823
735.879	1898.3
740.467	3932.18
745.053	7796.86
749.637	9804.54
754.217	5955.72
758.795	2983.68
763.371	1846.19
767.944	1210.75
772.514	1049.08
777.082	749.496
781.647	607.901
786.21	791.181
790.77	828.639
795.327	1130.26
799.882	1572.06
804.434	3469.73
808.984	7682.03
813.531	10465
818.076	5257.6
822.618	1930.02
827.158	975.704
831.695	584.379
836.229	391.477
840.761	342.192
845.291	179.586
849.817	107.367
854.342	130.91
858.864	183.168
863.383	81.1338
867.9	2.16894
872.414	61.2178
876.926	115.395
881.436	12.2949
885.942	125.719
890.447	122.827
894.949	6.37598
899.448	36.1035
903.945	164.476
908.44	143.534
912.932	29.8447
917.421	64.584
921.909	132.43
926.393	7.04981
930.876	33.5781
935.355	40.501
939.833	140.435
944.308	192.207
948.78	243.807
953.25	62.46
957.718	211.415
962.183	219.702
966.646	219.694
971.107	199.278
975.565	377.116
980.02	667.713
984.474	1022.03
988.925	1788.8
993.373	2339.55
997.819	1968.3
1002.26	1346.12
1006.7	715.043
1011.14	691.019
1015.58	449.664
1020.01	330.154
1024.45	287.004
1028.88	255.893
1033.3	435.356
1037.73	534.188
1042.15	425.24
1046.57	92.8652
1050.99	12.7949
1055.4	271.984
1059.82	163.4
1064.23	178.06
1068.64	8.47461
1073.04	72.8106
1077.45	279.168
1081.85	228.83
1086.25	659.25
1090.64	986.545
1095.04	1641.08
1099.43	1592.8
1103.82	996.537
1108.21	686.117
1112.6	700.016
1116.98	1234.98
1121.36	1910.44
1125.74	1780.18
1130.12	1626.9
1134.49	1922.67
1138.86	2174.37
1143.23	1419.32
1147.6	784.91
1151.96	586.162
1156.33	245.283
1160.69	335.025
1165.05	406.582
1169.4	189.647
1173.76	154.44
1178.11	40.7168
1182.46	66.8555
1186.81	58.3711
1191.15	40.8535
1195.49	2.14062
1199.84	49.4277
1204.17	75.1465
1208.51	20.2852
1212.84	51.1836
1217.18	146.629
1221.51	116.035
1225.83	41.5078
1230.16	38.8184
1234.48	199.07
1238.8	182.275
1243.12	203.418
1247.44	49.9551
1251.76	52.4062
1256.07	98.8926
1260.38	765.273
1264.69	644.389
1268.99	106.4
1273.3	23.3906
1277.6	14.1133
1281.9	142.693
1286.2	74.7715
1290.49	88.5117
1294.79	212.746
1299.08	181.758
1303.37	170.68
1307.65	49.5684
1311.94	77.7344
1316.22	123.691
1320.5	153.783
1324.78	164.797
1329.06	158.932
1333.33	281.043
1337.6	127.803
1341.87	162.615
1346.14	116.326
1350.41	379.072
1354.67	332.682
1358.93	66.082
1363.19	207.492
1367.45	193.959
1371.71	72.0742
1375.96	304.434
1380.21	160.553
1384.46	97.1719
1388.71	220.451
1392.96	213.721
1397.2	10.9824
1401.44	214.973
1405.68	117.973
1409.92	79.4277
1414.16	141.207
1418.39	179.496
1422.62	63.9766
1426.85	190.203
1431.08	209.242
1435.3	111.356
1439.53	218.404
1443.75	103.728
1447.97	282.734
1452.19	354.728
1456.4	403.721
1460.62	114.508
1464.83	464.346
1469.04	288.121
1473.24	165.754
1477.45	75.1309
1481.65	299.506
1485.86	102.856
1490.06	298.537
1494.26	174.44
1498.45	163.738
1502.64	221.84
1506.84	63.6484
1511.03	262.703
1515.22	258.398
1519.4	400.633
1523.59	142.773
1527.77	167.75
1531.95	223.629
1536.13	249.606
1540.31	247.728
1544.48	62.7188
1548.65	376.103
1552.82	314.982
1556.99	290.592
1561.16	47.0859
1565.33	0
