Measurement: Raman, 514 nm, ccw, Raman Data Processed
Mineral: Microcline
Rruff sample: R040154
Ideal chemistry: KAlSi_3_O_8_
Locality: Mitchell County, North Carolina, USA
Source: University of Arizona Mineral Museum
Description: White cleavage fragment with some perthitic character
Measured chemistry: (K_0.90_Na_0.09_Ba_0.01_)Al_1.00_(Si_2.99_Al_0.01_)_Î£=3_O_8_
Pin_id: L00168
Orientation: Laser parallel to (0 1 1). Fiducial mark perpendicular to laser is parallel to -a [-1 0 0]
Raman shift (cm-1)	intensity
104.516	0
108.691	270.85
112.864	36.196
117.034	1158.23
121.203	3123.74
125.369	5981.26
129.534	6824.87
133.696	5042.01
137.857	7772.57
142.016	11264.6
146.172	9785.08
150.327	13587.1
154.48	20814.5
158.63	27483.1
162.779	19627.5
166.926	9555.76
171.07	5697.99
175.213	4607.9
179.354	4446.67
183.493	3268.73
187.63	2188.93
191.765	2267.75
195.898	3254.43
200.029	3972.35
204.158	2124.59
208.285	849.067
212.41	266.689
216.533	52.614
220.654	224.072
224.773	101.856
228.891	148.203
233.006	77.64
237.119	186.616
241.231	475.789
245.34	1307.85
249.448	3623.75
253.553	8024.18
257.657	12607.7
261.758	10263.1
265.858	10121.5
269.956	7638.69
274.052	6987.19
278.146	12267.6
282.237	22730.7
286.327	27203.3
290.416	15110.6
294.502	6015.28
298.586	2880.1
302.668	1556.58
306.749	980.539
310.827	635.04
314.903	415.133
318.978	567.846
323.051	1188.2
327.121	2795.45
331.19	4810.93
335.257	2920.03
339.322	1119.94
343.385	519.704
347.446	367.248
351.505	650.556
355.563	968.611
359.618	680.424
363.672	554.99
367.723	554.346
371.773	643.521
375.821	386.49
379.866	144.414
383.91	115.719
387.952	251.172
391.992	45.07
396.031	454.285
400.067	227.428
404.101	455.953
408.134	278.188
412.165	178.912
416.193	14.775
420.22	29.289
424.245	81.432
428.268	14.014
432.289	204.67
436.309	146.76
440.326	349.383
444.342	1170.53
448.355	2800.94
452.367	5740.27
456.377	5384.62
460.385	3526.81
464.391	3522.63
468.395	6607.07
472.398	12756.1
476.398	15532.8
480.397	11085.2
484.394	8972.11
488.389	5023.69
492.382	3324.95
496.373	3329.89
500.362	5506.52
504.349	11640.8
508.335	25713.6
512.319	41789
516.3	31915
520.28	14227.3
524.259	6664.23
528.235	3929
532.209	2391.77
536.182	1748.15
540.152	1321.68
544.121	1138.1
548.088	958.541
552.053	664.881
556.017	666.773
559.978	528.123
563.938	429.088
567.895	538.803
571.851	487.24
575.805	743.244
579.758	1168.54
583.708	1088.93
587.657	853.482
591.603	273.152
595.548	502.539
599.491	345.613
603.432	324.502
607.372	156.096
611.309	358.475
615.245	418.607
619.179	680.471
623.111	742.078
627.041	1597.43
630.97	1723.55
634.896	1043
638.821	1202.63
642.744	1719.75
646.665	2239.14
650.584	2572.03
654.502	2502.69
658.418	1727.1
662.331	856.285
666.244	740.238
670.154	310.967
674.062	306.457
677.969	215.354
681.874	171.301
685.777	153.195
689.678	114.543
693.577	235.26
697.475	117.631
701.371	13.904
705.265	460.939
709.157	391.705
713.047	49.779
716.936	170.105
720.823	120.373
724.708	117.529
728.591	388.779
732.472	261.441
736.352	693.576
740.23	909.883
744.106	2265.85
747.98	3356.66
751.853	2650.98
755.723	1450.02
759.592	1175.99
763.459	858.521
767.325	898.756
771.188	710.947
775.05	860.719
778.91	394.312
782.768	304.223
786.625	145.553
790.479	395.607
794.332	407.486
798.183	368.205
802.033	507.758
805.88	1378.16
809.726	2443.4
813.57	3661.51
817.413	1953.46
821.253	899.223
825.092	468.857
828.929	362.754
832.764	352.582
836.598	250.5
840.429	274.256
844.259	313.498
848.088	70.17
851.914	236.594
855.739	386.266
859.562	15.359
863.383	253.811
867.203	70.908
871.02	86.266
874.836	156.951
878.65	113.744
882.463	43.547
886.274	109.053
890.083	41.635
893.89	98.203
897.695	188.76
901.499	113.322
905.301	125.912
909.102	101.607
912.9	41.344
916.697	188.895
920.492	277.229
924.285	74.842
928.077	42.807
931.867	16.445
935.655	34.684
939.442	158.572
943.226	223.508
947.009	214.133
950.791	296.988
954.57	184.865
958.348	329.787
962.124	333.766
965.899	385.838
969.671	437.018
973.442	278.24
977.211	277.598
980.979	619.059
984.745	818.961
988.509	1552.63
992.271	2029.13
996.032	2595.98
999.791	2946.88
1003.55	2632.84
1007.3	2016.6
1011.06	1460.15
1014.81	1133.62
1018.56	829.75
1022.31	709.629
1026.06	1316.82
1029.8	1090.39
1033.55	1924.08
1037.29	2243.31
1041.03	1590.31
1044.77	1047.68
1048.5	1201.35
1052.24	983.684
1055.97	775.766
1059.7	567.762
1063.43	328.07
1067.16	544.371
1070.89	469.453
1074.61	403.207
1078.34	595.59
1082.06	385.988
1085.78	249.203
1089.5	493.93
1093.21	423.223
1096.93	682.324
1100.64	858.363
1104.35	586.238
1108.06	514.211
1111.77	633.559
1115.48	1001.38
1119.18	1450.23
1122.89	3062.02
1126.59	2990.96
1130.29	2627.4
1133.99	2329.19
1137.68	3591.55
1141.38	3019.93
1145.07	2192.78
1148.76	1314.98
1152.45	753.98
1156.14	224.938
1159.83	305.508
1163.51	320.336
1167.19	512.738
1170.88	180.695
1174.56	335.539
1178.23	170.332
1181.91	373.332
1185.59	256.492
1189.26	167.074
1192.93	128.266
1196.6	277.789
1200.27	80.211
1203.94	440.695
1207.6	497.465
1211.27	300.254
1214.93	218.145
1218.59	369.332
1222.25	55.926
1225.9	511.18
1229.56	553.809
1233.21	591.539
1236.86	440.465
1240.51	589.664
1244.16	498.023
1247.81	134.242
1251.45	315.129
1255.1	284.227
1258.74	385.355
1262.38	367.418
1266.02	67.609
1269.66	88.477
1273.29	48.945
1276.93	8.051
1280.56	303.742
1284.19	93.613
1287.82	327.625
1291.45	184.664
1295.07	185.797
1298.7	104.93
1302.32	280.918
1305.94	88.094
1309.56	364.688
1313.18	164.156
1316.8	131.359
1320.41	213.418
1324.02	42.641
1327.63	193.68
1331.24	404.73
1334.85	136.105
1338.46	49.551
1342.06	140.09
1345.67	181.879
1349.27	230.816
1352.87	285.922
1356.47	603.816
1360.07	486.484
1363.66	743.156
1367.25	399.703
1370.85	279.121
1374.44	336.965
1378.03	374.812
1381.61	401.238
1385.2	610.41
1388.78	503.82
1392.37	521.227
1395.95	662.531
1399.53	659.609
1403.1	489.949
1406.68	317.219
1410.26	106.008
1413.83	561.973
1417.4	276.43
1420.97	289.863
1424.54	424.613
1428.1	425.109
1431.67	544.852
1435.23	701.961
1438.8	295.504
1442.36	551.285
1445.91	515.156
1449.47	365.723
1453.03	694.82
1456.58	827.512
1460.13	750.273
1463.68	714.262
1467.23	353.488
1470.78	782.832
1474.33	454.602
1477.87	704.844
1481.42	252.145
1484.96	340.191
1488.5	404.641
1492.04	707.406
1495.57	422.008
1499.11	100.809
1502.64	5.992
