Measurement: Raman, 514 nm, ccw, Raman Data Processed
Mineral: Microcline
Rruff sample: R050150
Ideal chemistry: KAlSi_3_O_8_
Locality: Crystal Peak area, Park/Teller Counties, Colorado, USA
Source: Dave Bunk Minerals
Description: Pale blue prismatic crystals
Measured chemistry: (K_0.95_Na_0.05_)_Î£=1_Al_1.00_Si_3.00_O_8_
Pin_id: L01538
Orientation: Laser parallel to c* (0 0 1). Fiducial mark perpendicular to laser is parallel to a [1 0 0]
Raman shift (cm-1)	intensity
131.413	0
136.373	2402.03
141.329	5715.58
146.282	7547.5
151.232	15531.5
156.179	27861
161.122	19834.4
166.062	6503.74
170.999	2137.66
175.933	1771.48
180.864	1961.08
185.791	1325.31
190.715	1292.6
195.636	2075.37
200.554	2091.52
205.469	680.088
210.38	124.59
215.288	383.512
220.194	304.599
225.096	161.773
229.994	83.7832
234.89	80.6143
239.783	505.357
244.672	1480.41
249.558	4146.31
254.441	9586.74
259.321	12022.8
264.198	11644.4
269.072	9412.83
273.943	10423.1
278.81	18647.4
283.675	29121.3
288.536	20198.2
293.395	7646.77
298.25	3474.05
303.102	2103.63
307.951	1574.13
312.797	1200.12
317.64	1206.03
322.48	1735.64
327.317	2788.92
332.151	3803.52
336.982	2229.69
341.81	1247.59
346.634	1102.39
351.456	1274.03
356.275	1314.74
361.091	980.666
365.903	686.696
370.713	564.631
375.52	287.728
380.323	87.5244
385.124	24.1445
389.922	122.2
394.717	82.1543
399.508	401.875
404.297	644.013
409.083	154.409
413.866	26.3896
418.646	57.2969
423.423	37.7715
428.197	22
432.968	216.713
437.736	566.506
442.502	1414.54
447.264	3842.98
452.024	7350.97
456.78	6583.09
461.534	4279.06
466.284	6783.36
471.032	12881.6
475.777	18197.8
480.519	12397.9
485.258	8855.44
489.995	4728.61
494.728	3726.09
499.459	5746.66
504.186	14740.8
508.911	32416.6
513.633	45434
518.352	24378.5
523.069	9090.92
527.782	4237.53
532.493	2464.72
537.2	1610.75
541.905	1155.31
546.608	754.028
551.307	650.334
556.003	404.066
560.697	449.525
565.388	408.732
570.076	526.139
574.761	607.564
579.444	1105.7
584.124	1185.45
588.801	562.559
593.475	213.748
598.146	44.2891
602.815	97.25
607.481	23.7109
612.144	37.6387
616.805	306.04
621.462	514.758
626.117	1092.82
630.769	1236.42
635.419	1054.46
640.066	1146.85
644.71	1685.54
649.351	2151.62
653.99	2203.58
658.625	1301.89
663.259	721.415
667.889	321.276
672.517	115.65
677.142	9.31641
681.765	4.10254
686.384	36.21
691.001	84.9033
695.616	99.9111
700.228	27.1416
704.837	0.648438
709.443	103.245
714.047	43.8711
718.648	174.686
723.246	17.0322
727.842	200.866
732.435	343.562
737.026	735.242
741.614	1653.83
746.199	2899.37
750.782	3062.61
755.362	1717.83
759.94	1059.27
764.514	983.472
769.087	879.908
773.656	596.909
778.224	514.707
782.788	537.167
787.35	316.09
791.909	398.977
796.466	415.342
801.02	792.906
805.572	1649.88
810.121	3077.59
814.668	3180.77
819.212	1378.4
823.753	577.673
828.292	353.519
832.829	252.36
837.362	206.166
841.894	76.6758
846.423	145.066
850.949	140.067
855.473	65.6953
859.994	32.2734
864.513	107.827
869.029	37.9307
873.543	37.0029
878.054	41.9648
882.563	81.7852
887.069	24.9219
891.573	126.515
896.074	37.8418
900.573	55.8877
905.069	66.9424
909.563	67.8164
914.055	58.2881
918.544	177.478
923.03	256.468
927.514	166.275
931.996	167.917
936.475	25.4688
940.952	147.852
945.426	48.209
949.898	106.418
954.368	332.485
958.835	236.522
963.299	308.621
967.762	222.819
972.221	399.143
976.679	389.028
981.134	661.138
985.587	1158.89
990.037	1785.43
994.485	2528.72
998.93	2313.01
1003.37	2155.85
1007.81	1412.13
1012.25	889.553
1016.69	701.892
1021.12	780.514
1025.55	691.432
1029.98	975.843
1034.41	1326.28
1038.83	1377.6
1043.26	1126.41
1047.67	765.216
1052.09	726.318
1056.51	355.663
1060.92	267.699
1065.33	319.377
1069.74	215.541
1074.14	113.849
1078.55	180.536
1082.95	158.502
1087.35	422.57
1091.74	424.738
1096.14	1046.01
1100.53	925.643
1104.92	712.138
1109.31	1010.25
1113.69	1535.89
1118.07	3279.85
1122.45	4418.16
1126.83	4114.83
1131.21	3820.82
1135.58	4587.3
1139.95	4529.17
1144.32	2684.95
1148.69	1494.94
1153.05	864.76
1157.42	748.403
1161.78	456.453
1166.13	308.203
1170.49	198.326
1174.85	175.624
1179.2	185.914
1183.55	91.1113
1187.89	30.4668
1192.24	175.568
1196.58	45.0264
1200.92	128.335
1205.26	63.1553
1209.59	108.926
1213.93	148.89
1218.26	219.009
1222.59	38.3379
1226.91	13.4844
1231.24	2.55371
1235.56	34.5918
1239.88	105.559
1244.2	78.4981
1248.52	15.2529
1252.83	36.8057
1257.14	60.9619
1261.45	123.432
1265.76	119.777
1270.07	108.121
1274.37	63.5049
1278.67	51.6709
1282.97	72.0508
1287.27	124.048
1291.57	134.88
1295.86	19.2842
1300.15	129.96
1304.44	148.434
1308.72	45.8477
1313.01	290.159
1317.29	125.544
1321.57	164.879
1325.85	221.035
1330.12	278.558
1334.4	166.691
1338.67	10.582
1342.94	317.248
1347.21	93.7861
1351.47	170.093
1355.74	338.524
1360	101.353
1364.26	124.524
1368.52	228.965
1372.77	136.981
1377.03	157.366
1381.28	36.3389
1385.53	102.373
1389.77	153.128
1394.02	342.198
1398.26	141.901
1402.5	235.067
1406.74	163.064
1410.98	145.394
1415.21	177.573
1419.45	307.494
1423.68	12.4434
1427.91	210.641
1432.13	168.549
1436.36	187.627
1440.58	235.986
1444.8	141.793
1449.02	246.1
1453.24	70.4434
1457.46	231.586
1461.67	298.602
1465.88	26.7266
1470.09	420.947
1474.3	119.512
1478.5	18.8262
1482.71	115.772
1486.91	70.5273
1491.11	139.139
1495.3	158.859
1499.5	203.82
1503.69	271.127
1507.88	252.051
1512.08	184.836
1516.26	124.412
1520.45	66.3496
1524.63	264.307
1528.81	37.125
1532.99	105.779
1537.17	174.353
1541.35	99.5059
1545.52	70.3711
1549.7	99.4043
1553.87	39.2695
1558.04	225.641
1562.2	164.391
