Measurement: Raman, 514 nm, ccw, Raman Data Processed
Mineral: Microcline
Rruff sample: R050193
Ideal chemistry: KAlSi_3_O_8_
Locality: Devil's Head, Douglas County, Colorado, USA
Source: Dave Bunk Minerals
Description: White to colorless heterogeneous mixture of K and Na feldspar in a cluster of crystals. Crystal structure determined, presented below. This sample is known as an intermediate microcline in the literature.
Measured chemistry: (K_0.929_Na_0.071_)(Al_1.005_Si_2.994_Fe_0.001_)O_7.993_F_0.007_  ; Light Band :  (Na_0.973_K_0.007_Ca_0.020_)(Al_1.020_Si_2.980_)O_8_ ; Dark Band
Pin_id: L01042
Orientation: Laser parallel to a* (1 0 0). Fiducial mark perpendicular to laser is parallel to -b [0 -1 0]
Raman shift (cm-1)	intensity
142.556	0
147.482	299.213
152.405	893.871
157.326	647.705
162.244	568.564
167.159	565.803
172.072	476.756
176.982	730.801
181.89	729.635
186.795	540.258
191.697	345.393
196.597	491.236
201.494	515.258
206.389	293.164
211.281	260.566
216.17	90.0742
221.057	176.801
225.941	163.707
230.823	53.2676
235.702	235.68
240.578	118.084
245.452	166.666
250.323	422.113
255.192	848.039
260.058	1128.96
264.921	1381.76
269.782	1256.93
274.64	1117.37
279.495	1078.8
284.348	1609.58
289.198	904.422
294.046	724.412
298.891	468.529
303.733	370.478
308.573	258.481
313.41	254.084
318.245	323.998
323.077	339.018
327.906	270.998
332.733	298.83
337.557	23.4863
342.379	156.935
347.198	214.971
352.014	365.586
356.828	250.68
361.639	123.242
366.447	145.246
371.253	87.6719
376.056	121.525
380.857	64.6973
385.655	51.7812
390.451	181.109
395.243	97.2109
400.034	387.664
404.821	193.185
409.606	442.258
414.389	157.35
419.168	176.75
423.945	3.41406
428.72	90.2754
433.492	106.188
438.261	72.9531
443.028	111.672
447.792	792.152
452.553	1291.01
457.312	1409.21
462.068	813.744
466.822	952.773
471.573	1539.37
476.321	2352.39
481.067	1676.68
485.81	901.598
490.551	706.588
495.289	692.984
500.024	1025.45
504.757	2319.44
509.487	4201.32
514.214	5925.74
518.939	2935.73
523.661	1263.21
528.381	629.59
533.098	265.518
537.812	116.047
542.524	149.4
547.233	223.217
551.94	403.283
556.644	182.588
561.345	239.731
566.044	326.566
570.74	18.0293
575.433	111.086
580.124	140.766
584.812	263.805
589.498	159.438
594.181	160.09
598.861	106.832
603.539	120.482
608.214	26.1191
612.887	3.78906
617.557	54.5293
622.224	177.861
626.889	168.213
631.551	197.644
636.21	264.109
640.867	188.549
645.521	371.219
650.173	187.488
654.822	151.721
659.468	314.225
664.112	11.1406
668.753	131.781
673.392	101.857
678.028	16.8457
682.661	110.672
687.292	101.582
691.92	21.6484
696.545	127.148
701.168	3.89844
705.788	276.781
710.406	267.125
715.021	180.715
719.633	311.684
724.243	314.758
728.85	228.41
733.455	252.422
738.056	471.25
742.656	500.769
747.252	841.551
751.846	738.234
756.438	853.469
761.027	637.258
765.613	575.676
770.196	345.383
774.777	369.269
779.356	295.875
783.932	371.441
788.505	323.398
793.075	628.133
797.643	610.988
802.208	355.106
806.771	473.863
811.331	931.879
815.888	706.84
820.443	308.516
824.995	395.57
829.545	329.348
834.092	208.844
838.636	243.098
843.178	304.902
847.717	186.863
852.254	308.332
856.788	192.332
861.319	373.113
865.848	252.91
870.374	249.602
874.897	337.488
879.418	177.055
883.936	117.109
888.452	135.914
892.965	321.019
897.475	81.6992
901.983	31.5977
906.488	2.76953
910.99	235.703
915.49	208.254
919.988	187.914
924.482	123.141
928.974	91.5117
933.464	85.4453
937.951	195.418
942.435	206.344
946.917	106.254
951.396	389.894
955.872	35.2227
960.346	176.266
964.817	19.2617
969.285	276.219
973.751	359.918
978.215	121.176
982.675	57.4023
987.134	210.891
991.589	383.156
996.042	481.406
1000.49	474.188
1004.94	292.328
1009.38	414.996
1013.83	188.074
1018.27	249.496
1022.7	90.5781
1027.14	242.867
1031.57	96.5156
1036	14.75
1040.43	72.3398
1044.85	320.555
1049.27	135.269
1053.69	254.387
1058.11	13.8359
1062.52	213.656
1066.93	259.5
1071.34	240.023
1075.75	22.1289
1080.15	149.859
1084.55	253.348
1088.95	260.301
1093.35	274.953
1097.74	489.406
1102.13	629.699
1106.52	501.273
1110.9	356.07
1115.28	379.481
1119.66	528.391
1124.04	529.223
1128.41	261.723
1132.79	522.902
1137.16	959.461
1141.52	347.945
1145.89	384.996
1150.25	267.09
1154.61	160.012
1158.96	429.621
1163.32	5.36328
1167.67	194.894
1172.02	62.8789
1176.36	112.012
1180.71	242.266
1185.05	379.894
1189.38	228.875
1193.72	101.754
1198.05	317.586
1202.38	387.641
1206.71	52.7109
1211.04	77.6992
1215.36	233.629
1219.68	83.4531
1224	280.988
1228.31	111.144
1232.62	456.473
1236.93	248.785
1241.24	150.336
1245.54	221.961
1249.84	181.324
1254.14	83.8438
1258.44	279.824
1262.73	96.6406
1267.03	176.328
1271.31	130.758
1275.6	341.211
1279.88	360.582
1284.16	20.5078
1288.44	182.176
1292.72	134.125
1296.99	271.711
1301.26	236.32
1305.53	92.5469
1309.79	443.715
1314.06	438.34
1318.32	282.762
1322.57	465.766
1326.83	397.644
1331.08	332.133
1335.33	254.352
1339.58	345.141
1343.82	359.727
1348.06	87.4258
1352.3	281.793
1356.54	162.043
1360.77	461.559
1365.01	177.215
1369.23	129.82
1373.46	250.422
1377.68	274.644
1381.9	252.328
1386.12	58.2773
1390.34	266.098
1394.55	33.7148
1398.76	161.613
1402.97	221.137
1407.18	8.09766
1411.38	63.6562
1415.58	53.9648
1419.78	274.676
1423.97	222.012
1428.17	200.086
1432.36	234.848
1436.54	238.438
1440.73	257.383
1444.91	76.5117
1449.09	323.582
1453.27	323.019
1457.44	386.926
1461.61	134.438
1465.78	238.762
1469.95	218.234
1474.11	294.879
1478.27	295.148
1482.43	485.555
1486.59	394.848
1490.74	190.43
1494.89	513.414
1499.04	620.738
1503.19	173.93
1507.33	391.769
1511.47	244.43
1515.61	268.109
1519.75	275.801
1523.88	573.406
1528.01	381.234
1532.14	327.715
1536.26	364.738
1540.38	517.144
1544.51	415.195
1548.62	175.766
1552.74	253.5
1556.85	315.445
1560.96	637.562
