Measurement: Raman, 514 nm, ccw, Raman Data Processed
Mineral: Microcline
Rruff sample: R050193
Ideal chemistry: KAlSi_3_O_8_
Locality: Devil's Head, Douglas County, Colorado, USA
Source: Dave Bunk Minerals
Description: White to colorless heterogeneous mixture of K and Na feldspar in a cluster of crystals. Crystal structure determined, presented below. This sample is known as an intermediate microcline in the literature.
Measured chemistry: (K_0.929_Na_0.071_)(Al_1.005_Si_2.994_Fe_0.001_)O_7.993_F_0.007_  ; Light Band :  (Na_0.973_K_0.007_Ca_0.020_)(Al_1.020_Si_2.980_)O_8_ ; Dark Band
Pin_id: L01707
Orientation: Laser parallel to (-1 0 -1). Fiducial mark perpendicular to laser is parallel to b [0 1 0]
Raman shift (cm-1)	intensity
122.827	0
127.763	111.121
132.697	839.497
137.628	3880.31
142.556	5956.2
147.482	8307.08
152.405	13257.7
157.326	14459.1
162.244	9398.67
167.159	4274.11
172.072	2305.23
176.982	1548.99
181.89	1110.96
186.795	891.769
191.697	709.987
196.597	547.648
201.494	498.03
206.389	129.832
211.281	102.157
216.17	7.07129
221.057	94.2793
225.941	231.818
230.823	17.126
235.702	14.9932
240.578	184.504
245.452	329.628
250.323	953.394
255.192	1738.9
260.058	2942.37
264.921	3958.04
269.782	5570.56
274.64	8545.28
279.495	10552.9
284.348	8811.23
289.198	5173.88
294.046	2786.99
298.891	1542.48
303.733	1067.34
308.573	768.196
313.41	589.971
318.245	491.552
323.077	576.401
327.906	546.465
332.733	599.88
337.557	538.268
342.379	406.595
347.198	476.515
352.014	381.07
356.828	395.517
361.639	501.205
366.447	721.001
371.253	768.499
376.056	401.39
380.857	26.29
385.655	48.6074
390.451	2.91992
395.243	166.41
400.034	204.936
404.821	254.422
409.606	236.976
414.389	154.644
419.168	115.959
423.945	217.449
428.72	25.2812
433.492	206.242
438.261	606.329
443.028	1591.02
447.792	2787.36
452.553	3814.81
457.312	3747.56
462.068	4168.55
466.822	6272.02
471.573	9676.5
476.321	10782.8
481.067	7151.13
485.81	4578.74
490.551	3412.76
495.289	3530.31
500.024	6292.24
504.757	13472.1
509.487	23826.8
514.214	24969.3
518.939	12476.8
523.661	5319.6
528.381	2633.21
533.098	1690.73
537.812	826.97
542.524	600.48
547.233	512.916
551.94	413.525
556.644	314.821
561.345	205.348
566.044	222.143
570.74	296.438
575.433	305.634
580.124	489.494
584.812	269.117
589.498	159.815
594.181	118.655
598.861	75.4805
603.539	212.269
608.214	215.058
612.887	159.94
617.557	350.846
622.224	366.755
626.889	586.795
631.551	575.874
636.21	416.994
640.867	179.191
645.521	265.426
650.173	290.615
654.822	362.764
659.468	244.805
664.112	58.1953
668.753	131.881
673.392	175.869
678.028	191.424
682.661	51.5762
687.292	33.3027
691.92	16.5723
696.545	95.5977
701.168	232.752
705.788	305.873
710.406	200.273
715.021	45.5898
719.633	119.424
724.243	209.205
728.85	347.769
733.455	546.619
738.056	559.561
742.656	755.764
747.252	949.975
751.846	733.83
756.438	919.488
761.027	794.777
765.613	1020.65
770.196	968.16
774.777	668.947
779.356	625.693
783.932	470.422
788.505	449.904
793.075	429.772
797.643	523.455
802.208	734.375
806.771	851.525
811.331	1119.4
815.888	922.115
820.443	423.856
824.995	169.004
829.545	265.123
834.092	207.219
838.636	64.2285
843.178	95.0488
847.717	72.6562
852.254	169.096
856.788	37.3613
861.319	130.197
865.848	24.3516
870.374	154.787
874.897	60.1094
879.418	31.9277
883.936	21.2598
888.452	147.07
892.965	189.486
897.475	88.4805
901.983	69.8867
906.488	24.8652
910.99	30.6309
915.49	124.334
919.988	188.856
924.482	120.025
928.974	19.9316
933.464	268.422
937.951	250.543
942.435	169.248
946.917	192.685
951.396	28.9121
955.872	102.016
960.346	209.586
964.817	18.9648
969.285	277.549
973.751	136.252
978.215	141.213
982.675	288.106
987.134	369.188
991.589	257.397
996.042	401.166
1000.49	508.795
1004.94	517.75
1009.38	383.996
1013.83	407.035
1018.27	316.246
1022.7	413.162
1027.14	296.428
1031.57	506.426
1036	248.17
1040.43	219.787
1044.85	223.652
1049.27	260.586
1053.69	188.518
1058.11	54.5195
1062.52	128.006
1066.93	118.998
1071.34	65.209
1075.75	364.523
1080.15	369.969
1084.55	444.91
1088.95	522.051
1093.35	900.404
1097.74	824.629
1102.13	999.545
1106.52	1268.74
1110.9	1653.9
1115.28	2100.93
1119.66	2882.52
1124.04	3128.16
1128.41	2928.88
1132.79	2568.13
1137.16	2297.99
1141.52	1976.85
1145.89	1707.89
1150.25	1257.6
1154.61	1151.57
1158.96	831.291
1163.32	519.168
1167.67	271.195
1172.02	406.746
1176.36	409.441
1180.71	39.9023
1185.05	445.307
1189.38	169.553
1193.72	181.385
1198.05	162.797
1202.38	311.654
1206.71	53.3008
1211.04	93.7754
1215.36	135.199
1219.68	19.4746
1224	284.812
1228.31	206.045
1232.62	237.867
1236.93	233.762
1241.24	314.475
1245.54	200.684
1249.84	68.4297
1254.14	249.766
1258.44	186.639
1262.73	166.738
1267.03	129.07
1271.31	355.375
1275.6	119.436
1279.88	143.758
1284.16	153.074
1288.44	21.8848
1292.72	41.4863
1296.99	172.518
1301.26	137.496
1305.53	230.373
1309.79	333.904
1314.06	369.353
1318.32	2.57227
1322.57	486.119
1326.83	292.637
1331.08	281.088
1335.33	126.389
1339.58	381.451
1343.82	164.67
1348.06	181.877
1352.3	132.756
1356.54	186.477
1360.77	351.039
1365.01	203.478
1369.23	231.414
1373.46	154.16
1377.68	148.57
1381.9	211.027
1386.12	281.01
1390.34	197.481
1394.55	304.859
1398.76	81.8965
1402.97	69.0508
1407.18	7.70703
1411.38	105.07
1415.58	239.022
1419.78	272.607
1423.97	21.668
1428.17	8.94531
1432.36	201.168
1436.54	47.9863
1440.73	354.066
1444.91	177.08
1449.09	352.527
1453.27	270.478
1457.44	257.219
1461.61	421.434
1465.78	84.6055
1469.95	509.547
1474.11	438.586
1478.27	354.15
1482.43	219.695
1486.59	130.67
1490.74	243.225
1494.89	245.357
1499.04	332.188
1503.19	103.471
1507.33	339.635
1511.47	196.525
1515.61	144.731
1519.75	492.092
1523.88	85.875
1528.01	252.318
1532.14	149.791
1536.26	483.525
1540.38	87.0312
1544.51	13.6172
1548.62	377.34
1552.74	339.387
1556.85	397.164
1560.96	1.67969
