Measurement: Raman, 514 nm, ccw, Raman Data Processed
Mineral: Microcline
Rruff sample: R050150
Ideal chemistry: KAlSi_3_O_8_
Locality: Crystal Peak area, Park/Teller Counties, Colorado, USA
Source: Dave Bunk Minerals
Description: Pale blue prismatic crystals
Measured chemistry: (K_0.95_Na_0.05_)_Î£=1_Al_1.00_Si_3.00_O_8_
Pin_id: L00941
Orientation: Laser parallel to (-1 0 -1). Fiducial mark perpendicular to laser is parallel to -b [0 -1 0]
Raman shift (cm-1)	intensity
137.683	0
142.633	609.787
147.579	2764.01
152.522	7397.21
157.462	9867.52
162.4	13001.6
167.334	11549
172.265	8275.32
177.193	9590.88
182.117	11031.7
187.039	12418.7
191.958	10188.5
196.874	6807.73
201.787	8178.09
206.696	7717.35
211.603	8398.44
216.506	5347.31
221.407	761.923
226.304	273.725
231.199	560.44
236.091	484.781
240.979	313.792
245.864	297.307
250.747	906.215
255.626	1580.68
260.503	2946.66
265.376	3003.78
270.247	3193.82
275.114	3794.42
279.979	7589.74
284.84	14846.4
289.699	18351.3
294.554	18439.6
299.407	7651.56
304.257	2731.78
309.103	1706.71
313.947	1556.11
318.788	1833.47
323.626	2613.08
328.461	3333.08
333.292	3713.68
338.121	1302.28
342.947	740.255
347.771	641.629
352.591	628.179
357.408	554.824
362.222	302.142
367.034	484.908
371.842	483.722
376.648	377.081
381.45	237.412
386.25	165.959
391.047	10.502
395.841	583.354
400.632	1638.64
405.42	2342.4
410.205	2745.39
414.988	1543.16
419.767	615.367
424.544	113.74
429.318	90.2402
434.089	247.711
438.857	222.715
443.622	871.641
448.384	2401.43
453.143	4013.17
457.9	4760.89
462.654	3844.93
467.405	6075.22
472.153	14616.3
476.898	21126.8
481.64	24559.9
486.38	13110.4
491.116	6128.49
495.85	8197.62
500.581	20331.9
505.309	30774.9
510.035	39607.1
514.757	24434.9
519.477	10439
524.194	4614.75
528.908	2793.55
533.62	1603.02
538.328	1312.97
543.034	1068.49
547.737	700.652
552.437	593.334
557.134	725.781
561.829	675.893
566.521	793.668
571.21	1011.65
575.896	1417.07
580.58	1456.72
585.261	776.998
589.939	407.93
594.614	333.086
599.286	76.0684
603.956	18.7188
608.623	81.8359
613.287	187.094
617.949	219.408
622.608	521.041
627.264	504.935
631.917	892.037
636.568	1131.45
641.215	896.963
645.861	1148.66
650.503	1410.57
655.143	810.584
659.78	496.668
664.414	229.01
669.046	10.918
673.674	106.055
678.301	208.9
682.924	166.348
687.545	104.727
692.163	166.406
696.778	59.2637
701.391	6.10352
706.001	89.8164
710.609	47.8047
715.213	73.9512
719.815	260.92
724.415	278.568
729.011	28.4785
733.606	222.99
738.197	455.418
742.786	789.559
747.372	1386.73
751.955	1753.52
756.536	2319.4
761.114	3302.55
765.69	4057.16
770.262	2879.1
774.833	1883.84
779.4	1456.81
783.965	845.15
788.528	436.551
793.087	452.588
797.645	715.16
802.199	1170.37
806.751	2518.48
811.3	4930.78
815.847	5986.3
820.391	3726.23
824.933	1272.06
829.471	670.35
834.008	413.137
838.541	274.307
843.073	293.693
847.601	22.9121
852.127	235.176
856.65	125.16
861.171	28.7969
865.69	71.5781
870.205	7.41992
874.718	61.8926
879.229	257.984
883.737	187.1
888.242	173.887
892.745	31.707
897.246	94.084
901.743	123.074
906.239	144.316
910.731	153.281
915.221	21.0859
919.709	121.715
924.194	233.17
928.677	255.484
933.157	128.65
937.634	150.711
942.109	131.973
946.582	335.959
951.052	371.148
955.519	469.598
959.984	457.051
964.447	341.762
968.906	925.018
973.364	1169.41
977.819	2038.83
982.271	1571.04
986.721	893.633
991.169	1068.9
995.614	1004.65
1000.06	1322.25
1004.5	1334.17
1008.93	1771.43
1013.37	1486.68
1017.8	1393.36
1022.23	775.514
1026.66	1229.81
1031.09	1640.45
1035.51	1226.53
1039.93	805.85
1044.35	709.934
1048.76	370.611
1053.17	510.166
1057.58	172.684
1061.99	430.852
1066.4	311.072
1070.8	480.732
1075.2	793.394
1079.6	823.432
1084	1450.03
1088.39	2410.46
1092.78	4661.46
1097.17	7409.94
1101.56	7773.8
1105.94	5382.5
1110.32	4479.41
1114.7	4347.1
1119.08	3840.23
1123.45	2988.45
1127.82	1854.88
1132.19	1298.56
1136.56	1192.49
1140.92	1117.12
1145.29	739.508
1149.65	778.309
1154	549.215
1158.36	541.732
1162.71	173.25
1167.06	240.029
1171.41	186.133
1175.76	105.062
1180.1	223.633
1184.44	0.912109
1188.78	44.248
1193.11	277.607
1197.45	18.0215
1201.78	103.648
1206.11	226.31
1210.43	47.1191
1214.76	56.998
1219.08	333.693
1223.4	11.4121
1227.72	133.031
1232.03	213.623
1236.35	293.394
1240.66	7.99609
1244.96	9.43359
1249.27	208.494
1253.57	85.166
1257.88	188.004
1262.17	163.893
1266.47	106.131
1270.76	108.273
1275.06	116.369
1279.35	343.457
1283.63	5.45898
1287.92	391.836
1292.2	84.9551
1296.48	393.916
1300.76	28.2344
1305.04	73.2773
1309.31	427.969
1313.58	311.754
1317.85	301.012
1322.12	347.732
1326.38	301.922
1330.64	107.307
1334.9	229.973
1339.16	126.914
1343.41	368.385
1347.67	112.861
1351.92	204.615
1356.17	476.955
1360.41	12.9551
1364.66	318.002
1368.9	476.453
1373.14	199.012
1377.38	232.248
1381.61	325.787
1385.84	164.273
1390.08	151.555
1394.3	242.707
1398.53	160.514
1402.75	252.803
1406.97	531.146
1411.19	240.969
1415.41	4.35156
1419.63	354.269
1423.84	148.779
1428.05	91.1133
1432.26	266.435
1436.46	465.867
1440.67	185.023
1444.87	296.527
1449.07	473.223
1453.27	254.418
1457.46	421.863
1461.66	467.547
1465.85	176.941
1470.04	343.023
1474.22	537.062
1478.41	163.402
1482.59	198.062
1486.77	401.578
1490.95	41.1602
1495.12	339.816
1499.3	685.371
1503.47	278.18
1507.63	169.703
1511.8	143.641
1515.97	520.266
1520.13	69.0859
1524.29	461.012
1528.45	464.977
1532.61	270.398
1536.76	287.316
1540.91	382.266
1545.06	278.269
1549.21	105.414
1553.35	637.012
1557.5	230.176
1561.64	184.981
