Measurement: Raman, 514 nm, ccw, Raman Data Processed
Mineral: Microcline
Rruff sample: R040154
Ideal chemistry: KAlSi_3_O_8_
Locality: Mitchell County, North Carolina, USA
Source: University of Arizona Mineral Museum
Description: White cleavage fragment with some perthitic character
Measured chemistry: (K_0.90_Na_0.09_Ba_0.01_)Al_1.00_(Si_2.99_Al_0.01_)_Î£=3_O_8_
Pin_id: L00534
Orientation: Laser parallel to (1 1 0). Fiducial mark perpendicular to laser is parallel to c [0 0 1]
Raman shift (cm-1)	intensity
102.242	0
106.423	3778.3
110.603	8329.63
114.78	3163.56
118.956	520.15
123.129	2229.89
127.3	6043.86
131.469	5712
135.636	2244.85
139.801	1253.13
143.964	2212.35
148.125	5695.83
152.284	6467.83
156.441	3853.36
160.596	2220.05
164.749	1307.02
168.9	1340.23
173.049	3310.33
177.195	7291.48
181.34	6931.8
185.483	3140.76
189.624	1379.3
193.762	1369.21
197.899	2830.89
202.034	2664.15
206.166	1090.97
210.297	259.338
214.425	14
218.552	225.545
222.676	282.378
226.799	234.827
230.919	295.048
235.038	186.37
239.154	144.802
243.269	5.87
247.381	511.631
251.492	1983.48
255.6	5158.21
259.707	7462.36
263.811	9406.81
267.914	10002.3
272.014	6139.49
276.113	3667.31
280.209	4960.3
284.304	8945.87
288.396	8992.46
292.487	5169.21
296.575	2645.64
300.662	1471.03
304.746	654.73
308.829	176.846
312.909	20.898
316.988	66.658
321.065	25.752
325.139	149.503
329.212	699.969
333.283	906.114
337.351	449.138
341.418	81.303
345.483	142.835
349.546	193.729
353.606	674.129
357.665	964.144
361.722	713.754
365.777	412.943
369.83	851.802
373.881	1159.83
377.93	693.301
381.977	256.35
386.023	7.14
390.066	74.538
394.107	247.846
398.146	1139.64
402.184	3432.78
406.219	3277.03
410.252	2378.47
414.284	2239.45
418.313	870.25
422.341	180.895
426.367	71.37
430.39	151.634
434.412	361.652
438.432	691.619
442.45	1456.87
446.466	3286.79
450.48	9013.37
454.492	14601.5
458.502	10289.1
462.51	6335.32
466.517	7080.79
470.521	13884.2
474.523	26961.5
478.524	25286.3
482.523	14869.9
486.519	9025.5
490.514	5196.45
494.507	3738.51
498.498	4490.27
502.487	7496.33
506.474	16718.6
510.459	38974
514.442	52673.5
518.424	33173.9
522.403	14414.4
526.381	6999.47
530.356	4278.82
534.33	2806.31
538.302	2074.99
542.272	1397.26
546.24	1100.33
550.206	893.576
554.17	571.072
558.132	663.288
562.093	345.957
566.051	358.903
570.008	222.021
573.963	414.854
577.915	597.553
581.866	743.991
585.815	730.034
589.763	390.876
593.708	22.785
597.651	24.972
601.593	33.016
605.532	90.189
609.47	30.231
613.406	8.5
617.34	52.629
621.272	83.643
625.202	324.556
629.131	435.386
633.057	716.279
636.982	827.473
640.905	1259.09
644.825	1980.97
648.744	2852.87
652.662	3244.71
656.577	2616.49
660.49	1498.33
664.402	930.388
668.312	542.639
672.219	224.908
676.125	97.129
680.03	12.181
683.932	83.016
687.832	66.369
691.731	43.343
695.628	79.924
699.522	89.84
703.415	10.691
707.307	315.729
711.196	456.451
715.083	229.715
718.969	194.006
722.853	259.161
726.735	446.221
730.615	487.274
734.493	678.47
738.37	1252.89
742.244	2483.09
746.117	5703.01
749.988	8384.65
753.857	5984.71
757.724	3101.15
761.59	1980.31
765.453	1560.72
769.315	1128.9
773.175	817.422
777.033	436.432
780.889	405.367
784.744	404.201
788.596	772.93
792.447	561.555
796.296	490.068
800.143	438.467
803.989	616.748
807.832	1394.91
811.674	3012.97
815.514	3530.9
819.352	1758.72
823.189	746.43
827.023	444.014
830.856	381.484
834.687	268.246
838.516	185.117
842.343	183.525
846.169	86.146
849.992	21.537
853.814	213.893
857.634	114.635
861.453	30.5
865.269	25.977
869.084	8.82
872.897	166.189
876.708	28.998
880.517	5.381
884.325	0.197
888.13	55.873
891.934	58.268
895.737	72.357
899.537	56.211
903.336	119.889
907.132	56.5
910.928	137.025
914.721	140.549
918.512	114.174
922.302	167.797
926.09	191.418
929.876	105.018
933.66	308.598
937.443	72.168
941.224	305.732
945.003	159.289
948.78	292.848
952.556	176.41
956.33	319.977
960.102	263.557
963.872	607.154
967.64	280.779
971.407	354.441
975.172	568.162
978.935	571.904
982.697	855.635
986.456	1349.36
990.214	2063.17
993.971	3236.55
997.725	2892.16
1001.48	2007.95
1005.23	1826.18
1008.98	1270.66
1012.73	950.992
1016.47	765.918
1020.22	786.793
1023.96	699.842
1027.7	877.479
1031.44	808.18
1035.17	902.486
1038.91	883.531
1042.64	1119.01
1046.37	905.111
1050.1	1260.88
1053.83	1335.89
1057.56	1057.36
1061.28	763.57
1065.01	622.141
1068.73	338.717
1072.45	558.24
1076.16	425.232
1079.88	492.451
1083.6	619.91
1087.31	908.236
1091.02	1016.13
1094.73	1604.26
1098.44	1712.54
1102.14	1640.97
1105.85	1439.69
1109.55	1558.68
1113.25	2248.03
1116.95	3307.85
1120.65	5499.06
1124.34	7429.76
1128.04	5826
1131.73	4442.37
1135.42	4168.98
1139.11	4846.15
1142.79	3933.82
1146.48	2362.23
1150.16	1261.15
1153.84	1110.61
1157.52	630.492
1161.2	120.857
1164.88	371.789
1168.56	333.148
1172.23	284.736
1175.9	316.598
1179.57	228.775
1183.24	211.258
1186.9	4.066
1190.57	32.801
1194.23	120.633
1197.89	25.736
1201.55	278.42
1205.21	363.383
1208.87	259.176
1212.52	135.777
1216.18	76.789
1219.83	181.484
1223.48	170.666
1227.13	160.877
1230.77	379.879
1234.42	630.352
1238.06	171.006
1241.7	315.225
1245.34	274.799
1248.98	189.289
1252.62	69.504
1256.25	156.145
1259.88	459.596
1263.51	602.846
1267.14	654.654
