Measurement: Raman, 514 nm, ccw, Raman Data Processed
Mineral: Microcline
Rruff sample: R050150
Ideal chemistry: KAlSi_3_O_8_
Locality: Crystal Peak area, Park/Teller Counties, Colorado, USA
Source: Dave Bunk Minerals
Description: Pale blue prismatic crystals
Measured chemistry: (K_0.95_Na_0.05_)_Î£=1_Al_1.00_Si_3.00_O_8_
Pin_id: L00915
Orientation: Laser parallel to (1 1 0). Fiducial mark perpendicular to laser is parallel to c [0 0 1]
Raman shift (cm-1)	intensity
137.683	0
142.633	585.906
147.579	1422.81
152.522	2034.57
157.462	1979.33
162.4	898.338
167.334	242.166
172.265	579.766
177.193	1307.85
182.117	1424.12
187.039	615.65
191.958	616.285
196.874	1046.76
201.787	1174.37
206.696	234.629
211.603	38.0527
216.506	139.26
221.407	4.76953
226.304	48.8887
231.199	20.4531
236.091	63.791
240.979	159.307
245.864	59.8105
250.747	478.693
255.626	1492.73
260.503	2105.78
265.376	3040.06
270.247	2364.33
275.114	1660.19
279.979	2774.8
284.84	5858.9
289.699	4252.45
294.554	1593.73
299.407	848.356
304.257	291.699
309.103	171.043
313.947	93.8867
318.788	147.432
323.626	121.762
328.461	687.518
333.292	881.996
338.121	536.43
342.947	314.225
347.771	187.424
352.591	433.996
357.408	592.896
362.222	628.189
367.034	889.549
371.842	2492.61
376.648	1901.8
381.45	549.109
386.25	33.9043
391.047	145.258
395.841	232.842
400.632	859.625
405.42	1305.63
410.205	518.879
414.988	314.365
419.767	45.1387
424.544	3.99219
429.318	82.5625
434.089	63.1562
438.857	225.891
443.622	621.043
448.384	2381.97
453.143	4922.69
457.9	4666.18
462.654	3075.76
467.405	4845.92
472.153	10567.6
476.898	17301.5
481.64	9072.67
486.38	4813.01
491.116	2197.95
495.85	1691.69
500.581	2655.52
505.309	6216.6
510.035	15738.3
514.757	25398.4
519.477	12715.2
524.194	4818.4
528.908	2293.92
533.62	1427.62
538.328	665.463
543.034	669.426
547.737	518.508
552.437	314.707
557.134	228.902
561.829	387.465
566.521	178.023
571.21	161.748
575.896	348.441
580.58	216.5
585.261	264.666
589.939	318.902
594.614	179.666
599.286	107.459
603.956	7.49414
608.623	72.4551
613.287	21.4238
617.949	205.699
622.608	34.7305
627.264	326.822
631.917	550.922
636.568	187.162
641.215	638.635
645.861	871.195
650.503	1176.4
655.143	1144.76
659.78	848.182
664.414	603.188
669.046	164.852
673.674	245.281
678.301	480.621
682.924	110.949
687.545	142.18
692.163	91.4727
696.778	225.191
701.391	220.441
706.001	281.258
710.609	496.578
715.213	569.43
719.815	304.371
724.415	197.234
729.011	79.5781
733.606	281.371
738.197	622.305
742.786	1040.07
747.372	1791.86
751.955	1840.27
756.536	849.977
761.114	662.809
765.69	469.738
770.262	475.973
774.833	213.199
779.4	257.578
783.965	543.484
788.528	88.9609
793.087	64.6992
797.645	160.238
802.199	175.113
806.751	478.535
811.3	1015.59
815.847	1056.38
820.391	383.754
824.933	340.82
829.471	126.586
834.008	337.828
838.541	201.262
843.073	66.7578
847.601	128.188
852.127	393.777
856.65	142.969
861.171	176.109
865.69	346.867
870.205	242.941
874.718	63.3594
879.229	45.5859
883.737	243.816
888.242	111.062
892.745	92.1523
897.246	185.078
901.743	16.6719
906.239	38.9102
910.731	94.4375
915.221	141.5
919.709	246.879
924.194	80.7148
928.677	285.422
933.157	276.078
937.634	245.984
942.109	166.949
946.582	58.8203
951.052	62.543
955.519	22.6836
959.984	191.762
964.447	162.141
968.906	405.504
973.364	31.6523
977.819	505.144
982.271	287.734
986.721	372.316
991.169	654.707
995.614	823.238
1000.06	698.934
1004.5	562.023
1008.93	299.246
1013.37	407.586
1017.8	405.555
1022.23	234.996
1026.66	352.316
1031.09	847.59
1035.51	627.269
1039.93	615.656
1044.35	646.727
1048.76	546.656
1053.17	551.008
1057.58	477.055
1061.99	387.727
1066.4	278.332
1070.8	155.051
1075.2	233.32
1079.6	64.7656
1084	181.246
1088.39	374.984
1092.78	597.926
1097.17	257.938
1101.56	694.438
1105.94	810.25
1110.32	1620.43
1114.7	2306.96
1119.08	5185.42
1123.45	7689.64
1127.82	5859.07
1132.19	3810.3
1136.56	4064.76
1140.92	3601.89
1145.29	1945.36
1149.65	1114.42
1154	805.84
1158.36	586.609
1162.71	677.547
1167.06	636.141
1171.41	570.668
1175.76	296.609
1180.1	261.973
1184.44	505.711
1188.78	277.672
1193.11	149.856
1197.45	258.266
1201.78	221.879
1206.11	280.656
1210.43	158.656
1214.76	360.922
1219.08	296.516
1223.4	116.281
1227.72	375.266
1232.03	172.469
1236.35	172.891
1240.66	131.512
1244.96	7.34375
1249.27	73.0781
1253.57	196.367
1257.88	537.719
1262.17	122.809
1266.47	230.551
1270.76	14.1055
1275.06	374.602
1279.35	164.981
1283.63	426.391
1287.92	410.008
1292.2	446.004
1296.48	63.7109
1300.76	457.582
1305.04	381.644
1309.31	41.9258
1313.58	374.41
1317.85	467.012
1322.12	448.75
1326.38	337.621
1330.64	702.941
1334.9	297.094
1339.16	438.348
1343.41	457.738
1347.67	394.281
1351.92	479
1356.17	555.883
1360.41	282.926
1364.66	452.148
1368.9	488.535
1373.14	262.074
1377.38	324.352
1381.61	113.289
1385.84	279.07
1390.08	212.324
1394.3	364.055
1398.53	607.82
1402.75	465.402
1406.97	296.945
1411.19	622.984
1415.41	559.207
1419.63	136.734
1423.84	600.242
1428.05	114.059
1432.26	316.281
1436.46	467.227
1440.67	288.305
1444.87	430.176
1449.07	302.242
1453.27	640.519
1457.46	413.973
1461.66	286.586
1465.85	449.348
1470.04	430.676
1474.22	396.688
1478.41	212.332
1482.59	672.754
1486.77	291.273
1490.95	252.793
1495.12	212.566
1499.3	283.762
1503.47	118.188
1507.63	671.383
1511.8	372.504
1515.97	73.707
1520.13	182.199
1524.29	163.019
1528.45	356.25
1532.61	400.121
1536.76	341.004
1540.91	207.258
1545.06	142.277
1549.21	206.106
1553.35	371.441
1557.5	9.63281
1561.64	54.0234
