Measurement: Raman, 514 nm, ccw, Raman Data Processed
Mineral: Microcline
Rruff sample: R050054
Ideal chemistry: KAlSi_3_O_8_
Locality: Kenticha, Negele area, Sidamo Province, Ethiopia
Source: Rock Currier
Description: Light blue single crystal
Measured chemistry: (K_0.96_Na_0.04_)Al_1.00_Si_3.00_O_8_
Pin_id: M00128
Orientation: Laser parallel to (-1 -1 0). Fiducial mark perpendicular to laser is parallel to -c [0 0 -1]
Raman shift (cm-1)	intensity
98.519	0
102.712	191.275
106.902	2708.05
111.09	5555.81
115.277	1786.1
119.461	385.945
123.643	903.089
127.823	2493.53
132.001	1451.5
136.176	117.971
140.35	57.348
144.521	402.998
148.691	1760.94
152.858	2611.76
157.024	2115.11
161.187	1597.26
165.348	982.871
169.507	820.71
173.664	1550.68
177.819	3639.15
181.971	4873.89
186.122	2436.23
190.271	1106.78
194.417	1010.64
198.562	1801.17
202.704	1953.43
206.844	803.586
210.983	509.193
215.119	248.641
219.253	37.408
223.385	45.336
227.515	98.673
231.643	92.088
235.769	103.703
239.893	47.896
244.014	2.002
248.134	194.026
252.252	579.269
256.367	1542.28
260.481	2640.36
264.592	3519.04
268.702	4369.2
272.809	2611.55
276.915	1516.99
281.018	1904.7
285.119	3802.92
289.218	4387.5
293.316	2615.37
297.411	1582.34
301.504	1050.93
305.595	552.844
309.684	399.357
313.771	287.754
317.856	243.569
321.939	252.491
326.02	364.397
330.099	644.152
334.176	802.376
338.251	508.453
342.323	333.098
346.394	293.974
350.463	290.517
354.53	457.468
358.594	568.167
362.657	408.213
366.718	451.772
370.777	765.497
374.833	1136.29
378.888	662.976
382.941	438.916
386.992	292.507
391.04	232.818
395.087	265.657
399.132	511.44
403.174	1164.26
407.215	1135.35
411.254	920.029
415.29	991.28
419.325	519.524
423.358	159.145
427.389	119.523
431.417	113.179
435.444	226.172
439.469	401.69
443.492	588.202
447.512	1465.93
451.531	3996.3
455.548	7221.97
459.563	4642.69
463.576	2602.16
467.587	2432.39
471.596	4015.05
475.603	8373
479.608	8695.73
483.611	5339.13
487.612	3270.36
491.611	1922.85
495.608	1441.28
499.603	1680.47
503.596	2892.77
507.587	6551.16
511.577	14444.5
515.564	20448.7
519.549	11595.5
523.533	5149.98
527.514	2599.64
531.493	1636.7
535.471	997.479
539.447	765.58
543.42	589.757
547.392	423.909
551.362	276.166
555.329	252.786
559.295	222.491
563.259	168.422
567.221	171.821
571.181	108.648
575.139	132.403
579.095	195.155
583.049	246.181
587.002	239.791
590.952	87.45
594.9	78.196
598.847	63.279
602.792	15.154
606.734	19.619
610.675	20.152
614.614	16.751
618.55	7.438
622.485	87.817
626.418	56.08
630.349	84.402
634.279	141.835
638.206	198.393
642.131	307.081
646.055	651.888
649.976	1250.77
653.896	1426.69
657.814	1043.66
661.729	585.698
665.643	308.833
669.555	141.065
673.465	53.387
677.373	74.768
681.28	38.845
685.184	33.521
689.087	40.241
692.987	103.817
696.886	35.912
700.783	9.865
704.677	8.416
708.57	31.627
712.462	126.854
716.351	161.061
720.238	85.376
724.124	31.611
728.007	89.038
731.889	147.603
735.769	236.351
739.647	484.095
743.523	1101
747.397	2331.58
751.269	3069.94
755.139	1838.79
759.008	1001.31
762.875	708.573
766.739	664.591
770.602	496.278
774.463	364.114
778.323	270.697
782.18	218.56
786.035	166.642
789.889	221.485
793.741	330.071
797.591	339.637
801.439	399.052
805.285	647.351
809.129	1284.57
812.971	2704.95
816.812	3066.01
820.651	1539
824.488	612.878
828.323	302.667
832.156	204.686
835.987	136.809
839.817	151.898
843.644	180.771
847.47	42.986
851.294	0.554
855.116	0.667
858.936	66.688
862.755	61.51
866.571	5.958
870.386	18.497
874.199	58.815
878.01	25.804
881.82	49.842
885.627	33.732
889.433	32.494
893.236	74.907
897.038	22.42
900.838	31.673
904.637	42.86
908.433	43.965
912.228	31.957
916.021	90.993
919.812	29.76
923.601	47.6
927.388	85.418
931.174	32.186
934.958	22.891
938.739	7.472
942.52	41.053
946.298	82.513
950.074	79.919
953.849	118.276
957.622	174.595
961.393	6.863
965.162	48.075
968.93	121.259
972.696	156.427
976.459	226.569
980.222	147.67
983.982	142.745
987.74	255.825
991.497	419.938
995.252	744.042
999.005	685.777
1002.76	604.88
1006.51	523.345
1010.25	344.799
1014	315.896
1017.74	248.516
1021.49	242.816
1025.23	257.81
1028.96	404.598
1032.7	351.465
1036.44	345.968
1040.17	379.171
1043.9	277.057
1047.63	346.369
1051.36	475.984
1055.09	500.049
1058.81	400.752
1062.54	232.121
1066.26	128.951
1069.97	186.401
1073.69	258.925
1077.41	162.434
1081.12	214.911
1084.84	286.257
1088.55	316.559
1092.25	384.051
1095.96	715.032
1099.67	943.539
1103.37	899.679
1107.07	740.569
1110.77	755.896
1114.47	904.562
1118.16	1200.66
1121.86	2301.42
1125.55	2888.42
1129.24	2289.65
1132.93	1807.75
1136.62	1708.55
1140.31	1816.3
1143.99	1417.47
1147.67	905.978
1151.35	585.45
1155.03	389.965
1158.71	401.333
1162.39	265.591
1166.06	154.546
1169.73	155.993
1173.4	94.04
1177.07	128.215
1180.74	149.88
1184.4	114.187
1188.07	134.932
1191.73	87.424
1195.39	47.32
1199.05	9.023
1202.7	36.423
1206.36	34.523
1210.01	109.137
1213.66	79.135
1217.31	9.415
1220.96	148.48
1224.6	89.574
1228.25	118.021
1231.89	147.004
1235.53	118.682
1239.17	41.406
1242.81	72.093
1246.44	143.012
1250.08	170.219
1253.71	146.514
1257.34	56.863
1260.97	32.099
1264.6	30.641
1268.22	105.16
1271.85	109.58
1275.47	60.774
1279.09	141.957
1282.71	76.883
1286.33	29.673
1289.94	5.242
1293.56	4.68
1297.17	3.095
1300.78	33.212
1304.39	37.83
1307.99	110.833
1311.6	71.301
1315.2	62.603
1318.8	58.838
1322.4	33.571
1326	16.751
1329.6	53.187
1333.19	75.164
1336.79	157.384
1340.38	42.422
1343.97	138.841
1347.56	55.387
1351.14	22.863
1354.73	79.798
1358.31	30.929
1361.89	42.156
1365.47	56.199
1369.05	81.289
1372.63	63.405
1376.2	119.727
1379.78	187.084
1383.35	160.768
1386.92	72.852
1390.49	107.638
1394.05	71.805
1397.62	88.435
1401.18	142.172
1404.74	52.148
1408.3	142.345
1411.86	245.766
1415.42	199.726
1418.97	88.21
1422.53	166.123
1426.08	87.607
1429.63	129.796
1433.18	125.689
1436.72	36.014
1440.27	103.672
1443.81	127.008
1447.36	179.004
1450.89	183.504
1454.43	105.919
1457.97	220.887
1461.51	138.068
1465.04	152.259
1468.57	128.041
1472.1	54.826
1475.63	113.899
1479.16	93.756
1482.68	57.955
1486.21	181.382
1489.73	163.474
1493.25	269.421
1496.77	242.612
1500.29	218.449
1503.8	150.576
1507.32	224.123
1510.83	127.292
1514.34	45.994
1517.85	0.861
