Measurement: Raman, 514 nm, ccw, Raman Data Processed
Mineral: Microcline
Rruff sample: R050193
Ideal chemistry: KAlSi_3_O_8_
Locality: Devil's Head, Douglas County, Colorado, USA
Source: Dave Bunk Minerals
Description: White to colorless heterogeneous mixture of K and Na feldspar in a cluster of crystals. Crystal structure determined, presented below. This sample is known as an intermediate microcline in the literature.
Measured chemistry: (K_0.929_Na_0.071_)(Al_1.005_Si_2.994_Fe_0.001_)O_7.993_F_0.007_  ; Light Band :  (Na_0.973_K_0.007_Ca_0.020_)(Al_1.020_Si_2.980_)O_8_ ; Dark Band
Pin_id: L01042
Orientation: Laser parallel to a* (1 0 0). Fiducial mark perpendicular to laser is parallel to -b [0 -1 0]
Raman shift (cm-1)	intensity
142.556	0
147.482	588.115
152.405	991.043
157.326	564.639
162.244	317.728
167.159	37.8037
172.072	168.483
176.982	204.406
181.89	276.66
186.795	22.5635
191.697	304.806
196.597	294.972
201.494	305.357
206.389	206.674
211.281	165.682
216.17	58.0547
221.057	16.3359
225.941	20.334
230.823	193.777
235.702	113.777
240.578	49.0488
245.452	286.478
250.323	422.029
255.192	749.463
260.058	1333.17
264.921	1267.99
269.782	1205.61
274.64	1424.66
279.495	1799.15
284.348	1966.89
289.198	1413.57
294.046	880.568
298.891	434.957
303.733	490.553
308.573	392.99
313.41	168.879
318.245	287.353
323.077	299.496
327.906	189.977
332.733	189.144
337.557	154.508
342.379	356.566
347.198	40.2344
352.014	161.549
356.828	174.643
361.639	376.482
366.447	367.248
371.253	603.047
376.056	171.984
380.857	39.0898
385.655	67.4141
390.451	134.66
395.243	436.127
400.034	262.906
404.821	421.348
409.606	454.035
414.389	278.994
419.168	160.291
423.945	57.8555
428.72	14.457
433.492	152.223
438.261	217.969
443.028	413.066
447.792	1130.37
452.553	1583.87
457.312	1547.47
462.068	2021.72
466.822	3198.64
471.573	5885.1
476.321	5913.39
481.067	3574.9
485.81	2006.63
490.551	1260.58
495.289	1383.72
500.024	2500.14
504.757	5486.77
509.487	8901.77
514.214	8830.21
518.939	4481.03
523.661	1884
528.381	951.604
533.098	674.244
537.812	476.072
542.524	439.768
547.233	371.707
551.94	217.004
556.644	170.953
561.345	163.397
566.044	146.283
570.74	148.344
575.433	107.963
580.124	162.457
584.812	232.529
589.498	86.0312
594.181	153.41
598.861	85.291
603.539	105.912
608.214	69.1523
612.887	78.4414
617.557	33.8359
622.224	220.269
626.889	236.785
631.551	309.367
636.21	155.977
640.867	232.641
645.521	568.451
650.173	228.992
654.822	373.16
659.468	368.08
664.112	278.766
668.753	91.9434
673.392	185.762
678.028	310.473
682.661	37.1602
687.292	175.861
691.92	137.381
696.545	235.242
701.168	12.7832
705.788	334.297
710.406	339.703
715.021	298.033
719.633	163.889
724.243	55.1914
728.85	90.0996
733.455	352.576
738.056	161.918
742.656	751.426
747.252	804.271
751.846	605.775
756.438	575.615
761.027	599.953
765.613	430.065
770.196	339.34
774.777	410.121
779.356	143.281
783.932	211.414
788.505	175.785
793.075	457.883
797.643	84.8359
802.208	297.865
806.771	323.463
811.331	432.611
815.888	390.935
820.443	216.58
824.995	206.318
829.545	265.15
834.092	414.135
838.636	83.2051
843.178	164.5
847.717	224.965
852.254	142.103
856.788	404.223
861.319	143.135
865.848	387.41
870.374	297.584
874.897	333.941
879.418	260.236
883.936	99.8086
888.452	200.602
892.965	82.1816
897.475	168.963
901.983	121.672
906.488	188.139
910.99	98.6231
915.49	5.29102
919.988	237.26
924.482	185.603
928.974	112.897
933.464	239.416
937.951	173.014
942.435	272.539
946.917	107.162
951.396	131.373
955.872	38.4199
960.346	30.0879
964.817	90.7832
969.285	151.426
973.751	116.781
978.215	95.5703
982.675	120.977
987.134	279.57
991.589	270.41
996.042	422.406
1000.49	416.289
1004.94	461.676
1009.38	136.68
1013.83	520.441
1018.27	374.285
1022.7	310.453
1027.14	46.1797
1031.57	163.731
1036	98.3555
1040.43	106.891
1044.85	355.539
1049.27	341.34
1053.69	573.801
1058.11	328.176
1062.52	165.438
1066.93	441.434
1071.34	127.981
1075.75	278.391
1080.15	446.328
1084.55	257.297
1088.95	377.254
1093.35	345.664
1097.74	504.059
1102.13	592.019
1106.52	563.606
1110.9	1054.51
1115.28	1463.25
1119.66	2119.62
1124.04	2395.74
1128.41	1807.79
1132.79	1692.78
1137.16	1569.16
1141.52	1158.94
1145.89	691.406
1150.25	819.504
1154.61	429.352
1158.96	370.481
1163.32	259.148
1167.67	188.43
1172.02	26.3164
1176.36	247.199
1180.71	317.93
1185.05	405.82
1189.38	287.18
1193.72	157.402
1198.05	276.25
1202.38	142.305
1206.71	127.633
1211.04	183.582
1215.36	38.5547
1219.68	70.3867
1224	299.453
1228.31	191.074
1232.62	462.559
1236.93	366.785
1241.24	6.94531
1245.54	104.406
1249.84	14.8125
1254.14	134.977
1258.44	149.102
1262.73	148.519
1267.03	293.367
1271.31	139.953
1275.6	269.941
1279.88	36.8633
1284.16	323.731
1288.44	320.141
1292.72	210.426
1296.99	281.027
1301.26	350.566
1305.53	160.941
1309.79	295.356
1314.06	328.07
1318.32	190.016
1322.57	464.152
1326.83	403.035
1331.08	186.391
1335.33	224.879
1339.58	12.3281
1343.82	479.387
1348.06	211.953
1352.3	250.172
1356.54	239.57
1360.77	275.5
1365.01	379.492
1369.23	381.715
1373.46	229.148
1377.68	406.023
1381.9	253.5
1386.12	110.801
1390.34	214.492
1394.55	204.508
1398.76	300.574
1402.97	349.492
1407.18	201.754
1411.38	143.188
1415.58	265.051
1419.78	70.8633
1423.97	173.91
1428.17	115.141
1432.36	168.156
1436.54	4.45703
1440.73	508.203
1444.91	419.191
1449.09	159.84
1453.27	302.758
1457.44	192.266
1461.61	218.738
1465.78	313.289
1469.95	411.043
1474.11	86.207
1478.27	294.723
1482.43	363.75
1486.59	223.383
1490.74	208.066
1494.89	436.383
1499.04	307.848
1503.19	338.812
1507.33	447.629
1511.47	409.887
1515.61	531.465
1519.75	423.754
1523.88	279.297
1528.01	411.531
1532.14	42.5039
1536.26	396.926
1540.38	211.887
1544.51	288.141
1548.62	169.258
1552.74	114.832
1556.85	653.562
1560.96	401.246
