Measurement: Raman, 514 nm, ccw, Raman Data Processed
Mineral: Microcline
Rruff sample: R050193
Ideal chemistry: KAlSi_3_O_8_
Locality: Devil's Head, Douglas County, Colorado, USA
Source: Dave Bunk Minerals
Description: White to colorless heterogeneous mixture of K and Na feldspar in a cluster of crystals. Crystal structure determined, presented below. This sample is known as an intermediate microcline in the literature.
Measured chemistry: (K_0.929_Na_0.071_)(Al_1.005_Si_2.994_Fe_0.001_)O_7.993_F_0.007_  ; Light Band :  (Na_0.973_K_0.007_Ca_0.020_)(Al_1.020_Si_2.980_)O_8_ ; Dark Band
Pin_id: L00422
Orientation: Laser parallel to b* (0 1 0). Fiducial mark perpendicular to laser is parallel to c [0 0 1]
Raman shift (cm-1)	intensity
127.763	0
132.697	102.905
137.628	1294.86
142.556	2559.7
147.482	4546.7
152.405	6434.74
157.326	6883.6
162.244	4965.32
167.159	2725.33
172.072	2205.21
176.982	2544.19
181.89	2740.12
186.795	2383.94
191.697	1730.2
196.597	1724.36
201.494	1588.22
206.389	1179.01
211.281	825.738
216.17	119.27
221.057	157.173
225.941	126.958
230.823	158.682
235.702	131.54
240.578	212.805
245.452	732.284
250.323	1617.38
255.192	2769.6
260.058	3218.68
264.921	2648.05
269.782	2782.76
274.64	3573.01
279.495	6046.04
284.348	7644.51
289.198	6494.3
294.046	3871.51
298.891	1486.36
303.733	738.023
308.573	596.332
313.41	406.653
318.245	618.193
323.077	1044.38
327.906	1745.19
332.733	1239.04
337.557	570.989
342.379	260.956
347.198	314.895
352.014	354.788
356.828	344.582
361.639	336.002
366.447	374.001
371.253	307.529
376.056	168.482
380.857	44.3716
385.655	107.707
390.451	113.497
395.243	148.434
400.034	465.284
404.821	633.099
409.606	386.69
414.389	299.808
419.168	83.0513
423.945	30.9863
428.72	13.1406
433.492	5.89453
438.261	176.883
443.028	533.661
447.792	948.137
452.553	1314.35
457.312	1307.27
462.068	1366.25
466.822	2227.77
471.573	4316.18
476.321	5684.44
481.067	4618.54
485.81	2617.43
490.551	1661.85
495.289	2273.65
500.024	4862.36
504.757	9110.97
509.487	12780.6
514.214	10675.9
518.939	5120.53
523.661	2150.42
528.381	1156.05
533.098	699.548
537.812	472.291
542.524	255.692
547.233	272.588
551.94	153.102
556.644	201.141
561.345	201.398
566.044	278.681
570.74	196.752
575.433	300.162
580.124	326.945
584.812	359.921
589.498	82.3594
594.181	24.1172
598.861	69.3652
603.539	40.5947
608.214	53.8027
612.887	202.026
617.557	152.309
622.224	248.591
626.889	539.912
631.551	462.318
636.21	384.764
640.867	494.352
645.521	469.957
650.173	673.52
654.822	425.198
659.468	227.651
664.112	165.123
668.753	143.719
673.392	12.6914
678.028	32.8223
682.661	52.0791
687.292	1.16992
691.92	47.3672
696.545	4.68262
701.168	7.53516
705.788	74.2373
710.406	55.2998
715.021	24.9316
719.633	10.0469
724.243	77.0908
728.85	8.2168
733.455	41.2842
738.056	362.397
742.656	545.051
747.252	804.008
751.846	671.317
756.438	547.135
761.027	568.25
765.613	677.146
770.196	417.408
774.777	372.817
779.356	219.371
783.932	376.29
788.505	346.109
793.075	265.414
797.643	284.861
802.208	491.205
806.771	817.163
811.331	1169.8
815.888	1010.77
820.443	460.228
824.995	277.823
829.545	86.793
834.092	84.2666
838.636	88.2217
843.178	56.0566
847.717	184.06
852.254	168.519
856.788	110.925
861.319	122.149
865.848	96.2197
870.374	109.071
874.897	130.903
879.418	70.4805
883.936	4.2793
888.452	95.7637
892.965	91.3379
897.475	117.651
901.983	137.524
906.488	14.9795
910.99	31.8711
915.49	43.7012
919.988	186.994
924.482	118.09
928.974	184.794
933.464	84.46
937.951	162.877
942.435	170.097
946.917	25.2432
951.396	100.343
955.872	185.468
960.346	111.485
964.817	58.8633
969.285	159.055
973.751	282.302
978.215	259.437
982.675	277.403
987.134	276.943
991.589	444.707
996.042	593.071
1000.49	614.581
1004.94	681.107
1009.38	642.678
1013.83	531.976
1018.27	557.113
1022.7	537.841
1027.14	513.686
1031.57	754.15
1036	664.45
1040.43	444.377
1044.85	480.053
1049.27	261.378
1053.69	104.823
1058.11	237.853
1062.52	193.328
1066.93	40.2305
1071.34	42.3994
1075.75	202.412
1080.15	73.582
1084.55	275.675
1088.95	375.586
1093.35	717.928
1097.74	1042.6
1102.13	847.202
1106.52	635.481
1110.9	550.335
1115.28	867.187
1119.66	997.035
1124.04	1029.9
1128.41	872.398
1132.79	780.204
1137.16	814.322
1141.52	955.05
1145.89	551.325
1150.25	465.636
1154.61	355.69
1158.96	133.328
1163.32	309.136
1167.67	121.358
1172.02	58.873
1176.36	118.364
1180.71	146.79
1185.05	176.311
1189.38	52.8584
1193.72	168.07
1198.05	220.19
1202.38	5.26074
1206.71	103.272
1211.04	30.2158
1215.36	266.756
1219.68	24.0781
1224	109.197
1228.31	0.202148
1232.62	81.2422
1236.93	67.9805
1241.24	44.3789
1245.54	5.46094
1249.84	29.5537
1254.14	103.277
1258.44	66.1973
1262.73	107.346
1267.03	223.654
1271.31	101.66
1275.6	145.315
1279.88	21.9639
1284.16	85.4883
1288.44	154.47
1292.72	158.628
1296.99	152.772
1301.26	277.225
1305.53	231.644
1309.79	206.796
1314.06	134.408
1318.32	164.761
1322.57	165.008
1326.83	200.102
1331.08	278.471
1335.33	180.234
1339.58	104.93
1343.82	160.019
1348.06	150.342
1352.3	81.5078
1356.54	147.09
1360.77	170.273
1365.01	155.815
1369.23	170.562
1373.46	6.28906
1377.68	22.9102
1381.9	110.481
1386.12	302.246
1390.34	212.81
1394.55	153.217
1398.76	60.498
1402.97	261.147
1407.18	210.26
1411.38	67.6074
1415.58	120.922
1419.78	110.006
1423.97	34.6094
1428.17	96.7598
1432.36	7.56445
1436.54	111.822
1440.73	122.789
1444.91	100.277
1449.09	218.926
1453.27	32.416
1457.44	115.096
1461.61	186.977
1465.78	56.3164
1469.95	152.744
1474.11	268.379
1478.27	81.9434
1482.43	41.0234
1486.59	134.488
1490.74	259.506
1494.89	153.5
1499.04	96.9414
1503.19	89.9277
1507.33	90.2305
1511.47	30.8281
1515.61	50.582
1519.75	67.1758
1523.88	168.68
1528.01	214.019
1532.14	229.711
1536.26	66.6973
1540.38	129.965
1544.51	287.947
1548.62	216.08
1552.74	267.019
1556.85	173.486
1560.96	400.684
