Measurement: Raman, 514 nm, ccw, Raman Data Processed
Mineral: Microcline
Rruff sample: R050054
Ideal chemistry: KAlSi_3_O_8_
Locality: Kenticha, Negele area, Sidamo Province, Ethiopia
Source: Rock Currier
Description: Light blue single crystal
Measured chemistry: (K_0.96_Na_0.04_)Al_1.00_Si_3.00_O_8_
Pin_id: M00082
Orientation: Laser parallel to b* (0 1 0). Fiducial mark perpendicular to laser is parallel to c [0 0 1]
Raman shift (cm-1)	intensity
97.121	0
101.314	56.734
105.505	25.293
109.694	645.36
113.881	747.421
118.066	493.2
122.249	1907.47
126.43	3181.16
130.608	1909.24
134.785	1665.88
138.959	4997.58
143.131	5164.88
147.301	6613.89
151.469	10318.1
155.635	15989.4
159.799	13549
163.961	6687.83
168.121	3333.41
172.278	2092.56
176.434	1904.18
180.587	1713.28
184.739	1187.21
188.888	774.793
193.035	857.433
197.18	1815.71
201.324	1625.29
205.465	529.06
209.603	208.894
213.74	13.101
217.875	102.831
222.008	67.928
226.139	61.372
230.267	62.453
234.394	23.65
238.518	3.508
242.641	181.677
246.761	520.253
250.879	1289.32
254.996	3675.57
259.11	4949.87
263.222	4317.45
267.332	4142.54
271.44	3061.94
275.546	3442.5
279.65	6821.64
283.752	12394.7
287.852	11181.3
291.95	5386.52
296.046	2575.05
300.14	1565.62
304.231	988.397
308.321	635.639
312.409	481.471
316.495	438.07
320.578	398.895
324.66	744.238
328.739	1686.15
332.817	2317.45
336.892	1232.5
340.966	657.115
345.037	430.413
349.107	454.125
353.174	565.412
357.24	748.262
361.303	675.063
365.365	514.489
369.424	963.901
373.481	1330.84
377.537	630.581
381.59	283.042
385.642	138.875
389.691	110.184
393.738	76.579
397.784	71.266
401.827	278.311
405.868	262.288
409.908	205.116
413.945	118.649
417.98	16.518
422.014	57.974
426.045	34.987
430.075	2.298
434.102	87.952
438.127	139.523
442.151	335.335
446.172	689.73
450.192	1851.46
454.209	3157.76
458.225	2237.43
462.238	1458.68
466.25	1695.55
470.259	3313.25
474.267	7271.14
478.273	6994.65
482.276	4785.82
486.278	3797.08
490.278	1977.09
494.276	1498.91
498.271	1689.56
502.265	2707.7
506.257	5976.94
510.247	14589.8
514.235	21814.5
518.221	11861.1
522.205	5230.09
526.187	2711.57
530.167	1617.63
534.145	1093.94
538.122	775.488
542.096	609.802
546.068	467.862
550.039	335.336
554.007	274.611
557.973	242.286
561.938	229.431
565.901	201.041
569.861	166.195
573.82	201.22
577.777	210.843
581.732	310.143
585.685	319.212
589.636	211.459
593.585	64.741
597.532	35.802
601.477	50.749
605.42	48.574
609.361	34.36
613.301	128.108
617.238	173.828
621.174	203.545
625.108	406.243
629.039	607.93
632.969	536.635
636.897	445.382
640.823	541.174
644.747	567
648.669	812.825
652.589	967.526
656.508	868.468
660.424	567.29
664.339	295.138
668.251	176.031
672.162	101.96
676.071	35.674
679.978	5.157
683.883	32.139
687.786	13.252
691.687	21.296
695.586	32.148
699.484	38.694
703.379	13.717
707.273	26.901
711.165	20.35
715.055	56.869
718.943	33.309
722.829	26.87
726.713	37.885
730.595	49.179
734.476	136.758
738.354	261.086
742.231	482.596
746.106	830.595
749.978	1272.2
753.849	842.215
757.719	534.321
761.586	421.849
765.451	344.863
769.315	414.075
773.177	296.837
777.036	220.903
780.894	122.151
784.75	96.023
788.605	113.884
792.457	141.715
796.307	212.356
800.156	214.931
804.003	325.44
807.848	627.882
811.691	1420.26
815.532	1580.56
819.371	729.799
823.209	338.966
827.045	162.062
830.878	128.008
834.71	131.197
838.54	98.269
842.369	74.194
846.195	42.738
850.02	4.853
853.842	17.651
857.663	10.022
861.482	49.701
865.299	2.903
869.115	47.804
872.928	9.916
876.74	16.376
880.55	58.697
884.358	32.782
888.164	4.902
891.969	23.278
895.771	9.365
899.572	41.362
903.371	62.287
907.168	73.127
910.963	23.878
914.757	25.573
918.548	21.218
922.338	25.827
926.126	53.364
929.912	84.818
933.697	44.22
937.479	26.579
941.26	17.884
945.039	123.137
948.816	152.356
952.591	108.527
956.365	66.648
960.136	151.73
963.906	50.779
967.674	96.79
971.441	120.759
975.205	159.687
978.968	184.582
982.729	147.448
986.488	213.281
990.245	398.004
994	618.707
997.754	809.302
1001.51	1074.93
1005.26	1117.5
1009	683.68
1012.75	478.943
1016.5	440.584
1020.24	376.189
1023.98	364.456
1027.72	430.79
1031.46	534.688
1035.19	574.453
1038.93	690.096
1042.66	589.852
1046.39	462.3
1050.12	463.926
1053.85	374.738
1057.57	255.521
1061.29	179.333
1065.02	109.651
1068.74	79.375
1072.45	104.378
1076.17	180.904
1079.88	143.919
1083.6	126.375
1087.31	155.313
1091.02	222.489
1094.72	291.095
1098.43	340.861
1102.13	414.763
1105.84	404.831
1109.54	433.462
1113.24	616.612
1116.93	1003.29
1120.63	1665.55
1124.32	2120.6
1128.01	1952.18
1131.7	1651.38
1135.39	1920.24
1139.08	2149.26
1142.76	1665.1
1146.45	1007.69
1150.13	679.961
1153.81	492.045
1157.48	340.992
1161.16	255.764
1164.84	164.897
1168.51	121.15
1172.18	99.273
1175.85	127.429
1179.52	89.148
1183.18	99.425
1186.85	35.49
1190.51	119.374
1194.17	35.572
1197.83	43.807
1201.48	4.658
1205.14	9.859
1208.79	28.75
1212.44	7.622
1216.09	51.316
1219.74	14.029
1223.39	7.802
1227.03	5.61
1230.68	31.854
1234.32	10.321
1237.96	34.628
1241.6	12.019
1245.23	154.806
1248.87	63.61
1252.5	23.787
1256.13	19.057
1259.76	7.754
1263.39	19.616
1267.02	45.611
1270.64	10.984
1274.26	107.893
1277.88	83.562
1281.5	33.173
1285.12	7.337
1288.74	12.721
1292.35	5.94
1295.96	25.612
1299.57	71.736
1303.18	9.843
1306.79	35.173
1310.4	62.692
1314	63.486
1317.6	27.263
1321.2	14.903
1324.8	73.442
1328.4	39.863
1331.99	15.836
1335.59	85.734
1339.18	83.855
1342.77	98.776
1346.36	85.276
1349.95	4.159
1353.53	46.393
1357.12	64.656
1360.7	30.224
1364.28	55.062
1367.86	51.86
1371.44	40.404
1375.01	72.749
1378.59	76.675
1382.16	94.239
1385.73	83.104
1389.3	69.845
1392.87	48.29
1396.43	19.725
1399.99	38.757
1403.56	14.638
1407.12	40.014
1410.68	81.588
1414.23	61.13
1417.79	102.952
1421.34	80.871
1424.9	148.379
1428.45	89.933
1431.99	76.212
1435.54	11.563
1439.09	69.751
1442.63	44.701
1446.17	111.046
1449.71	109.285
1453.26	165.959
1456.79	112.816
1460.33	126.773
1463.86	122.084
1467.39	82.796
1470.92	54.886
1474.45	0.809
1477.98	39.917
1481.51	63.431
1485.03	44.714
1488.56	99.09
1492.08	109.113
1495.6	132
1499.11	91.009
1502.63	72.771
1506.14	78.377
1509.66	81.975
1513.17	67.509
1516.68	0
