Measurement: Raman, 514 nm, ccw, Raman Data Processed
Mineral: Microcline
Rruff sample: R040154
Ideal chemistry: KAlSi_3_O_8_
Locality: Mitchell County, North Carolina, USA
Source: University of Arizona Mineral Museum
Description: White cleavage fragment with some perthitic character
Measured chemistry: (K_0.90_Na_0.09_Ba_0.01_)Al_1.00_(Si_2.99_Al_0.01_)_Î£=3_O_8_
Pin_id: L00079
Orientation: Laser parallel to a* (1 0 0). Fiducial mark perpendicular to laser is parallel to -b [0 -1 0]
Raman shift (cm-1)	intensity
83.614	0
87.798	46.506
91.981	494.049
96.161	1223.91
100.34	3152.54
104.516	6054.84
108.691	8465.63
112.864	5340.81
117.034	3838.21
121.203	3858.52
125.369	4624.94
129.534	4527.87
133.696	2588.69
137.857	2186.82
142.016	2427.65
146.172	3217.29
150.327	3467.47
154.48	2937.86
158.63	2469.43
162.779	2094.33
166.926	1902.58
171.07	2241.86
175.213	2612.41
179.354	3042.09
183.493	2584.88
187.63	1972.72
191.765	1607.75
195.898	1914
200.029	2203.07
204.158	2059.19
208.285	1590.37
212.41	959.826
216.533	544.834
220.654	183.908
224.773	160.977
228.891	76.956
233.006	23.768
237.119	24.479
241.231	239.007
245.34	408.842
249.448	939.061
253.553	1702.09
257.657	2885.9
261.758	3610.91
265.858	3965.81
269.956	3508.88
274.052	2519.76
278.146	3026.32
282.237	4493.76
286.327	5565.89
290.416	4631.45
294.502	2348.28
298.586	934.203
302.668	409.963
306.749	56.453
310.827	25.455
314.903	74.969
318.978	64.266
323.051	184.661
327.121	454.859
331.19	666.312
335.257	112.017
339.322	221.071
343.385	186.201
347.446	187.501
351.505	78.035
355.563	278.714
359.618	148.599
363.672	317.444
367.723	1008.1
371.773	1429.92
375.821	711.744
379.866	74.203
383.91	71.631
387.952	50.191
391.992	31.668
396.031	507.844
400.067	894.432
404.101	1268.94
408.134	1060.41
412.165	881.195
416.193	463.432
420.22	92.008
424.245	33.301
428.268	12.908
432.289	73.193
436.309	306.164
440.326	548.732
444.342	1756.2
448.355	3637.63
452.367	6161.95
456.377	5713.08
460.385	4008.31
464.391	4062.1
468.395	7272.9
472.398	13949.5
476.398	17821.1
480.397	13402.7
484.394	7271.07
488.389	4074.88
492.382	3039.44
496.373	3574.77
500.362	6967.93
504.349	14579
508.335	22655.4
512.319	25789.8
516.3	17593.9
520.28	8419.84
524.259	4119.81
528.235	2507.5
532.209	1458.56
536.182	1102.32
540.152	862.762
544.121	873.734
548.088	643.764
552.053	502.127
556.017	420.156
559.978	179.389
563.938	183.297
567.895	278.281
571.851	378.77
575.805	489.881
579.758	679.848
583.708	502.605
587.657	479.953
591.603	27.936
595.548	302.398
599.491	101.055
603.432	22.488
607.372	30.596
611.309	124.014
615.245	142.861
619.179	376.158
623.111	178.064
627.041	504.586
630.97	694.773
634.896	451.768
638.821	575.584
642.744	710.119
646.665	1331.3
650.584	1170.12
654.502	1050.58
658.418	809.844
662.331	255.033
666.244	194.002
670.154	159.422
674.062	115.123
677.969	279.584
681.874	109.381
685.777	109.072
689.678	63.154
693.577	267.943
697.475	28.016
701.371	166.299
705.265	553.594
709.157	447.117
713.047	243.398
716.936	227.734
720.823	363.504
724.708	282.379
728.591	497.303
732.472	461.822
736.352	847.297
740.23	1391.08
744.106	2472.7
747.98	3381.65
751.853	2839.69
755.723	2420.34
759.592	2663.62
763.459	2980.35
767.325	2184.27
771.188	1178.46
775.05	1075.92
778.91	568.74
782.768	444.191
786.625	384.662
790.479	603.107
794.332	596.338
798.183	615.357
802.033	786.174
805.88	1794.79
809.726	2977.21
813.57	4063.51
817.413	2359.53
821.253	1067.19
825.092	630.836
828.929	513.562
832.764	376.369
836.598	288.42
840.429	462.006
844.259	439.832
848.088	18.988
851.914	34.943
855.739	396.049
859.562	7.15
863.383	170.268
867.203	116.461
871.02	136.17
874.836	102.354
878.65	178.979
882.463	83.203
886.274	207.256
890.083	15.27
893.89	22.74
897.695	6.645
901.499	93.105
905.301	138.148
909.102	135.428
912.9	154.863
916.697	118.508
920.492	413.178
924.285	373.113
928.077	227.113
931.867	35.137
935.655	33.152
939.442	128.174
943.226	388.316
947.009	321.24
950.791	335.279
954.57	302.379
958.348	315.555
962.124	41.234
965.899	374
969.671	588.305
973.442	215.637
977.211	259.07
980.979	395.758
984.745	683.355
988.509	1005.29
992.271	1182.94
996.032	1297.82
999.791	1523.08
1003.55	1142.81
1007.3	1142.19
1011.06	906.824
1014.81	775.57
1018.56	573.355
1022.31	700.02
1026.06	736.562
1029.8	1038
1033.55	885.012
1037.29	966.559
1041.03	836.148
1044.77	914.16
1048.5	1279.98
1052.24	969.398
1055.97	1107.36
1059.7	533.879
1063.43	543.516
1067.16	786.148
1070.89	775.758
1074.61	850.062
1078.34	759.98
1082.06	650.133
1085.78	857.848
1089.5	1481.98
1093.21	1955.84
1096.93	3110.86
1100.64	3453.33
1104.35	2930.85
1108.06	2702.97
1111.77	2258.91
1115.48	2999.28
1119.18	3841.4
1122.89	5457.79
1126.59	4728.49
1130.29	3519.09
1133.99	2886.67
1137.68	3015.91
1141.38	2537.21
1145.07	1971.64
1148.76	991.953
1152.45	833.473
1156.14	278.609
1159.83	603.551
1163.51	288.602
1167.19	336.621
1170.88	40.367
1174.56	206.82
1178.23	228.457
1181.91	275.125
1185.59	281.445
1189.26	169.105
1192.93	313.82
1196.6	117.441
1200.27	61.688
1203.94	583.055
1207.6	73.84
1211.27	265.84
1214.93	331.965
1218.59	42.996
1222.25	3.289
1225.9	133.289
1229.56	366.559
1233.21	376.18
1236.86	378.477
1240.51	387.793
1244.16	250.184
1247.81	70.383
1251.45	210
1255.1	185.281
1258.74	402.754
1262.38	307.273
1266.02	202.527
1269.66	71.75
1273.29	85.684
1276.93	18.848
1280.56	114.918
1284.19	68.309
1287.82	233.84
1291.45	18.961
1295.07	103.066
1298.7	375.832
1302.32	56.094
1305.94	203.305
1309.56	300.793
1313.18	146.32
1316.8	304.516
1320.41	324.547
1324.02	251.645
1327.63	82.578
1331.24	515.875
1334.85	335.684
1338.46	222.516
1342.06	495.957
1345.67	328.871
1349.27	350.617
1352.87	559.199
1356.47	503.77
1360.07	666.453
1363.66	520.051
1367.25	665.059
1370.85	610.75
1374.44	414.656
1378.03	459.512
1381.61	395.07
1385.2	583.668
1388.78	133.562
1392.37	211.836
1395.95	560.125
1399.53	211.609
1403.1	517.355
1406.68	6.496
1410.26	12.258
