Measurement: Raman, 514 nm, ccw, Raman Data Processed
Mineral: Microcline
Rruff sample: R040154
Ideal chemistry: KAlSi_3_O_8_
Locality: Mitchell County, North Carolina, USA
Source: University of Arizona Mineral Museum
Description: White cleavage fragment with some perthitic character
Measured chemistry: (K_0.90_Na_0.09_Ba_0.01_)Al_1.00_(Si_2.99_Al_0.01_)_Î£=3_O_8_
Pin_id: L00079
Orientation: Laser parallel to a* (1 0 0). Fiducial mark perpendicular to laser is parallel to -b [0 -1 0]
Raman shift (cm-1)	intensity
75.239	0
79.427	173.832
83.614	171.608
87.798	476.911
91.981	924.394
96.161	1180.69
100.34	2096.13
104.516	3834.9
108.691	4997.43
112.864	3999.07
117.034	4643.7
121.203	6399.15
125.369	8811.57
129.534	8709.35
133.696	4967.4
137.857	3512.93
142.016	3573.5
146.172	5163.1
150.327	5789.88
154.48	4336.58
158.63	3079.86
162.779	2583.66
166.926	2526.66
171.07	3070.76
175.213	3787.45
179.354	4536.87
183.493	3951.13
187.63	3156.27
191.765	2618.74
195.898	2688.74
200.029	2778.2
204.158	2758.56
208.285	2650.17
212.41	1926.39
216.533	995.73
220.654	504.643
224.773	297.62
228.891	237.186
233.006	414.05
237.119	326.581
241.231	715.105
245.34	1220.08
249.448	2594.93
253.553	4880.38
257.657	7921.67
261.758	9884.88
265.858	11838.7
269.956	8967.36
274.052	5356.29
278.146	5024.54
282.237	7141.91
286.327	7819.24
290.416	5994.43
294.502	3212.46
298.586	1323.16
302.668	508.338
306.749	245.908
310.827	118.21
314.903	112.316
318.978	120.53
323.051	207.179
327.121	622.994
331.19	980.939
335.257	301.014
339.322	41.792
343.385	163.638
347.446	203.864
351.505	89.491
355.563	25.308
359.618	44.56
363.672	160.872
367.723	677.354
371.773	1217.94
375.821	624.99
379.866	164.596
383.91	211.806
387.952	290.426
391.992	83.624
396.031	595.244
400.067	1192.38
404.101	1757.57
408.134	2296.12
412.165	2960.95
416.193	1861.96
420.22	788.096
424.245	234.296
428.268	196.513
432.289	395.693
436.309	821.109
440.326	1549.48
444.342	3958.59
448.355	8750.76
452.367	16146.7
456.377	14182.4
460.385	8446.14
464.391	6148.85
468.395	8525.85
472.398	15555
476.398	19269.5
480.397	15194
484.394	9436.02
488.389	5538.18
492.382	4262.48
496.373	5187.43
500.362	9577.39
504.349	20288.5
508.335	35918
512.319	45841.2
516.3	31854.1
520.28	14990.2
524.259	7243.19
528.235	4245.77
532.209	2815.25
536.182	1950.4
540.152	1438.8
544.121	1310
548.088	954.35
552.053	710.199
556.017	561.807
559.978	332.037
563.938	388.092
567.895	420.992
571.851	408.762
575.805	688.398
579.758	907.846
583.708	739.09
587.657	493.867
591.603	184.494
595.548	189.141
599.491	140.498
603.432	195.451
607.372	49.926
611.309	9.189
615.245	168.707
619.179	183.926
623.111	143.896
627.041	404.611
630.97	630.109
634.896	420.631
638.821	913.207
642.744	1574.42
646.665	2200.89
650.584	2446.9
654.502	2179.69
658.418	1193.33
662.331	662.877
666.244	449.801
670.154	121.898
674.062	55.934
677.969	193.779
681.874	187.232
685.777	70.242
689.678	12.721
693.577	72.521
697.475	98.459
701.371	52.551
705.265	386.838
709.157	360.859
713.047	226.33
716.936	333.064
720.823	298.312
724.708	338.705
728.591	818.838
732.472	1070.71
736.352	1821.5
740.23	3262.6
744.106	6559.55
747.98	9484.58
751.853	7762.84
755.723	4991.37
759.592	4583.27
763.459	4742.38
767.325	3087.58
771.188	1995.36
775.05	1414.24
778.91	939.689
782.768	879.877
786.625	803.893
790.479	1166.41
794.332	1470.78
798.183	1595.01
802.033	2008.87
805.88	4000.83
809.726	7807.66
813.57	10789.4
817.413	6600.93
821.253	2963.38
825.092	1489.2
828.929	956.16
832.764	625.031
836.598	410.592
840.429	428.062
844.259	338.098
848.088	105.287
851.914	24.994
855.739	258.984
859.562	134.809
863.383	189.717
867.203	163.838
871.02	133.646
874.836	111.424
878.65	28.053
882.463	79.715
886.274	78.232
890.083	12.717
893.89	30.166
897.695	12.592
901.499	8.834
905.301	160.244
909.102	55.742
912.9	69.35
916.697	3.023
920.492	64.865
924.285	163.887
928.077	120.951
931.867	91.049
935.655	11.805
939.442	28.363
943.226	398.848
947.009	229.775
950.791	264.01
954.57	301.26
958.348	378.527
962.124	136.836
965.899	320.23
969.671	505.711
973.442	539.238
977.211	685.912
980.979	647.689
984.745	1102.55
988.509	1713.56
992.271	2498.73
996.032	2755.27
999.791	2119.23
1003.55	1511.33
1007.3	1381.78
1011.06	946.262
1014.81	901.004
1018.56	595.592
1022.31	658.619
1026.06	749.402
1029.8	777.51
1033.55	903.969
1037.29	775.152
1041.03	870.883
1044.77	721.787
1048.5	797.512
1052.24	767.051
1055.97	632.475
1059.7	572.586
1063.43	490.289
1067.16	662.945
1070.89	575.545
1074.61	602.205
1078.34	840.156
1082.06	603.85
1085.78	859.93
1089.5	1181.19
1093.21	1730.01
1096.93	2862.32
1100.64	2719.66
1104.35	2275.39
1108.06	1461.41
1111.77	1255.84
1115.48	1243.77
1119.18	1404.79
1122.89	2391.76
1126.59	1891
1130.29	1587.38
1133.99	1409.37
1137.68	2048.36
1141.38	1653.4
1145.07	1184.9
1148.76	674.324
1152.45	607.266
1156.14	361.986
1159.83	494.746
1163.51	256.229
1167.19	266.617
1170.88	12.006
1174.56	334.393
1178.23	206.195
1181.91	322.404
1185.59	251.412
1189.26	220.736
1192.93	19.535
1196.6	310.209
1200.27	78.178
1203.94	311.695
1207.6	314.053
1211.27	195.639
1214.93	299.648
1218.59	228.771
1222.25	79.963
1225.9	308.873
1229.56	257.227
1233.21	178.4
1236.86	413.791
1240.51	366.426
1244.16	209.236
1247.81	117.775
1251.45	186.973
1255.1	182.338
1258.74	258.857
1262.38	248.559
1266.02	256.504
1269.66	135.891
1273.29	185.469
1276.93	229.369
1280.56	247.82
1284.19	204.332
1287.82	256.484
1291.45	78.779
1295.07	108.617
1298.7	206.793
1302.32	161.699
1305.94	124.895
1309.56	452.426
1313.18	37.176
1316.8	266.285
1320.41	296.414
1324.02	68.02
1327.63	100.332
1331.24	483.656
1334.85	329.605
1338.46	240.117
1342.06	302.625
1345.67	414.766
1349.27	605.762
1352.87	581.355
1356.47	734.859
1360.07	554.004
1363.66	406.574
1367.25	545.375
1370.85	497.812
1374.44	426.492
1378.03	446.906
1381.61	338.07
1385.2	406.613
1388.78	116.32
1392.37	238.801
1395.95	335.777
1399.53	357.219
1403.1	364.168
1406.68	49.125
1410.26	23.672
1413.83	204.848
1417.4	36.32
1420.97	184.148
1424.54	190.496
