Measurement: Raman, 514 nm, ccw, Raman Data Processed
Mineral: Microcline
Rruff sample: R040154
Ideal chemistry: KAlSi_3_O_8_
Locality: Mitchell County, North Carolina, USA
Source: University of Arizona Mineral Museum
Description: White cleavage fragment with some perthitic character
Measured chemistry: (K_0.90_Na_0.09_Ba_0.01_)Al_1.00_(Si_2.99_Al_0.01_)_Î£=3_O_8_
Pin_id: L00521
Orientation: Laser parallel to -c* (0 0 -1). Fiducial mark perpendicular to laser is parallel to a [1 0 0]
Raman shift (cm-1)	intensity
94.768	0
98.947	106.012
103.124	515.188
107.3	1145.76
111.473	974.691
115.644	1674.67
119.813	3819.91
123.981	6436.88
128.146	6552.9
132.309	5192.15
136.47	5937.4
140.63	7529.93
144.787	7304
148.942	9276.89
153.096	14499.3
157.247	16991.8
161.396	13234.9
165.544	7335.98
169.689	4902.71
173.833	5480.34
177.974	6035.39
182.114	4625.74
186.251	3333.42
190.387	2854.35
194.52	4116.69
198.652	4957.47
202.782	3011.61
206.909	1827.08
211.035	791.693
215.159	129.372
219.281	57.229
223.4	96.588
227.518	205.169
231.634	216.271
235.748	158.298
239.86	119.26
243.97	551.231
248.079	1969.95
252.185	4454.48
256.289	7373.98
260.391	8817.93
264.492	9594.86
268.59	7615.2
272.687	5830.84
276.781	8051.81
280.874	14950.3
284.964	16599.8
289.053	11310.9
293.14	6008.49
297.225	2488.05
301.308	1193.39
305.389	731.517
309.468	154.412
313.545	72.068
317.62	16.593
321.693	270.186
325.765	994.667
329.834	1674.09
333.902	1157.66
337.967	385.006
342.031	74.882
346.093	143.219
350.153	116.794
354.21	333.47
358.267	296.891
362.321	359.058
366.373	609.954
370.423	1009.5
374.471	841.646
378.518	117.575
382.563	5.308
386.605	17.484
390.646	191.476
394.685	202.17
398.722	1122.47
402.757	1789.28
406.79	1488.31
410.821	1199.5
414.851	852.516
418.878	307.34
422.904	28.168
426.927	106.711
430.949	80.133
434.969	514.102
438.987	747.986
443.003	1858.11
447.018	4560.39
451.03	9054.23
455.041	9422.67
459.049	5435.82
463.056	4110.65
467.061	6278.61
471.064	11613.2
475.065	15797.6
479.064	12231.3
483.062	8327.29
487.057	5168.25
491.051	3356.84
495.043	3235.08
499.032	5237.97
503.02	11080.1
507.007	24599.7
510.991	39503.7
514.973	32680.6
518.954	15522.7
522.933	7376.36
526.91	4215.74
530.885	2555.59
534.858	1918.73
538.829	1408.03
542.799	930.619
546.766	675.109
550.732	555.186
554.696	510.342
558.658	455.338
562.618	299.137
566.576	353.252
570.533	529.352
574.488	739.316
578.44	1052.59
582.391	1403.4
586.341	893.781
590.288	455.207
594.233	206.883
598.177	136.859
602.119	18.52
606.059	211.809
609.997	47.301
613.933	198.145
617.868	264.277
621.801	526.113
625.731	362.697
629.66	758.035
633.588	869.117
637.513	832.068
641.437	1350.9
645.358	1805.49
649.278	1993.82
653.196	2261.9
657.113	1534.74
661.027	851.379
664.94	107.066
668.851	497.842
672.76	308.387
676.667	199.66
680.572	97.84
684.476	38.629
688.378	80.568
692.278	43.816
696.176	128.209
700.072	32.541
703.967	125.256
707.86	194.465
711.751	306.117
715.64	36.945
719.527	131.357
723.413	32.018
727.297	186.043
731.179	583.275
735.059	765.648
738.937	1570.96
742.814	2968.88
746.689	5145.81
750.562	5524.98
754.433	3264.44
758.303	2183.4
762.17	2102.58
766.036	1943.75
769.901	1276.99
773.763	689.477
777.624	706.42
781.482	303.707
785.339	613.824
789.195	541.682
793.048	618.742
796.9	782.168
800.75	995.412
804.598	1552.66
808.445	3587.56
812.289	6203.33
816.132	4693.9
819.973	2071.58
823.813	1110.21
827.65	658.695
831.486	319.371
835.32	262.305
839.152	268.186
842.983	32.732
846.812	156.715
850.639	256.65
854.464	155.961
858.288	100.689
862.11	81.652
865.93	137.914
869.748	114.842
873.564	27.121
877.379	7.02
881.192	21.461
885.004	52.072
888.813	65.359
892.621	57.914
896.427	34.619
900.232	11.529
904.034	73.375
907.835	198.654
911.634	218.729
915.432	2.113
919.227	80.289
923.021	75.432
926.813	102.592
930.604	315.828
934.393	312.955
938.18	169.055
941.965	255.141
945.749	464.199
949.53	199.232
953.311	28.256
957.089	148.279
960.866	267.307
964.641	329.334
968.414	283.346
972.185	614.361
975.955	848.395
979.723	977.461
983.49	810.568
987.254	1446.71
991.017	2594.91
994.779	3486.6
998.538	2382.83
1002.3	2166.93
1006.05	1856.25
1009.81	1276.94
1013.56	873.99
1017.31	807.439
1021.06	840.344
1024.81	609.758
1028.55	956.314
1032.3	896.961
1036.04	1150.46
1039.78	1665.91
1043.52	1311.48
1047.26	695.168
1050.99	976.115
1054.73	636.398
1058.46	553.732
1062.19	485.863
1065.92	143.102
1069.65	200.697
1073.37	394.807
1077.1	86.625
1080.82	573.033
1084.54	439.766
1088.26	895.635
1091.97	1093.37
1095.69	1386.45
1099.4	2038.81
1103.12	1409.64
1106.83	1333.35
1110.54	1059.11
1114.24	1226.62
1117.95	2051.76
1121.65	3226.63
1125.35	3288.22
1129.06	2881.3
1132.75	2533.12
1136.45	2914.99
1140.15	3378.21
1143.84	2399.25
1147.53	1434.02
1151.22	942.895
1154.91	657.57
1158.6	313.914
1162.28	279.941
1165.97	394.207
1169.65	220.688
1173.33	117.781
1177.01	131.004
1180.69	60.102
1184.36	150.023
1188.04	29.184
1191.71	403.309
1195.38	167.57
1199.05	314.879
1202.71	62.773
1206.38	492.891
1210.04	322.23
1213.71	45.855
1217.37	260.773
1221.03	236.961
1224.68	496.262
1228.34	373.652
1231.99	105.523
1235.65	323.32
1239.3	337.539
1242.95	317.023
1246.59	480.133
1250.24	201.684
1253.88	137.945
1257.53	378.914
1261.17	228.441
1264.81	121.211
1268.45	377.145
1272.08	49.691
1275.72	282.75
1279.35	24.465
1282.98	92.77
1286.61	29.293
1290.24	180.953
1293.87	200.02
1297.49	144.805
1301.11	124.297
1304.73	88.477
1308.36	82.355
1311.97	112.504
1315.59	170.625
1319.2	256.582
1322.82	168.512
1326.43	152.656
1330.04	100.895
1333.65	39.453
1337.26	295.016
1340.86	327.156
1344.47	246.969
1348.07	478.125
1351.67	338.156
1355.27	149.312
1358.87	405.262
1362.46	415.766
1366.06	522.188
1369.65	305.125
1373.24	438.938
1376.83	428.32
1380.42	526.398
1384	725
1387.59	593.902
1391.17	308.516
1394.75	269.793
1398.33	648.109
1401.91	344.059
1405.49	476.375
1409.06	643.973
1412.64	3.75
1416.21	360.387
1419.78	207.648
1423.35	325.492
1426.91	254.879
1430.48	104.77
1434.05	94.848
1437.61	129.73
1441.17	246.191
1444.73	158.691
1448.29	381.379
1451.84	208.902
1455.4	52.953
1458.95	246.145
1462.5	85.438
1466.05	616.215
