Measurement: Raman, 514 nm, ccw, Raman Data Processed
Mineral: Microcline
Rruff sample: R050054
Ideal chemistry: KAlSi_3_O_8_
Locality: Kenticha, Negele area, Sidamo Province, Ethiopia
Source: Rock Currier
Description: Light blue single crystal
Measured chemistry: (K_0.96_Na_0.04_)Al_1.00_Si_3.00_O_8_
Pin_id: M00128
Orientation: Laser parallel to (-1 -1 0). Fiducial mark perpendicular to laser is parallel to -c [0 0 -1]
Raman shift (cm-1)	intensity
101.314	0
105.505	200.643
109.694	655.896
113.881	529.069
118.066	151.749
122.249	668.134
126.43	2389.69
130.608	2789.88
134.785	1132.09
138.959	311.279
143.131	313.325
147.301	546.101
151.469	859.47
155.635	957.945
159.799	1017.03
163.961	674.649
168.121	446.456
172.278	542.991
176.434	858.555
180.587	1272.54
184.739	959.203
188.888	588.178
193.035	392.912
197.18	557.881
201.324	726.641
205.465	473.81
209.603	349.075
213.74	242.893
217.875	86.367
222.008	38.789
226.139	74.49
230.267	100.352
234.394	109.624
238.518	41.966
242.641	66.495
246.761	44.455
250.879	135.316
254.996	469.386
259.11	1016.44
263.222	1389.82
267.332	2079.82
271.44	1604.14
275.546	1077.57
279.65	1558.12
283.752	3601.95
287.852	5452.01
291.95	3607.23
296.046	1806.7
300.14	894.258
304.231	488.429
308.321	312.322
312.409	238.875
316.495	193.51
320.578	169.186
324.66	250.008
328.739	510.155
332.817	597.401
336.892	395.782
340.966	289.809
345.037	276.672
349.107	275.167
353.174	482.683
357.24	723.17
361.303	671.259
365.365	692.551
369.424	1383.43
373.481	2865.7
377.537	1935.81
381.59	788.425
385.642	394.583
389.691	247.05
393.738	236.018
397.784	331.243
401.827	872.829
405.868	1473.21
409.908	741.221
413.945	364.288
417.98	258.779
422.014	98.181
426.045	70.708
430.075	48.032
434.102	179.82
438.127	213.052
442.151	428.762
446.172	787.126
450.192	1894.08
454.209	4171.86
458.225	4135.84
462.238	3010.03
466.25	3366.04
470.259	6092.51
474.267	14412.1
478.273	19586.6
482.276	11851
486.278	6525.69
490.278	3489.34
494.276	2240.72
498.271	2096.3
502.265	3102.97
506.257	6245.82
510.247	14379.8
514.235	26658
518.221	20148.7
522.205	9059.89
526.187	4273.05
530.167	2426.93
534.145	1601.97
538.122	1089.77
542.096	782.044
546.068	592.183
550.039	499.113
554.007	391.933
557.973	249.2
561.938	189.425
565.901	250.094
569.861	190.275
573.82	211.349
577.777	219.851
581.732	364.823
585.685	523.757
589.636	293.634
593.585	91.539
597.532	57.538
601.477	1.182
605.42	5.836
609.361	38.524
613.301	20.039
617.238	19.555
621.174	44.05
625.108	91.533
629.039	130.417
632.969	181.976
636.897	136.551
640.823	305.217
644.747	556.32
648.669	984.908
652.589	1333.55
656.508	1199.73
660.424	742.994
664.339	382.348
668.251	115.791
672.162	94.303
676.071	85.032
679.978	8.777
683.883	18.259
687.786	20.411
691.687	81.729
695.586	54.957
699.484	64.991
703.379	11.9
707.273	144.86
711.165	226.588
715.055	220.18
718.943	190.936
722.829	134.302
726.713	123.431
730.595	35.194
734.476	112.433
738.354	249.378
742.231	571.344
746.106	1078.76
749.978	1853.51
753.849	1325.09
757.719	755.771
761.586	587.13
765.451	644.328
769.315	510.131
773.177	317.149
777.036	229.5
780.894	110.079
784.75	73.656
788.605	43.785
792.457	52.494
796.307	21.094
800.156	110.573
804.003	69.947
807.848	138.214
811.691	228.382
815.532	335.516
819.371	284.494
823.209	134.373
827.045	92.154
830.878	28.832
834.71	20.55
838.54	48.823
842.369	105.959
846.195	42.727
850.02	8.743
853.842	18.613
857.663	11.026
861.482	30.639
865.299	22.539
869.115	30.497
872.928	55.271
876.74	37.087
880.55	7.746
884.358	10.357
888.164	71.524
891.969	16.355
895.771	5.073
899.572	30.63
903.371	46.087
907.168	46.469
910.963	99.768
914.757	96.97
918.548	79.119
922.338	109.242
926.126	80.321
929.912	92.356
933.697	70.342
937.479	119.215
941.26	40.7
945.039	82.718
948.816	65.259
952.591	75.395
956.365	152.476
960.136	167.647
963.906	116.214
967.674	58.741
971.441	189.232
975.205	168.687
978.968	201.107
982.729	172.184
986.488	215.408
990.245	306.891
994	568.686
997.754	575.823
1001.51	474.346
1005.26	394.572
1009	297.11
1012.75	253.719
1016.5	209.346
1020.24	180.736
1023.98	233.049
1027.72	296.647
1031.46	519.279
1035.19	545.346
1038.93	614.397
1042.66	630.2
1046.39	529.93
1050.12	775.743
1053.85	815.977
1057.57	699.273
1061.29	425.289
1065.02	206.59
1068.74	167.886
1072.45	229.349
1076.17	225.854
1079.88	286.369
1083.6	203.955
1087.31	237.583
1091.02	431.252
1094.72	571.082
1098.43	866.832
1102.13	1045.7
1105.84	1189.68
1109.54	1298.58
1113.24	1821.71
1116.93	3056.1
1120.63	5125.47
1124.32	7435.6
1128.01	6935.86
1131.7	4919.21
1135.39	4281.7
1139.08	4458.17
1142.76	3583.58
1146.45	2392.34
1150.13	1446.58
1153.81	949.249
1157.48	632.867
1161.16	495.867
1164.84	406.125
1168.51	319.49
1172.18	263.536
1175.85	216.034
1179.52	155.631
1183.18	165.216
1186.85	121.991
1190.51	121.405
1194.17	118.298
1197.83	125.905
1201.48	90.397
1205.14	101.517
1208.79	51.352
1212.44	49.196
1216.09	62.006
1219.74	31.398
1223.39	55.965
1227.03	150.427
1230.68	103.713
1234.32	56.36
1237.96	17.031
1241.6	51.574
1245.23	37.11
1248.87	76.466
1252.5	47.791
1256.13	134.214
1259.76	29.345
1263.39	19.988
1267.02	48.878
1270.64	10.773
1274.26	38.307
1277.88	44.752
1281.5	99.837
1285.12	32.195
1288.74	57.012
1292.35	19.587
1295.96	24.204
1299.57	0.566
1303.18	1.123
1306.79	56.064
1310.4	42.298
1314	91.18
1317.6	49.643
1321.2	116.737
1324.8	120.656
1328.4	76.381
1331.99	44.886
1335.59	5.832
1339.18	21.276
1342.77	16.287
1346.36	40.087
1349.95	43.71
1353.53	75.189
1357.12	95.853
1360.7	10.133
1364.28	94.266
1367.86	61.201
1371.44	24.329
1375.01	12.606
1378.59	39.997
1382.16	82.503
1385.73	167.76
1389.3	156.836
1392.87	80.998
1396.43	153.581
1399.99	105.603
1403.56	181.874
1407.12	26.084
1410.68	80.268
1414.23	124.168
1417.79	108.256
1421.34	78.939
1424.9	119.068
1428.45	61.021
1431.99	104.384
1435.54	102.058
1439.09	91.721
1442.63	74.171
1446.17	87.313
1449.71	60.913
1453.26	176.972
1456.79	93.812
1460.33	193.701
1463.86	132.133
1467.39	149.839
1470.92	177.231
1474.45	58.174
1477.98	145.194
1481.51	77.758
1485.03	42.459
1488.56	66.783
1492.08	60.888
1495.6	3.803
1499.11	40.589
1502.63	92.81
1506.14	76.776
1509.66	187.16
1513.17	78.146
1516.68	0
