Measurement: Raman, 514 nm, ccw, Raman Data Processed
Mineral: Microcline
Rruff sample: R050150
Ideal chemistry: KAlSi_3_O_8_
Locality: Crystal Peak area, Park/Teller Counties, Colorado, USA
Source: Dave Bunk Minerals
Description: Pale blue prismatic crystals
Measured chemistry: (K_0.95_Na_0.05_)_Î£=1_Al_1.00_Si_3.00_O_8_
Pin_id: L01538
Orientation: Laser parallel to c* (0 0 1). Fiducial mark perpendicular to laser is parallel to a [1 0 0]
Raman shift (cm-1)	intensity
131.413	0
136.373	1414.18
141.329	4269
146.282	5610.56
151.232	12351.7
156.179	21295.5
161.122	13790.2
166.062	4721.94
170.999	2853.3
175.933	5571.16
180.864	5264.69
185.791	2755.1
190.715	3007.86
195.636	5559.31
200.554	5619.95
205.469	1745.73
210.38	182.23
215.288	243.117
220.194	348.934
225.096	207.781
229.994	210.529
234.89	71.1846
239.783	297.112
244.672	1134.43
249.558	3428.94
254.441	7718.25
259.321	11051.4
264.198	12175
269.072	9939.42
273.943	8667.42
278.81	14286
283.675	22353.7
288.536	15896.3
293.395	5856.5
298.25	2642.63
303.102	1595.82
307.951	1010
312.797	705.916
317.64	683.948
322.48	1028.41
327.317	1977.44
332.151	2485.32
336.982	1561.29
341.81	858.773
346.634	717.678
351.456	849.726
356.275	1202.61
361.091	807.477
365.903	1040.91
370.713	1589.08
375.52	862.248
380.323	73.9434
385.124	12.8115
389.922	53.9844
394.717	333.085
399.508	1150.18
404.297	1925.04
409.083	1329.44
413.866	852.953
418.646	142.708
423.423	157.562
428.197	46.3262
432.968	136.073
437.736	569.097
442.502	1787.55
447.264	5070.55
452.024	10346.2
456.78	9429.76
461.534	5376.86
466.284	6376.57
471.032	12239.9
475.777	17445.9
480.519	11903.7
485.258	7834.46
489.995	4154.23
494.728	3336.62
499.459	5579.89
504.186	14303.3
508.911	32906.1
513.633	47110.5
518.352	25442.9
523.069	9689.44
527.782	4559.48
532.493	2388.82
537.2	1536.51
541.905	1016.43
546.608	742.347
551.307	511.813
556.003	516.218
560.697	442.898
565.388	666.738
570.076	302.057
574.761	658.8
579.444	1286.52
584.124	1402.95
588.801	738.733
593.475	77.9004
598.146	28.5508
602.815	16.4102
607.481	39.9141
612.144	95.3203
616.805	156.269
621.462	430.554
626.117	723.114
630.769	937.036
635.419	974.429
640.066	1133.18
644.71	1651.15
649.351	2426.41
653.99	2373.22
658.625	1672.8
663.259	722.8
667.889	528.537
672.517	139.383
677.142	15.7871
681.765	37.4766
686.384	21.2734
691.001	90.6885
695.616	82.2656
700.228	67.4531
704.837	21.1016
709.443	115.818
714.047	70.9727
718.648	28.5781
723.246	164.755
727.842	358.097
732.435	738.711
737.026	1420.58
741.614	2984.01
746.199	5417.49
750.782	5620.72
755.362	3442.68
759.94	1722.65
764.514	1231.57
769.087	1152.74
773.656	752.474
778.224	527.003
782.788	426.761
787.35	540.678
791.909	825.248
796.466	888.352
801.02	1246.16
805.572	2710.47
810.121	5343.45
814.668	5769.45
819.212	2649.78
823.753	929.049
828.292	424.791
832.829	251.102
837.362	297.538
841.894	78.7305
846.423	96.7832
850.949	3.62012
855.473	33.6055
859.994	55.209
864.513	159.477
869.029	74.1162
873.543	18.6035
878.054	86.2393
882.563	196.759
887.069	106.75
891.573	10.793
896.074	28.1816
900.573	12.8643
905.069	22.7969
909.563	35.9902
914.055	106.413
918.544	43.4033
923.03	48.2451
927.514	96.6572
931.996	124.865
936.475	118.845
940.952	155.632
945.426	25.2471
949.898	166.522
954.368	206.031
958.835	254.567
963.299	367.26
967.762	214.094
972.221	617.144
976.679	559.129
981.134	1042.96
985.587	1701.44
990.037	3290.07
994.485	4163.77
998.93	3041.05
1003.37	2332.51
1007.81	1437.42
1012.25	912.649
1016.69	629.849
1021.12	584.044
1025.55	665.783
1029.98	594.454
1034.41	1034.39
1038.83	1150.41
1043.26	895.461
1047.67	580.639
1052.09	488.882
1056.51	147.046
1060.92	359.331
1065.33	232.707
1069.74	214.129
1074.14	96.8057
1078.55	220.423
1082.95	393.394
1087.35	482.476
1091.74	1010.79
1096.14	1562.38
1100.53	1501.37
1104.92	1256.28
1109.31	1125.92
1113.69	1587.29
1118.07	3028.59
1122.45	4254.11
1126.83	3953.81
1131.21	3547.59
1135.58	4385.52
1139.95	4358.24
1144.32	2584.34
1148.69	1640.84
1153.05	764.354
1157.42	665.291
1161.78	490.82
1166.13	277.389
1170.49	147.109
1174.85	326.482
1179.2	211.441
1183.55	140.557
1187.89	25.7129
1192.24	256.898
1196.58	94.1055
1200.92	248.666
1205.26	159.887
1209.59	92.168
1213.93	72.3184
1218.26	106.514
1222.59	6.31445
1226.91	147.91
1231.24	6.78516
1235.56	65.1777
1239.88	49.1074
1244.2	2.78906
1248.52	58.1406
1252.83	115.287
1257.14	318.414
1261.45	95.4766
1265.76	82.9434
1270.07	32.4824
1274.37	73.9316
1278.67	45.1191
1282.97	92.0332
1287.27	197.555
1291.57	48.8262
1295.86	67.9375
1300.15	118.699
1304.44	144.469
1308.72	174.062
1313.01	264.539
1317.29	155.9
1321.57	215.15
1325.85	182.283
1330.12	202.295
1334.4	124.689
1338.67	174.42
1342.94	257.998
1347.21	207.445
1351.47	73.8613
1355.74	160.019
1360	306.129
1364.26	309.025
1368.52	306.674
1372.77	110.519
1377.03	99.1856
1381.28	167.832
1385.53	24.7012
1389.77	184.828
1394.02	243.281
1398.26	24.291
1402.5	145.168
1406.74	417.779
1410.98	102.217
1415.21	249.713
1419.45	136.799
1423.68	22.0703
1427.91	262.818
1432.13	263.201
1436.36	200.123
1440.58	240.287
1444.8	216.08
1449.02	276.275
1453.24	88.6074
1457.46	250.713
1461.67	216.477
1465.88	136.383
1470.09	108.953
1474.3	105.773
1478.5	79.1172
1482.71	169.836
1486.91	75.4316
1491.11	147.875
1495.3	119.678
1499.5	186.768
1503.69	79.0977
1507.88	284.481
1512.08	110.963
1516.26	299.445
1520.45	204.56
1524.63	291.584
1528.81	228.789
1532.99	150.106
1537.17	80.5098
1541.35	36.332
1545.52	47.1484
1549.7	316.418
1553.87	175.647
1558.04	107.006
1562.2	171.684
