Measurement: Raman, 514 nm, ccw, Raman Data Processed
Mineral: Microcline
Rruff sample: R050150
Ideal chemistry: KAlSi_3_O_8_
Locality: Crystal Peak area, Park/Teller Counties, Colorado, USA
Source: Dave Bunk Minerals
Description: Pale blue prismatic crystals
Measured chemistry: (K_0.95_Na_0.05_)_Î£=1_Al_1.00_Si_3.00_O_8_
Pin_id: L00961
Orientation: Laser parallel to b* (0 1 0). Fiducial mark perpendicular to laser is parallel to c [0 0 1]
Raman shift (cm-1)	intensity
131.492	0
136.445	2058.49
141.395	8169.41
146.343	11196.2
151.287	19366.4
156.228	28800.8
161.166	19567.8
166.1	6411.17
171.032	2440.1
175.961	2567.53
180.887	2922.29
185.809	1764.34
190.729	1670.88
195.645	2873.62
200.559	3530.75
205.469	1104.95
210.376	11.0332
215.281	286.966
220.182	415.099
225.08	168.413
229.976	145.389
234.868	48.4609
239.757	308.766
244.643	1209.06
249.527	3759.42
254.407	8742.4
259.284	12631.4
264.158	10180.7
269.029	8686.16
273.898	8521.97
278.763	15088.2
283.625	26163.7
288.485	20899.4
293.341	8002.48
298.194	4071.68
303.045	2267.71
307.892	1304.18
312.736	1030
317.578	1006.87
322.417	1701.09
327.252	3223.36
332.085	4844.14
336.914	2549.82
341.741	1261.53
346.565	912.875
351.386	1328.11
356.204	1637.82
361.019	1332.94
365.831	1455.05
370.64	2289.76
375.447	1657.91
380.25	483.662
385.05	98.1484
389.848	116.25
394.643	167.148
399.434	733.062
404.223	969.949
409.009	440.682
413.792	291.559
418.573	111.273
423.35	317.344
428.124	121.695
432.896	111.199
437.665	118.361
442.431	1135.56
447.194	2976.53
451.954	6340.4
456.711	6237.59
461.465	3960.51
466.217	5864.04
470.966	11490.2
475.712	17848.2
480.455	12277.3
485.195	8633.36
489.932	4449.35
494.667	3427.1
499.399	5081.76
504.128	12805.1
508.854	29264.9
513.577	44228.1
518.297	24541.4
523.015	9024.18
527.73	4179.1
532.442	2271.7
537.151	1351.8
541.858	932.299
546.561	738.006
551.262	453.414
555.96	441.406
560.656	352.1
565.348	318.098
570.038	174.549
574.725	473.856
579.409	680.744
584.091	765.697
588.769	349.611
593.445	175.004
598.119	46.8516
602.789	248.228
607.457	144.994
612.122	61.084
616.784	93.6094
621.443	564.635
626.1	952.041
630.754	1130.94
635.405	765.266
640.054	1141.94
644.7	1544.02
649.343	2369.44
653.983	2343.4
658.621	1637.23
663.256	768.164
667.888	387.273
672.518	84.6699
677.144	185.088
681.769	107.332
686.39	27.5762
691.009	39.2988
695.625	119.549
700.238	27.248
704.849	154.629
709.457	127.311
714.062	232.631
718.665	27.4805
723.265	138.32
727.863	167.883
732.457	344.734
737.049	695
741.639	1580.91
746.225	2867.96
750.81	2847.02
755.391	1665.18
759.97	823.256
764.546	1095.19
769.12	915.584
773.69	458.125
778.259	480.369
782.824	355.539
787.387	305.91
791.948	421.512
796.506	380.853
801.061	595.945
805.613	1258.78
810.163	2686.36
814.711	3178.47
819.255	1214.53
823.797	731.729
828.337	250.863
832.874	191.869
837.408	468.041
841.94	193.008
846.469	218.375
850.996	103.436
855.52	2.90625
860.041	202.279
864.56	33.7832
869.077	3.14648
873.59	16.9082
878.101	31.3145
882.61	68.5781
887.116	6.52539
891.62	107.981
896.121	100.969
900.619	265.639
905.115	119.879
909.608	11.1211
914.099	137.576
918.587	33.5137
923.073	31.9023
927.556	75.3984
932.037	100.051
936.515	11.6035
940.991	71.0625
945.464	209.566
949.934	291.123
954.403	379.699
958.868	429.262
963.331	122.877
967.792	464.654
972.25	167.461
976.705	571.688
981.158	511.15
985.609	844.354
990.057	1498.47
994.503	2191.33
998.946	2502.83
1003.39	2569.95
1007.83	1897.05
1012.26	1136.65
1016.69	849.01
1021.12	1056.3
1025.55	762.289
1029.98	901.953
1034.4	1412.42
1038.82	1684.62
1043.24	1253.31
1047.66	837.008
1052.07	847.486
1056.48	457.695
1060.89	449.664
1065.3	504.883
1069.7	160.352
1074.1	341.223
1078.5	312.287
1082.9	363.535
1087.29	455.199
1091.68	471.832
1096.07	705.83
1100.46	940.156
1104.84	869.852
1109.23	1326.88
1113.61	1948.19
1117.98	3772.13
1122.36	5261.11
1126.73	5010.54
1131.1	4172.95
1135.47	4843.99
1139.83	4802.48
1144.19	2789.73
1148.56	1541.79
1152.91	1009.58
1157.27	582.803
1161.62	447.039
1165.97	302.66
1170.32	347.519
1174.67	321.625
1179.01	216.041
1183.35	11.7988
1187.69	94.9258
1192.03	389.256
1196.36	20.8906
1200.7	239.111
1205.03	73.2715
1209.35	41.6797
1213.68	203.832
1218	222.166
1222.32	265.678
1226.64	84.3144
1230.95	167.066
1235.27	107.09
1239.58	244.191
1243.89	23.457
1248.19	147.812
1252.5	22.9473
1256.8	243.965
1261.1	97.0684
1265.4	114.219
1269.69	42.4902
1273.98	100.68
1278.27	183.746
1282.56	301.844
1286.85	33.0312
1291.13	94.9766
1295.41	77.8906
1299.69	178.852
1303.97	211.883
1308.24	377.977
1312.51	470.066
1316.78	444.277
1321.05	493.793
1325.31	366.102
1329.58	224.457
1333.84	299.836
1338.1	282.062
1342.35	369.481
1346.61	439.934
1350.86	372.391
1355.11	405.941
1359.35	399.484
1363.6	219.055
1367.84	360.527
1372.08	469.203
1376.32	196.621
1380.55	310.043
1384.79	482.703
1389.02	227.566
1393.25	349.289
1397.47	186.102
1401.7	222.59
1405.92	133.688
1410.14	207.258
1414.36	553.609
1418.57	51.2305
1422.79	129.758
1427	386.68
1431.21	338.367
1435.41	272.906
1439.62	75.6602
1443.82	101.746
1448.02	257.695
1452.22	194.84
1456.41	321.066
1460.61	433.344
1464.8	26.8086
1468.99	400.902
1473.17	230.297
1477.36	314.754
1481.54	196.863
1485.72	351.602
1489.9	25.4297
1494.08	463.25
1498.25	227.305
1502.42	344.688
1506.59	329.656
1510.76	160.453
1514.93	144.617
1519.09	391.426
1523.25	396.957
1527.41	416.781
1531.57	21.7734
1535.72	288.473
1539.87	311.312
1544.02	262.34
1548.17	266.402
1552.32	312.57
1556.46	335.121
1560.6	15.1641
