Measurement: Raman, 514 nm, ccw, Raman Data Processed
Mineral: Microcline
Rruff sample: R050193
Ideal chemistry: KAlSi_3_O_8_
Locality: Devil's Head, Douglas County, Colorado, USA
Source: Dave Bunk Minerals
Description: White to colorless heterogeneous mixture of K and Na feldspar in a cluster of crystals. Crystal structure determined, presented below. This sample is known as an intermediate microcline in the literature.
Measured chemistry: (K_0.929_Na_0.071_)(Al_1.005_Si_2.994_Fe_0.001_)O_7.993_F_0.007_  ; Light Band :  (Na_0.973_K_0.007_Ca_0.020_)(Al_1.020_Si_2.980_)O_8_ ; Dark Band
Pin_id: L00422
Orientation: Laser parallel to b* (0 1 0). Fiducial mark perpendicular to laser is parallel to c [0 0 1]
Raman shift (cm-1)	intensity
130.23	0
135.163	173.521
140.092	768.093
145.019	1536.54
149.944	2580.72
154.866	3411.1
159.785	3705.8
164.702	2937.29
169.616	1881.7
174.528	1677.6
179.437	1953.31
184.343	2200.85
189.247	1732.08
194.148	1097.48
199.046	1077.52
203.942	1102.93
208.835	989.371
213.726	547.764
218.614	55.001
223.5	11.8262
228.382	120.907
233.263	126.459
238.14	47.0185
243.015	142.428
247.888	407.938
252.758	701.581
257.625	851.939
262.49	879.685
267.352	1098.08
272.211	1363.74
277.068	1810.75
281.922	3050.68
286.773	3816.43
291.622	3554.64
296.469	1797.83
301.312	842.27
306.154	495.489
310.992	323.294
315.828	143.815
320.661	426.121
325.492	706.891
330.32	698.361
335.145	265.956
339.968	113.661
344.789	114.427
349.606	105.228
354.421	130.054
359.234	98.8706
364.043	79.6182
368.851	137.153
373.655	43.7568
378.457	52.1313
383.256	54.1177
388.053	29.0054
392.847	51.8892
397.639	324.703
402.428	524.346
407.214	744.7
411.998	591.229
416.779	235.326
421.557	59.1094
426.333	95.897
431.106	62.2685
435.877	97.1484
440.645	84.8442
445.41	382.069
450.173	604.515
454.933	768.957
459.691	877.46
464.446	1230.55
469.198	2255.48
473.948	3768.32
478.695	4409.09
483.439	2621.81
488.181	1357.45
492.92	1174.03
497.657	2447.54
502.391	5052.98
507.122	7650.88
511.851	6498.2
516.577	3528.14
521.301	1611.98
526.022	756.339
530.74	501.139
535.456	361.906
540.169	211.921
544.879	83.6172
549.587	131.938
554.292	24.1455
558.995	164.541
563.695	98.0947
568.392	184.647
573.087	88.8008
577.779	254.38
582.469	176.823
587.156	58.9414
591.84	130.552
596.522	254.295
601.201	57.6289
605.877	163.893
610.551	102.083
615.222	122.221
619.891	237.369
624.557	158.485
629.22	283.559
633.881	235.553
638.539	198.495
643.195	252.462
647.848	272.396
652.498	322.241
657.145	223.837
661.791	169.033
666.433	196.92
671.073	51.8809
675.71	32.8467
680.345	157.663
684.977	47.3057
689.606	84.2764
694.233	81.5957
698.857	12.1523
703.478	24.1465
708.097	103.029
712.714	118.798
717.327	22.1699
721.938	65.4688
726.547	201.212
731.153	49.7803
735.756	188.39
740.356	213.643
744.954	275.897
749.55	471.438
754.142	413.726
758.733	332.158
763.32	593.849
767.905	549.656
772.487	404.443
777.067	349.602
781.644	269
786.218	194.177
790.79	202.125
795.359	49.4746
799.926	295.279
804.49	419.721
809.051	572.062
813.61	768.072
818.166	702.601
822.72	209.136
827.271	224.985
831.819	232.51
836.365	127.741
840.908	52.7285
845.448	265.11
849.986	63.3379
854.521	66.9414
859.054	249.566
863.584	129.257
868.111	64.7051
872.636	14.7412
877.158	68.6494
881.677	102.843
886.194	100.844
890.709	1.44531
895.22	63.9385
899.729	82.0478
904.236	12.9707
908.74	69.6904
913.241	39.8428
917.739	119.339
922.235	91.376
926.729	58.7783
931.219	236.636
935.708	4.17773
940.193	103.461
944.676	198.457
949.156	90.2695
953.634	136.941
958.109	175.471
962.582	166.872
967.051	274.795
971.519	309.038
975.983	461.478
980.445	432.644
984.905	289.786
989.362	200.365
993.816	237.906
998.267	346.891
1002.72	280.253
1007.16	452.848
1011.61	318.554
1016.05	272.873
1020.49	381.479
1024.92	410.178
1029.36	490.096
1033.79	432.885
1038.21	382.808
1042.64	384.94
1047.06	128.158
1051.48	138.539
1055.9	39.583
1060.32	36.5088
1064.73	204.632
1069.14	117.911
1073.55	181.161
1077.95	221.385
1082.35	336.648
1086.75	351.066
1091.15	756.74
1095.54	1233.61
1099.93	1418.01
1104.32	1124.34
1108.71	952.644
1113.09	750.064
1117.47	898.345
1121.85	829.83
1126.23	737.279
1130.6	631.212
1134.97	473.412
1139.34	326.565
1143.7	380.562
1148.07	329.589
1152.43	212.579
1156.79	105.6
1161.14	155.592
1165.49	214.494
1169.84	66.3164
1174.19	45.0869
1178.54	73.1934
1182.88	110.303
1187.22	102.401
1191.55	117.231
1195.89	6.1084
1200.22	18.001
1204.55	23.9346
1208.87	136.87
1213.2	39.7148
1217.52	112.832
1221.84	63.544
1226.15	110.522
1230.47	126.457
1234.78	95.209
1239.09	185.599
1243.39	89.6074
1247.69	73.9248
1251.99	199.78
1256.29	25.9004
1260.59	188.835
1264.88	63.6103
1269.17	37.2002
1273.46	165.703
1277.74	205.684
1282.02	67.0137
1286.3	356.025
1290.58	179.346
1294.86	136.752
1299.13	288.885
1303.39	144.135
1307.66	377.295
1311.93	322.012
1316.19	328.748
1320.45	281.596
1324.7	372.947
1328.96	283.365
1333.21	359.791
1337.45	234.572
1341.7	345.525
1345.94	311.596
1350.18	247.93
1354.42	213.246
1358.66	100.75
1362.89	358.168
1367.12	115.488
1371.35	352.625
1375.57	45.123
1379.8	131.807
1384.02	143.568
1388.23	67.1699
1392.45	82.0859
1396.66	82.1016
1400.87	1.52539
1405.08	40.7305
1409.28	219.938
1413.48	133.238
1417.68	162.566
1421.88	164.986
1426.07	172.539
1430.26	234.934
1434.45	241.027
1438.64	82.332
1442.82	126.402
1447	330.805
1451.18	162.328
1455.35	415.398
1459.53	198.578
1463.7	97.5488
1467.87	137.055
1472.03	208.996
1476.19	305.094
1480.35	138.553
1484.51	112.268
1488.67	102.766
1492.82	265.051
1496.97	55.6074
1501.12	31.2324
1505.26	310.865
1509.4	24.5664
1513.54	167.32
1517.68	135.57
1521.81	141.744
1525.94	113.43
1530.07	147.588
1534.2	291.807
1538.32	413.248
1542.44	232.467
1546.56	74.916
1550.68	10.6758
1554.79	239.789
1558.9	277.506
1563.01	0
