Measurement: Raman, 514 nm, ccw, Raman Data Processed
Mineral: Microcline
Rruff sample: R050150
Ideal chemistry: KAlSi_3_O_8_
Locality: Crystal Peak area, Park/Teller Counties, Colorado, USA
Source: Dave Bunk Minerals
Description: Pale blue prismatic crystals
Measured chemistry: (K_0.95_Na_0.05_)_Î£=1_Al_1.00_Si_3.00_O_8_
Pin_id: L01075
Orientation: Laser parallel to (0 1 1). Fiducial mark perpendicular to laser is parallel to a [1 0 0]
Raman shift (cm-1)	intensity
131.492	0
136.445	452.513
141.395	3390.59
146.343	9254.38
151.287	10884.5
156.228	8587.52
161.166	4606.57
166.1	1970.84
171.032	2532.94
175.961	6921.09
180.887	5867.48
185.809	2674.21
190.729	2135.86
195.645	4082.25
200.559	3894.13
205.469	1303.12
210.376	122.095
215.281	79.5303
220.182	136.461
225.08	81.4658
229.976	86.835
234.868	92.9609
239.757	129.936
244.643	515.836
249.527	1646.54
254.407	4709.71
259.284	7366.36
264.158	8254.94
269.029	6036.28
273.898	4192.13
278.763	6169.95
283.625	10399.6
288.485	8215.66
293.341	4128.14
298.194	2572.5
303.045	1336.84
307.892	513.989
312.736	183.69
317.578	262.759
322.417	536.414
327.252	1665.31
332.085	2430.18
336.914	1168.77
341.741	423.479
346.565	413.288
351.386	593.166
356.204	929.898
361.019	914.642
365.831	1054.03
370.64	2159.11
375.447	1654.27
380.25	299.309
385.05	47.001
389.848	65.5381
394.643	677.173
399.434	2376.89
404.223	2842.75
409.009	1709.53
413.792	1198.52
418.573	215.772
423.35	150.698
428.124	81.9199
432.896	81.0127
437.665	395.278
442.431	1227.06
447.194	4024.4
451.954	8787.1
456.711	7442.35
461.465	4550.98
466.217	6540.09
470.966	14441.9
475.712	20378.9
480.455	12905.2
485.195	7015.08
489.932	3556.91
494.667	2741.38
499.399	4198
504.128	10287.1
508.854	26136.4
513.577	37378
518.297	20269.8
523.015	7628.52
527.73	3529.28
532.442	2019.06
537.151	1203.31
541.858	765.466
546.561	696.6
551.262	384.988
555.96	252.774
560.656	317.88
565.348	51.1562
570.038	155.889
574.725	332.048
579.409	549.392
584.091	527.391
588.769	247.166
593.445	16.8828
598.119	92.8652
602.789	41.8242
607.457	84.0635
612.122	2.37598
616.784	93.5996
621.443	276.925
626.1	550.036
630.754	763.466
635.405	895.135
640.054	1142.07
644.7	1693.16
649.343	2212.34
653.983	2162.66
658.621	1635.96
663.256	870.276
667.888	435.623
672.518	207.196
677.144	84.7764
681.769	197.326
686.39	45.7842
691.009	6.81445
695.625	22.1924
700.238	9.98535
704.849	241.752
709.457	177.32
714.062	350.923
718.665	26.8516
723.265	54.375
727.863	208.719
732.457	498.671
737.049	887.581
741.639	1906.98
746.225	3803.41
750.81	3949.75
755.391	2250.53
759.97	1064.58
764.546	850.091
769.12	670.657
773.69	284.201
778.259	282.348
782.824	195.046
787.387	99.25
791.948	266.849
796.506	330.247
801.061	525.445
805.613	734.441
810.163	1694.23
814.711	1901.82
819.255	839.194
823.797	365.506
828.337	280.184
832.874	92.7119
837.408	257.404
841.94	125.655
846.469	75.5879
850.996	220.023
855.52	115.588
860.041	42.5957
864.56	36.8369
869.077	198.082
873.59	34.2197
878.101	34.7822
882.61	65.8076
887.116	89.0273
891.62	197.175
896.121	58.9639
900.619	92.4912
905.115	80.5654
909.608	36.6572
914.099	5.27148
918.587	33.9473
923.073	96.0478
927.556	162.988
932.037	104.889
936.515	204.707
940.991	108.506
945.464	198.293
949.934	444.019
954.403	189.691
958.868	156.352
963.331	205.715
967.792	343.301
972.25	368.953
976.705	282.914
981.158	435.236
985.609	948.793
990.057	1728.06
994.503	2207.61
998.946	2039.51
1003.39	1929.18
1007.83	1121.04
1012.26	728.488
1016.69	705.242
1021.12	651.178
1025.55	770.342
1029.98	959.389
1034.4	873.396
1038.82	1025.42
1043.24	783.088
1047.66	960.09
1052.07	1167.13
1056.48	798.928
1060.89	268.312
1065.3	370.873
1069.7	213.648
1074.1	65.2637
1078.5	360.383
1082.9	257.688
1087.29	396.184
1091.68	717.873
1096.07	949.326
1100.46	1140.64
1104.84	973.67
1109.23	1443.07
1113.61	2445.51
1117.98	4835.31
1122.36	7416.86
1126.73	6115.76
1131.1	4341.48
1135.47	4636.74
1139.83	4264.23
1144.19	2553.05
1148.56	1351.06
1152.91	935.133
1157.27	669.594
1161.62	501.588
1165.97	253.848
1170.32	417.391
1174.67	169.412
1179.01	232.478
1183.35	239.699
1187.69	214.07
1192.03	55.3633
1196.36	17.2168
1200.7	79.0215
1205.03	155.775
1209.35	26.5977
1213.68	92.5371
1218	166.586
1222.32	140.746
1226.64	7.99023
1230.95	16.9141
1235.27	18.9023
1239.58	114.357
1243.89	25.3711
1248.19	126.236
1252.5	98.7012
1256.8	247.103
1261.1	32.0605
1265.4	145.807
1269.69	130.603
1273.98	99.3769
1278.27	99.1172
1282.56	214.912
1286.85	29.75
1291.13	93.5801
1295.41	37.4258
1299.69	94.293
1303.97	192.129
1308.24	48.8594
1312.51	177.559
1316.78	102.225
1321.05	161.889
1325.31	283.785
1329.58	176.397
1333.84	309.34
1338.1	307.932
1342.35	332.443
1346.61	171.07
1350.86	247.443
1355.11	140.19
1359.35	284.644
1363.6	177.002
1367.84	279.18
1372.08	212.144
1376.32	91.5938
1380.55	22.7852
1384.79	56.8379
1389.02	260.459
1393.25	337.785
1397.47	190.736
1401.7	138.795
1405.92	27.7949
1410.14	6.59766
1414.36	301.514
1418.57	259.353
1422.79	118.176
1427	247.635
1431.21	121.4
1435.41	325.875
1439.62	136.473
1443.82	334.565
1448.02	313.514
1452.22	144.586
1456.41	311.565
1460.61	134.457
1464.8	109.043
1468.99	76.0019
1473.17	254.867
1477.36	209.553
1481.54	46.041
1485.72	219.691
1489.9	184.531
1494.08	188.965
1498.25	22.4023
1502.42	94.1641
1506.59	13.9277
1510.76	243.809
1514.93	167.463
1519.09	167.121
1523.25	180.938
1527.41	231.031
1531.57	37.5996
1535.72	128.293
1539.87	118.199
1544.02	85.0019
1548.17	4.30078
1552.32	264.42
1556.46	13.041
1560.6	4.77148
