Measurement: Raman, 514 nm, ccw, Raman Data Processed
Mineral: Microcline
Rruff sample: R050193
Ideal chemistry: KAlSi_3_O_8_
Locality: Devil's Head, Douglas County, Colorado, USA
Source: Dave Bunk Minerals
Description: White to colorless heterogeneous mixture of K and Na feldspar in a cluster of crystals. Crystal structure determined, presented below. This sample is known as an intermediate microcline in the literature.
Measured chemistry: (K_0.929_Na_0.071_)(Al_1.005_Si_2.994_Fe_0.001_)O_7.993_F_0.007_  ; Light Band :  (Na_0.973_K_0.007_Ca_0.020_)(Al_1.020_Si_2.980_)O_8_ ; Dark Band
Pin_id: L01042
Orientation: Laser parallel to a* (1 0 0). Fiducial mark perpendicular to laser is parallel to -b [0 -1 0]
Raman shift (cm-1)	intensity
142.556	0
147.482	307.215
152.405	749.281
157.326	690.027
162.244	359.309
167.159	470.674
172.072	247.768
176.982	588.248
181.89	460.391
186.795	185.844
191.697	206.625
196.597	405.453
201.494	221.549
206.389	133.852
211.281	123.934
216.17	1.93164
221.057	161.426
225.941	51.2598
230.823	71.793
235.702	113.092
240.578	145.143
245.452	173.555
250.323	311.619
255.192	581.109
260.058	863.693
264.921	881.644
269.782	798.557
274.64	878.623
279.495	1124.38
284.348	1195.32
289.198	864.262
294.046	604.85
298.891	277.553
303.733	106.391
308.573	147.518
313.41	286.248
318.245	319.688
323.077	297.773
327.906	104.359
332.733	180.26
337.557	40.3711
342.379	50.9707
347.198	76.041
352.014	208.551
356.828	40.5352
361.639	102.9
366.447	205.422
371.253	395.713
376.056	229.471
380.857	82.4434
385.655	9.57812
390.451	29.9785
395.243	17.623
400.034	428.795
404.821	278.147
409.606	278.859
414.389	198.65
419.168	87.2227
423.945	100.051
428.72	65.707
433.492	93.9356
438.261	90.5019
443.028	320.281
447.792	705.564
452.553	1148.64
457.312	1001.49
462.068	806.561
466.822	1071.67
471.573	2009.51
476.321	2814.54
481.067	1675.91
485.81	1017.98
490.551	862.648
495.289	651.174
500.024	1336.31
504.757	2427.54
509.487	4499.58
514.214	4939.11
518.939	2396.86
523.661	1365.87
528.381	811.648
533.098	428.535
537.812	30.9121
542.524	307.67
547.233	304.828
551.94	154.795
556.644	246.08
561.345	133.797
566.044	32.3359
570.74	308.328
575.433	355.387
580.124	189.932
584.812	20.6328
589.498	30.4512
594.181	29.3691
598.861	110.103
603.539	163.775
608.214	300.394
612.887	38.002
617.557	55.3125
622.224	60.5977
626.889	59.834
631.551	186.018
636.21	239.211
640.867	137.893
645.521	242.932
650.173	25.3594
654.822	42.0273
659.468	320.56
664.112	223.904
668.753	202.119
673.392	126.228
678.028	62.959
682.661	246.519
687.292	23.7676
691.92	131.191
696.545	201.199
701.168	16.9902
705.788	248.611
710.406	161.055
715.021	297.273
719.633	181.586
724.243	140.174
728.85	123.424
733.455	276.691
738.056	234.508
742.656	412.82
747.252	734.426
751.846	686.99
756.438	531.174
761.027	563.352
765.613	338.783
770.196	237.738
774.777	149.025
779.356	241.68
783.932	291.465
788.505	411.541
793.075	159.092
797.643	471.92
802.208	504.748
806.771	420.582
811.331	333.912
815.888	682.479
820.443	300.334
824.995	258.957
829.545	324.818
834.092	150.912
838.636	264.098
843.178	32.3164
847.717	8.51172
852.254	80.1289
856.788	19.0273
861.319	498.508
865.848	413.328
870.374	258.992
874.897	281.957
879.418	58.293
883.936	73.1758
888.452	205.137
892.965	379.781
897.475	116.852
901.983	110.285
906.488	17.1992
910.99	70.5
915.49	213.457
919.988	107.367
924.482	196.891
928.974	149.039
933.464	160.832
937.951	211.086
942.435	146.996
946.917	188.269
951.396	197.68
955.872	42.2031
960.346	89.7734
964.817	284.844
969.285	81.5586
973.751	295.312
978.215	229.18
982.675	172.481
987.134	330.789
991.589	327.461
996.042	489.953
1000.49	344.551
1004.94	335.871
1009.38	209.789
1013.83	148.738
1018.27	252.008
1022.7	268.051
1027.14	534.262
1031.57	16.3398
1036	420.348
1040.43	186.672
1044.85	240.906
1049.27	267.215
1053.69	523.398
1058.11	384.336
1062.52	154.828
1066.93	122.09
1071.34	73.9492
1075.75	224.242
1080.15	86.6523
1084.55	248.148
1088.95	157.031
1093.35	419.477
1097.74	413.094
1102.13	474.926
1106.52	473.481
1110.9	756.578
1115.28	453.41
1119.66	731.547
1124.04	1048.22
1128.41	785.199
1132.79	808.531
1137.16	490.543
1141.52	787.953
1145.89	574.168
1150.25	298.023
1154.61	66.793
1158.96	74.9336
1163.32	284.051
1167.67	368.445
1172.02	308.527
1176.36	372.75
1180.71	12.957
1185.05	74.0273
1189.38	316.133
1193.72	119.367
1198.05	387.316
1202.38	190.965
1206.71	51.0273
1211.04	115.019
1215.36	237.125
1219.68	196.953
1224	163.481
1228.31	126.125
1232.62	530.578
1236.93	345.836
1241.24	52.8789
1245.54	230.668
1249.84	62.457
1254.14	18.2539
1258.44	36.7266
1262.73	36.0352
1267.03	98.3828
1271.31	88.25
1275.6	81.4531
1279.88	374.309
1284.16	131.438
1288.44	28.6133
1292.72	456.121
1296.99	123.977
1301.26	114.879
1305.53	313.457
1309.79	266.367
1314.06	530.059
1318.32	493.582
1322.57	298.328
1326.83	185.586
1331.08	569.613
1335.33	310.797
1339.58	299.148
1343.82	15.1484
1348.06	111.016
1352.3	487.996
1356.54	432.012
1360.77	299.668
1365.01	308.805
1369.23	207.117
1373.46	94.8438
1377.68	206.644
1381.9	317.621
1386.12	66.418
1390.34	504.164
1394.55	455.672
1398.76	454.383
1402.97	276.82
1407.18	299.102
1411.38	200.43
1415.58	426.926
1419.78	465.434
1423.97	595.293
1428.17	242.785
1432.36	367.598
1436.54	469.742
1440.73	487.848
1444.91	409.086
1449.09	304.527
1453.27	182.144
1457.44	377.121
1461.61	381.801
1465.78	646.449
1469.95	93.8398
1474.11	72.6797
1478.27	567.066
1482.43	133.082
1486.59	397.438
1490.74	333.336
1494.89	420.387
1499.04	483.43
1503.19	525.231
1507.33	668.168
1511.47	227.324
1515.61	430.953
1519.75	16.0547
1523.88	469.84
1528.01	551.516
1532.14	330.617
1536.26	296.594
1540.38	663.777
1544.51	309.07
1548.62	380.195
1552.74	126.887
1556.85	3.11719
1560.96	0.503906
