Measurement: Raman, 514 nm, ccw, Raman Data Processed
Mineral: Microcline
Rruff sample: R040154
Ideal chemistry: KAlSi_3_O_8_
Locality: Mitchell County, North Carolina, USA
Source: University of Arizona Mineral Museum
Description: White cleavage fragment with some perthitic character
Measured chemistry: (K_0.90_Na_0.09_Ba_0.01_)Al_1.00_(Si_2.99_Al_0.01_)_Î£=3_O_8_
Pin_id: L00158
Orientation: Laser parallel to b* (0 1 0). Fiducial mark perpendicular to laser is parallel to c [0 0 1]
Raman shift (cm-1)	intensity
80.823	0
85.009	41.134
89.193	1705.9
93.375	3046.27
97.554	2322.65
101.732	1813.48
105.908	1905.04
110.082	1102.79
114.254	715.976
118.424	1130.36
122.592	2737.61
126.758	4046.36
130.922	3707.07
135.083	2938.41
139.243	4150.81
143.401	8919.68
147.557	15005.5
151.711	14776.5
155.863	9413.36
160.013	5174.13
164.161	2893.52
168.308	1974.61
172.452	2627.43
176.594	3615.95
180.734	3279.79
184.872	1975.66
189.008	1395.51
193.143	2152.23
197.275	3124.96
201.405	2500.56
205.534	1166.07
209.66	401.277
213.784	2.444
217.907	159.744
222.027	149.662
226.146	153.193
230.263	120.39
234.377	92.865
238.49	67.041
242.601	95.799
246.709	620.513
250.816	2187.67
254.921	4438.68
259.024	5492.86
263.125	6316.48
267.224	6142.28
271.321	3986.6
275.416	3489.86
279.51	5930.49
283.601	9025.64
287.69	8379.01
291.778	5565.51
295.863	4065.12
299.947	2862.82
304.029	1415.59
308.108	541.409
312.186	36.226
316.262	107.817
320.336	18.484
324.408	341.694
328.478	1118.74
332.546	1235.95
336.612	355.327
340.677	2.833
344.739	17.724
348.799	124.593
352.858	827.929
356.915	1142.35
360.969	824.826
365.022	1216.94
369.073	2656.97
373.122	3192.14
377.169	1526.47
381.215	405.971
385.258	139.483
389.299	103.552
393.339	606.365
397.376	2467.11
401.412	5372.02
405.446	4213.67
409.478	2348.47
413.508	1580.56
417.536	447.848
421.562	91.754
425.586	25.496
429.609	18.388
433.629	51.041
437.648	366.971
441.665	822.611
445.68	2042.39
449.693	4789.19
453.704	6979.33
457.713	6020.04
461.721	5759.71
465.726	9518.33
469.73	20795.9
473.731	34027.9
477.731	28537.3
481.729	16097.4
485.725	9297.36
489.72	4932.92
493.712	3761.53
497.703	4358.19
501.691	7845.46
505.678	18221.9
509.663	38492.3
513.646	47522.9
517.627	27267.7
521.607	12097
525.584	6053.77
529.56	3536.53
533.534	2344.09
537.506	1658.05
541.476	1191.24
545.444	834.315
549.41	611.876
553.375	514.29
557.337	438.194
561.298	363.688
565.257	328.227
569.214	291.81
573.17	446.4
577.123	465.979
581.075	586.659
585.024	540.163
588.972	354.878
592.918	47.273
596.863	42.394
600.805	55.243
604.746	77.609
608.685	187.235
612.621	108.655
616.557	158.948
620.49	233.163
624.421	698.411
628.351	690.752
632.279	785.141
636.205	1090.14
640.129	1293.54
644.051	1848.05
647.972	2606.08
651.89	2739.76
655.807	2163.71
659.722	1317.54
663.636	809.473
667.547	339.647
671.457	124.154
675.365	113.238
679.271	22.462
683.175	87.173
687.077	15.945
690.978	2.639
694.877	59.55
698.774	85.583
702.669	166.635
706.562	393.234
710.454	552.499
714.344	648.877
718.232	553.08
722.118	329.425
726.002	375.207
729.885	447.839
733.766	572.091
737.645	844.345
741.522	1708.51
745.397	3607.18
749.271	4760.6
753.143	3155.86
757.013	1805.93
760.881	1141.88
764.748	792.612
768.613	683.324
772.476	488.215
776.337	327.509
780.196	274.987
784.054	182.253
787.91	200.306
791.764	83.129
795.616	159.709
799.467	120.12
803.316	297.145
807.163	332.829
811.008	312.244
814.851	400.452
818.693	236.95
822.533	216.235
826.371	219.802
830.208	89.046
834.042	28.079
837.875	70.037
841.706	105.275
845.536	53.869
849.363	62.162
853.189	16.188
857.013	43.709
860.836	7.313
864.656	109.369
868.475	135.862
872.292	10.849
876.108	50.803
879.922	1.112
883.733	52.334
887.544	46.584
891.352	13.303
895.159	45.371
898.964	36.686
902.767	111.812
906.568	88.232
910.368	25.609
914.166	138.998
917.962	133.357
921.757	133.767
925.55	24.061
929.341	109.085
933.13	184.039
936.918	303.738
940.703	141.24
944.488	134.662
948.27	14.707
952.051	226.972
955.83	259.951
959.607	200.037
963.383	333.47
967.156	298.046
970.928	219.593
974.699	475.983
978.468	453.946
982.234	742.908
986	833.361
989.763	1183.37
993.525	2004.7
997.285	2085.91
1001.04	1288.91
1004.8	1228.17
1008.55	919.562
1012.31	918.162
1016.06	737.727
1019.81	863.027
1023.56	1281.43
1027.31	1544.33
1031.05	1579.73
1034.79	1502.76
1038.53	1495.85
1042.27	1566.35
1046.01	1815.88
1049.75	2158.42
1053.48	2519.99
1057.22	1753.21
1060.95	1289.18
1064.68	757.262
1068.4	539.627
1072.13	362.672
1075.86	531.295
1079.58	483.332
1083.3	549.227
1087.02	742.076
1090.74	819.971
1094.45	1228.67
1098.17	1397.27
1101.88	1608.28
1105.59	1630.24
1109.3	2387.16
1113.01	3618.22
1116.71	5609.79
1120.42	9963.76
1124.12	13731.2
1127.82	10992.6
1131.52	7823.8
1135.22	7071.36
1138.91	6989.2
1142.61	5361.39
1146.3	3445.98
1149.99	2039.94
1153.68	1265.89
1157.37	939.795
1161.06	473.379
1164.74	518.93
1168.42	413.789
1172.1	296.764
1175.78	303.658
1179.46	308.814
1183.14	281.377
1186.81	109.953
1190.48	203.102
1194.15	115.031
1197.83	152.086
1201.49	267.762
1205.16	167.121
1208.82	167.84
1212.49	70.557
1216.15	59.598
1219.81	29.223
1223.46	150.395
1227.12	14.217
1230.78	57.814
1234.43	221.635
1238.08	152.285
1241.73	250.635
1245.38	170.771
1249.03	175.869
1252.67	166.99
1256.31	15.48
1259.95	105.412
1263.6	63.014
1267.23	89.051
1270.87	32.053
1274.51	37.881
1278.14	175.303
1281.77	95.006
1285.4	14.002
1289.03	161.736
1292.66	50.35
1296.28	73.492
1299.91	204.824
1303.53	72.697
1307.15	53.078
1310.77	41.975
1314.38	268.387
1318	55.734
1321.61	82.473
1325.23	324.176
1328.84	0.75
1332.45	57.48
1336.06	50.352
1339.66	38.525
1343.27	66.037
1346.87	252.822
1350.47	275.965
1354.07	421.432
1357.67	269.205
1361.26	184.52
1364.86	342.861
1368.45	335.623
1372.04	268.141
1375.63	166.498
1379.22	336.281
1382.81	312.002
1386.39	405.094
1389.98	394.088
1393.56	337.609
1397.14	335.588
1400.72	442.496
1404.3	258.74
1407.87	480.023
1411.45	490.539
1415.02	377.053
1418.59	536.439
1422.16	337.924
1425.73	493.596
1429.29	267.699
1432.86	347.863
1436.42	473.988
1439.98	445.385
1443.54	610.936
1447.1	479.326
1450.66	677.195
1454.21	600.541
1457.77	576.344
1461.32	388.646
1464.87	276.574
1468.42	369.918
1471.96	375.404
1475.51	287.957
1479.06	313.5
1482.6	435.404
1486.14	205.221
1489.68	94.674
1493.22	240.957
1496.75	42.047
1500.29	111.404
1503.82	113.156
1507.35	248.857
1510.88	290.172
1514.41	7.088
1517.94	140.629
1521.46	153.039
1524.99	0
