Measurement: Raman, 514 nm, ccw, Raman Data Processed
Mineral: Microcline
Rruff sample: R050150
Ideal chemistry: KAlSi_3_O_8_
Locality: Crystal Peak area, Park/Teller Counties, Colorado, USA
Source: Dave Bunk Minerals
Description: Pale blue prismatic crystals
Measured chemistry: (K_0.95_Na_0.05_)_Î£=1_Al_1.00_Si_3.00_O_8_
Pin_id: L00961
Orientation: Laser parallel to b* (0 1 0). Fiducial mark perpendicular to laser is parallel to c [0 0 1]
Raman shift (cm-1)	intensity
131.492	0
136.445	1887.69
141.395	8178.34
146.343	12719
151.287	22279.6
156.228	27778.4
161.166	19095.8
166.1	6417.11
171.032	2701.86
175.961	3174.64
180.887	3563.93
185.809	2057.7
190.729	1957.05
195.645	3320.05
200.559	4284.67
205.469	1207.36
210.376	100.865
215.281	251.872
220.182	558.349
225.08	129.936
229.976	241.365
234.868	49.7725
239.757	190.452
244.643	1303.7
249.527	4007.55
254.407	8817.98
259.284	13677.1
264.158	10726.3
269.029	9240.4
273.898	8343.94
278.763	14722.7
283.625	25107
288.485	20310.1
293.341	8114.18
298.194	4164.18
303.045	2473.28
307.892	1470.25
312.736	992.031
317.578	1045.64
322.417	1781.88
327.252	3344.19
332.085	5558.61
336.914	2992.25
341.741	1418.96
346.565	1209.71
351.386	1167.11
356.204	1713.44
361.019	1539.75
365.831	1504.52
370.64	2780.33
375.447	2329.95
380.25	543.106
385.05	68.7656
389.848	171.865
394.643	173.623
399.434	848.258
404.223	1569.91
409.009	779.338
413.792	668.861
418.573	27.6719
423.35	274.769
428.124	231.477
432.896	19.7344
437.665	164.188
442.431	1036.23
447.194	2817.14
451.954	6144.01
456.711	5959.92
461.465	3887.64
466.217	5474.03
470.966	11325.3
475.712	17805.5
480.455	12436.6
485.195	8714.78
489.932	4575.65
494.667	3317.49
499.399	5088.97
504.128	12290.7
508.854	28194.8
513.577	43844.1
518.297	24922
523.015	9308.25
527.73	4365.56
532.442	2415.89
537.151	1471.3
541.858	1080.44
546.561	726.475
551.262	442.852
555.96	405.144
560.656	423.549
565.348	301.887
570.038	391.791
574.725	333.178
579.409	590.348
584.091	836.088
588.769	314.748
593.445	69.8516
598.119	95.207
602.789	61.2246
607.457	169.791
612.122	29.0918
616.784	294.356
621.443	524.842
626.1	913.201
630.754	1092.83
635.405	1123.79
640.054	1106.21
644.7	1679.02
649.343	2224.17
653.983	2223.49
658.621	1813.93
663.256	913.4
667.888	615.973
672.518	156.758
677.144	297.674
681.769	192.602
686.39	116.508
691.009	2.61523
695.625	237.084
700.238	11.459
704.849	22.7441
709.457	242.734
714.062	38.2461
718.665	79.0684
723.265	218.539
727.863	300.522
732.457	493.682
737.049	751.981
741.639	1575.03
746.225	2804.08
750.81	3169.32
755.391	1558.74
759.97	791.189
764.546	858.219
769.12	672.904
773.69	666.188
778.259	413.477
782.824	134.828
787.387	308.654
791.948	144.709
796.506	461.848
801.061	776.918
805.613	1158.73
810.163	2994.28
814.711	3175.56
819.255	1434.24
823.797	402.984
828.337	506.213
832.874	313.316
837.408	81.9277
841.94	164.322
846.469	160.566
850.996	246.356
855.52	243.012
860.041	242.572
864.56	9.16016
869.077	113.254
873.59	1.54102
878.101	117.197
882.61	138.869
887.116	23.8633
891.62	3.9082
896.121	112.398
900.619	65.582
905.115	78.4258
909.608	125.086
914.099	21.8613
918.587	207.525
923.073	60.3965
927.556	217.397
932.037	176.039
936.515	24.7383
940.991	93.457
945.464	119.367
949.934	167.619
954.403	248.893
958.868	212.277
963.331	426.629
967.792	349.037
972.25	372.123
976.705	345.414
981.158	544.207
985.609	984
990.057	1384.51
994.503	2551.67
998.946	2648.05
1003.39	2882.81
1007.83	1937
1012.26	1285.76
1016.69	773.697
1021.12	845.117
1025.55	860.814
1029.98	1531.87
1034.4	1411.62
1038.82	1639.69
1043.24	1249.07
1047.66	1060.26
1052.07	1255.68
1056.48	523.127
1060.89	256.06
1065.3	413.205
1069.7	206.565
1074.1	481.143
1078.5	342.959
1082.9	188.17
1087.29	551.125
1091.68	646.555
1096.07	837.594
1100.46	757.568
1104.84	892.713
1109.23	1348.18
1113.61	2057.96
1117.98	3495.24
1122.36	5752.81
1126.73	4975.52
1131.1	4062.39
1135.47	4685.68
1139.83	4561.32
1144.19	2841.46
1148.56	1505.96
1152.91	897.283
1157.27	843.34
1161.62	484.812
1165.97	429.287
1170.32	416.102
1174.67	262.074
1179.01	111.459
1183.35	102.357
1187.69	77.4727
1192.03	47.8301
1196.36	51.4746
1200.7	41.0938
1205.03	244.996
1209.35	124.072
1213.68	167.684
1218	362.34
1222.32	91.5195
1226.64	301.988
1230.95	107.084
1235.27	53.3633
1239.58	74.207
1243.89	3.84766
1248.19	43.9844
1252.5	239.578
1256.8	115.551
1261.1	23.6367
1265.4	45.8164
1269.69	75.0938
1273.98	3.31641
1278.27	342.543
1282.56	65.3125
1286.85	137.371
1291.13	87.1406
1295.41	103.988
1299.69	241.902
1303.97	301.879
1308.24	210.926
1312.51	725.023
1316.78	246.16
1321.05	525.344
1325.31	458.57
1329.58	541.836
1333.84	519.148
1338.1	574.5
1342.35	323.18
1346.61	387.484
1350.86	322.898
1355.11	291.418
1359.35	280.898
1363.6	186.32
1367.84	104.481
1372.08	149.945
1376.32	117.43
1380.55	249.156
1384.79	157.926
1389.02	21.9805
1393.25	180.914
1397.47	404.445
1401.7	189.871
1405.92	9.52734
1410.14	9.26562
1414.36	334.039
1418.57	51.0352
1422.79	191.992
1427	214.492
1431.21	357.859
1435.41	278.473
1439.62	119.836
1443.82	338.777
1448.02	173.711
1452.22	420.633
1456.41	335.824
1460.61	395.215
1464.8	308.559
1468.99	216.695
1473.17	14.5
1477.36	266.918
1481.54	65.3711
1485.72	321.367
1489.9	190.098
1494.08	20.8242
1498.25	72.4805
1502.42	357.004
1506.59	245.859
1510.76	88.043
1514.93	264.57
1519.09	178.484
1523.25	203.449
1527.41	248.144
1531.57	98.6875
1535.72	26.8516
1539.87	134.746
1544.02	260.969
1548.17	456.285
1552.32	163.902
1556.46	150.473
1560.6	421.25
