Measurement: Raman, 514 nm, ccw, Raman Data Processed
Mineral: Microcline
Rruff sample: R050150
Ideal chemistry: KAlSi_3_O_8_
Locality: Crystal Peak area, Park/Teller Counties, Colorado, USA
Source: Dave Bunk Minerals
Description: Pale blue prismatic crystals
Measured chemistry: (K_0.95_Na_0.05_)_Î£=1_Al_1.00_Si_3.00_O_8_
Pin_id: L00915
Orientation: Laser parallel to (1 1 0). Fiducial mark perpendicular to laser is parallel to c [0 0 1]
Raman shift (cm-1)	intensity
137.683	0
142.633	698.231
147.579	2553.95
152.522	4103.95
157.462	2717.69
162.4	1677.75
167.334	571.184
172.265	902.582
177.193	3128.01
182.117	3471.7
187.039	1012.12
191.958	738.318
196.874	1611.31
201.787	1890.2
206.696	193.965
211.603	40.2363
216.506	121.336
221.407	80.9199
226.304	68.8125
231.199	30.2617
236.091	5.81445
240.979	97.4434
245.864	202.342
250.747	763.406
255.626	2748.09
260.503	4821.27
265.376	5613.23
270.247	4162.55
275.114	2608.61
279.979	3081.36
284.84	5343.28
289.699	4084.09
294.554	1838.41
299.407	900.826
304.257	459.926
309.103	292.848
313.947	107.199
318.788	72.0664
323.626	146.928
328.461	431.91
333.292	1123.14
338.121	412.072
342.947	203.469
347.771	91.3496
352.591	100.586
357.408	518.887
362.222	420.25
367.034	518.189
371.842	1641.54
376.648	1118.25
381.45	210.748
386.25	3.39844
391.047	84.1016
395.841	417.246
400.632	715.852
405.42	1551.73
410.205	771.793
414.988	913.986
419.767	78.6152
424.544	37.6035
429.318	76.8379
434.089	269.059
438.857	138.147
443.622	899.508
448.384	2357.11
453.143	5731.64
457.9	5373.76
462.654	2915.18
467.405	3227.67
472.153	6855.97
476.898	11315.3
481.64	6637.11
486.38	4110.81
491.116	1808.62
495.85	1420.23
500.581	2760.29
505.309	5883.66
510.035	14317.5
514.757	23802.5
519.477	11898.7
524.194	4448.03
528.908	2055.73
533.62	1483.33
538.328	465.242
543.034	532.566
547.737	549.398
552.437	388.488
557.134	198.523
561.829	307.902
566.521	98.4023
571.21	366.184
575.896	47.7305
580.58	225.066
585.261	296.461
589.939	191.273
594.614	169.117
599.286	83.0273
603.956	177.699
608.623	66.2656
613.287	34.4922
617.949	56.4453
622.608	175.387
627.264	576.273
631.917	112.394
636.568	542.887
641.215	865.484
645.861	1115.82
650.503	1595.74
655.143	1355.94
659.78	815.031
664.414	618.106
669.046	479.152
673.674	174.156
678.301	47.082
682.924	197.836
687.545	362.332
692.163	104.551
696.778	6.52344
701.391	54.3164
706.001	200.32
710.609	264.019
715.213	419.805
719.815	241.008
724.415	243.133
729.011	451.809
733.606	619.133
738.197	739.945
742.786	1644.74
747.372	3257
751.955	3413.35
756.536	1758.65
761.114	857.414
765.69	733.629
770.262	730.172
774.833	385.231
779.4	299.078
783.965	47.6719
788.528	262.809
793.087	270.598
797.645	514.992
802.199	756.035
806.751	1062.65
811.3	2433.91
815.847	2369.8
820.391	785.254
824.933	459.59
829.471	195.289
834.008	278.531
838.541	356.965
843.073	342.371
847.601	38.418
852.127	98.9844
856.65	141.926
861.171	163.301
865.69	126.879
870.205	253.043
874.718	22.6406
879.229	237.676
883.737	154.465
888.242	154.016
892.745	554.137
897.246	79.1641
901.743	15.8438
906.239	90.9609
910.731	7.69922
915.221	122.137
919.709	180.262
924.194	79.6719
928.677	462.109
933.157	134.25
937.634	109.082
942.109	323.137
946.582	137.477
951.052	366.098
955.519	247.477
959.984	43.7227
964.447	344.746
968.906	380.766
973.364	193.344
977.819	357.219
982.271	199.305
986.721	817.711
991.169	1210.3
995.614	1749.48
1000.06	1234.35
1004.5	1058.81
1008.93	558.074
1013.37	600.781
1017.8	212.305
1022.23	339
1026.66	418.731
1031.09	574.496
1035.51	521.918
1039.93	519.211
1044.35	731.16
1048.76	487.894
1053.17	629.082
1057.58	790.129
1061.99	210.613
1066.4	19.2227
1070.8	69.9492
1075.2	145.93
1079.6	1.9375
1084	392.984
1088.39	416.434
1092.78	237.07
1097.17	760.957
1101.56	1172.07
1105.94	655.465
1110.32	658.16
1114.7	1423.12
1119.08	2801.5
1123.45	3948.61
1127.82	3061.05
1132.19	2292.5
1136.56	2384.85
1140.92	1970.31
1145.29	1282.86
1149.65	613.75
1154	327.219
1158.36	274.746
1162.71	268.504
1167.06	237.875
1171.41	182.844
1175.76	403.266
1180.1	133.016
1184.44	386.062
1188.78	306.359
1193.11	91.9453
1197.45	148.863
1201.78	332.203
1206.11	413.852
1210.43	204.277
1214.76	195.586
1219.08	368.211
1223.4	516.168
1227.72	67.4453
1232.03	234.051
1236.35	129.992
1240.66	137.266
1244.96	229.133
1249.27	259.652
1253.57	42.6641
1257.88	27.4336
1262.17	166.824
1266.47	236.312
1270.76	134.805
1275.06	141.629
1279.35	214.777
1283.63	199.172
1287.92	354.898
1292.2	340.984
1296.48	219.441
1300.76	432.297
1305.04	364.559
1309.31	220.238
1313.58	455.414
1317.85	336.176
1322.12	409.957
1326.38	208.293
1330.64	506.453
1334.9	624.281
1339.16	432.102
1343.41	670.445
1347.67	490.109
1351.92	425.133
1356.17	447.512
1360.41	333.281
1364.66	498.438
1368.9	263.973
1373.14	106.055
1377.38	601.676
1381.61	551.367
1385.84	316.656
1390.08	340.414
1394.3	343.793
1398.53	392.363
1402.75	238.832
1406.97	475.863
1411.19	706.269
1415.41	322.824
1419.63	387.172
1423.84	233.606
1428.05	519.75
1432.26	249.863
1436.46	297.219
1440.67	376.543
1444.87	496.465
1449.07	386.227
1453.27	492.523
1457.46	487.34
1461.66	379.672
1465.85	472.519
1470.04	413.016
1474.22	206.477
1478.41	302.219
1482.59	151.367
1486.77	63.457
1490.95	166.488
1495.12	197.254
1499.3	35.5078
1503.47	477.988
1507.63	408.758
1511.8	115.191
1515.97	52.5
1520.13	277.938
1524.29	446.508
1528.45	446.356
1532.61	164.914
1536.76	423.035
1540.91	248.293
1545.06	360.453
1549.21	228.691
1553.35	247.731
1557.5	605.086
1561.64	245.023
