Measurement: Raman, 514 nm, ccw, Raman Data Processed
Mineral: Microcline
Rruff sample: R050054
Ideal chemistry: KAlSi_3_O_8_
Locality: Kenticha, Negele area, Sidamo Province, Ethiopia
Source: Rock Currier
Description: Light blue single crystal
Measured chemistry: (K_0.96_Na_0.04_)Al_1.00_Si_3.00_O_8_
Pin_id: M00460
Orientation: Laser parallel to (0 1 1). Fiducial mark perpendicular to laser is parallel to -a [-1 0 0]
Raman shift (cm-1)	intensity
97.121	0
101.314	111.292
105.505	2835.58
109.694	7368
113.881	4826.85
118.066	846.894
122.249	1302.2
126.43	5105.07
130.608	6878.15
134.785	3172.76
138.959	1973.51
143.131	3552.28
147.301	4011.21
151.469	7619.86
155.635	8604.86
159.799	10770
163.961	6617.64
168.121	3148.75
172.278	2475.03
176.434	4526.16
180.587	7934.65
184.739	5311.81
188.888	2248.81
193.035	1496
197.18	2408.83
201.324	4251.75
205.465	2281.51
209.603	779.378
213.74	104.038
217.875	150.16
222.008	202.812
226.139	182.891
230.267	214.712
234.394	192.42
238.518	150.411
242.641	22.598
246.761	288.669
250.879	1026.7
254.996	3411.45
259.11	7367.53
263.222	8206.54
267.332	10984.9
271.44	8677.24
275.546	4746.44
279.65	4348.49
283.752	8733.09
287.852	13787.9
291.95	8820.81
296.046	3844.55
300.14	2007.38
304.231	1103.34
308.321	619.873
312.409	327.278
316.495	251.749
320.578	210.09
324.66	304.788
328.739	809.412
332.817	2003.69
336.892	1440.76
340.966	626.985
345.037	319.821
349.107	283.206
353.174	421.281
357.24	724.483
361.303	741.395
365.365	565.816
369.424	782.616
373.481	1749.5
377.537	1354.81
381.59	548.468
385.642	191.181
389.691	46.762
393.738	79.903
397.784	263.497
401.827	1166.4
405.868	2385.78
409.908	1470.09
413.945	1912.25
417.98	1096.85
422.014	179.38
426.045	18.253
430.075	13.542
434.102	50.406
438.127	285.603
442.151	667.126
446.172	1690.19
450.192	4649.08
454.209	11517.4
458.225	11930.5
462.238	6098.07
466.25	4259.97
470.259	5692.3
474.267	12501.9
478.273	18540.3
482.276	12366.1
486.278	8743.49
490.278	5078.82
494.276	3008.04
498.271	2796.11
502.265	4126.63
506.257	8059.24
510.247	19857.5
514.235	42947.5
518.221	37671.2
522.205	16976.8
526.187	7761.11
530.167	4237.04
534.145	2686.01
538.122	1812.45
542.096	1307.09
546.068	1003.21
550.039	775.067
554.007	555.225
557.973	448.192
561.938	357.489
565.901	293.198
569.861	312.234
573.82	261.373
577.777	318.515
581.732	560.958
585.685	780.863
589.636	582.354
593.585	214.86
597.532	48.533
601.477	27.273
605.42	11.892
609.361	6.979
613.301	33.917
617.238	1.896
621.174	66.131
625.108	225.177
629.039	420.268
632.969	566.474
636.897	563.845
640.823	779.42
644.747	1262.19
648.669	1903.1
652.589	2658.07
656.508	2615.08
660.424	1775.15
664.339	983.343
668.251	530.695
672.162	259.199
676.071	97.81
679.978	40.492
683.883	3.245
687.786	21.348
691.687	91.311
695.586	114.22
699.484	77.897
703.379	76.66
707.273	1.922
711.165	120.629
715.055	194.161
718.943	145.191
722.829	157.67
726.713	178.412
730.595	228.734
734.476	478.255
738.354	914.541
742.231	1720.08
746.106	3815.36
749.978	7273.9
753.849	6557.88
757.719	3441.32
761.586	1828.26
765.451	1258.2
769.315	979.596
773.177	659.177
777.036	486.797
780.894	399.392
784.75	289.905
788.605	273.334
792.457	374.678
796.307	435.932
800.156	519.093
804.003	753.159
807.848	1457.13
811.691	3306
815.532	5461.77
819.371	3611.44
823.209	1646
827.045	777.46
830.878	490.81
834.71	282.051
838.54	226.149
842.369	161.212
846.195	100.554
850.02	76.85
853.842	47.854
857.663	25.835
861.482	3.3
865.299	7.973
869.115	17.187
872.928	33.841
876.74	3.102
880.55	9.556
884.358	40.164
888.164	24.027
891.969	27.077
895.771	7.019
899.572	9.285
903.371	28.253
907.168	15.634
910.963	17.888
914.757	16.063
918.548	33.187
922.338	36.27
926.126	61.3
929.912	59.269
933.697	79.18
937.479	115.032
941.26	61.829
945.039	105.57
948.816	107.257
952.591	182.89
956.365	208.473
960.136	220.007
963.906	239.496
967.674	231.942
971.441	262.345
975.205	302.71
978.968	393.035
982.729	570.328
986.488	770.591
990.245	1383.83
994	2539.09
997.754	3225.45
1001.51	2590.94
1005.26	2146.5
1009	1507.62
1012.75	973.274
1016.5	654.015
1020.24	514.377
1023.98	485.343
1027.72	514.378
1031.46	596.906
1035.19	640.352
1038.93	766.631
1042.66	992.879
1046.39	670.533
1050.12	527.64
1053.85	603.995
1057.57	394.3
1061.29	275.605
1065.02	138.481
1068.74	115.516
1072.45	90.862
1076.17	152.322
1079.88	223.017
1083.6	295.702
1087.31	379.285
1091.02	545.167
1094.72	799.83
1098.43	1240.52
1102.13	1449.24
1105.84	1249.05
1109.54	995.011
1113.24	1099.9
1116.93	1490.88
1120.63	2426.89
1124.32	3781.9
1128.01	3986.84
1131.7	2956.46
1135.39	2943.48
1139.08	3636.85
1142.76	3352.81
1146.45	2142.23
1150.13	1312.51
1153.81	758.728
1157.48	503.914
1161.16	357.425
1164.84	293.136
1168.51	207.386
1172.18	178.366
1175.85	200.783
1179.52	126.384
1183.18	110.958
1186.85	80.68
1190.51	21.489
1194.17	75.103
1197.83	85.084
1201.48	16.935
1205.14	2.136
1208.79	23.045
1212.44	16.692
1216.09	33.304
1219.74	66.982
1223.39	18.824
1227.03	2.78
1230.68	93.312
1234.32	8.877
1237.96	37.523
1241.6	68.525
1245.23	35.979
1248.87	49.739
1252.5	14.838
1256.13	64.213
1259.76	55.536
1263.39	70.092
1267.02	6.446
1270.64	43.607
1274.26	7.278
1277.88	27.57
1281.5	20.301
1285.12	0.891
1288.74	7.359
1292.35	7.829
1295.96	7.243
1299.57	9.509
1303.18	28.289
1306.79	65.397
1310.4	78.678
1314	0.825
1317.6	27.178
1321.2	143.972
1324.8	71.506
1328.4	28.528
1331.99	55.434
1335.59	38.196
1339.18	23.825
1342.77	48.323
1346.36	28.792
1349.95	25.073
1353.53	36.249
1357.12	34.135
1360.7	48.871
1364.28	71.104
1367.86	11.945
1371.44	10.892
1375.01	24.1
1378.59	1.208
1382.16	31.091
1385.73	47.232
1389.3	59.039
1392.87	46.705
1396.43	92.42
1399.99	85.337
1403.56	64.361
1407.12	91.823
1410.68	55.227
1414.23	25.197
1417.79	73.063
1421.34	60.211
1424.9	72.427
1428.45	109.275
1431.99	130.527
1435.54	42.219
1439.09	144.287
1442.63	87.251
1446.17	78.908
1449.71	41.757
1453.26	103.297
1456.79	66.048
1460.33	72.368
1463.86	74.401
1467.39	39.762
1470.92	89.841
1474.45	52.182
1477.98	47.707
1481.51	69.822
1485.03	13.986
1488.56	25.416
1492.08	47.084
1495.6	6.526
1499.11	8.34
1502.63	46.669
1506.14	69.51
1509.66	48.303
1513.17	54.868
1516.68	0
