Measurement: Raman, 514 nm, ccw, Raman Data Processed
Mineral: Microcline
Rruff sample: R050193
Ideal chemistry: KAlSi_3_O_8_
Locality: Devil's Head, Douglas County, Colorado, USA
Source: Dave Bunk Minerals
Description: White to colorless heterogeneous mixture of K and Na feldspar in a cluster of crystals. Crystal structure determined, presented below. This sample is known as an intermediate microcline in the literature.
Measured chemistry: (K_0.929_Na_0.071_)(Al_1.005_Si_2.994_Fe_0.001_)O_7.993_F_0.007_  ; Light Band :  (Na_0.973_K_0.007_Ca_0.020_)(Al_1.020_Si_2.980_)O_8_ ; Dark Band
Pin_id: L00660
Orientation: Laser parallel to c* (0 0 1). Fiducial mark perpendicular to laser is parallel to a [1 0 0]
Raman shift (cm-1)	intensity
142.556	0
147.482	582.533
152.405	837.125
157.326	856.041
162.244	527.748
167.159	366.951
172.072	670.332
176.982	1068.78
181.89	912.955
186.795	515.279
191.697	652.236
196.597	613.637
201.494	499.461
206.389	197.617
211.281	178.932
216.17	78.5547
221.057	190.644
225.941	41.1777
230.823	122.318
235.702	99.584
240.578	132.688
245.452	452.109
250.323	912.996
255.192	1570.2
260.058	3184.44
264.921	3446.52
269.782	3355.57
274.64	3261.2
279.495	3503.43
284.348	3392.82
289.198	2227.22
294.046	914.269
298.891	539.394
303.733	16.8105
308.573	81.1269
313.41	54.9219
318.245	92
323.077	15.8887
327.906	165.801
332.733	18.2188
337.557	69.9141
342.379	54.7715
347.198	60.8457
352.014	86.1953
356.828	40.8281
361.639	331.275
366.447	68.4746
371.253	205.738
376.056	335.727
380.857	43.2285
385.655	87.4394
390.451	231.336
395.243	293.639
400.034	680.465
404.821	909.922
409.606	947.732
414.389	404
419.168	82.8008
423.945	156.018
428.72	173.637
433.492	530.668
438.261	916.166
443.028	1816.08
447.792	3394.05
452.553	4702.33
457.312	4032.04
462.068	3162.35
466.822	3501.88
471.573	5031.28
476.321	5589.93
481.067	3952.92
485.81	2745.86
490.551	2010.91
495.289	2153.86
500.024	4342
504.757	9278.42
509.487	16502.8
514.214	17296
518.939	9092.81
523.661	3993.09
528.381	1897.42
533.098	1129.54
537.812	888.926
542.524	771.625
547.233	320.816
551.94	488.266
556.644	360.557
561.345	406.014
566.044	279.519
570.74	280.977
575.433	472.967
580.124	399.547
584.812	20.6875
589.498	172.31
594.181	64.4434
598.861	234.248
603.539	291.576
608.214	150.49
612.887	284.051
617.557	290.133
622.224	145.586
626.889	356.143
631.551	212.055
636.21	117.469
640.867	331.402
645.521	344.822
650.173	541.438
654.822	413.672
659.468	34.3691
664.112	343.615
668.753	32.3711
673.392	158.34
678.028	131.381
682.661	152.4
687.292	147.727
691.92	29.5078
696.545	159.648
701.168	46.9766
705.788	232.586
710.406	275.81
715.021	426.481
719.633	503.928
724.243	514.408
728.85	427.07
733.455	751.902
738.056	1385.89
742.656	1841.58
747.252	2130.22
751.846	2320.61
756.438	1501.94
761.027	1293.74
765.613	1160.64
770.196	953.16
774.777	864.207
779.356	749.916
783.932	968.125
788.505	910.203
793.075	1059.89
797.643	1245.33
802.208	1559.3
806.771	1997.44
811.331	2430.3
815.888	1781.05
820.443	1102.07
824.995	459.06
829.545	275.674
834.092	93.3945
838.636	222.223
843.178	234.852
847.717	110.906
852.254	318.606
856.788	318.93
861.319	336.918
865.848	210.68
870.374	287.199
874.897	58.4766
879.418	276.481
883.936	14.793
888.452	291.434
892.965	72.2578
897.475	33.5938
901.983	194.441
906.488	78.6016
910.99	92.7422
915.49	51.7031
919.988	36.8438
924.482	165.234
928.974	297.281
933.464	69.4805
937.951	69.5
942.435	134.84
946.917	182.926
951.396	294.773
955.872	29.3633
960.346	68.7891
964.817	84.6289
969.285	233.258
973.751	89.9023
978.215	314.656
982.675	424.809
987.134	598.531
991.589	712.367
996.042	938.035
1000.49	738.422
1004.94	613.477
1009.38	565.012
1013.83	352.027
1018.27	452.691
1022.7	489.398
1027.14	270.5
1031.57	240.441
1036	183.844
1040.43	286.828
1044.85	208.106
1049.27	364.598
1053.69	296.047
1058.11	552.074
1062.52	395.594
1066.93	209.883
1071.34	613.293
1075.75	465.414
1080.15	315.098
1084.55	476.094
1088.95	429.312
1093.35	916.91
1097.74	963.871
1102.13	772.106
1106.52	730.219
1110.9	488.715
1115.28	830.234
1119.66	1172.42
1124.04	922.344
1128.41	1012.8
1132.79	804.965
1137.16	1085.16
1141.52	650.016
1145.89	803.715
1150.25	675.621
1154.61	328.324
1158.96	550.762
1163.32	438.012
1167.67	264.371
1172.02	129.934
1176.36	159.871
1180.71	131.738
1185.05	346.875
1189.38	199.832
1193.72	179.988
1198.05	84.4844
1202.38	108.863
1206.71	273.625
1211.04	96.0234
1215.36	50.0703
1219.68	316.363
1224	235.098
1228.31	284.356
1232.62	292.328
1236.93	29.9844
1241.24	120.703
1245.54	206.734
1249.84	251.602
1254.14	184.039
1258.44	5.33203
1262.73	122.668
1267.03	333.582
1271.31	297.598
1275.6	176.531
1279.88	71.8633
1284.16	20.9609
1288.44	382.938
1292.72	101.742
1296.99	208.449
1301.26	221.945
1305.53	306.949
1309.79	507.742
1314.06	313.941
1318.32	381.82
1322.57	431.965
1326.83	179.469
1331.08	240.133
1335.33	491.191
1339.58	305.367
1343.82	390.258
1348.06	418.144
1352.3	299.078
1356.54	52.0039
1360.77	203.07
1365.01	185.762
1369.23	138.238
1373.46	277.793
1377.68	274.629
1381.9	229.434
1386.12	220.559
1390.34	63.8828
1394.55	258.285
1398.76	95.6836
1402.97	11.5195
1407.18	354.426
1411.38	253.68
1415.58	15.7656
1419.78	226.844
1423.97	115.457
1428.17	91.707
1432.36	144.207
1436.54	104.723
1440.73	154.789
1444.91	145.231
1449.09	24.2109
1453.27	298
1457.44	8.40625
1461.61	160.019
1465.78	50.9141
1469.95	128.172
1474.11	156.414
1478.27	278.746
1482.43	216.051
1486.59	179.176
1490.74	337.481
1494.89	166.34
1499.04	26.0273
1503.19	239.887
1507.33	156.281
1511.47	134.219
1515.61	255.137
1519.75	327.359
1523.88	251.586
1528.01	360.727
1532.14	68.5117
1536.26	111.75
1540.38	174.059
1544.51	78.043
1548.62	240.625
1552.74	0.933594
1556.85	158.016
1560.96	1.22656
