Measurement: Raman, 514 nm, ccw, Raman Data Processed
Mineral: Microcline
Rruff sample: R050150
Ideal chemistry: KAlSi_3_O_8_
Locality: Crystal Peak area, Park/Teller Counties, Colorado, USA
Source: Dave Bunk Minerals
Description: Pale blue prismatic crystals
Measured chemistry: (K_0.95_Na_0.05_)_Î£=1_Al_1.00_Si_3.00_O_8_
Pin_id: L01075
Orientation: Laser parallel to (0 1 1). Fiducial mark perpendicular to laser is parallel to a [1 0 0]
Raman shift (cm-1)	intensity
131.492	0
136.445	12.834
141.395	1480.4
146.343	5315.21
151.287	6590.53
156.228	2875.36
161.166	857.596
166.1	684.572
171.032	2286.83
175.961	7185.81
180.887	6878.51
185.809	2907.65
190.729	1769.03
195.645	2817.15
200.559	2729.21
205.469	888.924
210.376	27.187
215.281	6.19189
220.182	143.596
225.08	101.435
229.976	18.7173
234.868	25.9102
239.757	81.1782
244.643	400.062
249.527	1350.7
254.407	3669.69
259.284	6421.03
264.158	8583.4
269.029	6966.47
273.898	4117.64
278.763	4785.1
283.625	7841.47
288.485	6699.44
293.341	3629.76
298.194	2159.86
303.045	933.401
307.892	403.915
312.736	75.9834
317.578	79.9189
322.417	117.637
327.252	531.314
332.085	832.34
336.914	478.459
341.741	290.422
346.565	210.221
351.386	458.87
356.204	750.796
361.019	686.664
365.831	380.357
370.64	645.052
375.447	517.663
380.25	42.916
385.05	111.52
389.848	43.5527
394.643	687.223
399.434	2450.44
404.223	3666.58
409.009	2172.39
413.792	1705.33
418.573	513.686
423.35	44.2275
428.124	74.4404
432.896	93.2969
437.665	512.779
442.431	1695.93
447.194	4524.78
451.954	9948.07
456.711	9162.4
461.465	5645.68
466.217	7640.94
470.966	16065.7
475.712	23810.9
480.455	15040.3
485.195	8113.82
489.932	4015.93
494.667	3050.21
499.399	4380.11
504.128	10948.5
508.854	27328.7
513.577	42033.9
518.297	23712.7
523.015	8717.64
527.73	4023.34
532.442	2174.86
537.151	1427.89
541.858	823.515
546.561	603.34
551.262	284.546
555.96	323.667
560.656	280.136
565.348	354.115
570.038	190.22
574.725	207.148
579.409	374.536
584.091	434.195
588.769	151.145
593.445	33.5459
598.119	24.0303
602.789	35.3164
607.457	25.543
612.122	99.4375
616.784	12.6494
621.443	282.067
626.1	470.781
630.754	594.911
635.405	820.398
640.054	1288.09
644.7	1731.96
649.343	2237
653.983	2261.18
658.621	1650.48
663.256	869.9
667.888	571.626
672.518	168.699
677.144	125.91
681.769	156.168
686.39	121.48
691.009	98.8398
695.625	132.862
700.238	59.0117
704.849	71.9141
709.457	239.033
714.062	280.048
718.665	257.071
723.265	471.387
727.863	261.553
732.457	613.505
737.049	1237.79
741.639	2413.6
746.225	4424.79
750.81	5048.42
755.391	2582.8
759.97	1320.13
764.546	788.072
769.12	531.441
773.69	348.478
778.259	167.352
782.824	274.671
787.387	140.18
791.948	239.649
796.506	166.997
801.061	423.157
805.613	673.183
810.163	1318.05
814.711	1687.75
819.255	602.714
823.797	279.083
828.337	212.096
832.874	142.986
837.408	12.9736
841.94	88.832
846.469	49.1523
850.996	213.231
855.52	35.0605
860.041	124.29
864.56	21.2842
869.077	22.8604
873.59	165.279
878.101	48.6309
882.61	12.168
887.116	50.6387
891.62	73.166
896.121	153.512
900.619	43.5312
905.115	82.8965
909.608	85.2754
914.099	46.7529
918.587	63.291
923.073	165.11
927.556	83.8359
932.037	109.478
936.515	126.047
940.991	163.393
945.464	206.977
949.934	280.374
954.403	292.739
958.868	123.062
963.331	338.36
967.792	155.764
972.25	208.727
976.705	351.676
981.158	511.798
985.609	684.371
990.057	1434.18
994.503	2052.2
998.946	1545.18
1003.39	1175.6
1007.83	820.486
1012.26	665.817
1016.69	443.562
1021.12	489.912
1025.55	755.604
1029.98	891.451
1034.4	706.592
1038.82	655.637
1043.24	730.806
1047.66	1014.22
1052.07	1145.22
1056.48	761.042
1060.89	422.048
1065.3	187.089
1069.7	139.295
1074.1	200.668
1078.5	174.215
1082.9	140.412
1087.29	448.308
1091.68	485.976
1096.07	792.836
1100.46	976.273
1104.84	1265.92
1109.23	1331.84
1113.61	2441.09
1117.98	4556.7
1122.36	6832.41
1126.73	5739.44
1131.1	4134.57
1135.47	4033.76
1139.83	3826.73
1144.19	2271.03
1148.56	1138.98
1152.91	692.993
1157.27	579.017
1161.62	308.108
1165.97	171.469
1170.32	221.946
1174.67	157.28
1179.01	210.334
1183.35	118.654
1187.69	10.0547
1192.03	205.405
1196.36	193.983
1200.7	91.6787
1205.03	160.484
1209.35	46.5986
1213.68	105.376
1218	51.4609
1222.32	96.6299
1226.64	142.867
1230.95	58.1758
1235.27	101.268
1239.58	19.7324
1243.89	82.7695
1248.19	148.121
1252.5	167.067
1256.8	32.4697
1261.1	77.0371
1265.4	59.5674
1269.69	74.0811
1273.98	53.3408
1278.27	65.96
1282.56	30.416
1286.85	164.572
1291.13	42.4971
1295.41	82.3506
1299.69	5.16113
1303.97	215.272
1308.24	16.9648
1312.51	150.606
1316.78	133.083
1321.05	97.6709
1325.31	181.242
1329.58	268.792
1333.84	247.319
1338.1	152.321
1342.35	145.804
1346.61	196.154
1350.86	214.773
1355.11	299.361
1359.35	2.52637
1363.6	289.495
1367.84	146.475
1372.08	277.867
1376.32	125.943
1380.55	109.727
1384.79	233.201
1389.02	229.898
1393.25	141.977
1397.47	192.493
1401.7	226.306
1405.92	29.7871
1410.14	261.84
1414.36	188.668
1418.57	123.224
1422.79	124.456
1427	22.0498
1431.21	189.547
1435.41	132.786
1439.62	142.815
1443.82	128.607
1448.02	276.303
1452.22	174.901
1456.41	351.409
1460.61	152.836
1464.8	123.053
1468.99	169.272
1473.17	253.154
1477.36	125.717
1481.54	121.176
1485.72	287.049
1489.9	205.999
1494.08	118.188
1498.25	181.951
1502.42	178.608
1506.59	15.9072
1510.76	170.016
1514.93	147.714
1519.09	155.861
1523.25	96.29
1527.41	179.192
1531.57	367.481
1535.72	55.3018
1539.87	194.657
1544.02	20.6396
1548.17	213.673
1552.32	72.8164
1556.46	96.417
1560.6	9.59277
