Measurement: Raman, 514 nm, ccw, Raman Data Processed
Mineral: Microcline
Rruff sample: R050054
Ideal chemistry: KAlSi_3_O_8_
Locality: Kenticha, Negele area, Sidamo Province, Ethiopia
Source: Rock Currier
Description: Light blue single crystal
Measured chemistry: (K_0.96_Na_0.04_)Al_1.00_Si_3.00_O_8_
Pin_id: M00082
Orientation: Laser parallel to b* (0 1 0). Fiducial mark perpendicular to laser is parallel to c [0 0 1]
Raman shift (cm-1)	intensity
83.128	0
87.329	251.923
91.527	1954.25
95.723	2126.32
99.917	1396.59
104.109	1198.94
108.298	884.87
112.486	2120.78
116.672	25.227
120.855	846.607
125.036	2823.18
129.216	2471.66
133.393	1275.5
137.568	1535.6
141.741	3174.29
145.911	9557.21
150.08	14624.1
154.247	9283.25
158.411	4744.5
162.574	2415.24
166.734	1360.21
170.893	1135.81
175.049	1897.58
179.203	2719.19
183.355	1654.98
187.505	925.438
191.653	867.233
195.799	2062.32
199.943	2338.46
204.084	851.191
208.224	239.688
212.362	23.815
216.497	87.693
220.631	77.493
224.762	81.423
228.891	113.292
233.018	113.156
237.144	65.852
241.267	5.092
245.388	185.992
249.507	636.648
253.624	2303.26
257.739	3991.7
261.852	4442.64
265.962	5445.08
270.071	3715.26
274.178	2519.9
278.283	3382.01
282.385	6720.7
286.486	7867.93
290.584	4851.59
294.681	3553.31
298.775	2779.99
302.868	1717.92
306.958	852.119
311.047	477.989
315.133	327.104
319.217	359.422
323.299	431.18
327.38	1021.87
331.458	1645.16
335.534	997.086
339.608	489.739
343.681	420.053
347.751	443.99
351.819	761.991
355.885	1344.19
359.949	1199.07
364.011	1035.52
368.071	1974.85
372.129	3394.76
376.185	1865.99
380.239	670.485
384.291	381.146
388.341	250.784
392.389	345.899
396.435	926.318
400.479	3385.94
404.521	4183.12
408.561	2100.05
412.599	1660.37
416.636	563.728
420.67	71.617
424.702	25.973
428.732	40.769
432.76	60.025
436.786	246.787
440.81	513.458
444.832	1113.39
448.852	2789.73
452.87	5498.67
456.887	4931.09
460.901	3871.37
464.913	5056.72
468.923	9841.65
472.931	22657.8
476.938	26120.9
480.942	14412.6
484.944	8795.76
488.945	4725.75
492.943	2955.49
496.94	2889.68
500.934	4161.4
504.927	8562.75
508.917	21956.7
512.906	40093.8
516.892	27032.9
520.877	11602.2
524.86	5548.35
528.841	3245.77
532.82	2084.5
536.796	1397.99
540.771	918.845
544.744	694.218
548.715	562.931
552.684	419.338
556.652	347.141
560.617	272.848
564.58	201.13
568.541	210.742
572.501	208.524
576.458	206.388
580.414	445.897
584.367	519.286
588.319	298.441
592.268	61.526
596.216	16.399
600.162	18.418
604.106	30.27
608.048	6.141
611.988	27.962
615.926	21.911
619.862	109.235
623.797	246.432
627.729	521.684
631.659	582.235
635.588	527.926
639.515	682.737
643.439	1038.66
647.362	1275.82
651.283	1732.95
655.202	1495.9
659.119	1075.93
663.034	636.051
666.947	294.379
670.859	179.794
674.768	22.089
678.676	4.923
682.581	15.538
686.485	60.871
690.387	86.059
694.287	78.469
698.185	9.221
702.081	72.258
705.975	152.777
709.868	360.715
713.758	381.641
717.647	242.18
721.533	170.555
725.418	195.709
729.301	244.655
733.182	380.677
737.061	651.884
740.939	1170.87
744.814	2114.36
748.688	3369.47
752.559	2559.49
756.429	1372.79
760.297	849.615
764.163	655.215
768.027	520.136
771.89	352.277
775.75	219.46
779.609	180.532
783.465	97.489
787.32	101.326
791.173	70.039
795.024	110.624
798.873	55.081
802.721	82.402
806.566	118.589
810.41	196.645
814.252	298.569
818.092	156.359
821.93	115.011
825.766	70.523
829.601	35.494
833.433	30.645
837.264	34.794
841.093	31.111
844.92	11.788
848.745	23.445
852.568	19.024
856.39	16.525
860.209	46.955
864.027	41.68
867.843	13.706
871.657	0.001
875.47	16.49
879.28	19.176
883.089	25.913
886.896	6.792
890.701	12.387
894.504	23.754
898.305	43.567
902.105	50.042
905.902	39.017
909.698	25.908
913.492	104.713
917.285	77.434
921.075	88.085
924.864	96.65
928.65	105.132
932.435	156.523
936.218	166.795
940	150.807
943.779	176.577
947.557	199.485
951.333	249.211
955.107	249.94
958.879	236.693
962.65	217.747
966.418	194.194
970.185	233.847
973.95	292.346
977.714	322.605
981.475	352.651
985.235	532.547
988.993	846.139
992.749	1403.37
996.503	1458.94
1000.26	1172.17
1004.01	1009.88
1007.75	807.969
1011.5	615.053
1015.25	484.035
1018.99	561.442
1022.73	669.259
1026.47	964.359
1030.21	1201.44
1033.95	1090.72
1037.68	1051.61
1041.41	1082.79
1045.15	1132.14
1048.88	1552.91
1052.6	1829.05
1056.33	1404.99
1060.05	887.844
1063.78	543.747
1067.5	382.948
1071.21	276.358
1074.93	347.806
1078.65	381.319
1082.36	457.895
1086.07	528.542
1089.78	549.254
1093.49	682.062
1097.2	866.48
1100.9	1037.55
1104.6	1298.44
1108.3	1651.38
1112	2402.37
1115.7	3795.44
1119.4	6585.61
1123.09	9747.73
1126.78	8655.98
1130.47	6297.44
1134.16	5317.61
1137.85	5488.99
1141.54	4712.29
1145.22	3050.97
1148.9	1859.17
1152.58	1222.8
1156.26	891.953
1159.94	682.786
1163.61	587.815
1167.28	454.099
1170.95	385.578
1174.62	296.99
1178.29	243.953
1181.96	194.674
1185.62	179.847
1189.29	134.849
1192.95	119.25
1196.61	72.475
1200.26	113.375
1203.92	61.478
1207.57	69.399
1211.23	65.019
1214.88	76.216
1218.53	29.342
1222.17	74.215
1225.82	39.504
1229.46	58.612
1233.11	35.343
1236.74	2.935
1240.38	39.274
1244.02	36.36
1247.66	57.175
1251.29	91.151
1254.92	100.966
1258.55	101.725
1262.18	47.273
1265.81	32.46
1269.43	35.331
1273.06	45.215
1276.68	30.075
1280.3	46.071
1283.91	80.097
1287.53	5.992
1291.15	11.806
1294.76	16.597
1298.37	31.72
1301.98	73.998
1305.59	36.645
1309.19	5.479
1312.8	19.073
1316.4	27.055
1320	45.901
1323.6	31.649
1327.2	39.279
1330.8	32.818
1334.39	7.427
1337.98	8.602
1341.58	30.133
1345.16	39.261
1348.75	43.255
1352.34	99.134
1355.92	36.895
1359.51	111.82
1363.09	28.35
1366.67	39.217
1370.24	0.071
1373.82	32.622
1377.39	98.38
1380.97	79.231
1384.54	70.547
1388.11	77.178
1391.68	120.965
1395.24	66.515
1398.81	86
1402.37	75.356
1405.93	58.473
1409.49	40.99
1413.05	21.446
1416.6	88.303
1420.16	107.192
1423.71	101.845
1427.26	96.721
1430.81	102.363
1434.36	89.648
1437.91	71.026
1441.45	21.065
1444.99	37.686
1448.54	23.587
1452.08	4.947
1455.61	88.537
1459.15	119.469
1462.68	80.907
1466.22	101.281
1469.75	116.87
1473.28	108.679
1476.81	41.475
1480.33	33.954
1483.86	79.691
1487.38	16.843
1490.9	9.795
1494.42	52.419
1497.94	52.079
1501.46	89.149
1504.97	35.14
1508.49	70.008
1512	47.259
1515.51	72.82
1519.02	30.122
