Measurement: Raman, 514 nm, ccw, Raman Data Processed
Mineral: Microcline
Rruff sample: R050054
Ideal chemistry: KAlSi_3_O_8_
Locality: Kenticha, Negele area, Sidamo Province, Ethiopia
Source: Rock Currier
Description: Light blue single crystal
Measured chemistry: (K_0.96_Na_0.04_)Al_1.00_Si_3.00_O_8_
Pin_id: L00301
Orientation: Laser parallel to -c* (0 0 -1). Fiducial mark perpendicular to laser is parallel to a [1 0 0]
Raman shift (cm-1)	intensity
49.365	0
53.566	146.756
57.765	568.881
61.962	945.315
66.157	952.293
70.349	945.552
74.54	732.235
78.729	503.886
82.916	116.37
87.101	16.639
91.284	29.506
95.465	52.67
99.644	15.773
103.82	227.562
107.995	703.373
112.168	1196.37
116.339	1252.49
120.508	1316.66
124.675	2087.83
128.84	1915.05
133.003	1740.08
137.164	2916.59
141.323	4594.98
145.48	5678.96
149.635	6200.43
153.788	9751.51
157.939	13471.1
162.088	13200.4
166.235	9109.54
170.38	7338.54
174.523	7747.33
178.664	9945.92
182.803	12734.3
186.94	12152.4
191.076	7800.39
195.209	5208.11
199.34	4392.62
203.47	5312.98
207.597	7425.9
211.722	5632.6
215.846	2385.79
219.967	907.434
224.087	405.926
228.204	188.872
232.32	214.472
236.434	187.94
240.545	387.251
244.655	860.853
248.763	2338.28
252.869	3503.51
256.973	3208.07
261.075	2687.77
265.175	2875.78
269.273	2748.88
273.369	2779.07
277.463	4506.74
281.556	9573.75
285.646	18610.1
289.734	25566.3
293.821	17342.4
297.905	7338.39
301.988	3022.23
306.069	1667.8
310.147	1159.02
314.224	829.008
318.299	1152.82
322.372	2141.47
326.443	4896.96
330.512	5106.29
334.579	2245.46
338.645	842.477
342.708	534.332
346.769	491.027
350.829	454.565
354.887	328.946
358.942	157.169
362.996	4.213
367.048	10.945
371.098	125.663
375.146	9.994
379.192	124.025
383.236	57.927
387.279	73.854
391.319	68.66
395.358	326.719
399.394	728.863
403.429	780.607
407.462	765.052
411.493	344.471
415.522	118.884
419.549	13.303
423.575	23.281
427.598	26.965
431.619	6.971
435.639	71.745
439.657	239.229
443.673	318.522
447.687	908.644
451.699	1994.6
455.709	2165.39
459.717	1777.02
463.724	1811.48
467.728	2993.77
471.731	6739.91
475.732	13685.9
479.731	15451.7
483.728	8737.36
487.723	4520.86
491.716	3406.21
495.708	4351.4
499.697	8888.44
503.685	23073.3
507.671	34598.1
511.655	24882.6
515.637	13327.3
519.617	6470.33
523.596	3537.44
527.572	2337.2
531.547	1613.33
535.52	1265.3
539.491	1002.41
543.46	860.126
547.427	716.655
551.393	570.045
555.356	481.104
559.318	412.108
563.278	460.107
567.236	499.481
571.192	614.958
575.147	956.157
579.099	1289.36
583.05	1017.96
586.999	514.755
590.946	304.601
594.891	277.064
598.834	291.108
602.776	194.08
606.715	254.427
610.653	199.68
614.589	254.839
618.523	431.907
622.456	494.883
626.386	785.772
630.315	1273.57
634.242	1346.29
638.167	1030.91
642.09	1290.44
646.012	1551.9
649.931	1298.26
653.849	949.54
657.765	621.735
661.679	457.848
665.592	159.879
669.502	132.828
673.411	162.694
677.318	19.483
681.223	28.214
685.126	15.094
689.028	16.55
692.927	53.702
696.825	15.147
700.721	3.474
704.616	75.75
708.508	13.217
712.399	20.728
716.288	5.41
720.175	69.595
724.06	77.294
727.944	64.945
731.825	77.595
735.705	108.017
739.584	288.087
743.46	523.308
747.334	854.057
751.207	830.649
755.078	701.796
758.947	1003.79
762.815	1687.15
766.68	1354.42
770.544	795.618
774.406	780.774
778.267	579.981
782.125	354.066
785.982	220.94
789.837	179.737
793.69	229.458
797.542	245.102
801.391	357.673
805.239	718.17
809.085	1517.59
812.93	3177.95
816.772	2882.23
820.613	1364.44
824.452	674.576
828.29	335.363
832.125	277.724
835.959	181.644
839.791	164.394
843.621	96.365
847.45	90.783
851.277	2.871
855.102	20.098
858.925	54.125
862.746	13.571
866.566	14.859
870.384	36.4
874.2	52.984
878.015	13.27
881.828	43.033
885.639	5.761
889.448	15.367
893.256	21.861
897.061	3.554
900.865	34.911
904.668	61.214
908.468	96.495
912.267	62.682
916.064	52.809
919.86	28.964
923.653	108.106
927.445	38.222
931.236	74.312
935.024	35.375
938.811	33.415
942.596	69.432
946.379	133.449
950.161	50.445
953.94	179.419
957.719	169.373
961.495	216.307
965.27	210.222
969.043	255.12
972.814	493.007
976.583	849.897
980.351	800.778
984.117	583.658
987.882	430.579
991.644	593.527
995.405	746.476
999.165	656.286
1002.92	832.517
1006.68	658.333
1010.43	582.694
1014.18	539.072
1017.93	541.993
1021.68	631.376
1025.43	1038.47
1029.18	1758.12
1032.92	2588.28
1036.66	1815.6
1040.4	1177.82
1044.14	682.976
1047.88	493.719
1051.62	381.234
1055.35	308.049
1059.08	269.312
1062.81	247.25
1066.54	167.713
1070.27	164.746
1073.99	285.367
1077.72	330.655
1081.44	382.887
1085.16	559.345
1088.88	808.595
1092.59	1674.46
1096.31	2728.66
1100.02	3528.72
1103.73	2742.76
1107.44	2110.8
1111.15	1851.84
1114.86	1917.86
1118.57	1882.13
1122.27	1708.13
1125.97	1448.08
1129.67	1011.41
1133.37	889.457
1137.07	1001.99
1140.76	985.109
1144.45	690.737
1148.15	534.047
1151.84	547.542
1155.53	420.627
1159.21	179.607
1162.9	216.556
1166.58	138.021
1170.26	104.066
1173.94	1.132
1177.62	22.666
1181.3	95.901
1184.97	58.678
1188.65	41.455
1192.32	68.167
1195.99	5.917
1199.66	2.902
1203.33	2.39
1206.99	53.356
1210.65	81.593
1214.32	18.32
1217.98	71.287
1221.64	30.785
1225.29	10.163
1228.95	0.516
1232.6	93.845
1236.26	59.719
1239.91	89.228
1243.56	102.558
1247.2	144.538
1250.85	132.226
1254.49	140.989
1258.13	154.753
1261.78	144.354
1265.41	30.876
1269.05	78.282
1272.69	135.298
1276.32	124.034
1279.95	86.771
1283.59	37.986
1287.21	13.174
1290.84	29.585
1294.47	40.813
1298.09	83.962
1301.72	61.029
1305.34	80.869
1308.96	45.506
1312.58	43.996
1316.19	86.369
1319.81	13.243
1323.42	11.011
1327.03	12.44
1330.64	69.925
1334.25	61.334
1337.86	66.84
1341.46	157.091
1345.07	126.951
1348.67	79.408
1352.27	86.036
1355.87	108.421
1359.46	131.577
1363.06	186.522
1366.65	249.295
1370.25	228.931
1373.84	132.906
1377.43	88.1
1381.02	81.383
1384.6	87.235
1388.18	129.049
1391.77	131.663
1395.35	86.053
1398.93	7.304
1402.51	76.607
1406.08	156.279
1409.66	130.837
1413.23	67.63
1416.8	204.87
1420.37	215.946
1423.94	102.604
1427.51	138.241
1431.08	77.438
1434.64	52.722
1438.2	11.429
1441.76	122.728
1445.32	154.24
1448.88	138.058
1452.43	151.116
1455.99	224.851
1459.54	312.011
1463.09	335.311
1466.64	171.868
1470.19	149.329
1473.74	131.747
1477.28	31.727
1480.83	160.757
1484.37	235.906
1487.91	254.771
1491.45	207.546
1494.98	164.145
1498.52	226.531
1502.05	123.332
1505.59	96.876
1509.12	47.083
1512.65	68.447
1516.17	51
1519.7	0
