Measurement: Raman, 514 nm, ccw, Raman Data Processed
Mineral: Microcline
Rruff sample: R050054
Ideal chemistry: KAlSi_3_O_8_
Locality: Kenticha, Negele area, Sidamo Province, Ethiopia
Source: Rock Currier
Description: Light blue single crystal
Measured chemistry: (K_0.96_Na_0.04_)Al_1.00_Si_3.00_O_8_
Pin_id: M00460
Orientation: Laser parallel to (0 1 1). Fiducial mark perpendicular to laser is parallel to -a [-1 0 0]
Raman shift (cm-1)	intensity
98.519	0
102.712	48.397
106.902	2305.43
111.09	6733.52
115.277	2068.48
119.461	125.492
123.643	2159.62
127.823	6409.36
132.001	5371.64
136.176	2270.3
140.35	3304.24
144.521	4316.34
148.691	6302.5
152.858	10638.9
157.024	12994.4
161.187	11892.3
165.348	5883.28
169.507	3000.13
173.664	2984.66
177.819	6273.84
181.971	9158.57
186.122	4627.3
190.271	2144.14
194.417	2168.17
198.562	4856.75
202.704	6126.09
206.844	2403.92
210.983	664.43
215.119	162.772
219.253	127.85
223.385	139.11
227.515	171.495
231.643	207.124
235.769	167.633
239.893	116.003
244.014	11.966
248.134	386.197
252.252	1395.29
256.367	4276.38
260.481	7426.65
264.592	7805.38
268.702	9556.23
272.809	6206.93
276.915	4251.89
281.018	6010.45
285.119	11982.9
289.218	13765.1
293.316	6960.12
297.411	3154.58
301.504	1903.77
305.595	1075.81
309.684	572.149
313.771	380.108
317.856	252.456
321.939	312.24
326.02	574.341
330.099	1505.08
334.176	2449.19
338.251	1408.08
342.323	619.003
346.394	399.434
350.463	361.323
354.53	616.625
358.594	1048.35
362.657	813.534
366.718	774.141
370.777	1432.01
374.833	2485.77
378.888	1299.05
382.941	461.201
386.992	238.193
391.04	133.843
395.087	186.915
399.132	508.465
403.174	2050.1
407.215	2378.84
411.254	1359.02
415.29	1590.81
419.325	515.773
423.358	52.621
427.389	33.059
431.417	53.046
435.444	117.748
439.469	339.654
443.492	814.223
447.512	1898.01
451.531	5742.59
455.548	11575.1
459.563	8618.65
463.576	4362.27
467.587	3812.78
471.596	6408.51
475.603	14279.5
479.608	15905.7
483.611	9771.56
487.612	7152.06
491.611	3815.15
495.608	2715.14
499.603	2837.94
503.596	4696.96
507.587	10121.1
511.577	25879.7
515.564	44010.9
519.549	27807.1
523.533	12043.5
527.514	5768.64
531.493	3429.82
535.471	2167.55
539.447	1484.03
543.42	1111.58
547.392	867.947
551.362	658.204
555.329	455.146
559.295	388.239
563.259	372.848
567.221	308.162
571.181	244.069
575.139	276.694
579.095	450.331
583.049	797.226
587.002	957.328
590.952	463.115
594.9	150.255
598.847	57.373
602.792	8.943
606.734	11.531
610.675	24.043
614.614	17.379
618.55	58.869
622.485	151.204
626.418	293.631
630.349	525.121
634.279	586.742
638.206	673.556
642.131	936.584
646.055	1368.8
649.976	1880.11
653.896	2507.46
657.814	2270.85
661.729	1406.31
665.643	801.89
669.555	419.235
673.465	174.523
677.373	64.497
681.28	2.523
685.184	2.408
689.087	83.406
692.987	85.491
696.886	95.167
700.783	96.123
704.677	16.404
708.57	42.339
712.462	127.938
716.351	161.465
720.238	98.404
724.124	18.917
728.007	176.217
731.889	343.114
735.769	552.956
739.647	1005.3
743.523	1805.68
747.397	3846.83
751.269	6089.91
755.139	4259.76
759.008	2233.67
762.875	1279.59
766.739	1026.57
770.602	875.338
774.463	589.077
778.323	440.897
782.18	289.631
786.035	348.277
789.889	332.832
793.741	376.293
797.591	398.658
801.439	563.922
805.285	881.083
809.129	1806.14
812.971	3899.09
816.812	5099.94
820.651	2706.67
824.488	1106.3
828.323	593.812
832.156	356.209
835.987	242.069
839.817	213.461
843.644	195.544
847.47	94.039
851.294	37.344
855.116	30.979
858.936	3.021
862.755	29.264
866.571	31.513
870.386	12.266
874.199	18.68
878.01	14.974
881.82	9.326
885.627	10.917
889.433	29.75
893.236	7.823
897.038	29.11
900.838	11.392
904.637	29.801
908.433	42.12
912.228	30.338
916.021	32.469
919.812	70.515
923.601	47.5
927.388	91.413
931.174	89.261
934.958	113.045
938.739	67.767
942.52	69.43
946.298	91.043
950.074	171.6
953.849	180.103
957.622	208.554
961.393	241.955
965.162	227.308
968.93	281.622
972.696	284.897
976.459	366.027
980.222	439.349
983.982	562.531
987.74	873.689
991.497	1625.86
995.252	2891.16
999.005	2828.51
1002.76	2291.62
1006.51	1931.57
1010.25	1255.79
1014	769.676
1017.74	617.89
1021.49	516.766
1025.23	557.838
1028.96	621.529
1032.7	612.349
1036.44	633.094
1040.17	787.826
1043.9	760.415
1047.63	495.427
1051.36	557.15
1055.09	490.08
1058.81	361.974
1062.54	202.986
1066.26	171.945
1069.97	120.247
1073.69	137.988
1077.41	185.459
1081.12	214.98
1084.84	243.558
1088.55	315.232
1092.25	485.417
1095.96	806.193
1099.67	1186.89
1103.37	1127.68
1107.07	968.477
1110.77	915.261
1114.47	1121.13
1118.16	1666.88
1121.86	2950.82
1125.55	4143.08
1129.24	3555.62
1132.93	2810.67
1136.62	3179.56
1140.31	3659.15
1143.99	3040.23
1147.67	1787.44
1151.35	1094.62
1155.03	679.781
1158.71	530.716
1162.39	337.125
1166.06	253.383
1169.73	198.505
1173.4	144.162
1177.07	120.005
1180.74	171.137
1184.4	111.776
1188.07	147.468
1191.73	98.078
1195.39	75.797
1199.05	37.307
1202.7	59.174
1206.36	66.269
1210.01	52.284
1213.66	26.922
1217.31	63.682
1220.96	73.828
1224.6	33.396
1228.25	34.571
1231.89	36.393
1235.53	39.21
1239.17	6.986
1242.81	22.428
1246.44	19.808
1250.08	50.297
1253.71	57.813
1257.34	16.115
1260.97	15.613
1264.6	18.057
1268.22	8.144
1271.85	3.998
1275.47	37.72
1279.09	12.723
1282.71	11.738
1286.33	45.122
1289.94	8.397
1293.56	4.414
1297.17	5.323
1300.78	8.281
1304.39	11.481
1307.99	28.212
1311.6	51.902
1315.2	76.419
1318.8	33.336
1322.4	0.739
1326	21.685
1329.6	31.807
1333.19	34.292
1336.79	62.992
1340.38	2.452
1343.97	86.986
1347.56	37.317
1351.14	56.612
1354.73	68.798
1358.31	62.868
1361.89	20.943
1365.47	53.895
1369.05	15.783
1372.63	66.125
1376.2	36.356
1379.78	65.008
1383.35	78.161
1386.92	100.2
1390.49	91.249
1394.05	65.845
1397.62	74.45
1401.18	80.503
1404.74	19.122
1408.3	77.781
1411.86	92.302
1415.42	85.382
1418.97	83.806
1422.53	91.697
1426.08	49.517
1429.63	44.838
1433.18	55.757
1436.72	71.354
1440.27	111.187
1443.81	59.369
1447.36	85.488
1450.89	14.484
1454.43	83.891
1457.97	137.239
1461.51	133.017
1465.04	84.793
1468.57	65.832
1472.1	55.256
1475.63	72.373
1479.16	66.247
1482.68	36.196
1486.21	46.658
1489.73	49.596
1493.25	53.669
1496.77	133.979
1500.29	105.419
1503.8	60.032
1507.32	63.453
1510.83	70.705
1514.34	40.581
