Measurement: Raman, 514 nm, ccw, Raman Data Processed
Mineral: Microcline
Rruff sample: R050054
Ideal chemistry: KAlSi_3_O_8_
Locality: Kenticha, Negele area, Sidamo Province, Ethiopia
Source: Rock Currier
Description: Light blue single crystal
Measured chemistry: (K_0.96_Na_0.04_)Al_1.00_Si_3.00_O_8_
Pin_id: M00118
Orientation: Laser parallel to (1 0 1). Fiducial mark perpendicular to laser is parallel to b [0 1 0]
Raman shift (cm-1)	intensity
88.728	0
92.926	129.132
97.121	223.017
101.314	415.016
105.505	1602.93
109.694	3252.26
113.881	2531.11
118.066	1313.26
122.249	1524.48
126.43	2787.26
130.608	2657.75
134.785	1033.51
138.959	289.538
143.131	159.901
147.301	525.845
151.469	1163.9
155.635	1094.03
159.799	803.468
163.961	569.503
168.121	421.776
172.278	573.665
176.434	1373.06
180.587	2054.83
184.739	1323.61
188.888	518.722
193.035	280.711
197.18	516.223
201.324	645.312
205.465	315.269
209.603	0.015
213.74	50.592
217.875	120.846
222.008	71.582
226.139	48.408
230.267	116.487
234.394	26.516
238.518	4.444
242.641	38.507
246.761	127.315
250.879	394.952
254.996	1231.25
259.11	2353.7
263.222	3413.5
267.332	4314.9
271.44	3322.75
275.546	1962.35
279.65	1729.34
283.752	2515.03
287.852	2933.38
291.95	1862.11
296.046	974.026
300.14	540.44
304.231	327.584
308.321	211.188
312.409	129.723
316.495	107.482
320.578	90.051
324.66	126.791
328.739	237.103
332.817	393.335
336.892	287.172
340.966	205.499
345.037	185.426
349.107	169.926
353.174	174.659
357.24	308.644
361.303	318.894
365.365	342.549
369.424	502.085
373.481	724.009
377.537	506.635
381.59	251.738
385.642	123.922
389.691	98.641
393.738	129.705
397.784	153.207
401.827	412.532
405.868	713.929
409.908	749.065
413.945	940.091
417.98	483.32
422.014	180.118
426.045	77.406
430.075	98.149
434.102	175.358
438.127	241.208
442.151	561.953
446.172	1148.07
450.192	2836.97
454.209	5546.92
458.225	5273.79
462.238	2910.42
466.25	1933.14
470.259	2260.41
474.267	4342.12
478.273	5505.48
482.276	3757.41
486.278	2767.87
490.278	1727.79
494.276	1333.05
498.271	1326.56
502.265	1898.49
506.257	3867.13
510.247	9152.46
514.235	17440.3
518.221	13799.3
522.205	6461.19
526.187	3084.3
530.167	1738.78
534.145	1105.75
538.122	790.854
542.096	588.312
546.068	487.148
550.039	326.574
554.007	295.056
557.973	206.683
561.938	179.194
565.901	156.425
569.861	142.725
573.82	97.044
577.777	104.309
581.732	188.274
585.685	170.721
589.636	140.704
593.585	64.636
597.532	13.587
601.477	2.613
605.42	34.428
609.361	19.567
613.301	27.771
617.238	21.951
621.174	21.601
625.108	65.234
629.039	107.897
632.969	101.622
636.897	130.432
640.823	232.335
644.747	452.328
648.669	697.398
652.589	873.514
656.508	857.661
660.424	552.854
664.339	272.111
668.251	150.44
672.162	90.834
676.071	20.282
679.978	16.238
683.883	5.784
687.786	15.638
691.687	83.737
695.586	39.855
699.484	6.278
703.379	24.742
707.273	4.838
711.165	94.954
715.055	82.931
718.943	61.8
722.829	141.377
726.713	158.062
730.595	204.998
734.476	387.897
738.354	673.156
742.231	1242.02
746.106	2253.72
749.978	3436.41
753.849	2700.76
757.719	1654.98
761.586	998.239
765.451	677.661
769.315	481.851
773.177	378.909
777.036	336.776
780.894	328.071
784.75	308.619
788.605	335.831
792.457	403.168
796.307	488.474
800.156	546.76
804.003	674
807.848	1178.21
811.691	2462.38
815.532	3142.52
819.371	1821.63
823.209	806.695
827.045	410.728
830.878	260.666
834.71	116.445
838.54	127.448
842.369	50.344
846.195	121.296
850.02	67.545
853.842	7.9
857.663	28.238
861.482	33.086
865.299	73.638
869.115	82.152
872.928	6.353
876.74	23.933
880.55	44.598
884.358	16.64
888.164	28.153
891.969	14.077
895.771	49.95
899.572	52.966
903.371	35.932
907.168	31.85
910.963	14.764
914.757	4.693
918.548	15.631
922.338	46.575
926.126	7.54
929.912	50.526
933.697	58.514
937.479	120.5
941.26	25.487
945.039	39.476
948.816	1.466
952.591	27.458
956.365	85.455
960.136	117.456
963.906	101.463
967.674	92.483
971.441	122.529
975.205	146.593
978.968	215.666
982.729	319.75
986.488	437.885
990.245	618.068
994	968.294
997.754	1008.33
1001.51	807.036
1005.26	628.319
1009	517.469
1012.75	363.598
1016.5	253.305
1020.24	181.12
1023.98	248.143
1027.72	200.3
1031.46	257.203
1035.19	189.114
1038.93	236.515
1042.66	254.386
1046.39	149.574
1050.12	232.791
1053.85	232.007
1057.57	249.371
1061.29	219.607
1065.02	108.083
1068.74	162.767
1072.45	94.231
1076.17	134.723
1079.88	160.263
1083.6	211.884
1087.31	303.545
1091.02	358.236
1094.72	457.957
1098.43	598.702
1102.13	638.488
1105.84	476.302
1109.54	436.143
1113.24	372.011
1116.93	504.37
1120.63	646.765
1124.32	859.277
1128.01	824.252
1131.7	696.846
1135.39	825.38
1139.08	903.46
1142.76	755.51
1146.45	561.324
1150.13	347.823
1153.81	225.308
1157.48	162.065
1161.16	128.671
1164.84	88.877
1168.51	104.576
1172.18	93.434
1175.85	36.859
1179.52	53.299
1183.18	90.39
1186.85	41.773
1190.51	34.85
1194.17	28.354
1197.83	36.766
1201.48	5.094
1205.14	26.501
1208.79	4.103
1212.44	2.337
1216.09	42.724
1219.74	92.91
1223.39	45.17
1227.03	90.266
1230.68	90.512
1234.32	59.697
1237.96	70.904
1241.6	60.577
1245.23	74.797
1248.87	100.832
1252.5	56.838
1256.13	63.813
1259.76	128.82
1263.39	42.815
1267.02	98.02
1270.64	87.857
1274.26	82.484
1277.88	6.961
1281.5	42.286
1285.12	66.83
1288.74	62.031
1292.35	45.12
1295.96	18.193
1299.57	47.312
1303.18	27.891
1306.79	80.255
1310.4	32.229
1314	38.645
1317.6	69.925
1321.2	91.078
1324.8	150.095
1328.4	78.021
1331.99	15.167
1335.59	75.582
1339.18	44.192
1342.77	76.714
1346.36	7.828
1349.95	25.689
1353.53	90.691
1357.12	126.904
1360.7	132.21
1364.28	114.46
1367.86	7.263
1371.44	17.938
1375.01	58.574
1378.59	38.783
1382.16	57.92
1385.73	134.99
1389.3	129.998
1392.87	94.082
1396.43	124.307
1399.99	75.976
1403.56	68.552
1407.12	15.446
1410.68	48.575
1414.23	84.357
1417.79	93.044
1421.34	37.153
1424.9	146.811
1428.45	91.199
1431.99	71.892
1435.54	121.232
1439.09	102.915
1442.63	90.771
1446.17	93.794
1449.71	28.5
1453.26	20.644
1456.79	105.945
1460.33	97.657
1463.86	66.7
1467.39	59.819
1470.92	68.102
1474.45	86.581
1477.98	132.596
1481.51	37.338
1485.03	40.214
1488.56	47.443
1492.08	0.721
1495.6	20.866
1499.11	3.535
1502.63	49.67
1506.14	140.074
1509.66	160.21
1513.17	151.617
