Measurement: Raman, 514 nm, ccw, Raman Data Processed
Mineral: Microcline
Rruff sample: R050150
Ideal chemistry: KAlSi_3_O_8_
Locality: Crystal Peak area, Park/Teller Counties, Colorado, USA
Source: Dave Bunk Minerals
Description: Pale blue prismatic crystals
Measured chemistry: (K_0.95_Na_0.05_)_Î£=1_Al_1.00_Si_3.00_O_8_
Pin_id: L00941
Orientation: Laser parallel to (-1 0 -1). Fiducial mark perpendicular to laser is parallel to -b [0 -1 0]
Raman shift (cm-1)	intensity
137.683	0
142.633	589.412
147.579	3589.89
152.522	10139.8
157.462	14696.5
162.4	20018.8
167.334	17071.8
172.265	11185.9
177.193	12713.9
182.117	14500.7
187.039	16900.4
191.958	13171.5
196.874	8206.97
201.787	8838.81
206.696	8743.76
211.603	10835.7
216.506	5309.67
221.407	979.173
226.304	44.5449
231.199	464.653
236.091	548.968
240.979	395.924
245.864	137.065
250.747	588.761
255.626	1308.01
260.503	1584.95
265.376	1857.49
270.247	2091.13
275.114	3870.88
279.979	9846.49
284.84	20068.4
289.699	26432.4
294.554	27098.4
299.407	10625.6
304.257	4025.35
309.103	2538.18
313.947	2011.52
318.788	2273.59
323.626	3076
328.461	3902.24
333.292	3724.16
338.121	1588.24
342.947	876.406
347.771	928.625
352.591	968.712
357.408	749.59
362.222	455.12
367.034	566.08
371.842	629.095
376.648	478.304
381.45	154.721
386.25	98.1299
391.047	41.3428
395.841	308.033
400.632	1019.6
405.42	1795.2
410.205	2239.81
414.988	868.648
419.767	94.6777
424.544	68.1006
429.318	85.6113
434.089	42.5371
438.857	134.175
443.622	506.634
448.384	1257.78
453.143	2312.6
457.9	2979.28
462.654	3331.72
467.405	6283.24
472.153	15806.7
476.898	23045.3
481.64	28735.4
486.38	15039.9
491.116	7007.99
495.85	9263.48
500.581	23351.3
505.309	35590.9
510.035	47021
514.757	26720.6
519.477	10576.8
524.194	4972.97
528.908	2921.7
533.62	1938.54
538.328	1331.56
543.034	1083.69
547.737	868.575
552.437	747.894
557.134	714.476
561.829	636.809
566.521	865.598
571.21	929.414
575.896	1312.84
580.58	1654.62
585.261	1206.98
589.939	413.262
594.614	7.7168
599.286	159.664
603.956	22.1436
608.623	44.7012
613.287	138.338
617.949	232.173
622.608	481.183
627.264	721.391
631.917	944.707
636.568	1100.1
641.215	1233.6
645.861	1421.26
650.503	1405.13
655.143	897.16
659.78	566.306
664.414	162.726
669.046	55.5234
673.674	150.989
678.301	12.3691
682.924	71.959
687.545	28.1045
692.163	25.543
696.778	3.93945
701.391	84.3066
706.001	38.9014
710.609	27.2363
715.213	70.7676
719.815	9.56348
724.415	182.237
729.011	19.6846
733.606	223.708
738.197	295.164
742.786	453.413
747.372	832.581
751.955	952.274
756.536	1359.92
761.114	2047.34
765.69	2349.51
770.262	1941.91
774.833	1646.96
779.4	1433.74
783.965	693.275
788.528	482.546
793.087	403.55
797.645	443.574
802.199	784.598
806.751	1579.4
811.3	3283
815.847	4224.27
820.391	2991.18
824.933	1032.64
829.471	647.328
834.008	573.654
838.541	274.904
843.073	272.267
847.601	365.124
852.127	245.322
856.65	123.344
861.171	48.3057
865.69	50.875
870.205	84.7832
874.718	76.3193
879.229	62.4697
883.737	25.2656
888.242	18.665
892.745	5.41699
897.246	160.04
901.743	40.127
906.239	99.001
910.731	204.767
915.221	154.432
919.709	179.963
924.194	95.3848
928.677	135.768
933.157	85.9658
937.634	114.912
942.109	200.671
946.582	236.352
951.052	231.974
955.519	243.661
959.984	165.392
964.447	323.141
968.906	617.957
973.364	646.051
977.819	939.316
982.271	760.659
986.721	479.275
991.169	540.063
995.614	649.667
1000.06	811.855
1004.5	1005.21
1008.93	1078.18
1013.37	1064.78
1017.8	962.037
1022.23	1020.92
1026.66	1336.8
1031.09	1925.43
1035.51	1620.54
1039.93	925.523
1044.35	589.466
1048.76	462.681
1053.17	280.167
1057.58	399.21
1061.99	272.816
1066.4	365.595
1070.8	401.92
1075.2	486.978
1079.6	880.104
1084	1424.05
1088.39	2460.25
1092.78	5014.79
1097.17	8025.98
1101.56	8495.79
1105.94	6070.78
1110.32	5118.52
1114.7	5102.56
1119.08	4438.69
1123.45	3212.26
1127.82	2167.45
1132.19	1274.94
1136.56	1410.17
1140.92	1051.29
1145.29	611.056
1149.65	686.24
1154	310.029
1158.36	164.769
1162.71	269.424
1167.06	168.773
1171.41	191.476
1175.76	110.116
1180.1	17.7773
1184.44	36.4961
1188.78	15.1865
1193.11	2.15234
1197.45	14.5664
1201.78	36.4619
1206.11	54.3984
1210.43	99.3721
1214.76	20.6543
1219.08	158.301
1223.4	7.71875
1227.72	73.2363
1232.03	173.172
1236.35	105.106
1240.66	212.029
1244.96	61.1416
1249.27	91.8379
1253.57	17.7568
1257.88	125.753
1262.17	49.4609
1266.47	49.1103
1270.76	174.171
1275.06	118.357
1279.35	43.4131
1283.63	5.37695
1287.92	27.2129
1292.2	41.9736
1296.48	78.6406
1300.76	141.275
1305.04	54.0488
1309.31	216.583
1313.58	73.001
1317.85	82.8252
1322.12	181.124
1326.38	122.559
1330.64	200.789
1334.9	190.889
1339.16	77.0938
1343.41	133.967
1347.67	81.916
1351.92	97.4453
1356.17	173.941
1360.41	168.635
1364.66	240.381
1368.9	264.33
1373.14	11.2441
1377.38	55.7891
1381.61	243.727
1385.84	170.123
1390.08	98.9375
1394.3	111.504
1398.53	169.772
1402.75	46.8906
1406.97	186.842
1411.19	120.838
1415.41	96.1758
1419.63	206.404
1423.84	84.709
1428.05	100.379
1432.26	119.008
1436.46	208.09
1440.67	172.303
1444.87	196.838
1449.07	16.707
1453.27	192.676
1457.46	357.088
1461.66	161.5
1465.85	145.897
1470.04	184.299
1474.22	251.902
1478.41	166.019
1482.59	112.418
1486.77	117.107
1490.95	122.018
1495.12	33.125
1499.3	164.121
1503.47	226.156
1507.63	131.049
1511.8	72.2109
1515.97	246.492
1520.13	254.926
1524.29	218.512
1528.45	163.492
1532.61	110.439
1536.76	217.529
1540.91	127.434
1545.06	171.691
1549.21	245.988
1553.35	294.525
1557.5	322.121
1561.64	42.0273
