Measurement: Raman, 514 nm, ccw, Raman Data Processed
Mineral: Microcline
Rruff sample: R050054
Ideal chemistry: KAlSi_3_O_8_
Locality: Kenticha, Negele area, Sidamo Province, Ethiopia
Source: Rock Currier
Description: Light blue single crystal
Measured chemistry: (K_0.96_Na_0.04_)Al_1.00_Si_3.00_O_8_
Pin_id: L00301
Orientation: Laser parallel to -c* (0 0 -1). Fiducial mark perpendicular to laser is parallel to a [1 0 0]
Raman shift (cm-1)	intensity
49.365	0
53.566	176.266
57.765	344.857
61.962	428.873
66.157	318.066
70.349	422.764
74.54	332.826
78.729	219.615
82.916	68.733
87.101	4.11
91.284	45.769
95.465	66.196
99.644	132.413
103.82	368.336
107.995	1114.24
112.168	1313.22
116.339	1327.63
120.508	1563.55
124.675	3046.97
128.84	3266.04
133.003	2316.77
137.164	1718.75
141.323	2132.73
145.48	3561.54
149.635	4863.45
153.788	3994.76
157.939	2258.39
162.088	1544.29
166.235	1221.88
170.38	1569.17
174.523	2440.16
178.664	3651.31
182.803	4076.94
186.94	3415.69
191.076	2356.57
195.209	2080.65
199.34	2264.05
203.47	2275.07
207.597	2892.96
211.722	2281.55
215.846	1061.08
219.967	349.812
224.087	166.748
228.204	82.694
232.32	66.241
236.434	36.16
240.545	140.068
244.655	347.782
248.763	955.561
252.869	1736.11
256.973	2524.7
261.075	3315
265.175	4480.05
269.273	4059.07
273.369	2438.31
277.463	1868.26
281.556	2874.98
285.646	4319.46
289.734	4564.71
293.821	3037.71
297.905	1301.47
301.988	576.927
306.069	190.88
310.147	43.258
314.224	11.804
318.299	17.797
322.372	163.092
326.443	862.149
330.512	1119.01
334.579	591.664
338.645	127.125
342.708	31.65
346.769	19.815
350.829	51.487
354.887	41.494
358.942	18.759
362.996	15.39
367.048	136.563
371.098	358.237
375.146	250.713
379.192	20.08
383.236	1.385
387.279	55.935
391.319	22.301
395.358	232.374
399.394	702.692
403.429	1050.02
407.462	1237.78
411.493	1551.28
415.522	1712.79
419.549	1036.37
423.575	318.975
427.598	132.535
431.619	116.976
435.639	258.246
439.657	523.491
443.673	1051.78
447.687	2803.77
451.699	6380.69
455.709	7523.77
459.717	4616.25
463.724	2771.52
467.728	3048.58
471.731	5907.12
475.732	10774.7
479.731	11434.3
483.728	6682.24
487.723	3467.49
491.716	2450.64
495.708	2627.66
499.697	4628.21
503.685	11063.1
507.671	19462
511.655	21438.1
515.637	15719.6
519.617	7681.7
523.596	3765.49
527.572	2243.41
531.547	1515.41
535.52	1076.63
539.491	803.839
543.46	707.119
547.427	539.262
551.393	404.787
555.356	376.29
559.318	364.32
563.278	262.527
567.236	281.441
571.192	362.35
575.147	521.245
579.099	729.111
583.05	567.959
586.999	340.405
590.946	109.303
594.891	116.842
598.834	52.551
602.776	75.201
606.715	78.795
610.653	31.338
614.589	56.824
618.523	41.259
622.456	22.666
626.386	91.032
630.315	198.391
634.242	241.765
638.167	372.211
642.09	571.812
646.012	904.164
649.931	1119.59
653.849	990.99
657.765	673.36
661.679	363.76
665.592	230.241
669.502	87.807
673.411	45.513
677.318	5.902
681.223	32.239
685.126	7.671
689.028	45.175
692.927	71.82
696.825	9.24
700.721	3.178
704.616	6.795
708.508	67.558
712.399	26.926
716.288	5.867
720.175	109.904
724.06	143.177
727.944	179.303
731.825	293.985
735.705	473.52
739.584	901.84
743.46	1949.66
747.334	3301.8
751.207	3209.47
755.078	2282.81
758.947	2842.14
762.815	4479.46
766.68	3505.98
770.544	1472.99
774.406	748.458
778.267	524.848
782.125	432.18
785.982	342.494
789.837	432.775
793.69	480.024
797.542	603.239
801.391	833.419
805.239	1535.57
809.085	3427.68
812.93	6673.76
816.772	5816.81
820.613	2628.83
824.452	1142.81
828.29	638.562
832.125	443.558
835.959	287.276
839.791	223.776
843.621	171.091
847.45	66.847
851.277	53.284
855.102	18.134
858.925	70.865
862.746	0.87
866.566	16.55
870.384	53.845
874.2	0.597
878.015	67.076
881.828	17.307
885.639	30.626
889.448	8.126
893.256	27.042
897.061	5.152
900.865	17.212
904.668	6.268
908.468	75.316
912.267	11.359
916.064	14.423
919.86	43.472
923.653	30.515
927.445	2.462
931.236	26.53
935.024	47.558
938.811	36.501
942.596	31.036
946.379	46.477
950.161	48.495
953.94	155.51
957.719	94.523
961.495	131.542
965.27	141.562
969.043	185.584
972.814	301.606
976.583	556.63
980.351	575.654
984.117	490.703
987.882	550.796
991.644	891.953
995.405	1076.15
999.165	821.425
1002.92	737.873
1006.68	660.316
1010.43	517.907
1014.18	422.748
1017.93	359.319
1021.68	330.013
1025.43	247.416
1029.18	248.8
1032.92	308.591
1036.66	250.613
1040.4	332.058
1044.14	361.554
1047.88	357.139
1051.62	281.002
1055.35	223.302
1059.08	208.274
1062.81	188.389
1066.54	107.313
1070.27	152.824
1073.99	229.68
1077.72	191.13
1081.44	243.531
1085.16	325.426
1088.88	495.679
1092.59	850.225
1096.31	1416.28
1100.02	1655.32
1103.73	1218.38
1107.44	775.634
1111.15	519.257
1114.86	429.452
1118.57	490.742
1122.27	1175.86
1125.97	849.895
1129.67	626.903
1133.37	596.29
1137.07	821.556
1140.76	806.78
1144.45	479.334
1148.15	334.617
1151.84	316.541
1155.53	215.073
1159.21	111.281
1162.9	106.41
1166.58	62.852
1170.26	108.633
1173.94	56.651
1177.62	79.105
1181.3	83.453
1184.97	88.274
1188.65	90.477
1192.32	44.58
1195.99	31.683
1199.66	20.758
1203.33	34.275
1206.99	1.145
1210.65	32.739
1214.32	34.177
1217.98	62.131
1221.64	82.964
1225.29	4.937
1228.95	79.898
1232.6	33.344
1236.26	18.406
1239.91	97.772
1243.56	103.072
1247.2	85.685
1250.85	94.032
1254.49	2.197
1258.13	29.011
1261.78	37.472
1265.41	57.937
1269.05	46.024
1272.69	138.834
1276.32	52.609
1279.95	54.562
1283.59	105.823
1287.21	12.974
1290.84	32.979
1294.47	17.062
1298.09	8.571
1301.72	54.108
1305.34	30.629
1308.96	3.023
1312.58	61.19
1316.19	55.205
1319.81	40.152
1323.42	8.544
1327.03	81.968
1330.64	22.195
1334.25	32.212
1337.86	127.789
1341.46	94.703
1345.07	99.505
1348.67	11.933
1352.27	62.084
1355.87	51.235
1359.46	80.353
1363.06	69.276
1366.65	94.138
1370.25	1.643
1373.84	68.051
1377.43	77.63
1381.02	64.676
1384.6	37.385
1388.18	23.019
1391.77	34.963
1395.35	1.196
1398.93	30.526
1402.51	36.694
1406.08	6.425
1409.66	8.495
1413.23	44.447
1416.8	158.565
1420.37	113.08
1423.94	63.753
1427.51	116.248
1431.08	85.104
1434.64	42.346
1438.2	4.285
1441.76	104.445
1445.32	133.455
1448.88	195.118
1452.43	189.774
1455.99	132.72
1459.54	116.494
1463.09	129.382
1466.64	92.057
1470.19	38.97
1473.74	92.14
1477.28	0.271
1480.83	59.328
1484.37	150.8
1487.91	153.195
1491.45	54.806
1494.98	51.186
1498.52	139.111
1502.05	75.447
1505.59	86.082
1509.12	18.992
1512.65	28.716
1516.17	50.578
1519.7	0.208
