Measurement: Raman, 514 nm, ccw, Raman Data Processed
Mineral: Microcline
Rruff sample: R050150
Ideal chemistry: KAlSi_3_O_8_
Locality: Crystal Peak area, Park/Teller Counties, Colorado, USA
Source: Dave Bunk Minerals
Description: Pale blue prismatic crystals
Measured chemistry: (K_0.95_Na_0.05_)_Î£=1_Al_1.00_Si_3.00_O_8_
Pin_id: L00945
Orientation: Laser parallel to a* (1 0 0). Fiducial mark perpendicular to laser is parallel to b [0 1 0]
Raman shift (cm-1)	intensity
137.683	0
142.633	952.534
147.579	3067.91
152.522	5620.04
157.462	2109.18
162.4	62.9688
167.334	3.14356
172.265	610.002
177.193	1590.48
182.117	2438.42
187.039	1527.74
191.958	1319.29
196.874	1776.16
201.787	2388.7
206.696	642.932
211.603	41.9111
216.506	107.939
221.407	138.283
226.304	6.55957
231.199	127.825
236.091	24.8438
240.979	105.648
245.864	373.94
250.747	1247.23
255.626	3021.34
260.503	5462.31
265.376	5825.43
270.247	5258.66
275.114	4115.04
279.979	5470.56
284.84	8412.27
289.699	8124.02
294.554	3995.15
299.407	2644.66
304.257	1425.4
309.103	406.456
313.947	55.9199
318.788	77.6728
323.626	28.2188
328.461	266.824
333.292	278.803
338.121	156.23
342.947	301.293
347.771	505.249
352.591	677.119
357.408	1371.74
362.222	884.43
367.034	600.003
371.842	773.59
376.648	566.108
381.45	48.5049
386.25	49.3115
391.047	159.127
395.841	1411.84
400.632	3384.63
405.42	5672.56
410.205	2522.61
414.988	1576.95
419.767	296.65
424.544	17.4355
429.318	74.3799
434.089	195.231
438.857	725.441
443.622	1666.33
448.384	3621.97
453.143	6662.41
457.9	7759.51
462.654	6996.08
467.405	13187.5
472.153	25203.7
476.898	38162
481.64	23235.4
486.38	11728.3
491.116	5582.43
495.85	4032.78
500.581	6372.39
505.309	16170.6
510.035	34647.6
514.757	51244.8
519.477	29144.6
524.194	10782.1
528.908	4986.25
533.62	2698.1
538.328	1744.11
543.034	991.042
547.737	809.744
552.437	453.83
557.134	394.555
561.829	230.291
566.521	188.411
571.21	294.701
575.896	478.563
580.58	528.148
585.261	571.113
589.939	397.495
594.614	49.1416
599.286	108.964
603.956	91.3457
608.623	157.869
613.287	2.11719
617.949	113.464
622.608	436.165
627.264	643.144
631.917	797.356
636.568	916.839
641.215	1450.6
645.861	1797.66
650.503	2134.24
655.143	2253.5
659.78	1670.02
664.414	1029.3
669.046	523.049
673.674	340.918
678.301	43.8438
682.924	87.8135
687.545	10.7617
692.163	25.4648
696.778	80.626
701.391	76.0752
706.001	242.385
710.609	484.126
715.213	559.23
719.815	284.773
724.415	444.426
729.011	393.334
733.606	602.473
738.197	1241.33
742.786	2318.23
747.372	3996.49
751.955	4109.08
756.536	2335.41
761.114	1089.05
765.69	651.189
770.262	528.99
774.833	199.443
779.4	157.811
783.965	256.81
788.528	142.328
793.087	110.374
797.645	44.0898
802.199	122.501
806.751	133.627
811.3	219.464
815.847	104.011
820.391	124.262
824.933	49.832
829.471	44.0596
834.008	101.25
838.541	70.9941
843.073	26.1289
847.601	86.1182
852.127	10.9131
856.65	35.4258
861.171	5.35742
865.69	64.7471
870.205	42.8545
874.718	18.2842
879.229	79.208
883.737	11.4229
888.242	179.284
892.745	7.29785
897.246	21.6455
901.743	89.2383
906.239	92.6894
910.731	8.32031
915.221	64.6768
919.709	57.5244
924.194	76.1719
928.677	57.1006
933.157	258.057
937.634	39.544
942.109	73.8867
946.582	209.112
951.052	260.22
955.519	129.215
959.984	136.3
964.447	192.607
968.906	121.716
973.364	291.226
977.819	262.92
982.271	307.896
986.721	902.164
991.169	1482.74
995.614	1836.61
1000.06	1260.4
1004.5	795.819
1008.93	597.016
1013.37	445.446
1017.8	486.456
1022.23	679.918
1026.66	1015.88
1031.09	1122.83
1035.51	1049.27
1039.93	1135.8
1044.35	1405.88
1048.76	1932.4
1053.17	2245.75
1057.58	1394.44
1061.99	696.418
1066.4	335.761
1070.8	289.237
1075.2	386.528
1079.6	255.425
1084	470.538
1088.39	574.872
1092.78	637.463
1097.17	821.745
1101.56	1305.65
1105.94	1695.89
1110.32	2613.73
1114.7	4938.91
1119.08	9366.83
1123.45	13111.7
1127.82	10602.4
1132.19	7411.48
1136.56	6711.31
1140.92	6091.27
1145.29	3735.73
1149.65	2146.99
1154	1221.33
1158.36	927.866
1162.71	606.464
1167.06	516.729
1171.41	421.221
1175.76	324.221
1180.1	417.699
1184.44	296.513
1188.78	100.799
1193.11	216.832
1197.45	132.047
1201.78	228.403
1206.11	97.8691
1210.43	244.427
1214.76	149.09
1219.08	39.8477
1223.4	27.7002
1227.72	59.6318
1232.03	18.3975
1236.35	31.7432
1240.66	197.162
1244.96	43.9922
1249.27	57.1504
1253.57	261.027
1257.88	109.332
1262.17	116.769
1266.47	118.18
1270.76	19.9707
1275.06	67.3203
1279.35	149.223
1283.63	52.7578
1287.92	359.255
1292.2	182.709
1296.48	22.1738
1300.76	120.59
1305.04	86.8506
1309.31	22.0518
1313.58	81.7939
1317.85	286.025
1322.12	69.8857
1326.38	193.891
1330.64	102.499
1334.9	138.431
1339.16	63.8935
1343.41	170.189
1347.67	204.367
1351.92	222.449
1356.17	185.017
1360.41	77.6377
1364.66	8.76367
1368.9	104.993
1373.14	380.649
1377.38	86.957
1381.61	272.56
1385.84	44.4609
1390.08	106.848
1394.3	243.43
1398.53	243.803
1402.75	183.446
1406.97	192.63
1411.19	255.52
1415.41	198.418
1419.63	230.441
1423.84	180.497
1428.05	126.689
1432.26	165.086
1436.46	223.712
1440.67	176.91
1444.87	0.957031
1449.07	66.1856
1453.27	179.506
1457.46	201.012
1461.66	109.341
1465.85	234.4
1470.04	122.699
1474.22	172.598
1478.41	151.409
1482.59	224.548
1486.77	59.9355
1490.95	116.372
1495.12	245.782
1499.3	195.318
1503.47	151.023
1507.63	106.504
1511.8	12.1435
1515.97	254.97
1520.13	74.6133
1524.29	241.775
1528.45	259.199
1532.61	211.95
1536.76	195.106
1540.91	238.589
1545.06	149.394
1549.21	179.434
1553.35	112.466
1557.5	130.148
1561.64	115.032
