Measurement: Raman, 514 nm, ccw, Raman Data Processed
Mineral: Microcline
Rruff sample: R040154
Ideal chemistry: KAlSi_3_O_8_
Locality: Mitchell County, North Carolina, USA
Source: University of Arizona Mineral Museum
Description: White cleavage fragment with some perthitic character
Measured chemistry: (K_0.90_Na_0.09_Ba_0.01_)Al_1.00_(Si_2.99_Al_0.01_)_Î£=3_O_8_
Pin_id: L00336
Orientation: Laser parallel to (-1 0 -1). Fiducial mark perpendicular to laser is parallel to a [1 0 0]
Raman shift (cm-1)	intensity
93.375	0
97.554	38.161
101.732	579.843
105.908	2209.48
110.082	2098.44
114.254	650.834
118.424	1071.34
122.592	3207.66
126.758	5349.71
130.922	4890.89
135.083	4497.9
139.243	8152.88
143.401	13279.9
147.557	22364.8
151.711	25068.3
155.863	19867.2
160.013	15880.9
164.161	8362.27
168.308	4478
172.452	3490.12
176.594	3660.98
180.734	3602.55
184.872	2396.23
189.008	1796.92
193.143	2258.26
197.275	3699.23
201.405	3293.73
205.534	1531.69
209.66	734.032
213.784	107.536
217.907	41.901
222.027	86.921
226.146	133.225
230.263	156.451
234.377	57.593
238.49	191.346
242.601	400.897
246.709	1047.21
250.816	3342.99
254.921	7016.02
259.024	7700.51
263.125	6676.37
267.224	6524.22
271.321	4409.99
275.416	4680.93
279.51	8383.58
283.601	14314.8
287.69	12916.5
291.778	7188.51
295.863	4850.37
299.947	3512.99
304.029	1911.44
308.108	989.738
312.186	404.927
316.262	207.02
320.336	443.989
324.408	1313.54
328.478	2929.92
332.546	3435.9
336.612	1320.02
340.677	494.254
344.739	140.572
348.799	275.932
352.858	852.309
356.915	1281.77
360.969	1191.27
365.022	1733.83
369.073	3671.47
373.122	5708.3
377.169	2404.25
381.215	884.049
385.258	142.307
389.299	39.604
393.339	320.359
397.376	1308.48
401.412	3172
405.446	2707.46
409.478	1584.25
413.508	1326.68
417.536	255.176
421.562	257.6
425.586	327.086
429.609	189.49
433.629	102.924
437.648	240.74
441.665	335.209
445.68	1324.52
449.693	3355.33
453.704	5341.64
457.713	4090.16
461.721	3578.08
465.726	5719.04
469.73	12164.1
473.731	21569
477.731	19194.7
481.729	11341.3
485.725	7530.65
489.72	3721.9
493.712	2930.02
497.703	3394
501.691	6210.84
505.678	14279.4
509.663	30527.9
513.646	40987.8
517.627	22832.6
521.607	9956.4
525.584	4950.55
529.56	2942.32
533.534	1870.59
537.506	1593.71
541.476	1088.46
545.444	758.986
549.41	639.574
553.375	424.852
557.337	527.533
561.298	448.68
565.257	402.084
569.214	461.258
573.17	345.66
577.123	456.701
581.075	631.877
585.024	613.322
588.972	357.332
592.918	24.23
596.863	0.6
600.805	12.615
604.746	166.646
608.685	163.494
612.621	57.898
616.557	303.996
620.49	265.836
624.421	810.43
628.351	791.879
632.279	940.707
636.205	1104.67
640.129	1294.74
644.051	1525.51
647.972	2220.9
651.89	2711.77
655.807	1629.38
659.722	1154.74
663.636	657.846
667.547	280.697
671.457	64.715
675.365	62.906
679.271	0.035
683.175	151.777
687.077	69.896
690.978	166.33
694.877	125.836
698.774	239.346
702.669	178.027
706.562	170.105
710.454	261.691
714.344	557.805
718.232	466.861
722.118	245.51
726.002	477.494
729.885	561.484
733.766	531.404
737.645	894.719
741.522	1593.18
745.397	2756.52
749.271	3924.06
753.143	2581.37
757.013	1791.19
760.881	1034.48
764.748	793.055
768.613	1175.03
772.476	922.033
776.337	416.412
780.196	561.814
784.054	141.975
787.91	414.875
791.764	365.529
795.616	451.945
799.467	396.117
803.316	737.053
807.163	913.758
811.008	1612.24
814.851	1834.51
818.693	1124.56
822.533	564.264
826.371	412.051
830.208	441.219
834.042	121.383
837.875	75.936
841.706	164.498
845.536	95.646
849.363	152.512
853.189	19.699
857.013	12.609
860.836	95.146
864.656	93.557
868.475	116.051
872.292	99.812
876.108	87.316
879.922	252.998
883.733	109.096
887.544	12.736
891.352	158.215
895.159	76.182
898.964	185.055
902.767	312.859
906.568	293.645
910.368	135.426
914.166	387.35
917.962	490.295
921.757	158.287
925.55	323.293
929.341	196.295
933.13	145.326
936.918	468.721
940.703	200.582
944.488	285.5
948.27	259.035
952.051	372.121
955.83	337.359
959.607	353.391
963.383	443.994
967.156	950.789
970.928	1401.03
974.699	794.297
978.468	570.633
982.234	1085.57
986	933.352
989.763	1457.5
993.525	2133.4
997.285	2609.16
1001.04	2019.73
1004.8	1990.25
1008.55	1677.54
1012.31	1321.41
1016.06	1007.75
1019.81	1000.64
1023.56	1365.62
1027.31	1191.32
1031.05	1417.36
1034.79	1487.47
1038.53	1810.65
1042.27	1721.85
1046.01	1439.82
1049.75	1452.44
1053.48	1494.23
1057.22	1252.04
1060.95	636.48
1064.68	471.949
1068.4	158.355
1072.13	214.375
1075.86	255.68
1079.58	273.051
1083.3	410.543
1087.02	612.398
1090.74	807.484
1094.45	1003.42
1098.17	965.625
1101.88	1432.55
1105.59	936.098
1109.3	1590.02
1113.01	2146.61
1116.71	3443.59
1120.42	5964.22
1124.12	8366.96
1127.82	6690.19
1131.52	5077.48
1135.22	5284.48
1138.91	4908.81
1142.61	3909.68
1146.3	2526.57
1149.99	1358.86
1153.68	744.953
1157.37	490.211
1161.06	303.656
1164.74	465.863
1168.42	269.184
1172.1	180.715
1175.78	272.242
1179.46	51.012
1183.14	399.594
1186.81	457.004
1190.48	284.539
1194.15	29.18
1197.83	51.992
1201.49	650.625
1205.16	330.836
1208.82	432.902
1212.49	272.113
1216.15	104.238
1219.81	204.738
1223.46	318.059
1227.12	65.184
1230.78	72.281
1234.43	423.809
1238.08	201.871
1241.73	336.203
1245.38	246.465
1249.03	530.352
1252.67	282.293
1256.31	173.309
1259.95	93.695
1263.6	443.383
1267.23	111.625
1270.87	222.062
1274.51	151.129
1278.14	439.844
1281.77	355.641
1285.4	86.453
1289.03	112.344
1292.66	25.125
1296.28	117.594
1299.91	47.371
1303.53	59.66
1307.15	164.41
1310.77	43.531
1314.38	244.477
1318	124.41
1321.61	207.031
1325.23	100.094
1328.84	6.418
1332.45	109.125
1336.06	47.152
1339.66	337.602
1343.27	56.559
1346.87	392.074
1350.47	406.469
1354.07	553.488
1357.67	514.84
1361.26	229.992
1364.86	464.555
1368.45	505.449
1372.04	577.594
1375.63	440.652
1379.22	558.25
1382.81	636.078
1386.39	438.645
1389.98	832.16
1393.56	680.621
1397.14	556.523
1400.72	620.402
1404.3	188.723
1407.87	270.23
1411.45	422.145
1415.02	453.953
1418.59	613.613
1422.16	311.125
1425.73	321.129
1429.29	454.688
1432.86	462.562
1436.42	881.66
1439.98	477.816
1443.54	816.57
1447.1	268.051
1450.66	789.707
1454.21	776.043
1457.77	466.418
1461.32	262.641
1464.87	9.879
1468.42	251.617
1471.96	295.914
1475.51	29.348
1479.06	37.469
1482.6	235.195
1486.14	0
