Measurement: Raman, 514 nm, ccw, Raman Data Processed
Mineral: Microcline
Rruff sample: R050150
Ideal chemistry: KAlSi_3_O_8_
Locality: Crystal Peak area, Park/Teller Counties, Colorado, USA
Source: Dave Bunk Minerals
Description: Pale blue prismatic crystals
Measured chemistry: (K_0.95_Na_0.05_)_Î£=1_Al_1.00_Si_3.00_O_8_
Pin_id: L01075
Orientation: Laser parallel to (0 1 1). Fiducial mark perpendicular to laser is parallel to a [1 0 0]
Raman shift (cm-1)	intensity
131.492	0
136.445	2789.85
141.395	5639.25
146.343	7380.4
151.287	15862.6
156.228	27568.3
161.166	18868.9
166.1	6688.51
171.032	1957.65
175.961	1982.51
180.887	2339.53
185.809	1530.4
190.729	1407.2
195.645	2705.7
200.559	2676.58
205.469	914.984
210.376	110.306
215.281	325.453
220.182	219.084
225.08	141.898
229.976	85.0606
234.868	3.68555
239.757	72.7695
244.643	866.158
249.527	2575.31
254.407	7279.14
259.284	9672.94
264.158	9149.38
269.029	7563.03
273.898	7561.58
278.763	14926.9
283.625	26447.4
288.485	20154.1
293.341	7952.28
298.194	3532.59
303.045	2179.24
307.892	1308.06
312.736	944.814
317.578	890.571
322.417	1295.78
327.252	2697.13
332.085	3688.64
336.914	2310.85
341.741	1333.19
346.565	884.215
351.386	1164.7
356.204	1437.95
361.019	1177.72
365.831	960.182
370.64	1388.43
375.447	937.69
380.25	243.044
385.05	17.0791
389.848	56.5088
394.643	128.302
399.434	464.244
404.223	481.863
409.009	319.867
413.792	147.674
418.573	6.51953
423.35	175.282
428.124	104.09
432.896	97.8975
437.665	385.08
442.431	897.665
447.194	2828.8
451.954	6318.59
456.711	5912.16
461.465	3773.69
466.217	4927.01
470.966	10640.2
475.712	16079.4
480.455	11963.1
485.195	8093.58
489.932	4244.06
494.667	2825.27
499.399	4263.63
504.128	10498.5
508.854	27670.5
513.577	42055.7
518.297	24051.6
523.015	8996.12
527.73	4064.12
532.442	2290.94
537.151	1498.51
541.858	920.834
546.561	704.294
551.262	643.96
555.96	367.248
560.656	288.461
565.348	339.312
570.038	135.993
574.725	251.163
579.409	558.519
584.091	692.977
588.769	391.671
593.445	89.6484
598.119	24.9473
602.789	21.5898
607.457	83.8467
612.122	17.5293
616.784	333.331
621.443	537.488
626.1	971.977
630.754	1180.78
635.405	1018.88
640.054	1140.58
644.7	1556.07
649.343	1959.98
653.983	2127
658.621	1635.11
663.256	925.294
667.888	520.638
672.518	251.976
677.144	25.1914
681.769	8.39258
686.39	27.4385
691.009	110.217
695.625	123.237
700.238	27.9912
704.849	99.2607
709.457	36.2871
714.062	64.207
718.665	3.22656
723.265	57.792
727.863	57.1562
732.457	299.232
737.049	598.25
741.639	1211.31
746.225	2146.85
750.81	2523.1
755.391	1588.59
759.97	956.604
764.546	917.534
769.12	860.383
773.69	517.136
778.259	392.981
782.824	295.19
787.387	288.151
791.948	319.894
796.506	354.408
801.061	523.694
805.613	1216.75
810.163	2678.56
814.711	3191.13
819.255	1430.6
823.797	464.734
828.337	251.756
832.874	231.167
837.408	246.049
841.94	242.107
846.469	18.4912
850.996	159.453
855.52	4.30566
860.041	112.327
864.56	55.1611
869.077	60.8037
873.59	63.4443
878.101	10.3701
882.61	8.95215
887.116	5.0791
891.62	48.1103
896.121	150.345
900.619	121.439
905.115	43.29
909.608	0.926758
914.099	37.1133
918.587	139.083
923.073	194.916
927.556	250.62
932.037	302.202
936.515	90.6719
940.991	105.035
945.464	132.338
949.934	198.581
954.403	250.748
958.868	221.888
963.331	372.114
967.792	116.42
972.25	219.898
976.705	387.585
981.158	289.252
985.609	566.807
990.057	1113.59
994.503	1682.86
998.946	1963.44
1003.39	2082.14
1007.83	1531.5
1012.26	1096.41
1016.69	733.621
1021.12	635.328
1025.55	611.916
1029.98	685.59
1034.4	1007.91
1038.82	1263.22
1043.24	928.771
1047.66	578.868
1052.07	652.717
1056.48	466.718
1060.89	123.878
1065.3	124.201
1069.7	246.692
1074.1	93.8779
1078.5	168.89
1082.9	274.906
1087.29	362.307
1091.68	296.688
1096.07	498.255
1100.46	698.247
1104.84	578.184
1109.23	1067.14
1113.61	1571.23
1117.98	3218.57
1122.36	5117.74
1126.73	4421.67
1131.1	3619.91
1135.47	4590.23
1139.83	4272.41
1144.19	2783.93
1148.56	1370.51
1152.91	740.303
1157.27	642.955
1161.62	416.18
1165.97	451.635
1170.32	272.279
1174.67	102.625
1179.01	114.871
1183.35	206.141
1187.69	169.027
1192.03	133.065
1196.36	56.7168
1200.7	53.543
1205.03	176.496
1209.35	197.467
1213.68	9.47656
1218	239.678
1222.32	51.9375
1226.64	85.5684
1230.95	309.986
1235.27	40.6348
1239.58	110.773
1243.89	113.769
1248.19	24.3945
1252.5	19.4746
1256.8	227.572
1261.1	77.2949
1265.4	0.71875
1269.69	40.2578
1273.98	89.1465
1278.27	128.324
1282.56	83.5586
1286.85	83.3809
1291.13	44.3672
1295.41	77.8047
1299.69	0.998047
1303.97	75.1719
1308.24	109.334
1312.51	189.555
1316.78	65.6856
1321.05	142.832
1325.31	135.994
1329.58	297.982
1333.84	53.6582
1338.1	162.654
1342.35	161.625
1346.61	399.81
1350.86	160.014
1355.11	247.19
1359.35	133.131
1363.6	154.869
1367.84	69.0664
1372.08	281.523
1376.32	165.143
1380.55	38.3223
1384.79	326.35
1389.02	395.582
1393.25	115.965
1397.47	87.6875
1401.7	184.047
1405.92	207.457
1410.14	188.801
1414.36	209.055
1418.57	293.797
1422.79	254.762
1427	286.463
1431.21	316.932
1435.41	36.498
1439.62	76.8633
1443.82	272.244
1448.02	61.5293
1452.22	51.2109
1456.41	254.09
1460.61	227.045
1464.8	427.447
1468.99	243.037
1473.17	321.148
1477.36	203.203
1481.54	254.076
1485.72	143.434
1489.9	162.885
1494.08	280.537
1498.25	61.502
1502.42	130.738
1506.59	164.481
1510.76	347.598
1514.93	193.301
1519.09	168.309
1523.25	256.721
1527.41	266.35
1531.57	327.949
1535.72	317.025
1539.87	281.834
1544.02	45.9336
1548.17	225.361
1552.32	195.266
1556.46	124.584
1560.6	169.404
