Measurement: Raman, 514 nm, ccw, Raman Data Processed
Mineral: Microcline
Rruff sample: R040154
Ideal chemistry: KAlSi_3_O_8_
Locality: Mitchell County, North Carolina, USA
Source: University of Arizona Mineral Museum
Description: White cleavage fragment with some perthitic character
Measured chemistry: (K_0.90_Na_0.09_Ba_0.01_)Al_1.00_(Si_2.99_Al_0.01_)_Î£=3_O_8_
Pin_id: L00521
Orientation: Laser parallel to -c* (0 0 -1). Fiducial mark perpendicular to laser is parallel to a [1 0 0]
Raman shift (cm-1)	intensity
91.981	0
96.161	1.646
100.34	329.704
104.516	1275.02
108.691	2210.61
112.864	1531.1
117.034	2992.51
121.203	5714.93
125.369	8740.1
129.534	8378.13
133.696	4720.64
137.857	3211.52
142.016	3063.9
146.172	3988.76
150.327	4853.33
154.48	4976.38
158.63	4603.33
162.779	3362.62
166.926	2465.76
171.07	3388.66
175.213	5827.28
179.354	6456.99
183.493	4231.75
187.63	2675.21
191.765	2997.69
195.898	4647.35
200.029	4664.21
204.158	3046.47
208.285	1952.33
212.41	781.122
216.533	211.321
220.654	14.263
224.773	64.95
228.891	123.963
233.006	109.862
237.119	84.702
241.231	177.068
245.34	732.127
249.448	2088.06
253.553	4676.93
257.657	7311.2
261.758	9465.92
265.858	10148.4
269.956	7359.03
274.052	4677.53
278.146	5691.08
282.237	9106.1
286.327	9246.23
290.416	5723.12
294.502	2567.55
298.586	1036.36
302.668	317.378
306.749	102.525
310.827	186.31
314.903	204.685
318.978	81.931
323.051	113.125
327.121	740.607
331.19	951.612
335.257	349.312
339.322	24.267
343.385	7.783
347.446	141.715
351.505	63.097
355.563	129.528
359.618	63.71
363.672	202.625
367.723	775.507
371.773	1077.76
375.821	625.784
379.866	217.029
383.91	25.545
387.952	57.389
391.992	174.009
396.031	1072.82
400.067	1966.62
404.101	2331.59
408.134	2374.98
412.165	2326.21
416.193	1293.27
420.22	638.193
424.245	270.098
428.268	308.885
432.289	498.5
436.309	710.729
440.326	1527.27
444.342	3791.85
448.355	9287.52
452.367	16107.2
456.377	13273.9
460.385	7232.99
464.391	5657.94
468.395	8210.03
472.398	14590.5
476.398	16035
480.397	11310.9
484.394	7374.85
488.389	4521.11
492.382	3509.08
496.373	4265.75
500.362	7542.53
504.349	16646.4
508.335	34504.4
512.319	47556.8
516.3	33585.9
520.28	15418.3
524.259	7262.26
528.235	4201.39
532.209	2706.25
536.182	1982.03
540.152	1377.86
544.121	1183.33
548.088	927.674
552.053	684.1
556.017	415.148
559.978	311.762
563.938	405.883
567.895	401.621
571.851	353.914
575.805	589.996
579.758	865.949
583.708	742.193
587.657	529.68
591.603	78.158
595.548	134.385
599.491	195.381
603.432	215.066
607.372	184.186
611.309	51.707
615.245	107.59
619.179	141.191
623.111	220.568
627.041	357.537
630.97	713.826
634.896	649.352
638.821	1128.31
642.744	1631.4
646.665	2548.3
650.584	2993.02
654.502	2587.55
658.418	1701.91
662.331	737.229
666.244	582.781
670.154	145.504
674.062	23.111
677.969	69.502
681.874	6.465
685.777	32.475
689.678	93.346
693.577	87.729
697.475	104.529
701.371	41.795
705.265	285.502
709.157	288.676
713.047	256.279
716.936	228.297
720.823	255.268
724.708	417.658
728.591	716.84
732.472	814.676
736.352	1634.9
740.23	2710.46
744.106	5919.85
747.98	9423.84
751.853	7620.2
755.723	4463.41
759.592	3377.11
763.459	2723.98
767.325	1875.13
771.188	1191.77
775.05	1095.08
778.91	621.174
782.768	512.379
786.625	723.637
790.479	991.766
794.332	1218.76
798.183	1171.62
802.033	2061.31
805.88	4103.94
809.726	7838.4
813.57	11087.7
817.413	6561.95
821.253	2748.03
825.092	1294.73
828.929	992.109
832.764	591.385
836.598	509.771
840.429	471.902
844.259	249.764
848.088	174.604
851.914	166.354
855.739	12.635
859.562	51.768
863.383	10.018
867.203	228.535
871.02	153.275
874.836	53.258
878.65	48.678
882.463	169.684
886.274	50.025
890.083	132.98
893.89	22.213
897.695	18.246
901.499	165.188
905.301	134.816
909.102	46.525
912.9	125.197
916.697	80.045
920.492	359.648
924.285	207.414
928.077	158.217
931.867	139.082
935.655	78.023
939.442	194.971
943.226	381.451
947.009	284.824
950.791	208.75
954.57	232.684
958.348	323.627
962.124	129.586
965.899	413.551
969.671	439.516
973.442	411.484
977.211	562.502
980.979	753.547
984.745	972.688
988.509	1656.9
992.271	2359.28
996.032	2739.12
999.791	2216.75
1003.55	1398.23
1007.3	1079.84
1011.06	736.219
1014.81	669.801
1018.56	516.066
1022.31	389.434
1026.06	724.5
1029.8	718.295
1033.55	891.617
1037.29	778.627
1041.03	480.195
1044.77	571.215
1048.5	864.844
1052.24	500.16
1055.97	261.1
1059.7	476.619
1063.43	373.791
1067.16	536.242
1070.89	625.67
1074.61	495.645
1078.34	707.842
1082.06	561.012
1085.78	747.016
1089.5	812.969
1093.21	1233.35
1096.93	1873.12
1100.64	1777.15
1104.35	1628.24
1108.06	985.305
1111.77	793.367
1115.48	834.57
1119.18	1156.41
1122.89	2422.8
1126.59	1826.24
1130.29	1509.21
1133.99	1548.09
1137.68	2300.12
1141.38	1835.72
1145.07	1396.7
1148.76	638.867
1152.45	683.123
1156.14	55.42
1159.83	430.078
1163.51	183.697
1167.19	419.877
1170.88	242.008
1174.56	178.506
1178.23	192.557
1181.91	312.57
1185.59	85.955
1189.26	105.336
1192.93	148.037
1196.6	36.428
1200.27	220.254
1203.94	406.98
1207.6	106.293
1211.27	253.51
1214.93	218.891
1218.59	348.736
1222.25	27.744
1225.9	270.119
1229.56	188.801
1233.21	380.361
1236.86	390.648
1240.51	398.748
1244.16	64.027
1247.81	35.666
1251.45	201.113
1255.1	277.207
1258.74	301.879
1262.38	261.67
1266.02	277.957
1269.66	29.754
1273.29	852.398
1276.93	97.541
1280.56	145.514
1284.19	127.135
1287.82	210.717
1291.45	113.264
1295.07	163.854
1298.7	107.514
1302.32	103.422
1305.94	102.117
1309.56	172.977
1313.18	42.961
1316.8	247.531
1320.41	151.348
1324.02	41.465
1327.63	69.379
1331.24	347.641
1334.85	102.496
1338.46	165.66
1342.06	140.766
1345.67	165.156
1349.27	51.191
1352.87	281.758
1356.47	243.363
1360.07	425.426
1363.66	479.332
1367.25	499.957
1370.85	442.539
1374.44	337.969
1378.03	367.926
1381.61	109.984
1385.2	347.762
1388.78	332.414
1392.37	228.457
1395.95	371.109
1399.53	278.059
1403.1	317.785
1406.68	162.148
1410.26	46.836
1413.83	221.641
1417.4	107.254
1420.97	322.242
1424.54	148.336
1428.1	134.57
1431.67	278.746
1435.23	367.215
1438.8	221.703
1442.36	333.773
1445.91	376.516
1449.47	162.367
1453.03	259.758
1456.58	361.121
1460.13	407.324
1463.68	442.066
1467.23	87.809
1470.78	367.812
1474.33	392.16
