Measurement: Raman, 514 nm, ccw, Raman Data Processed
Mineral: Microcline
Rruff sample: R050054
Ideal chemistry: KAlSi_3_O_8_
Locality: Kenticha, Negele area, Sidamo Province, Ethiopia
Source: Rock Currier
Description: Light blue single crystal
Measured chemistry: (K_0.96_Na_0.04_)Al_1.00_Si_3.00_O_8_
Pin_id: M00161
Orientation: Laser parallel to a* (1 0 0). Fiducial mark perpendicular to laser is parallel to -b [0 -1 0]
Raman shift (cm-1)	intensity
98.519	0
102.712	236.006
106.902	2008.58
111.09	3780.94
115.277	1581.78
119.461	193.751
123.643	446.21
127.823	1039.48
132.001	307.458
136.176	25.57
140.35	192.888
144.521	482.767
148.691	1910.22
152.858	2101.13
157.024	1222.68
161.187	653.539
165.348	447.371
169.507	395.64
173.664	630.863
177.819	1296.92
181.971	1243.61
186.122	561.46
190.271	252.122
194.417	354.536
198.562	781.709
202.704	549.092
206.844	233.608
210.983	91.13
215.119	28.497
219.253	13.777
223.385	65.66
227.515	69.913
231.643	62.685
235.769	60.052
239.893	5.595
244.014	33.638
248.134	100.154
252.252	403.796
256.367	1096.86
260.481	1450.06
264.592	1628.03
268.702	1629.51
272.809	934.579
276.915	764.739
281.018	1211.06
285.119	2221.01
289.218	2169.17
293.316	1189.76
297.411	726.656
301.504	592.244
305.595	414.505
309.684	271.572
313.771	190.155
317.856	138.439
321.939	197.885
326.02	319.713
330.099	502.635
334.176	537.147
338.251	334.17
342.323	234.651
346.394	239.763
350.463	266.909
354.53	421.895
358.594	502.756
362.657	388.939
366.718	433.617
370.777	772.216
374.833	883.842
378.888	441.885
382.941	270.618
386.992	200.917
391.04	169.198
395.087	194.995
399.132	371.544
403.174	1014.41
407.215	767.125
411.254	501.863
415.29	460.183
419.325	207.97
423.358	125.528
427.389	49.854
431.417	35.631
435.444	120.97
439.469	183.404
443.492	300.921
447.512	647.276
451.531	1693.71
455.548	2497.25
459.563	1442.25
463.576	1090.5
467.587	1454.79
471.596	3119.6
475.603	6264.72
479.608	4966.48
483.611	3007.76
487.612	1850.3
491.611	1018.04
495.608	813.293
499.603	975.39
503.596	1688.68
507.587	3713.45
511.577	8371.74
515.564	9948.22
519.549	5015.71
523.533	2295.64
527.514	1148.5
531.493	756.784
535.471	493.065
539.447	337.663
543.42	295.271
547.392	229.815
551.362	156.337
555.329	184.367
559.295	113.747
563.259	91.476
567.221	114.931
571.181	88.929
575.139	99.939
579.095	175.096
583.049	189.888
587.002	159.897
590.952	104.04
594.9	52.723
598.847	7.828
602.792	36.804
606.734	23.505
610.675	18.261
614.614	24.068
618.55	1.036
622.485	57.07
626.418	102.159
630.349	153.234
634.279	118.465
638.206	145.623
642.131	161.912
646.055	323.217
649.976	452.533
653.896	570.855
657.814	419.198
661.729	229.586
665.643	107.031
669.555	84.08
673.465	33.103
677.373	14.823
681.28	11.996
685.184	28.988
689.087	9.307
692.987	23.961
696.886	27.001
700.783	6.358
704.677	37.498
708.57	69.455
712.462	25.085
716.351	55.867
720.238	0.719
724.124	82.496
728.007	97.363
731.889	115.335
735.769	138.273
739.647	283.054
743.523	580.363
747.397	1093.26
751.269	1256.97
755.139	694.293
759.008	376.193
762.875	298.134
766.739	300.641
770.602	143.392
774.463	118.109
778.323	134.825
782.18	43.362
786.035	43.998
789.889	58.596
793.741	49.154
797.591	65.674
801.439	75.152
805.285	142.589
809.129	297.986
812.971	628.479
816.812	628.792
820.651	252.062
824.488	62.29
828.323	118.39
832.156	56.155
835.987	126.953
839.817	43.702
843.644	15.943
847.47	34.015
851.294	16.551
855.116	14.208
858.936	12.247
862.755	21.755
866.571	6.124
870.386	11.506
874.199	34.056
878.01	81.169
881.82	31.175
885.627	48.141
889.433	5.868
893.236	4.074
897.038	52.98
900.838	38.843
904.637	53.652
908.433	11.463
912.228	2.741
916.021	23.955
919.812	53.75
923.601	58.444
927.388	92.15
931.174	33.85
934.958	64.432
938.739	87.07
942.52	65.609
946.298	95.24
950.074	138.795
953.849	78.378
957.622	89.97
961.393	1.448
965.162	160.122
968.93	108.683
972.696	114.235
976.459	128.779
980.222	202.317
983.982	212.585
987.74	275.57
991.497	482.736
995.252	725.37
999.005	600.929
1002.76	475.982
1006.51	419.456
1010.25	202.003
1014	221.035
1017.74	211.376
1021.49	254.904
1025.23	259.899
1028.96	270.914
1032.7	250.255
1036.44	259.641
1040.17	232.997
1043.9	253.975
1047.63	321.192
1051.36	418.598
1055.09	414.681
1058.81	263.757
1062.54	215.118
1066.26	126.978
1069.97	144.235
1073.69	159.655
1077.41	129.044
1081.12	108.199
1084.84	134.696
1088.55	157.425
1092.25	183.962
1095.96	392.488
1099.67	466.221
1103.37	456.769
1107.07	364.595
1110.77	486.445
1114.47	692.282
1118.16	1110.09
1121.86	1982.95
1125.55	2309.66
1129.24	1520.42
1132.93	1169.29
1136.62	1250.55
1140.31	1232.79
1143.99	978.53
1147.67	628.365
1151.35	333.802
1155.03	262.851
1158.71	242.226
1162.39	120.568
1166.06	57.875
1169.73	20.131
1173.4	130.546
1177.07	114.388
1180.74	64.025
1184.4	98.742
1188.07	59.905
1191.73	91.951
1195.39	10.139
1199.05	11.669
1202.7	3.818
1206.36	2.08
1210.01	75.296
1213.66	87.886
1217.31	26.945
1220.96	91.425
1224.6	153.361
1228.25	46.458
1231.89	68.636
1235.53	102.277
1239.17	127.456
1242.81	52.706
1246.44	74.058
1250.08	17.052
1253.71	10.154
1257.34	1.426
1260.97	12.376
1264.6	104.62
1268.22	105.999
1271.85	122.057
1275.47	80.671
1279.09	100.138
1282.71	5.476
1286.33	5.225
1289.94	128.558
1293.56	40.949
1297.17	40.575
1300.78	50.098
1304.39	66.497
1307.99	142.523
1311.6	241.426
1315.2	6.197
1318.8	1.154
1322.4	7.361
1326	67.726
1329.6	74.632
1333.19	135.673
1336.79	142.455
1340.38	99.009
1343.97	92.352
1347.56	17.343
1351.14	22.5
1354.73	85.722
1358.31	49.687
1361.89	92.555
1365.47	141.34
1369.05	80.077
1372.63	58.877
1376.2	46.921
1379.78	120.979
1383.35	99.129
1386.92	29.363
1390.49	96.95
1394.05	110.619
1397.62	66.257
1401.18	85.725
1404.74	91.842
1408.3	187.485
1411.86	213.193
1415.42	174.15
1418.97	92.053
1422.53	106.761
1426.08	0.576
1429.63	89.994
1433.18	6.348
1436.72	68.532
1440.27	91.061
1443.81	155.585
1447.36	143.01
1450.89	110.167
1454.43	172.222
1457.97	168.621
1461.51	121.973
1465.04	115.59
1468.57	110.594
1472.1	86.123
1475.63	140.053
1479.16	171.101
1482.68	118.395
1486.21	172.855
1489.73	210.907
1493.25	242.649
1496.77	228.787
1500.29	66.59
1503.8	107.669
1507.32	80.909
1510.83	58.351
1514.34	1.616
1517.85	34.875
1521.36	0
