Measurement: Raman, 514 nm, ccw, Raman Data Processed
Mineral: Microcline
Rruff sample: R040154
Ideal chemistry: KAlSi_3_O_8_
Locality: Mitchell County, North Carolina, USA
Source: University of Arizona Mineral Museum
Description: White cleavage fragment with some perthitic character
Measured chemistry: (K_0.90_Na_0.09_Ba_0.01_)Al_1.00_(Si_2.99_Al_0.01_)_Î£=3_O_8_
Pin_id: L00521
Orientation: Laser parallel to -c* (0 0 -1). Fiducial mark perpendicular to laser is parallel to a [1 0 0]
Raman shift (cm-1)	intensity
93.375	0
97.554	22.459
101.732	219.828
105.908	640.444
110.082	534.653
114.254	960.931
118.424	2905.65
122.592	6036.93
126.758	7308.56
130.922	6305.12
135.083	7790.1
139.243	10695.3
143.401	10563.3
147.557	10899.8
151.711	17718.6
155.863	26658.1
160.013	25144.7
164.161	15168.8
168.308	7963.15
172.452	5781.02
176.594	5369.36
180.734	4552.22
184.872	3420.16
189.008	2674.5
193.143	2930.25
197.275	3525.35
201.405	2702.69
205.534	1694.28
209.66	975.88
213.784	287.243
217.907	111.719
222.027	204.062
226.146	224.861
230.263	172.661
234.377	138.528
238.49	199.185
242.601	619.328
246.709	1715.22
250.816	4802.33
254.921	8835.39
259.024	9597.74
263.125	9859.54
267.224	8591.57
271.321	6910.69
275.416	9446.62
279.51	18051
283.601	25068.8
287.69	20519.9
291.778	10470
295.863	4971.71
299.947	2713.88
304.029	1511.56
308.108	951.81
312.186	401.646
316.262	275.089
320.336	373.066
324.408	1077.08
328.478	2564.66
332.546	2454.16
336.612	1142.46
340.677	479.525
344.739	150.353
348.799	242.881
352.858	452.127
356.915	570.1
360.969	379.796
365.022	222.214
369.073	488.328
373.122	360.216
377.169	269.098
381.215	35.996
385.258	149.9
389.299	99.026
393.339	54.209
397.376	346.688
401.412	666.862
405.446	624.626
409.478	527.967
413.508	344.564
417.536	46.986
421.562	41.98
425.586	43.486
429.609	135.539
433.629	137.705
437.648	516.713
441.665	971.512
445.68	2593.38
449.693	5523.77
453.704	7252.18
457.713	5359.72
461.721	4531.27
465.726	5338.44
469.73	10801.2
473.731	16580.6
477.731	15182.6
481.729	11246.2
485.725	7332.52
489.72	4040.48
493.712	3413.13
497.703	4666.47
501.691	8840.49
505.678	19685
509.663	37383
513.646	41413.3
517.627	22977.8
521.607	10154.7
525.584	5224.42
529.56	3313.52
533.534	2359.5
537.506	1745.93
541.476	1363.38
545.444	942.582
549.41	836.08
553.375	560.879
557.337	599.268
561.298	635.119
565.257	607.877
569.214	706.66
573.17	825.463
577.123	879.564
581.075	1280.29
585.024	1056.47
588.972	895.613
592.918	271.049
596.863	361.111
600.805	116.709
604.746	385.91
608.685	295.807
612.621	166.428
616.557	422.775
620.49	509.871
624.421	1086.72
628.351	1186.32
632.279	1131.67
636.205	1208.78
640.129	1483.65
644.051	1639.29
647.972	2215.68
651.89	2499.84
655.807	1773.77
659.722	1118.46
663.636	805.93
667.547	259.221
671.457	214.281
675.365	224.152
679.271	79.363
683.175	238.93
687.077	96.027
690.978	41.607
694.877	204.117
698.774	126.654
702.669	47.705
706.562	202.691
710.454	76.24
714.344	238.174
718.232	115.822
722.118	301.781
726.002	372.42
729.885	579.619
733.766	479.227
737.645	838.088
741.522	1612.94
745.397	2898.29
749.271	3541.46
753.143	2575.56
757.013	1779.91
760.881	1282.1
764.748	1200.26
768.613	1243.34
772.476	1098.48
776.337	562.479
780.196	521.178
784.054	569.975
787.91	497.246
791.764	412.311
795.616	496.17
799.467	667.824
803.316	1344.28
807.163	1918.53
811.008	3699.6
814.851	3780.47
818.693	2126.15
822.533	1002.48
826.371	599.375
830.208	505.863
834.042	237.346
837.875	338.906
841.706	185.145
845.536	19.658
849.363	156.768
853.189	49.555
857.013	30.998
860.836	98.9
864.656	66.883
868.475	130.664
872.292	276.775
876.108	300.092
879.922	24.635
883.733	109.152
887.544	187.014
891.352	101.951
895.159	85.178
898.964	69.494
902.767	42.062
906.568	240.568
910.368	28.098
914.166	369.732
917.962	341.33
921.757	168.883
925.55	79.404
929.341	175.867
933.13	20.277
936.918	472.623
940.703	249.926
944.488	216.203
948.27	237.453
952.051	235.676
955.83	430.898
959.607	316.117
963.383	242.797
967.156	396.705
970.928	319.014
974.699	725.316
978.468	896.607
982.234	1165.91
986	1248.46
989.763	1639.72
993.525	2532.97
997.285	2678.97
1001.04	2050.52
1004.8	1896.8
1008.55	1592.96
1012.31	1264.83
1016.06	978.273
1019.81	819.568
1023.56	1109.42
1027.31	905.404
1031.05	992.939
1034.79	1373.21
1038.53	1945.77
1042.27	1572.62
1046.01	900.436
1049.75	791.416
1053.48	743.744
1057.22	583.068
1060.95	503.721
1064.68	408.391
1068.4	142.514
1072.13	213.105
1075.86	447
1079.58	253.514
1083.3	678.572
1087.02	498.787
1090.74	765.217
1094.45	1068.88
1098.17	1313.18
1101.88	1592.58
1105.59	1032.03
1109.3	1151
1113.01	1570.89
1116.71	1918.66
1120.42	3180.86
1124.12	4585.66
1127.82	3642.02
1131.52	3157.09
1135.22	3940.92
1138.91	4107.87
1142.61	3153.82
1146.3	2101.49
1149.99	1093.69
1153.68	628.297
1157.37	534.441
1161.06	221.004
1164.74	376.551
1168.42	119.172
1172.1	1.512
1175.78	201.801
1179.46	156.168
1183.14	271.242
1186.81	235.395
1190.48	180.918
1194.15	273.992
1197.83	1.27
1201.49	679.836
1205.16	257.176
1208.82	421.566
1212.49	393.699
1216.15	314.328
1219.81	397.598
1223.46	770.668
1227.12	755.727
1230.78	987.668
1234.43	706.141
1238.08	139.918
1241.73	439.598
1245.38	495.707
1249.03	446.008
1252.67	332.27
1256.31	38.797
1259.95	38.5
1263.6	261.805
1267.23	254.453
1270.87	222.281
1274.51	134.969
1278.14	348.746
1281.77	241.551
1285.4	133.328
1289.03	101.855
1292.66	33.617
1296.28	224.059
1299.91	184.41
1303.53	12.121
1307.15	221.801
1310.77	69.688
1314.38	78.125
1318	111.371
1321.61	251.48
1325.23	155.543
1328.84	77.777
1332.45	55.273
1336.06	194.988
1339.66	224.688
1343.27	145.258
1346.87	391.484
1350.47	651.062
1354.07	535.691
1357.67	555.141
1361.26	328.191
1364.86	253.238
1368.45	354.363
1372.04	403.859
1375.63	563.551
1379.22	269.125
1382.81	525.289
1386.39	366.723
1389.98	496.684
1393.56	476.938
1397.14	532.586
1400.72	478.574
1404.3	217.605
1407.87	275.484
1411.45	433.453
1415.02	352.137
1418.59	571.691
1422.16	308.781
1425.73	319.875
1429.29	223.324
1432.86	359.621
1436.42	561.492
1439.98	571.574
1443.54	666.734
1447.1	497.641
1450.66	690.59
1454.21	755.645
1457.77	469.316
1461.32	87.473
1464.87	98.438
1468.42	372.168
1471.96	287.762
1475.51	0.605
