Measurement: Raman, 514 nm, ccw, Raman Data Processed
Mineral: Microcline
Rruff sample: R040154
Ideal chemistry: KAlSi_3_O_8_
Locality: Mitchell County, North Carolina, USA
Source: University of Arizona Mineral Museum
Description: White cleavage fragment with some perthitic character
Measured chemistry: (K_0.90_Na_0.09_Ba_0.01_)Al_1.00_(Si_2.99_Al_0.01_)_Î£=3_O_8_
Pin_id: L00168
Orientation: Laser parallel to (0 1 1). Fiducial mark perpendicular to laser is parallel to -a [-1 0 0]
Raman shift (cm-1)	intensity
94.768	0
98.947	543.473
103.124	3471.02
107.3	6782.84
111.473	4581.95
115.644	1589.16
119.813	2764.97
123.981	6006.01
128.146	8176.6
132.309	5441.76
136.47	2101.99
140.63	1848.44
144.787	2688.62
148.942	4002.88
153.096	3810.18
157.247	2767.01
161.396	1980.21
165.544	1419.52
169.689	1734.93
173.833	3228.92
177.974	4902.69
182.114	3345.35
186.251	1596.35
190.387	1190.16
194.52	1821.87
198.652	2983.38
202.782	1969.6
206.909	775.27
211.035	361.088
215.159	9.277
219.281	235.585
223.4	265.638
227.518	238.888
231.634	225.313
235.748	128.829
239.86	86.974
243.97	451.974
248.079	1304.56
252.185	3193.02
256.289	6271.43
260.391	7997.28
264.492	9176.34
268.59	7597.45
272.687	4586.46
276.781	3992.23
280.874	6165.57
284.964	8260.75
289.053	6094.37
293.14	2858.12
297.225	1349.36
301.308	621.925
305.389	270.879
309.468	38.268
313.545	19.07
317.62	56.387
321.693	99.169
325.765	333.813
329.834	745.074
333.902	559.017
337.967	119.611
342.031	38.158
346.093	86.499
350.153	175.502
354.21	499.156
358.267	591.509
362.321	320.551
366.373	526.384
370.423	983.072
374.471	1029.49
378.518	319.733
382.563	33.044
386.605	211.696
390.646	73.935
394.685	278.843
398.722	1488.83
402.757	2227.61
406.79	1866.48
410.821	2073.18
414.851	1705.73
418.878	625.144
422.904	237.432
426.927	238.634
430.949	249.572
434.969	519.759
438.987	893.392
443.003	2061.53
447.018	5207.2
451.03	10805.7
455.041	13061.7
459.049	7812.38
463.056	5306.82
467.061	7231.08
471.064	13592.9
475.065	19619.3
479.064	14331
483.062	9170.02
487.057	5656.42
491.051	3578.42
495.043	3379.16
499.032	5168.59
503.02	9904.93
507.007	23444.4
510.991	43501.3
514.973	42545
518.954	20548.4
522.933	9872.42
526.91	5365.36
530.885	3089.76
534.858	2270
538.829	1509.92
542.799	1049.14
546.766	905.973
550.732	828.857
554.696	499.551
558.658	505.023
562.618	384.867
566.576	289.674
570.533	395.166
574.488	366.332
578.44	544.35
582.391	635.76
586.341	483.211
590.288	211.885
594.233	44.326
598.177	30.568
602.119	29.387
606.059	116.387
609.997	51.102
613.933	126.104
617.868	289.102
621.801	317.908
625.731	97.547
629.66	468.045
633.588	585.701
637.513	891.176
641.437	1360.92
645.358	2132.31
649.278	2478.57
653.196	2620.7
657.113	1793.69
661.027	1138.7
664.94	358.945
668.851	357.336
672.76	337.617
676.667	126.762
680.572	160.27
684.476	10.822
688.378	140.336
692.278	282.828
696.176	134.348
700.072	166.646
703.967	287.715
707.86	87.771
711.751	443.559
715.64	31.076
719.527	146.184
723.413	184.586
727.297	404.158
731.179	631.711
735.059	1050.68
738.937	2073.57
742.814	4084.98
746.689	7351.59
750.562	8416.02
754.433	5159.07
758.303	2790.26
762.17	2033.32
766.036	1766.85
769.901	1283.67
773.763	668.951
777.624	644.873
781.482	346.873
785.339	645.076
789.195	455.158
793.048	541.256
796.9	833.062
800.75	892.73
804.598	1372.26
808.445	3359.65
812.289	5799.9
816.132	4738.02
819.973	2164.01
823.813	1049.85
827.65	573.309
831.486	354.4
835.32	212.754
839.152	182.219
842.983	172.379
846.812	115.549
850.639	258.619
854.464	91.191
858.288	77.332
862.11	159.678
865.93	69.424
869.748	75.83
873.564	41.334
877.379	94.223
881.192	42.883
885.004	6.488
888.813	72.057
892.621	5.82
896.427	62.656
900.232	56.371
904.034	48.615
907.835	311.352
911.634	285.371
915.432	79.535
919.227	61.5
923.021	357.547
926.813	168.604
930.604	253.654
934.393	325.676
938.18	191.686
941.965	263.68
945.749	114.793
949.53	295.605
953.311	122.543
957.089	410.471
960.866	295.393
964.641	203.352
968.414	435.451
972.185	548.541
975.955	674.633
979.723	561.742
983.49	506.875
987.254	1297.13
991.017	2341.55
994.779	3246.07
998.538	2235.69
1002.3	1842.71
1006.05	1622.25
1009.81	1101.21
1013.56	750.51
1017.31	582.861
1021.06	788.963
1024.81	437.414
1028.55	777.152
1032.3	590.406
1036.04	675.613
1039.78	949.17
1043.52	735.279
1047.26	398.115
1050.99	819.191
1054.73	570.773
1058.46	278.787
1062.19	480.477
1065.92	173.533
1069.65	176.381
1073.37	368.445
1077.1	283.041
1080.82	491.424
1084.54	247.098
1088.26	551.906
1091.97	784.164
1095.69	1110.28
1099.4	1643.61
1103.12	1118.14
1106.83	1135.16
1110.54	937.059
1114.24	1151.1
1117.95	1795.56
1121.65	2929.24
1125.35	3298.6
1129.06	2554.28
1132.75	2163.82
1136.45	2319.58
1140.15	2625.54
1143.84	1710.02
1147.53	1113.46
1151.22	710.23
1154.91	453.008
1158.6	242.195
1162.28	198.477
1165.97	66.012
1169.65	372.414
1173.33	0.99
1177.01	58.105
1180.69	90.514
1184.36	307.57
1188.04	74.748
1191.71	486.871
1195.38	103.861
1199.05	314.305
1202.71	83.684
1206.38	368.104
1210.04	187.045
1213.71	228.83
1217.37	249.359
1221.03	316.414
1224.68	283.986
1228.34	418.354
1231.99	112.953
1235.65	136.68
1239.3	318.41
1242.95	201.859
1246.59	474.768
1250.24	212.145
1253.88	163.936
1257.53	15.148
1261.17	111.674
1264.81	78.258
1268.45	477.139
1272.08	1.521
1275.72	210.912
1279.35	43.338
1282.98	38.828
1286.61	117.49
1290.24	107.461
1293.87	243.629
1297.49	62.965
1301.11	204.566
1304.73	45.461
1308.36	8.582
1311.97	74.301
1315.59	93.711
1319.2	222.832
1322.82	206.484
1326.43	150.598
1330.04	253.387
1333.65	184.398
1337.26	227.531
1340.86	252.984
1344.47	303.961
1348.07	242.625
1351.67	264.504
1355.27	74.156
1358.87	277.855
1362.46	354.352
1366.06	476.188
1369.65	157
1373.24	375.633
1376.83	521.871
1380.42	287.148
1384	602.262
1387.59	568.812
1391.17	337.672
1394.75	471.48
1398.33	657.891
1401.91	625.148
1405.49	604.43
1409.06	606.457
1412.64	247.406
1416.21	584.883
1419.78	504.59
1423.35	286.09
1426.91	372.684
1430.48	360.426
1434.05	317.094
1437.61	414.785
1441.17	732.652
1444.73	504.949
1448.29	674.453
1451.84	692.094
1455.4	387.617
1458.95	425.926
1462.5	531.191
1466.05	841.363
1469.6	793.488
1473.15	654.242
1476.69	494.172
1480.24	809.047
1483.78	511.621
1487.32	228.34
1490.86	346.117
1494.39	330.73
1497.93	500.762
1501.46	61.336
1505	410.863
1508.53	95.414
1512.06	178.195
