Measurement: Raman, 514 nm, ccw, Raman Data Processed
Mineral: Microcline
Rruff sample: R050193
Ideal chemistry: KAlSi_3_O_8_
Locality: Devil's Head, Douglas County, Colorado, USA
Source: Dave Bunk Minerals
Description: White to colorless heterogeneous mixture of K and Na feldspar in a cluster of crystals. Crystal structure determined, presented below. This sample is known as an intermediate microcline in the literature.
Measured chemistry: (K_0.929_Na_0.071_)(Al_1.005_Si_2.994_Fe_0.001_)O_7.993_F_0.007_  ; Light Band :  (Na_0.973_K_0.007_Ca_0.020_)(Al_1.020_Si_2.980_)O_8_ ; Dark Band
Pin_id: L00660
Orientation: Laser parallel to c* (0 0 1). Fiducial mark perpendicular to laser is parallel to a [1 0 0]
Raman shift (cm-1)	intensity
127.763	0
132.697	741.678
137.628	4366.31
142.556	6108.48
147.482	8108.03
152.405	13453
157.326	17212.3
162.244	11607.5
167.159	5515.44
172.072	3257.88
176.982	2520.83
181.89	1599.46
186.795	1152.48
191.697	886.654
196.597	895.188
201.494	598.922
206.389	55.4023
211.281	220.385
216.17	258.023
221.057	184.412
225.941	71.332
230.823	31.9199
235.702	310.272
240.578	533.398
245.452	691.75
250.323	2058.13
255.192	3580.81
260.058	5092.97
264.921	6501.85
269.782	7885.18
274.64	11272.5
279.495	14979.4
284.348	13226.1
289.198	7487.46
294.046	3987.05
298.891	1931.57
303.733	1360.77
308.573	821.469
313.41	640.205
318.245	670.144
323.077	837.018
327.906	1259.8
332.733	1191.74
337.557	692.014
342.379	840.545
347.198	637.275
352.014	834.871
356.828	762.51
361.639	553.818
366.447	420.938
371.253	302.443
376.056	94.3203
380.857	62.4102
385.655	59.9473
390.451	130.539
395.243	88.8086
400.034	223.361
404.821	456.844
409.606	168.496
414.389	139.602
419.168	73.4961
423.945	52.8418
428.72	24.1309
433.492	253.31
438.261	435.121
443.028	1417.58
447.792	2298.76
452.553	3313.7
457.312	3068.44
462.068	2928.38
466.822	4695.04
471.573	8155.82
476.321	9974.74
481.067	6789.8
485.81	4641.01
490.551	3335.36
495.289	3513.91
500.024	5934.49
504.757	13100.4
509.487	24689.5
514.214	27039.8
518.939	13471
523.661	5652.71
528.381	2775.62
533.098	1637.12
537.812	1174.39
542.524	898.223
547.233	671.432
551.94	386.9
556.644	469.721
561.345	362.928
566.044	392.666
570.74	320.209
575.433	478.961
580.124	348.889
584.812	248.045
589.498	511.438
594.181	164.072
598.861	123.967
603.539	196.115
608.214	411.559
612.887	372.252
617.557	226.356
622.224	498.973
626.889	840.004
631.551	905.34
636.21	552.057
640.867	458.049
645.521	563.42
650.173	589.045
654.822	487.815
659.468	281.898
664.112	387.512
668.753	226.453
673.392	24.791
678.028	15.1777
682.661	102.486
687.292	12.5527
691.92	98.0488
696.545	144.275
701.168	190.701
705.788	105.609
710.406	25.5918
715.021	106.654
719.633	283.139
724.243	48.4629
728.85	396.213
733.455	532.082
738.056	705.984
742.656	880.979
747.252	1197.55
751.846	1194.28
756.438	951.34
761.027	1084.99
765.613	1078.6
770.196	1078.99
774.777	832.301
779.356	699.266
783.932	461.592
788.505	592.211
793.075	699.531
797.643	877.279
802.208	1007.24
806.771	1220.96
811.331	1739.61
815.888	1269.12
820.443	698.574
824.995	512.193
829.545	247.641
834.092	169.732
838.636	338.5
843.178	212.734
847.717	81.8164
852.254	349.789
856.788	309.357
861.319	222.533
865.848	358.297
870.374	71.6328
874.897	307.512
879.418	325.932
883.936	103.834
888.452	90.709
892.965	179.781
897.475	29.4766
901.983	174.195
906.488	10.4102
910.99	170.867
915.49	97.2324
919.988	99.75
924.482	90.1836
928.974	128.82
933.464	28.2695
937.951	167.359
942.435	108.539
946.917	383.254
951.396	562.066
955.872	289.481
960.346	197.754
964.817	252.934
969.285	51.1719
973.751	264.824
978.215	324.199
982.675	473.363
987.134	525.805
991.589	850.516
996.042	963.027
1000.49	1179.61
1004.94	1023.21
1009.38	901.469
1013.83	841.328
1018.27	624.059
1022.7	870.125
1027.14	698.066
1031.57	812.867
1036	781.441
1040.43	571.066
1044.85	414.539
1049.27	337.957
1053.69	382.387
1058.11	370.508
1062.52	248.848
1066.93	112.512
1071.34	71.8906
1075.75	1.67188
1080.15	356.074
1084.55	377.168
1088.95	445.652
1093.35	692.211
1097.74	890.238
1102.13	922.742
1106.52	940.078
1110.9	969.789
1115.28	1286.98
1119.66	2230.2
1124.04	2070.67
1128.41	2004.37
1132.79	2125.95
1137.16	2116.28
1141.52	2060.77
1145.89	1516.21
1150.25	907.402
1154.61	608.469
1158.96	688.926
1163.32	484.039
1167.67	378.254
1172.02	478
1176.36	394.434
1180.71	350.555
1185.05	84.6523
1189.38	117.797
1193.72	500.18
1198.05	144.922
1202.38	315.387
1206.71	119.363
1211.04	93.9492
1215.36	235.43
1219.68	122.988
1224	129.727
1228.31	46.0625
1232.62	261.141
1236.93	271.934
1241.24	111.902
1245.54	55.3945
1249.84	37.8789
1254.14	102.07
1258.44	288.891
1262.73	152.289
1267.03	41.9141
1271.31	270.723
1275.6	287.574
1279.88	183.918
1284.16	11.2969
1288.44	95.5625
1292.72	68.7344
1296.99	162.148
1301.26	200.469
1305.53	180.848
1309.79	157.496
1314.06	496.973
1318.32	225.242
1322.57	431.281
1326.83	404.414
1331.08	399.254
1335.33	438.469
1339.58	9.48828
1343.82	132.094
1348.06	9.33594
1352.3	223.5
1356.54	219.965
1360.77	8.48828
1365.01	139.266
1369.23	82.8398
1373.46	350.633
1377.68	181.965
1381.9	276.09
1386.12	209.734
1390.34	228.613
1394.55	173.832
1398.76	275.66
1402.97	434
1407.18	147.094
1411.38	288.191
1415.58	311.16
1419.78	323.66
1423.97	83.9453
1428.17	324.711
1432.36	39.0625
1436.54	389.977
1440.73	337.144
1444.91	417.238
1449.09	235.672
1453.27	220.578
1457.44	247.074
1461.61	117.652
1465.78	288.461
1469.95	52.2461
1474.11	59.3555
1478.27	108.336
1482.43	493.531
1486.59	288.547
1490.74	229.441
1494.89	420.656
1499.04	296.633
1503.19	613.727
1507.33	284.719
1511.47	39.8203
1515.61	291.519
1519.75	237.883
1523.88	317.707
1528.01	360.68
1532.14	231.609
1536.26	117.664
1540.38	191.481
1544.51	2.67188
1548.62	115.016
1552.74	42.7461
1556.85	8.50391
1560.96	16.1055
