Measurement: Raman, 514 nm, ccw, Raman Data Processed
Mineral: Microcline
Rruff sample: R050054
Ideal chemistry: KAlSi_3_O_8_
Locality: Kenticha, Negele area, Sidamo Province, Ethiopia
Source: Rock Currier
Description: Light blue single crystal
Measured chemistry: (K_0.96_Na_0.04_)Al_1.00_Si_3.00_O_8_
Pin_id: M00118
Orientation: Laser parallel to (1 0 1). Fiducial mark perpendicular to laser is parallel to b [0 1 0]
Raman shift (cm-1)	intensity
73.319	0
77.525	296.958
81.728	535.831
85.929	362.155
90.128	246.677
94.324	947.649
98.519	1092.48
102.712	1079.03
106.902	1462.98
111.09	1611.32
115.277	769.148
119.461	435.37
123.643	649.015
127.823	1087.5
132.001	756.889
136.176	420.863
140.35	586.077
144.521	1564.05
148.691	4117.93
152.858	5035.48
157.024	3214.49
161.187	1582.01
165.348	771.494
169.507	519.304
173.664	766.101
177.819	1563.61
181.971	1677.49
186.122	882.538
190.271	410.615
194.417	534.232
198.562	1091.03
202.704	1027.02
206.844	327.109
210.983	31.282
215.119	37.305
219.253	85.641
223.385	131.173
227.515	98.366
231.643	152.401
235.769	99.795
239.893	75.431
244.014	0.56
248.134	115.1
252.252	518.585
256.367	1392.33
260.481	1989.59
264.592	2217.57
268.702	2209.8
272.809	1460.54
276.915	1022.69
281.018	1562.23
285.119	2713.16
289.218	2923.04
293.316	1939.99
297.411	1454.11
301.504	1150.45
305.595	633.065
309.684	404.634
313.771	427.152
317.856	242.862
321.939	190.51
326.02	223.8
330.099	357.633
334.176	412.195
338.251	312.482
342.323	220.469
346.394	150.124
350.463	222.424
354.53	394.391
358.594	612.039
362.657	457.323
366.718	287.175
370.777	431.717
374.833	526.775
378.888	311.425
382.941	222.916
386.992	157.21
391.04	149.49
395.087	181.114
399.132	481.465
403.174	1638.28
407.215	1483.31
411.254	806.655
415.29	569.239
419.325	232.367
423.358	42.116
427.389	40.454
431.417	59.372
435.444	110.034
439.469	99.646
443.492	233.496
447.512	433.962
451.531	1300.77
455.548	2131.07
459.563	1780.31
463.576	1444.46
467.587	2026.66
471.596	4075.07
475.603	8504.72
479.608	7982.11
483.611	4721.35
487.612	2955.73
491.611	1580.25
495.608	1112.6
499.603	1168.09
503.596	1788.91
507.587	3916.77
511.577	9647.31
515.564	14024.3
519.549	8512.75
523.533	3875.28
527.514	1874.3
531.493	1222.66
535.471	697.051
539.447	463.442
543.42	468.25
547.392	538.706
551.362	181.684
555.329	200.978
559.295	123.325
563.259	172.379
567.221	118.727
571.181	92.187
575.139	72.737
579.095	160.959
583.049	174.785
587.002	173.062
590.952	52.496
594.9	29.811
598.847	28.655
602.792	13.358
606.734	3.06
610.675	36.272
614.614	24.321
618.55	32.922
622.485	100.483
626.418	81.707
630.349	184.985
634.279	234.327
638.206	243.406
642.131	302.823
646.055	465.117
649.976	740.075
653.896	810.998
657.814	714.427
661.729	382.854
665.643	245.299
669.555	107.772
673.465	34.305
677.373	44.241
681.28	13.895
685.184	21.357
689.087	3.484
692.987	5.115
696.886	24.231
700.783	4.794
704.677	5.717
708.57	21.165
712.462	108.212
716.351	203.581
720.238	68.317
724.124	66.914
728.007	40.514
731.889	109.117
735.769	96.646
739.647	276.997
743.523	507.305
747.397	1048.67
751.269	1396.54
755.139	983.092
759.008	476.924
762.875	286.734
766.739	115.673
770.602	60.332
774.463	101.034
778.323	22.651
782.18	3.2
786.035	46.639
789.889	26.043
793.741	34.92
797.591	13.966
801.439	25.73
805.285	8.407
809.129	132.962
812.971	192.425
816.812	280.875
820.651	141.194
824.488	81.441
828.323	53.459
832.156	21.317
835.987	2.268
839.817	47.93
843.644	4.326
847.47	11.563
851.294	23.027
855.116	4.661
858.936	72
862.755	88.57
866.571	46.752
870.386	34.621
874.199	33.977
878.01	16.921
881.82	99.664
885.627	58.434
889.433	57.293
893.236	16.875
897.038	15.056
900.838	35.731
904.637	123.523
908.433	40.319
912.228	15.883
916.021	48.109
919.812	50.56
923.601	31.184
927.388	26.127
931.174	129.09
934.958	86.494
938.739	147.609
942.52	68.899
946.298	70.074
950.074	120.134
953.849	124.731
957.622	77.376
961.393	150.609
965.162	2.906
968.93	64.204
972.696	68.496
976.459	107.769
980.222	68.913
983.982	58.526
987.74	172.804
991.497	386.139
995.252	607.415
999.005	640.037
1002.76	616.682
1006.51	417.425
1010.25	215.841
1014	146.162
1017.74	222.332
1021.49	226.052
1025.23	339.688
1028.96	482.016
1032.7	373.608
1036.44	363.934
1040.17	331.338
1043.9	336.013
1047.63	425.376
1051.36	589.946
1055.09	667.828
1058.81	527.347
1062.54	306.51
1066.26	215.296
1069.97	161.24
1073.69	246.903
1077.41	181.819
1081.12	123.227
1084.84	113.011
1088.55	138.704
1092.25	195.308
1095.96	214.974
1099.67	327.242
1103.37	392.231
1107.07	403.993
1110.77	536.842
1114.47	703.701
1118.16	1153.23
1121.86	2084.2
1125.55	2889.26
1129.24	2209.11
1132.93	1697.12
1136.62	1499.93
1140.31	1442.78
1143.99	1257.69
1147.67	757.582
1151.35	442.741
1155.03	303.909
1158.71	292.718
1162.39	148.636
1166.06	86.322
1169.73	20.937
1173.4	71.958
1177.07	46.431
1180.74	86.895
1184.4	63.304
1188.07	64.755
1191.73	5.441
1195.39	30.475
1199.05	96.587
1202.7	28.863
1206.36	28.756
1210.01	124.367
1213.66	102.057
1217.31	32.785
1220.96	60.653
1224.6	78.645
1228.25	4.863
1231.89	40.538
1235.53	117.315
1239.17	100.332
1242.81	76.545
1246.44	90.87
1250.08	92.877
1253.71	105.771
1257.34	58.774
1260.97	27.338
1264.6	55.724
1268.22	82.308
1271.85	175.964
1275.47	114.532
1279.09	106.938
1282.71	120.333
1286.33	78.618
1289.94	124.808
1293.56	27.944
1297.17	47.019
1300.78	77.973
1304.39	123.751
1307.99	151.243
1311.6	167.545
1315.2	162.441
1318.8	110.526
1322.4	195.994
1326	103.202
1329.6	106.877
1333.19	63.363
1336.79	208.528
1340.38	217.85
1343.97	269.663
1347.56	172.738
1351.14	115.328
1354.73	202.903
1358.31	83.768
1361.89	18.133
1365.47	33.108
1369.05	90.392
1372.63	28.67
1376.2	80.319
1379.78	197.934
1383.35	192.816
1386.92	163.801
1390.49	83.704
1394.05	152.329
1397.62	81.335
1401.18	65.72
1404.74	65.862
1408.3	137.34
1411.86	254.247
1415.42	149.546
1418.97	213.97
1422.53	225.774
1426.08	123.161
1429.63	180.785
1433.18	98.196
1436.72	176.32
1440.27	182.544
1443.81	229.681
1447.36	277.628
1450.89	363.615
1454.43	317.598
1457.97	321.503
1461.51	309.313
1465.04	232.23
1468.57	272.511
1472.1	174.508
1475.63	184.303
1479.16	155.307
1482.68	144.072
1486.21	143.217
1489.73	141.683
1493.25	123.742
1496.77	225.396
1500.29	174.311
1503.8	170.268
1507.32	133.141
1510.83	115.423
1514.34	1.284
