Measurement: Raman, 514 nm, ccw, Raman Data Processed
Mineral: Microcline
Rruff sample: R040154
Ideal chemistry: KAlSi_3_O_8_
Locality: Mitchell County, North Carolina, USA
Source: University of Arizona Mineral Museum
Description: White cleavage fragment with some perthitic character
Measured chemistry: (K_0.90_Na_0.09_Ba_0.01_)Al_1.00_(Si_2.99_Al_0.01_)_Î£=3_O_8_
Pin_id: L00079
Orientation: Laser parallel to a* (1 0 0). Fiducial mark perpendicular to laser is parallel to -b [0 -1 0]
Raman shift (cm-1)	intensity
86.404	0
90.587	96.561
94.768	219.075
98.947	656.748
103.124	1552.61
107.3	2579.6
111.473	2567.88
115.644	2819.46
119.813	3021.02
123.981	3783.87
128.146	4205.34
132.309	3163.98
136.47	1833.88
140.63	1656.52
144.787	1975.89
148.942	2486.16
153.096	2664.35
157.247	2760.01
161.396	2567.86
165.544	2007.55
169.689	1696.01
173.833	2000.82
177.974	2645.2
182.114	2473.28
186.251	2077.93
190.387	1672.24
194.52	1252.23
198.652	1383.88
202.782	1498.97
206.909	1725.15
211.035	1428.47
215.159	674.89
219.281	262.36
223.4	62.834
227.518	42.227
231.634	123.867
235.748	158.117
239.86	17.279
243.97	129.134
248.079	500.738
252.185	953.813
256.289	1669.84
260.391	2697.28
264.492	3747.71
268.59	3589.26
272.687	2961.61
276.781	4019.4
280.874	6719.35
284.964	9342.27
289.053	8773.93
293.14	5774.13
297.225	2559.79
301.308	1071.81
305.389	504.127
309.468	178.717
313.545	30.482
317.62	75.594
321.693	28.787
325.765	544.564
329.834	701.362
333.902	387.26
337.967	27.268
342.031	137.701
346.093	97.873
350.153	8.773
354.21	172.205
358.267	212.045
362.321	459.826
366.373	1509.6
370.423	3010.16
374.471	2553.93
378.518	1114.1
382.563	180.608
386.605	39.294
390.646	107.246
394.685	161.694
398.722	802.548
402.757	1228.24
406.79	1058.11
410.821	621.99
414.851	514.945
418.878	151.159
422.904	75.461
426.927	78.646
430.949	186.68
434.969	269.655
438.987	629.535
443.003	1597.85
447.018	3507.74
451.03	6550.31
455.041	7645.58
459.049	6019.36
463.056	6775.07
467.061	12234.7
471.064	24152.2
475.065	36187.4
479.064	30654.3
483.062	17585.2
487.057	9046.39
491.051	5578.53
495.043	5307.63
499.032	8570.09
503.02	17992.8
507.007	34098.8
510.991	43850.8
514.973	36425.7
518.954	18149.2
522.933	8786.13
526.91	4925.68
530.885	2893.97
534.858	2108.8
538.829	1575.78
542.799	971.967
546.766	1017.21
550.732	783.408
554.696	522.472
558.658	396.599
562.618	302.822
566.576	323.951
570.533	408.67
574.488	568.009
578.44	861.965
582.391	1102.03
586.341	654.156
590.288	241.99
594.233	217.477
598.177	75.781
602.119	18.846
606.059	117.639
609.997	42.236
613.933	222.607
617.868	131.73
621.801	341.68
625.731	167.45
629.66	468.043
633.588	666.359
637.513	584.1
641.437	1110.6
645.358	1624.33
649.278	1900.91
653.196	1882.98
657.113	1191.63
661.027	714.254
664.94	193.971
668.851	373.75
672.76	272.463
676.667	108.488
680.572	5.631
684.476	20.621
688.378	108.402
692.278	206.336
696.176	19.699
700.072	159.82
703.967	164.697
707.86	251.715
711.751	673.74
715.64	279.975
719.527	286.031
723.413	122.354
727.297	152.078
731.179	259.277
735.059	531.535
738.937	1021.57
742.814	1483.99
746.689	2473.43
750.562	2778.04
754.433	1922.07
758.303	1765.99
762.17	2240.54
766.036	2159.47
769.901	1453.5
773.763	881.65
777.624	819.574
781.482	423.393
785.339	470.932
789.195	226.461
793.048	258.508
796.9	338.33
800.75	198.875
804.598	44.832
808.445	463.086
812.289	753.799
816.132	752.316
819.973	454.633
823.813	389.752
827.65	213.389
831.486	109.803
835.32	231.029
839.152	154.428
842.983	171.203
846.812	146.055
850.639	96.471
854.464	68.779
858.288	76.848
862.11	41.148
865.93	40.338
869.748	43.041
873.564	5.115
877.379	134.271
881.192	9.684
885.004	117.764
888.813	120.531
892.621	192.438
896.427	13.318
900.232	62.107
904.034	247.363
907.835	213.594
911.634	197.332
915.432	46.053
919.227	152.664
923.021	147.244
926.813	200.801
930.604	284.314
934.393	412.787
938.18	89.758
941.965	234.666
945.749	143.705
949.53	176.885
953.311	106.521
957.089	260.193
960.866	212.484
964.641	250.061
968.414	176.889
972.185	381.725
975.955	457.643
979.723	537.574
983.49	268.666
987.254	390.541
991.017	997.193
994.779	1182.46
998.538	725.949
1002.3	961.547
1006.05	829.842
1009.81	801.889
1013.56	518.029
1017.31	779.264
1021.06	861.816
1024.81	461.039
1028.55	1295.91
1032.3	1182.51
1036.04	1065.12
1039.78	1343.06
1043.52	1160.99
1047.26	1219.62
1050.99	1488.91
1054.73	1139.05
1058.46	895.994
1062.19	708.248
1065.92	372.986
1069.65	559.475
1073.37	504.75
1077.1	440.1
1080.82	934.451
1084.54	1137.72
1088.26	1585.6
1091.97	2611.91
1095.69	3815.74
1099.4	5438.37
1103.12	4791.05
1106.83	4437.09
1110.54	4481.52
1114.24	6204.84
1117.95	8650.37
1121.65	11936
1125.35	12033.7
1129.06	8973.05
1132.75	6754.77
1136.45	6450.65
1140.15	6123.82
1143.84	4541.53
1147.53	2899.88
1151.22	1696.98
1154.91	1458.45
1158.6	741.67
1162.28	652.496
1165.97	426.795
1169.65	670.85
1173.33	247.201
1177.01	85.969
1180.69	185.904
1184.36	150.738
1188.04	147.037
1191.71	321.254
1195.38	250.201
1199.05	310.969
1202.71	12.764
1206.38	321.559
1210.04	246.104
1213.71	98.363
1217.37	169.9
1221.03	294.99
1224.68	307.113
1228.34	279.033
1231.99	130.961
1235.65	199.293
1239.3	299.98
1242.95	158.197
1246.59	260.387
1250.24	174.791
1253.88	145.967
1257.53	140.234
1261.17	115.83
1264.81	281.775
1268.45	20.693
1272.08	29.773
1275.72	90.006
1279.35	49.578
1282.98	91.529
1286.61	3.264
1290.24	176.797
1293.87	30.32
1297.49	99.756
1301.11	46.785
1304.73	45.293
1308.36	6.107
1311.97	169.258
1315.59	77.994
1319.2	195.027
1322.82	249.762
1326.43	213.855
1330.04	133.326
1333.65	256.885
1337.26	114.689
1340.86	398.305
1344.47	421.641
1348.07	428.99
1351.67	346.883
1355.27	285.547
1358.87	383.137
1362.46	445.27
1366.06	512.041
1369.65	228.957
1373.24	525.086
1376.83	280.598
1380.42	426.326
1384	323.246
1387.59	392.676
1391.17	154.762
1394.75	150.385
1398.33	563.656
1401.91	346.328
1405.49	342.457
1409.06	431.922
1412.64	169.672
1416.21	312.18
1419.78	306.16
1423.35	301.578
1426.91	269.777
1430.48	126.652
1434.05	11.09
