Measurement: Raman, 514 nm, ccw, Raman Data Processed
Mineral: Microcline
Rruff sample: R050054
Ideal chemistry: KAlSi_3_O_8_
Locality: Kenticha, Negele area, Sidamo Province, Ethiopia
Source: Rock Currier
Description: Light blue single crystal
Measured chemistry: (K_0.96_Na_0.04_)Al_1.00_Si_3.00_O_8_
Pin_id: M00082
Orientation: Laser parallel to b* (0 1 0). Fiducial mark perpendicular to laser is parallel to c [0 0 1]
Raman shift (cm-1)	intensity
98.519	0
102.712	10.025
106.902	26.607
111.09	687.99
115.277	377.104
119.461	817.186
123.643	2416.15
127.823	2696.84
132.001	1426.02
136.176	2432.39
140.35	5130.46
144.521	4934.98
148.691	7696.44
152.858	11649.7
157.024	15052.5
161.187	10251
165.348	4829.85
169.507	2490.21
173.664	1772.45
177.819	2568.98
181.971	2037.35
186.122	1123.52
190.271	689.103
194.417	1092.64
198.562	1966.78
202.704	1094.25
206.844	476.203
210.983	94.595
215.119	45.892
219.253	122.062
223.385	37.387
227.515	89.905
231.643	70.003
235.769	13.848
239.893	99.122
244.014	240.757
248.134	645.492
252.252	1757.19
256.367	4275.38
260.481	4261.59
264.592	3970.38
268.702	3459.43
272.809	2702.2
276.915	3781.5
281.018	7869.54
285.119	12306.5
289.218	8372.32
293.316	3611.03
297.411	1955.37
301.504	1303.09
305.595	752.357
309.684	504.391
313.771	364.336
317.856	322.286
321.939	393.587
326.02	805.786
330.099	1997.11
334.176	1864.48
338.251	896.976
342.323	415.208
346.394	351.204
350.463	392.93
354.53	553.076
358.594	664.204
362.657	496.091
366.718	640.7
370.777	1199.38
374.833	1090.52
378.888	469.997
382.941	228.823
386.992	92.865
391.04	64.27
395.087	51.964
399.132	121.085
403.174	401.361
407.215	187.533
411.254	178.94
415.29	89.389
419.325	16.317
423.358	87.267
427.389	78.68
431.417	0.737
435.444	73.786
439.469	118.046
443.492	302.043
447.512	912.677
451.531	2218.78
455.548	2726.28
459.563	1739.41
463.576	1264.16
467.587	1963.61
471.596	4253.89
475.603	7236.1
479.608	5564.24
483.611	4438.18
487.612	2939.64
491.611	1623.63
495.608	1340.48
499.603	1800.21
503.596	3215.02
507.587	7304.85
511.577	16836.2
515.564	17469.4
519.549	8473.67
523.533	3965.63
527.514	1978.54
531.493	1262.74
535.471	848.577
539.447	694.57
543.42	443.04
547.392	394.333
551.362	272.212
555.329	309.798
559.295	207.73
563.259	212.931
567.221	183.919
571.181	122.975
575.139	216.672
579.095	246.807
583.049	333.261
587.002	225.501
590.952	97.831
594.9	84.592
598.847	46.16
602.792	15.645
606.734	57.513
610.675	65.342
614.614	66.139
618.55	103.912
622.485	216.656
626.418	388.374
630.349	597.136
634.279	466.923
638.206	394.653
642.131	458.412
646.055	606.177
649.976	845.928
653.896	938.665
657.814	731.388
661.729	461.102
665.643	238.83
669.555	205.584
673.465	112.349
677.373	20.899
681.28	12.102
685.184	74.964
689.087	56.831
692.987	46.354
696.886	70.154
700.783	60.405
704.677	42.607
708.57	15.597
712.462	38.95
716.351	54.539
720.238	12.136
724.124	3.775
728.007	94.834
731.889	148.025
735.769	161.654
739.647	331.908
743.523	557.358
747.397	1030.32
751.269	1125.31
755.139	682.904
759.008	365.99
762.875	296.321
766.739	425.255
770.602	306.516
774.463	260.825
778.323	195.041
782.18	131.228
786.035	80.575
789.889	135.507
793.741	195.59
797.591	158.43
801.439	240.192
805.285	408.877
809.129	804.485
812.971	1461.01
816.812	1230.46
820.651	499.835
824.488	274.127
828.323	211.337
832.156	181.265
835.987	91.419
839.817	134.945
843.644	56.436
847.47	2.796
851.294	33.941
855.116	3.631
858.936	55.289
862.755	3.625
866.571	24.655
870.386	28.847
874.199	53.29
878.01	40.344
881.82	10.199
885.627	0.88
889.433	36.375
893.236	0.454
897.038	11.484
900.838	38.561
904.637	11.518
908.433	54.307
912.228	51.077
916.021	3.203
919.812	53.447
923.601	38.021
927.388	151.533
931.174	35.993
934.958	19.419
938.739	104.685
942.52	149.97
946.298	78.258
950.074	101.54
953.849	105.716
957.622	96.88
961.393	89
965.162	143.076
968.93	104.11
972.696	133.109
976.459	134.076
980.222	171.003
983.982	168.91
987.74	254.761
991.497	537.316
995.252	649.983
999.005	816.69
1002.76	1020.77
1006.51	889.797
1010.25	569.894
1014	424.371
1017.74	415.564
1021.49	290.844
1025.23	307.946
1028.96	408.979
1032.7	460.763
1036.44	573.01
1040.17	649.792
1043.9	463.993
1047.63	383
1051.36	342.592
1055.09	331.681
1058.81	175.75
1062.54	102.466
1066.26	90.449
1069.97	81.64
1073.69	105.016
1077.41	96.711
1081.12	66.23
1084.84	122.714
1088.55	209.958
1092.25	153.434
1095.96	222.724
1099.67	284.625
1103.37	300.27
1107.07	354.872
1110.77	461.218
1114.47	635.583
1118.16	1095.27
1121.86	1853.48
1125.55	2151.87
1129.24	1640.4
1132.93	1502.85
1136.62	1783.88
1140.31	1929
1143.99	1477.72
1147.67	938.777
1151.35	609.483
1155.03	364.1
1158.71	219.968
1162.39	164.943
1166.06	167.56
1169.73	79.299
1173.4	126.211
1177.07	90.326
1180.74	104.201
1184.4	71.291
1188.07	91.747
1191.73	28.553
1195.39	48.287
1199.05	17.761
1202.7	59.122
1206.36	49.884
1210.01	48.868
1213.66	70.11
1217.31	46.149
1220.96	0.254
1224.6	105.538
1228.25	1.367
1231.89	87.936
1235.53	126.696
1239.17	68.399
1242.81	96.159
1246.44	11.917
1250.08	12.142
1253.71	62.104
1257.34	56.956
1260.97	31.358
1264.6	28.583
1268.22	135.279
1271.85	102.013
1275.47	38.934
1279.09	38.137
1282.71	30.509
1286.33	78.061
1289.94	13.513
1293.56	9.916
1297.17	66.42
1300.78	122.554
1304.39	11.566
1307.99	143.434
1311.6	120.206
1315.2	58.877
1318.8	27.413
1322.4	31.791
1326	92.78
1329.6	71.788
1333.19	100.053
1336.79	153.782
1340.38	74.389
1343.97	89.425
1347.56	52.732
1351.14	92.254
1354.73	2.848
1358.31	8.317
1361.89	68.931
1365.47	160.175
1369.05	64.383
1372.63	70.164
1376.2	112.725
1379.78	102.743
1383.35	61.068
1386.92	47.812
1390.49	96.645
1394.05	72.297
1397.62	111.569
1401.18	173.658
1404.74	191.94
1408.3	167.99
1411.86	220.87
1415.42	148.662
1418.97	105.448
1422.53	70.089
1426.08	58.737
1429.63	155.957
1433.18	52.825
1436.72	93.134
1440.27	158.081
1443.81	158.284
1447.36	189.955
1450.89	115.28
1454.43	132.033
1457.97	206.188
1461.51	57.634
1465.04	21.927
1468.57	90.14
1472.1	141.294
1475.63	166.533
1479.16	123.536
1482.68	154.305
1486.21	206.813
1489.73	186.069
1493.25	89.816
1496.77	146.827
1500.29	31.09
1503.8	51.069
1507.32	11.396
1510.83	40.799
1514.34	0.058
