Measurement: Raman, 514 nm, ccw, Raman Data Processed
Mineral: Microcline
Rruff sample: R040154
Ideal chemistry: KAlSi_3_O_8_
Locality: Mitchell County, North Carolina, USA
Source: University of Arizona Mineral Museum
Description: White cleavage fragment with some perthitic character
Measured chemistry: (K_0.90_Na_0.09_Ba_0.01_)Al_1.00_(Si_2.99_Al_0.01_)_Î£=3_O_8_
Pin_id: L00158
Orientation: Laser parallel to b* (0 1 0). Fiducial mark perpendicular to laser is parallel to c [0 0 1]
Raman shift (cm-1)	intensity
94.768	0
98.947	99.839
103.124	125.625
107.3	276.113
111.473	90.481
115.644	1490.44
119.813	4097.48
123.981	7589.45
128.146	8066.3
132.309	7671.48
136.47	11255.2
140.63	16595.6
144.787	19773.8
148.942	24591.4
153.096	32763.3
157.247	37704.7
161.396	30389.4
165.544	16656.4
169.689	8777.02
173.833	6542
177.974	6085.69
182.114	4675.74
186.251	3518.19
190.387	3171.33
194.52	4520.91
198.652	5506.8
202.782	3604.87
206.909	1696
211.035	659.084
215.159	1.202
219.281	136.953
223.4	190.702
227.518	181.562
231.634	100.606
235.748	72.043
239.86	330.533
243.97	1111.39
248.079	3362.32
252.185	8281.44
256.289	12773.4
260.391	12243
264.492	10845.9
268.59	8862.35
272.687	8382.4
276.781	13963
280.874	26450.4
284.964	31931.7
289.053	22054.9
293.14	10733.7
297.225	5592.7
301.308	3224.89
305.389	1935.39
309.468	1056.29
313.545	810.641
317.62	693.496
321.693	1330.4
325.765	3611.31
329.834	5806.68
333.902	4588.27
337.967	1794.75
342.031	696.108
346.093	464.3
350.153	704.268
354.21	1174
358.267	1182.49
362.321	1008.74
366.373	1671.76
370.423	3205.53
374.471	2807.12
378.518	1054.47
382.563	211.51
386.605	79.778
390.646	17.809
394.685	82.259
398.722	638.963
402.757	1195.93
406.79	680.01
410.821	510.738
414.851	245.275
418.878	145.36
422.904	232.956
426.927	82.096
430.949	10.233
434.969	124.171
438.987	372.375
443.003	1106.7
447.018	3028.81
451.03	6258.43
455.041	7248.23
459.049	4925.03
463.056	4459.51
467.061	7532.68
471.064	14978.6
475.065	20499.1
479.064	15961.4
483.062	11763.4
487.057	7380.16
491.051	4295.68
495.043	4012.99
499.032	6126.11
503.02	12201
507.007	28137.3
510.991	49357.3
514.973	44700.9
518.954	22123.4
522.933	10366.9
526.91	5445.43
530.885	3197.37
534.858	2383.41
538.829	1770.91
542.799	1228.97
546.766	919.594
550.732	822.8
554.696	671.082
558.658	630.137
562.618	355.82
566.576	327.063
570.533	526.003
574.488	510.598
578.44	829.246
582.391	1031.9
586.341	584.572
590.288	322.012
594.233	50.315
598.177	141.284
602.119	193.064
606.059	196.801
609.997	163.833
613.933	394.731
617.868	622.492
621.801	984.109
625.731	1279.59
629.66	1595.19
633.588	1459.41
637.513	1279.47
641.437	1897.4
645.358	2445.2
649.278	2989.86
653.196	2921.38
657.113	2023.77
661.027	1154.03
664.94	529.152
668.851	383.152
672.76	237.016
676.667	129.731
680.572	14.347
684.476	8.716
688.378	136.398
692.278	334.353
696.176	241.786
700.072	124.146
703.967	69.619
707.86	209.757
711.751	155.319
715.64	191.128
719.527	35.938
723.413	62.478
727.297	23.785
731.179	270.84
735.059	495.14
738.937	781.979
742.814	1677.03
746.689	2938.89
750.562	3373.52
754.433	2086.44
758.303	1156.34
762.17	1202.38
766.036	1458.61
769.901	1158.88
773.763	556.992
777.624	557.92
781.482	172.664
785.339	400.303
789.195	381.752
793.048	397.939
796.9	371.949
800.75	566.779
804.598	894.428
808.445	2342.9
812.289	4185.2
816.132	3293.32
819.973	1405.28
823.813	801.061
827.65	445.361
831.486	206.031
835.32	370.264
839.152	185.547
842.983	58.412
846.812	196.928
850.639	120.926
854.464	205.838
858.288	80.244
862.11	19.1
865.93	158.572
869.748	30.109
873.564	159.426
877.379	33.564
881.192	95.744
885.004	1.736
888.813	18.791
892.621	1.684
896.427	0.549
900.232	43.918
904.034	92.799
907.835	232.391
911.634	24.602
915.432	86.732
919.227	48.203
923.021	264.736
926.813	163.613
930.604	216.432
934.393	338.953
938.18	64.684
941.965	314.342
945.749	225.961
949.53	184.521
953.311	223.156
957.089	306.561
960.866	173.047
964.641	287.607
968.414	376.207
972.185	452.766
975.955	405.305
979.723	530.834
983.49	517.291
987.254	753.812
991.017	1540.2
994.779	2058.94
998.538	2162.82
1002.3	3212.53
1006.05	2898.44
1009.81	1939.23
1013.56	1346.06
1017.31	1224.05
1021.06	1199.25
1024.81	1074.32
1028.55	1403.98
1032.3	1542.77
1036.04	1958.05
1039.78	2345.59
1043.52	1829.87
1047.26	1224.51
1050.99	1307.56
1054.73	972.084
1058.46	661.539
1062.19	545.26
1065.92	268.207
1069.65	267.307
1073.37	398.871
1077.1	303.855
1080.82	501.811
1084.54	440.812
1088.26	592.133
1091.97	543.094
1095.69	880.365
1099.4	1193.81
1103.12	1004.47
1106.83	1216.02
1110.54	1374.97
1114.24	1946.48
1117.95	3372.52
1121.65	5733.84
1125.35	6346.55
1129.06	5102.43
1132.75	4522.55
1136.45	5182.29
1140.15	5510.77
1143.84	3823.31
1147.53	2357.92
1151.22	1373.7
1154.91	954.416
1158.6	532.592
1162.28	423.715
1165.97	212.705
1169.65	362.809
1173.33	139.9
1177.01	37.285
1180.69	189.518
1184.36	402.469
1188.04	171.93
1191.71	166.232
1195.38	206.176
1199.05	375.559
1202.71	202.596
1206.38	227.854
1210.04	257.262
1213.71	70.475
1217.37	218.592
1221.03	313.623
1224.68	306.123
1228.34	294.418
1231.99	196.594
1235.65	280.242
1239.3	271.25
1242.95	107.258
1246.59	358.451
1250.24	76.129
1253.88	124.369
1257.53	170.125
1261.17	193.34
1264.81	296.477
1268.45	199.375
1272.08	125.488
1275.72	122.889
1279.35	101.389
1282.98	72.047
1286.61	56.078
1290.24	110.477
1293.87	67.189
1297.49	2.672
1301.11	63.834
1304.73	62.244
1308.36	57.016
1311.97	89.521
1315.59	165.453
1319.2	3.156
1322.82	113.873
1326.43	6.812
1330.04	97.021
1333.65	121.771
1337.26	206.971
1340.86	379.773
1344.47	304.369
1348.07	297.156
1351.67	373.973
1355.27	251.537
1358.87	69.518
1362.46	337.367
1366.06	146.641
1369.65	167.902
1373.24	424.592
1376.83	256.6
1380.42	396.914
1384	396.752
1387.59	512.396
1391.17	321.096
1394.75	290.461
1398.33	580.043
1401.91	423.705
1405.49	403.705
1409.06	277.299
1412.64	458.588
1416.21	464.537
1419.78	187.994
1423.35	371.789
1426.91	209.838
1430.48	301.109
1434.05	277.141
1437.61	207.635
1441.17	576.004
1444.73	473.016
1448.29	409.346
1451.84	458.174
1455.4	399.088
1458.95	411.543
1462.5	409.561
1466.05	708.85
1469.6	628.074
1473.15	648.34
1476.69	331.566
1480.24	578.059
1483.78	344.889
1487.32	339.463
1490.86	311.559
1494.39	270.092
1497.93	383.602
1501.46	78.221
1505	78.076
1508.53	15.467
1512.06	279.527
1515.59	292.266
