Measurement: Raman, 514 nm, ccw, Raman Data Processed
Mineral: Microcline
Rruff sample: R050150
Ideal chemistry: KAlSi_3_O_8_
Locality: Crystal Peak area, Park/Teller Counties, Colorado, USA
Source: Dave Bunk Minerals
Description: Pale blue prismatic crystals
Measured chemistry: (K_0.95_Na_0.05_)_Î£=1_Al_1.00_Si_3.00_O_8_
Pin_id: L00915
Orientation: Laser parallel to (1 1 0). Fiducial mark perpendicular to laser is parallel to c [0 0 1]
Raman shift (cm-1)	intensity
137.683	0
142.633	383.324
147.579	1347.39
152.522	2337.85
157.462	2823.08
162.4	1270.62
167.334	212.34
172.265	259.519
177.193	1053.14
182.117	1283.68
187.039	462.856
191.958	337.019
196.874	880.598
201.787	892.179
206.696	220.541
211.603	25.7246
216.506	3.37695
221.407	80.5928
226.304	37.9541
231.199	12.0098
236.091	83.5361
240.979	18.1865
245.864	109.228
250.747	481.029
255.626	1210.23
260.503	2541.55
265.376	4226.52
270.247	2899.4
275.114	1966.6
279.979	3546.75
284.84	8099.65
289.699	5775.26
294.554	1876.79
299.407	1046.11
304.257	432.315
309.103	330.578
313.947	58.2461
318.788	91.6426
323.626	97.5566
328.461	560.592
333.292	870.883
338.121	544.236
342.947	185.766
347.771	193.443
352.591	603.258
357.408	589.352
362.222	681.299
367.034	973.41
371.842	3579.47
376.648	2459.16
381.45	485.193
386.25	224.512
391.047	77.5762
395.841	129.477
400.632	725.609
405.42	1073.86
410.205	454.338
414.988	322.088
419.767	56.0371
424.544	54.0391
429.318	107.525
434.089	126.91
438.857	314.133
443.622	1000.79
448.384	2410.19
453.143	6832.05
457.9	5940.65
462.654	3772.14
467.405	5603.92
472.153	13793.6
476.898	23727
481.64	11623.2
486.38	6094.73
491.116	2905.36
495.85	2040.68
500.581	3216.16
505.309	7214.96
510.035	20087.2
514.757	35020.2
519.477	16317.7
524.194	5950.82
528.908	2836.54
533.62	1761.06
538.328	1178.15
543.034	753.365
547.737	412.016
552.437	455.65
557.134	127.973
561.829	226.553
566.521	208.478
571.21	218.4
575.896	307.65
580.58	482.842
585.261	607.398
589.939	197.453
594.614	96.5156
599.286	16.3359
603.956	19.6602
608.623	14.3867
613.287	113.273
617.949	216.291
622.608	258.221
627.264	192.1
631.917	277.084
636.568	488.131
641.215	619.289
645.861	948.379
650.503	1647.99
655.143	1540.27
659.78	1079.73
664.414	579.996
669.046	380.502
673.674	219.697
678.301	74.8809
682.924	1.02539
687.545	112.045
692.163	183.129
696.778	177.736
701.391	94.209
706.001	254.207
710.609	490.082
715.213	172.353
719.815	242.312
724.415	80.2363
729.011	83.3359
733.606	350.496
738.197	583.176
742.786	1062.56
747.372	2312.34
751.955	2144.66
756.536	1231.06
761.114	619.223
765.69	477.666
770.262	608.781
774.833	308.992
779.4	198.098
783.965	248.824
788.528	106.897
793.087	142.529
797.645	127.234
802.199	124.225
806.751	513.637
811.3	850.412
815.847	970.875
820.391	380.486
824.933	203.301
829.471	243.012
834.008	158.799
838.541	111.617
843.073	107.533
847.601	91.0938
852.127	119.269
856.65	278.945
861.171	11.2383
865.69	77.7441
870.205	203.625
874.718	156.254
879.229	17.4102
883.737	45.9336
888.242	162.312
892.745	253.065
897.246	53.6074
901.743	77.7676
906.239	48.5996
910.731	32.9258
915.221	99.0918
919.709	236.916
924.194	338.869
928.677	283.744
933.157	258.457
937.634	177.986
942.109	65.2656
946.582	155.305
951.052	144.289
955.519	232.059
959.984	219.312
964.447	243.67
968.906	184.519
973.364	228.197
977.819	286.662
982.271	371.553
986.721	289.998
991.169	720.6
995.614	986.244
1000.06	614.939
1004.5	575.348
1008.93	333.035
1013.37	328.402
1017.8	321
1022.23	282.062
1026.66	496.574
1031.09	446.9
1035.51	539.631
1039.93	500.027
1044.35	550.982
1048.76	539.613
1053.17	732.939
1057.58	391.447
1061.99	296.086
1066.4	334.164
1070.8	125.213
1075.2	255.027
1079.6	145.611
1084	289.525
1088.39	288.185
1092.78	678.822
1097.17	762.609
1101.56	898.328
1105.94	1109.5
1110.32	1864.82
1114.7	3335.3
1119.08	6828.18
1123.45	10342.3
1127.82	7919.47
1132.19	5436.59
1136.56	5798.43
1140.92	5092.22
1145.29	3102.78
1149.65	1682.39
1154	945.643
1158.36	752.209
1162.71	490.478
1167.06	596.947
1171.41	365.572
1175.76	279.369
1180.1	162.418
1184.44	127.578
1188.78	348.225
1193.11	492.742
1197.45	197.621
1201.78	368.227
1206.11	70.9609
1210.43	44.7695
1214.76	267.434
1219.08	275.164
1223.4	151.086
1227.72	35.6953
1232.03	318.582
1236.35	264.996
1240.66	278.531
1244.96	25.3359
1249.27	28.168
1253.57	315.152
1257.88	269.227
1262.17	19.7109
1266.47	118.356
1270.76	63.5117
1275.06	126.422
1279.35	14.6094
1283.63	38.3125
1287.92	309.117
1292.2	82.4727
1296.48	158.422
1300.76	206.461
1305.04	108.59
1309.31	229.769
1313.58	182.047
1317.85	197.375
1322.12	89.3398
1326.38	374.102
1330.64	169.078
1334.9	413.512
1339.16	428.617
1343.41	299.969
1347.67	485.621
1351.92	179.359
1356.17	494.543
1360.41	77.8047
1364.66	341.769
1368.9	419.848
1373.14	371.188
1377.38	206.18
1381.61	496.254
1385.84	342.812
1390.08	19.4492
1394.3	449.285
1398.53	286.523
1402.75	327.68
1406.97	283.418
1411.19	335.129
1415.41	240.258
1419.63	291.539
1423.84	434.602
1428.05	367.691
1432.26	203.688
1436.46	193.715
1440.67	262.59
1444.87	373.773
1449.07	343.797
1453.27	152.031
1457.46	326.688
1461.66	205.5
1465.85	430.469
1470.04	446.352
1474.22	382.25
1478.41	176.945
1482.59	354.469
1486.77	99.6211
1490.95	457.481
1495.12	130.242
1499.3	357.125
1503.47	319.746
1507.63	105.652
1511.8	445.184
1515.97	629.859
1520.13	326.301
1524.29	535.824
1528.45	121.152
1532.61	82.5352
1536.76	494.316
1540.91	44.3594
1545.06	332.231
1549.21	397.398
1553.35	143
1557.5	134.539
1561.64	543.684
