Measurement: Raman, 514 nm, ccw, Raman Data Processed
Mineral: Microcline
Rruff sample: R050193
Ideal chemistry: KAlSi_3_O_8_
Locality: Devil's Head, Douglas County, Colorado, USA
Source: Dave Bunk Minerals
Description: White to colorless heterogeneous mixture of K and Na feldspar in a cluster of crystals. Crystal structure determined, presented below. This sample is known as an intermediate microcline in the literature.
Measured chemistry: (K_0.929_Na_0.071_)(Al_1.005_Si_2.994_Fe_0.001_)O_7.993_F_0.007_  ; Light Band :  (Na_0.973_K_0.007_Ca_0.020_)(Al_1.020_Si_2.980_)O_8_ ; Dark Band
Pin_id: L01707
Orientation: Laser parallel to (-1 0 -1). Fiducial mark perpendicular to laser is parallel to b [0 1 0]
Raman shift (cm-1)	intensity
148.713	0
153.636	351.291
158.556	63.4395
163.473	95.9492
168.388	2.85938
173.3	282.07
178.21	355.611
183.117	713.438
188.021	964.625
192.923	688.074
197.822	547.225
202.718	641.816
207.612	873.797
212.504	737.854
217.392	335.565
222.279	0.267578
227.162	88.3945
232.043	56.2324
236.921	55.4258
241.797	137.516
246.67	207.019
251.54	393.957
256.408	483.832
261.274	560.375
266.136	740.238
270.996	951.734
275.854	899.463
280.709	877.449
285.561	1252.49
290.41	1552.27
295.257	1046.7
300.102	486.047
304.944	186.371
309.783	303.084
314.619	244.047
319.453	369.438
324.285	353.941
329.113	463.639
333.939	457.215
338.763	242.5
343.584	231.09
348.402	214.535
353.218	182.918
358.031	304.213
362.841	18.3633
367.649	97.082
372.454	227.982
377.257	104.07
382.057	83.9785
386.854	12.3711
391.649	27.375
396.441	226.535
401.231	242.078
406.018	427.463
410.802	431.455
415.584	482.539
420.363	246.947
425.139	124.887
429.913	45.625
434.684	179.344
439.453	224.982
444.219	312.947
448.982	684.271
453.743	1116.56
458.501	1482.06
463.257	867.375
468.01	1222.4
472.76	2160.39
477.508	3531.68
482.253	2869.74
486.996	1285.94
491.736	639.174
496.473	1426.14
501.207	2474.78
505.94	5221.91
510.669	5473.94
515.396	2951.86
520.12	1275.86
524.842	668.814
529.561	381.377
534.277	539.938
538.991	185.537
543.702	392.652
548.41	184.119
553.116	139.031
557.819	206.127
562.52	209.111
567.218	223.106
571.913	434.352
576.606	158.957
581.296	246.547
585.984	7.13672
590.669	81.9746
595.351	122.818
600.031	345.867
604.708	38.4668
609.383	61.6992
614.055	214.723
618.724	112.971
623.391	298.053
628.055	299.889
632.716	149.518
637.375	518.959
642.031	352.172
646.685	230.916
651.335	276.182
655.984	437.844
660.63	40.4043
665.273	12.4023
669.913	149.102
674.551	103.439
679.186	87.6562
683.819	112.027
688.449	224.301
693.076	22.5762
697.701	7.55664
702.323	237.238
706.943	61.2832
711.56	242.135
716.174	135.445
720.786	113.4
725.395	173.644
730.001	69.1074
734.605	472.492
739.206	163.234
743.805	609.824
748.401	423.227
752.995	434.789
757.585	818.59
762.173	1572.82
766.759	1360.81
771.342	638.231
775.922	308.918
780.5	450.402
785.075	339.945
789.648	279.512
794.217	522.824
798.785	300.535
803.349	330.75
807.911	729.707
812.471	1069.91
817.027	1300.56
821.582	685.035
826.133	404.973
830.682	271.59
835.228	32.5859
839.772	84.1992
844.313	219.434
848.852	158.516
853.387	314.562
857.921	10.4102
862.451	78.7969
866.979	135.504
871.505	247.356
876.028	179.547
880.548	299.523
885.065	34.375
889.58	140.078
894.093	1.83203
898.602	149.59
903.109	90.5039
907.614	19.3398
912.116	105.293
916.615	316.551
921.112	121.074
925.606	191.637
930.097	265.801
934.586	254.113
939.072	275.609
943.556	175.41
948.037	259.43
952.515	237.703
956.991	288.606
961.464	3.22656
965.934	117.027
970.402	280.473
974.867	353.742
979.33	210.68
983.79	277.246
988.248	191.133
992.702	169.445
997.155	244.457
1001.6	370.894
1006.05	249.367
1010.5	433.746
1014.94	359.699
1019.38	98.332
1023.81	137.133
1028.25	572.734
1032.68	719.731
1037.11	183.731
1041.53	395.602
1045.96	587.309
1050.38	293.379
1054.8	333.34
1059.21	186.473
1063.62	148.465
1068.04	127.594
1072.44	247.172
1076.85	161.059
1081.25	464.863
1085.65	286.641
1090.05	363.812
1094.44	737.941
1098.84	726.008
1103.22	910.32
1107.61	223.758
1112	394.039
1116.38	396.84
1120.76	553.949
1125.13	443.387
1129.51	531.203
1133.88	539.691
1138.25	383.578
1142.61	464.309
1146.98	378.594
1151.34	224.121
1155.7	273.68
1160.05	393.379
1164.4	279.324
1168.76	313.773
1173.1	156.141
1177.45	98.207
1181.79	359.652
1186.13	237.125
1190.47	10.168
1194.8	449.238
1199.14	61.3516
1203.46	118.371
1207.79	311.703
1212.12	143.316
1216.44	271.664
1220.76	160.773
1225.08	210.812
1229.39	308.731
1233.7	263.594
1238.01	38.8555
1242.32	25.6641
1246.62	107.269
1250.92	49.8789
1255.22	1.13281
1259.51	143.102
1263.81	71.8281
1268.1	168.43
1272.38	429.812
1276.67	205.754
1280.95	128.199
1285.23	340.254
1289.51	194.785
1293.79	185.023
1298.06	183.008
1302.33	211.84
1306.6	110.445
1310.86	342.957
1315.12	514.769
1319.38	384.699
1323.64	281.238
1327.89	265.125
1332.14	358.723
1336.39	282.953
1340.64	147.129
1344.88	589.297
1349.12	444.41
1353.36	346.859
1357.6	363.102
1361.83	143.668
1366.06	350.641
1370.29	554.797
1374.52	421.477
1378.74	71.3203
1382.96	589.316
1387.18	427.875
1391.39	213.695
1395.61	105.082
1399.82	402.848
1404.02	563.231
1408.23	254.746
1412.43	174.102
1416.63	299.094
1420.83	264.324
1425.02	524.828
1429.21	398.238
1433.4	16.7578
1437.59	86.1172
1441.77	196.371
1445.95	600.543
1450.13	237.059
1454.31	361.574
1458.48	388.059
1462.65	125
1466.82	251.523
1470.99	389.371
1475.15	120.688
1479.31	431.824
1483.47	362.211
1487.63	129.769
1491.78	172.184
1495.93	222.742
1500.08	340.606
1504.22	481.379
1508.37	195.231
1512.51	572.5
1516.64	298.949
1520.78	637.965
1524.91	451.793
1529.04	152.832
1533.17	181.57
1537.29	132.703
1541.41	206.957
1545.53	360.996
