Measurement: Raman, 514 nm, ccw, Raman Data Processed
Mineral: Microcline
Rruff sample: R040154
Ideal chemistry: KAlSi_3_O_8_
Locality: Mitchell County, North Carolina, USA
Source: University of Arizona Mineral Museum
Description: White cleavage fragment with some perthitic character
Measured chemistry: (K_0.90_Na_0.09_Ba_0.01_)Al_1.00_(Si_2.99_Al_0.01_)_Î£=3_O_8_
Pin_id: L00336
Orientation: Laser parallel to (-1 0 -1). Fiducial mark perpendicular to laser is parallel to a [1 0 0]
Raman shift (cm-1)	intensity
94.768	0
98.947	94.479
103.124	1786.57
107.3	5007.62
111.473	2672.39
115.644	707.253
119.813	1296.41
123.981	3271.96
128.146	5433.96
132.309	3598.09
136.47	1563.03
140.63	1311.33
144.787	1972.62
148.942	3795.87
153.096	3288.79
157.247	1703.12
161.396	760.365
165.544	596.236
169.689	481.217
173.833	933.943
177.974	1779.26
182.114	1260.73
186.251	695.051
190.387	495.612
194.52	800.555
198.652	1949.91
202.782	1144.94
206.909	376.585
211.035	215.195
215.159	55.172
219.281	5.657
223.4	17.63
227.518	64.586
231.634	37.281
235.748	48.761
239.86	65.653
243.97	118.18
248.079	568.614
252.185	1378.88
256.289	3356.25
260.391	3603.95
264.492	4227.47
268.59	3706.45
272.687	2327.76
276.781	2319.95
280.874	4510.43
284.964	7415.84
289.053	5541.95
293.14	3038.57
297.225	1856.39
301.308	929.301
305.389	497.268
309.468	39.727
313.545	74.756
317.62	31.973
321.693	95.601
325.765	13.034
329.834	73.523
333.902	175.686
337.967	36.266
342.031	75.474
346.093	37.906
350.153	275.537
354.21	1089.94
358.267	1120.32
362.321	476.65
366.373	392.899
370.423	1115.83
374.471	1272.11
378.518	578.009
382.563	81.541
386.605	264.259
390.646	1.832
394.685	454.176
398.722	1967.03
402.757	3717.08
406.79	2527.36
410.821	1442.65
414.851	959.961
418.878	366.273
422.904	197.606
426.927	235.055
430.949	170.531
434.969	362.051
438.987	476.076
443.003	1030.52
447.018	2188.1
451.03	4358.52
455.041	6142.83
459.049	4449.73
463.056	4824.51
467.061	8699.16
471.064	18974.2
475.065	31397.8
479.064	21209.9
483.062	11954.5
487.057	6881.78
491.051	3840.51
495.043	3023.18
499.032	4284.86
503.02	7688.06
507.007	18141
510.991	38988.8
514.973	40718
518.954	19260.5
522.933	8924.05
526.91	4813.66
530.885	2783.98
534.858	2023.01
538.829	1373.35
542.799	846.607
546.766	682.107
550.732	711.396
554.696	488.232
558.658	394.145
562.618	294.17
566.576	263.086
570.533	222.387
574.488	163.48
578.44	461.287
582.391	727.828
586.341	575.285
590.288	223.982
594.233	95.213
598.177	17.316
602.119	91.744
606.059	30.904
609.997	29.287
613.933	181.463
617.868	224.521
621.801	427.51
625.731	230.322
629.66	390.143
633.588	633.988
637.513	608.113
641.437	1207.6
645.358	1669.07
649.278	2088.06
653.196	2244.62
657.113	1523.17
661.027	818.949
664.94	247.715
668.851	158.934
672.76	69.916
676.667	192.557
680.572	261.799
684.476	14.285
688.378	172.152
692.278	424.865
696.176	182.723
700.072	82.715
703.967	267.711
707.86	175.799
711.751	725.785
715.64	181.939
719.527	220.844
723.413	120.438
727.297	121.41
731.179	165.17
735.059	548.801
738.937	1029.4
742.814	1767.53
746.689	3530.39
750.562	4150
754.433	2511.95
758.303	1122.76
762.17	1060.17
766.036	1004.91
769.901	690.428
773.763	176.047
777.624	302.494
781.482	121.779
785.339	286.865
789.195	141.74
793.048	129.432
796.9	226.945
800.75	117.24
804.598	149.486
808.445	89.125
812.289	107.781
816.132	146.256
819.973	42.512
823.813	98.537
827.65	41.494
831.486	6.414
835.32	155.936
839.152	13.221
842.983	176.225
846.812	53.074
850.639	75.555
854.464	101.051
858.288	86.01
862.11	208.35
865.93	145.861
869.748	118.119
873.564	87.693
877.379	230.09
881.192	24.287
885.004	64.719
888.813	5.016
892.621	27.734
896.427	103.865
900.232	50.531
904.034	18.918
907.835	113.291
911.634	291.654
915.432	125.025
919.227	60.465
923.021	255.893
926.813	57.268
930.604	133.709
934.393	401.869
938.18	95.447
941.965	207.506
945.749	410.498
949.53	273.561
953.311	47.266
957.089	122.902
960.866	146.496
964.641	160.488
968.414	172.488
972.185	401.924
975.955	414.521
979.723	500.248
983.49	97.752
987.254	567.061
991.017	1410.06
994.779	2131.24
998.538	1271.67
1002.3	1127.97
1006.05	708.297
1009.81	463.459
1013.56	562.139
1017.31	554.693
1021.06	639.221
1024.81	554.67
1028.55	1153.28
1032.3	1025.87
1036.04	1060.8
1039.78	1373.96
1043.52	1113.29
1047.26	1221.39
1050.99	1711.6
1054.73	1474.79
1058.46	922.812
1062.19	621.723
1065.92	332.383
1069.65	322.646
1073.37	368.916
1077.1	386.186
1080.82	406.355
1084.54	350.58
1088.26	569.736
1091.97	550.584
1095.69	667.453
1099.4	1300.15
1103.12	1152.78
1106.83	1457.24
1110.54	1725.86
1114.24	2745.39
1117.95	4828.9
1121.65	8211.13
1125.35	9460.33
1129.06	7027.12
1132.75	5049.91
1136.45	4658.41
1140.15	4666.29
1143.84	3357.46
1147.53	2014.65
1151.22	1064.79
1154.91	752.633
1158.6	552.305
1162.28	249.891
1165.97	408.848
1169.65	353.926
1173.33	53.785
1177.01	102.492
1180.69	62.125
1184.36	164.5
1188.04	82.91
1191.71	257.777
1195.38	75.961
1199.05	166.379
1202.71	255.598
1206.38	333.484
1210.04	255.09
1213.71	216.211
1217.37	133.828
1221.03	125.824
1224.68	295.031
1228.34	314.586
1231.99	124.309
1235.65	200
1239.3	382.223
1242.95	342.703
1246.59	286.008
1250.24	161.824
1253.88	159.848
1257.53	309.234
1261.17	316.277
1264.81	116.258
1268.45	214.211
1272.08	123.992
1275.72	111.719
1279.35	49.324
1282.98	132.926
1286.61	92.645
1290.24	60.43
1293.87	137.754
1297.49	263.875
1301.11	325.453
1304.73	11.051
1308.36	73.977
1311.97	1.281
1315.59	160.676
1319.2	177.746
1322.82	24.988
1326.43	62.586
1330.04	182.465
1333.65	100.957
1337.26	83.547
1340.86	290.84
1344.47	397.891
1348.07	281.887
1351.67	368.215
1355.27	12.676
1358.87	410.367
1362.46	333.645
1366.06	547.129
1369.65	241.289
1373.24	721.504
1376.83	567.738
1380.42	970.426
1384	838.934
1387.59	800.773
1391.17	462.484
1394.75	270.422
1398.33	513.062
1401.91	275.922
1405.49	567.387
1409.06	653.996
1412.64	190.477
1416.21	454.242
1419.78	89.824
1423.35	356.645
1426.91	280.824
1430.48	296.711
1434.05	362.996
1437.61	325.562
1441.17	470.715
1444.73	174.203
1448.29	484.086
1451.84	526.324
1455.4	238.582
1458.95	338.656
1462.5	361.801
1466.05	840.059
1469.6	452.5
1473.15	625.824
1476.69	313.711
1480.24	0
