Measurement: Raman, 514 nm, ccw, Raman Data Processed
Mineral: Microcline
Rruff sample: R050054
Ideal chemistry: KAlSi_3_O_8_
Locality: Kenticha, Negele area, Sidamo Province, Ethiopia
Source: Rock Currier
Description: Light blue single crystal
Measured chemistry: (K_0.96_Na_0.04_)Al_1.00_Si_3.00_O_8_
Pin_id: M00460
Orientation: Laser parallel to (0 1 1). Fiducial mark perpendicular to laser is parallel to -a [-1 0 0]
Raman shift (cm-1)	intensity
97.121	0
101.314	9.427
105.505	155.614
109.694	315.688
113.881	133.551
118.066	401.721
122.249	1913.81
126.43	4780.85
130.608	5053.1
134.785	2775.27
138.959	4773.3
143.131	7909.26
147.301	6038.91
151.469	8829.85
155.635	17054.4
159.799	22672.5
163.961	13988.1
168.121	6252.74
172.278	3260.47
176.434	2714.43
180.587	3279.6
184.739	2480.74
188.888	1384.05
193.035	1088.72
197.18	1894.19
201.324	3009.02
205.465	1630.97
209.603	556.595
213.74	103.387
217.875	81.968
222.008	131.498
226.139	133.604
230.267	126.366
234.394	130.584
238.518	55.716
242.641	107.11
246.761	385.539
250.879	988.256
254.996	3067.97
259.11	6125.76
263.222	5613.1
267.332	5809.85
271.44	4700.95
275.546	3840.46
279.65	6468.75
283.752	13876.7
287.852	18865.9
291.95	11193.1
296.046	4656.34
300.14	2487.03
304.231	1647.32
308.321	947.562
312.409	655.986
316.495	526.784
320.578	464.689
324.66	551.87
328.739	1244.38
332.817	2418.88
336.892	1792.04
340.966	872.408
345.037	552.354
349.107	451.822
353.174	553.764
357.24	766.3
361.303	740.001
365.365	580.372
369.424	752.189
373.481	1233.16
377.537	932.212
381.59	408.108
385.642	205.564
389.691	120.998
393.738	53.423
397.784	119.077
401.827	320.979
405.868	603.9
409.908	310.879
413.945	191.806
417.98	83.996
422.014	64.113
426.045	72.711
430.075	8.17
434.102	35.549
438.127	160.485
442.151	339.696
446.172	818.302
450.192	2039.33
454.209	4693.83
458.225	4887.65
462.238	2789.94
466.25	2423.74
470.259	3853.79
474.267	8690.57
478.273	12284.3
482.276	8416.59
486.278	6584.36
490.278	3846.09
494.276	2274.22
498.271	2180.15
502.265	3026.58
506.257	6060.59
510.247	14895.3
514.235	30797.3
518.221	24781.9
522.205	11347.4
526.187	5157.12
530.167	2844.37
534.145	1855.66
538.122	1299.75
542.096	960.987
546.068	740.919
550.039	571.847
554.007	464.484
557.973	329.898
561.938	282.483
565.901	302.482
569.861	290.535
573.82	300.758
577.777	330.491
581.732	520.044
585.685	676.088
589.636	480.848
593.585	198.641
597.532	170.096
601.477	90.497
605.42	94.594
609.361	87.669
613.301	88.72
617.238	120.757
621.174	184.781
625.108	353.8
629.039	683.82
632.969	748.867
636.897	618.986
640.823	738.199
644.747	899.506
648.669	1234.87
652.589	1525.27
656.508	1534.68
660.424	1179.12
664.339	619.609
668.251	375.19
672.162	181.868
676.071	82.617
679.978	48.411
683.883	35.249
687.786	20.906
691.687	37.989
695.586	88.43
699.484	41.723
703.379	37.967
707.273	31.968
711.165	10.064
715.055	19.961
718.943	26.351
722.829	1.767
726.713	59.662
730.595	38.705
734.476	125.888
738.354	316.504
742.231	551.131
746.106	1012.98
749.978	1941.52
753.849	1635.81
757.719	949.265
761.586	598.358
765.451	512.671
769.315	699.808
773.177	471.851
777.036	300.839
780.894	228.772
784.75	168.649
788.605	159.469
792.457	137.23
796.307	175.931
800.156	265.57
804.003	845.146
807.848	3910.66
811.691	1662.1
815.532	2752.48
819.371	1677.79
823.209	717.036
827.045	365.208
830.878	209.31
834.71	148.338
838.54	129.232
842.369	79.026
846.195	69.185
850.02	91.719
853.842	33.325
857.663	25.511
861.482	12.942
865.299	4.822
869.115	24.705
872.928	32.109
876.74	17.922
880.55	74.403
884.358	24.287
888.164	25.978
891.969	21.184
895.771	10.272
899.572	0.169
903.371	34.106
907.168	18.904
910.963	22.363
914.757	24.249
918.548	36.807
922.338	97.313
926.126	31.771
929.912	39.183
933.697	74.551
937.479	104.878
941.26	110.175
945.039	84.434
948.816	24.654
952.591	89.835
956.365	138.776
960.136	183.086
963.906	136.159
967.674	153.081
971.441	176.205
975.205	183.189
978.968	280.149
982.729	312.086
986.488	367.999
990.245	591.93
994	1026.88
997.754	1235.73
1001.51	1336.95
1005.26	1393.36
1009	1128.55
1012.75	750.986
1016.5	492.043
1020.24	424.927
1023.98	356.731
1027.72	403.626
1031.46	441.561
1035.19	545.429
1038.93	808.983
1042.66	813.411
1046.39	599.535
1050.12	534.377
1053.85	543.605
1057.57	377.338
1061.29	242.188
1065.02	122.036
1068.74	74.773
1072.45	137.569
1076.17	131.528
1079.88	144.574
1083.6	164.661
1087.31	243
1091.02	249.016
1094.72	307.091
1098.43	416.188
1102.13	471.307
1105.84	547.449
1109.54	591.614
1113.24	848.812
1116.93	1224.02
1120.63	2138.33
1124.32	3332.39
1128.01	3358.79
1131.7	2692.53
1135.39	2716.39
1139.08	3488.92
1142.76	3218.57
1146.45	2060.26
1150.13	1236.42
1153.81	743.158
1157.48	467.21
1161.16	358.135
1164.84	302.437
1168.51	315.522
1172.18	205.349
1175.85	199.206
1179.52	135.133
1183.18	83.29
1186.85	118.262
1190.51	73.657
1194.17	21.826
1197.83	82.839
1201.48	57.002
1205.14	30.849
1208.79	59.975
1212.44	42.889
1216.09	24.68
1219.74	61.627
1223.39	28.428
1227.03	46.322
1230.68	47.414
1234.32	21.014
1237.96	55.684
1241.6	38.618
1245.23	35.387
1248.87	37.356
1252.5	49.927
1256.13	29.458
1259.76	79.038
1263.39	31.645
1267.02	11.735
1270.64	15.51
1274.26	5.429
1277.88	19.409
1281.5	13.513
1285.12	1.8
1288.74	21.729
1292.35	6.778
1295.96	26.641
1299.57	13.911
1303.18	10.915
1306.79	80.886
1310.4	62.977
1314	10.699
1317.6	1.646
1321.2	24.918
1324.8	47.346
1328.4	28.627
1331.99	43.756
1335.59	14.778
1339.18	5.709
1342.77	10.559
1346.36	48.417
1349.95	12.048
1353.53	35.565
1357.12	67.07
1360.7	40.404
1364.28	49.776
1367.86	18.401
1371.44	9.772
1375.01	2.052
1378.59	46.602
1382.16	25.065
1385.73	44.427
1389.3	45.241
1392.87	44.75
1396.43	56.563
1399.99	48.333
1403.56	53.217
1407.12	26.014
1410.68	36.792
1414.23	44.849
1417.79	79.788
1421.34	9.364
1424.9	99.23
1428.45	94.096
1431.99	87.024
1435.54	48.941
1439.09	41.218
1442.63	52.1
1446.17	52.484
1449.71	64.11
1453.26	38.16
1456.79	19.122
1460.33	71.929
1463.86	14.545
1467.39	74.638
1470.92	55.837
1474.45	29.522
1477.98	36.931
1481.51	62.594
1485.03	5.957
1488.56	19.09
1492.08	55.805
1495.6	63.083
1499.11	23.421
1502.63	0.032
1506.14	12.829
1509.66	14.6
