Measurement: Raman, 514 nm, ccw, Raman Data Processed
Mineral: Microcline
Rruff sample: R050054
Ideal chemistry: KAlSi_3_O_8_
Locality: Kenticha, Negele area, Sidamo Province, Ethiopia
Source: Rock Currier
Description: Light blue single crystal
Measured chemistry: (K_0.96_Na_0.04_)Al_1.00_Si_3.00_O_8_
Pin_id: M00118
Orientation: Laser parallel to (1 0 1). Fiducial mark perpendicular to laser is parallel to b [0 1 0]
Raman shift (cm-1)	intensity
90.128	0
94.324	329.043
98.519	602.553
102.712	1949.21
106.902	6028.18
111.09	9411.51
115.277	4542.72
119.461	1393.58
123.643	1615.62
127.823	2748.93
132.001	1988.48
136.176	577.478
140.35	228.239
144.521	734.74
148.691	2817.14
152.858	4462.17
157.024	3028.45
161.187	1437.14
165.348	847.945
169.507	642.742
173.664	992.359
177.819	2110.11
181.971	2613.54
186.122	1370.14
190.271	508.218
194.417	298.224
198.562	837.2
202.704	887.872
206.844	338.86
210.983	0.298
215.119	180.184
219.253	191.899
223.385	157.999
227.515	186.638
231.643	123.362
235.769	173.41
239.893	57.843
244.014	71.026
248.134	212.082
252.252	740.878
256.367	2134.58
260.481	3532.98
264.592	3790.91
268.702	3751.02
272.809	2683.56
276.915	1888.11
281.018	2275.84
285.119	3827.43
289.218	3906.03
293.316	2578.15
297.411	1678.46
301.504	1185.47
305.595	774.494
309.684	471.729
313.771	296.531
317.856	334.738
321.939	282.15
326.02	389.147
330.099	556.431
334.176	689.666
338.251	595.55
342.323	418.659
346.394	365.299
350.463	440.427
354.53	695.506
358.594	1029.9
362.657	709.518
366.718	517.585
370.777	687.156
374.833	834.926
378.888	496.267
382.941	273.841
386.992	171.084
391.04	179.326
395.087	233.283
399.132	536.008
403.174	1759.08
407.215	1823.11
411.254	1257.8
415.29	992.451
419.325	402.531
423.358	136.87
427.389	15.49
431.417	58.337
435.444	89.453
439.469	217.634
443.492	417.123
447.512	947.947
451.531	2315.85
455.548	3929.05
459.563	3311.7
463.576	2232.78
467.587	2729.77
471.596	5251.94
475.603	10514.1
479.608	10584.6
483.611	6614.01
487.612	4369.95
491.611	2624.34
495.608	1754.91
499.603	1860.59
503.596	2919.7
507.587	6309.44
511.577	15200.6
515.564	22474.5
519.549	14682.8
523.533	6921.17
527.514	3437.24
531.493	1978.48
535.471	1192.66
539.447	846.256
543.42	706.885
547.392	500.95
551.362	347.562
555.329	308.127
559.295	192.44
563.259	120.458
567.221	178.936
571.181	107.514
575.139	25.087
579.095	214.656
583.049	222.554
587.002	228.462
590.952	94.182
594.9	10.358
598.847	9.9
602.792	6.672
606.734	5.534
610.675	8.537
614.614	20.559
618.55	21.554
622.485	57.529
626.418	204.481
630.349	257.491
634.279	304.567
638.206	287.747
642.131	371.036
646.055	567.442
649.976	694.935
653.896	1003.47
657.814	880.05
661.729	507.695
665.643	323.428
669.555	93.252
673.465	42.139
677.373	3.967
681.28	14.858
685.184	46.35
689.087	61.469
692.987	20.594
696.886	66.921
700.783	47.48
704.677	52.329
708.57	14.992
712.462	154.962
716.351	210.832
720.238	54.589
724.124	92.116
728.007	127.186
731.889	295.559
735.769	433.778
739.647	742.22
743.523	1220.71
747.397	2394.64
751.269	3177.66
755.139	2428.31
759.008	1371.04
762.875	816.642
766.739	541.645
770.602	330.606
774.463	336.48
778.323	265.454
782.18	174.518
786.035	234.525
789.889	207.475
793.741	209.366
797.591	229.197
801.439	329.966
805.285	407.674
809.129	729.317
812.971	1230.9
816.812	1620.41
820.651	800.864
824.488	377.249
828.323	221.549
832.156	192.16
835.987	120.201
839.817	135.785
843.644	149.813
847.47	23.607
851.294	30.202
855.116	17.935
858.936	76.508
862.755	53.967
866.571	83.311
870.386	33.368
874.199	11.225
878.01	34.8
881.82	17.761
885.627	5.647
889.433	119.339
893.236	3.063
897.038	3.458
900.838	44.948
904.637	55.451
908.433	112.962
912.228	21.458
916.021	8.96
919.812	47.465
923.601	58.968
927.388	78.467
931.174	40.727
934.958	50.726
938.739	62.94
942.52	122.427
946.298	35.914
950.074	116.719
953.849	114.896
957.622	176.395
961.393	96.902
965.162	99.418
968.93	242.946
972.696	172.487
976.459	348.044
980.222	363.619
983.982	441.235
987.74	639.921
991.497	1242.69
995.252	1799.4
999.005	1704.62
1002.76	1316.05
1006.51	1097.05
1010.25	682.589
1014	463.478
1017.74	397.208
1021.49	444.485
1025.23	487.864
1028.96	532.475
1032.7	552.199
1036.44	524.505
1040.17	489.433
1043.9	458.058
1047.63	553.452
1051.36	704.831
1055.09	839.975
1058.81	604.618
1062.54	380.266
1066.26	248.026
1069.97	196.878
1073.69	232.793
1077.41	347.77
1081.12	257.809
1084.84	287.911
1088.55	310.073
1092.25	369.298
1095.96	566.585
1099.67	703.937
1103.37	742.351
1107.07	628.827
1110.77	729.363
1114.47	872.964
1118.16	1440.62
1121.86	2349.37
1125.55	3143.21
1129.24	2579.07
1132.93	2129.04
1136.62	1875.13
1140.31	1948.34
1143.99	1611.43
1147.67	1049.62
1151.35	732.634
1155.03	537.215
1158.71	411.354
1162.39	282.308
1166.06	204.355
1169.73	123.747
1173.4	122.061
1177.07	101.772
1180.74	135.388
1184.4	117.253
1188.07	138.81
1191.73	101.553
1195.39	152.607
1199.05	75.416
1202.7	10.8
1206.36	91.092
1210.01	65.103
1213.66	128.562
1217.31	122.081
1220.96	138.988
1224.6	68.129
1228.25	71.197
1231.89	85.043
1235.53	109.103
1239.17	54.056
1242.81	84.655
1246.44	97.309
1250.08	54.17
1253.71	100.042
1257.34	47.027
1260.97	125.454
1264.6	125.519
1268.22	98.739
1271.85	66.488
1275.47	83.002
1279.09	139.406
1282.71	52.665
1286.33	24.708
1289.94	51.362
1293.56	33.363
1297.17	2.31
1300.78	13.114
1304.39	77.826
1307.99	89.579
1311.6	47.027
1315.2	49.364
1318.8	72.606
1322.4	40.733
1326	37.283
1329.6	8.575
1333.19	1.336
1336.79	8.071
1340.38	58.905
1343.97	164.386
1347.56	79.761
1351.14	72.049
1354.73	74.268
1358.31	1.444
1361.89	43.524
1365.47	32.741
1369.05	29.707
1372.63	80.637
1376.2	109.606
1379.78	74.299
1383.35	148.562
1386.92	17.761
1390.49	74.898
1394.05	73.946
1397.62	90.852
1401.18	44.345
1404.74	75.544
1408.3	151.992
1411.86	243.412
1415.42	188.259
1418.97	184.181
1422.53	155.659
1426.08	96.536
1429.63	109.54
1433.18	68.914
1436.72	36.363
1440.27	59.049
1443.81	54.52
1447.36	90.607
1450.89	206.389
1454.43	191.281
1457.97	191.824
1461.51	205.243
1465.04	201.631
1468.57	231.551
1472.1	175.914
1475.63	175.937
1479.16	81.269
1482.68	1.299
1486.21	168.24
1489.73	212.311
1493.25	198.781
1496.77	146.879
1500.29	162.971
1503.8	168.467
1507.32	160.055
1510.83	156.075
1514.34	24.048
1517.85	0.336
