Measurement: Raman, 514 nm, ccw, Raman Data Processed
Mineral: Microcline
Rruff sample: R040154
Ideal chemistry: KAlSi_3_O_8_
Locality: Mitchell County, North Carolina, USA
Source: University of Arizona Mineral Museum
Description: White cleavage fragment with some perthitic character
Measured chemistry: (K_0.90_Na_0.09_Ba_0.01_)Al_1.00_(Si_2.99_Al_0.01_)_Î£=3_O_8_
Pin_id: L00158
Orientation: Laser parallel to b* (0 1 0). Fiducial mark perpendicular to laser is parallel to c [0 0 1]
Raman shift (cm-1)	intensity
98.947	0
103.124	164.71
107.3	264.077
111.473	11.853
115.644	1362.8
119.813	4109.9
123.981	7638.4
128.146	8113
132.309	7404.94
136.47	11356.2
140.63	16275.5
144.787	18573.1
148.942	22749.6
153.096	31885
157.247	37250.1
161.396	30094.8
165.544	16560.4
169.689	8812.58
173.833	6665.08
177.974	6188.68
182.114	4887.65
186.251	3707
190.387	3406.95
194.52	4681.66
198.652	5680.06
202.782	3672.94
206.909	1749.13
211.035	672.676
215.159	16.938
219.281	164.271
223.4	242.97
227.518	172.692
231.634	81.392
235.748	25.47
239.86	276.875
243.97	1268.09
248.079	3620.63
252.185	8819.3
256.289	13212.4
260.391	12544.5
264.492	11203.9
268.59	9178.99
272.687	8504.86
276.781	14119.9
280.874	27028.4
284.964	33023.3
289.053	23071
293.14	11192.5
297.225	5642.3
301.308	3182.94
305.389	1859.56
309.468	1026.32
313.545	815.326
317.62	760.662
321.693	1340.3
325.765	3882.24
329.834	6138.32
333.902	4807.24
337.967	1959.99
342.031	827.622
346.093	448.106
350.153	829.377
354.21	1130.41
358.267	1237.2
362.321	1052.73
366.373	1595.07
370.423	2852.14
374.471	2490.05
378.518	869.027
382.563	319.486
386.605	76.576
390.646	31.1
394.685	115.423
398.722	608.218
402.757	1024.48
406.79	612.488
410.821	457.303
414.851	286.604
418.878	35.632
422.904	146.327
426.927	101.395
430.949	21.754
434.969	235.416
438.987	501.373
443.003	1403.35
447.018	3082.82
451.03	6492.43
455.041	7268.56
459.049	4931.8
463.056	4462.66
467.061	7503.16
471.064	15020.3
475.065	20135.1
479.064	15886.4
483.062	11796.6
487.057	7448.42
491.051	4373.99
495.043	4060.34
499.032	6210.47
503.02	12600.4
507.007	29080.3
510.991	50362.4
514.973	44753.3
518.954	22129.2
522.933	10378
526.91	5477.41
530.885	3452.51
534.858	2376.45
538.829	1752.11
542.799	1277.73
546.766	1056.98
550.732	927.731
554.696	629.205
558.658	523.276
562.618	440.814
566.576	427.557
570.533	528.443
574.488	578.529
578.44	863.232
582.391	1031.5
586.341	644.571
590.288	249.067
594.233	121.303
598.177	161.261
602.119	66.85
606.059	168.249
609.997	130.479
613.933	321.556
617.868	541.479
621.801	1010.25
625.731	1368.88
629.66	1621.35
633.588	1462.7
637.513	1406.89
641.437	1905.94
645.358	2583.85
649.278	3034.61
653.196	2971.24
657.113	2095.72
661.027	1146.07
664.94	472.275
668.851	379.356
672.76	250.292
676.667	238.068
680.572	9.942
684.476	45.344
688.378	89.412
692.278	217.696
696.176	48.247
700.072	52.881
703.967	63.102
707.86	95.36
711.751	217.767
715.64	119.188
719.527	48.615
723.413	41.152
727.297	104.204
731.179	212.972
735.059	401.487
738.937	846.729
742.814	1622.38
746.689	2789.51
750.562	3211.17
754.433	2161.36
758.303	1175.78
762.17	1298.66
766.036	1525.91
769.901	1146.1
773.763	696.058
777.624	485.949
781.482	249.523
785.339	417.906
789.195	270.098
793.048	447.102
796.9	517.918
800.75	590.547
804.598	961.992
808.445	2401.25
812.289	4212.33
816.132	3367.23
819.973	1477.95
823.813	762.502
827.65	354.18
831.486	236.57
835.32	319.77
839.152	209.959
842.983	104.137
846.812	17.82
850.639	189.312
854.464	61.314
858.288	8.738
862.11	44.883
865.93	106.846
869.748	107.82
873.564	26.93
877.379	5.496
881.192	136.084
885.004	93.203
888.813	140.537
892.621	20.828
896.427	117.113
900.232	44.312
904.034	104.58
907.835	57.305
911.634	151.143
915.432	148.936
919.227	57.646
923.021	84.279
926.813	45.85
930.604	303.371
934.393	256.836
938.18	113.258
941.965	276.623
945.749	352.961
949.53	358.262
953.311	280.861
957.089	296.738
960.866	213.926
964.641	360.164
968.414	248.467
972.185	499.744
975.955	487.025
979.723	594.348
983.49	407.762
987.254	759.025
991.017	1455.53
994.779	2020.81
998.538	2118.79
1002.3	3089.24
1006.05	2757.91
1009.81	1853.36
1013.56	1246.12
1017.31	1308.14
1021.06	1214.02
1024.81	1050.41
1028.55	1554
1032.3	1533.24
1036.04	1964.43
1039.78	2391.89
1043.52	1723.44
1047.26	1247.41
1050.99	1381.23
1054.73	862.293
1058.46	646.658
1062.19	632.82
1065.92	110.986
1069.65	228.359
1073.37	342.541
1077.1	5.338
1080.82	267.369
1084.54	475.547
1088.26	396
1091.97	621.418
1095.69	717.982
1099.4	1021.15
1103.12	1031.82
1106.83	1077.74
1110.54	1242.95
1114.24	1897.12
1117.95	3265.93
1121.65	5359.77
1125.35	5887.64
1129.06	4772.23
1132.75	4075.72
1136.45	4761.61
1140.15	5143.58
1143.84	3689.15
1147.53	2295.81
1151.22	1300.4
1154.91	806.771
1158.6	586.775
1162.28	483.803
1165.97	187.734
1169.65	389.807
1173.33	172.027
1177.01	24.746
1180.69	247.83
1184.36	353.152
1188.04	1.119
1191.71	295.236
1195.38	208.145
1199.05	314.953
1202.71	45.098
1206.38	100.076
1210.04	211.604
1213.71	83.137
1217.37	224.604
1221.03	81.803
1224.68	354.707
1228.34	250.238
1231.99	109.135
1235.65	17.34
1239.3	145.707
1242.95	54.875
1246.59	155.254
1250.24	150.51
1253.88	91.076
1257.53	33.488
1261.17	120.309
1264.81	104.32
1268.45	201.268
1272.08	120.457
1275.72	12.939
1279.35	8.795
1282.98	60.467
1286.61	16.598
1290.24	238.67
1293.87	103.307
1297.49	20.641
1301.11	73.248
1304.73	12.5
1308.36	30.322
1311.97	118.229
1315.59	15.148
1319.2	92.338
1322.82	79.908
1326.43	104.117
1330.04	16.576
1333.65	148.205
1337.26	291.051
1340.86	308.896
1344.47	105.939
1348.07	291.354
1351.67	299.113
1355.27	2.125
1358.87	355.387
1362.46	395.152
1366.06	334.092
1369.65	172.115
1373.24	359.504
1376.83	349.08
1380.42	395.617
1384	462.113
1387.59	413.078
1391.17	387.328
1394.75	303.307
1398.33	503.648
1401.91	340.34
1405.49	430.92
1409.06	476.533
1412.64	306.137
1416.21	292.102
1419.78	322.98
1423.35	365.988
1426.91	323.129
1430.48	388.99
1434.05	326.053
1437.61	370.355
1441.17	550.371
1444.73	394.48
1448.29	687.018
1451.84	311.078
1455.4	343.574
1458.95	468.482
1462.5	392.32
1466.05	626.012
1469.6	650.469
1473.15	604.676
1476.69	181.834
1480.24	591.492
1483.78	437.217
1487.32	169.498
1490.86	237.414
1494.39	166.262
1497.93	443.979
1501.46	62.316
1505	22.748
1508.53	145.43
1512.06	421.742
1515.59	276.494
1519.11	109.186
