Measurement: Raman, 514 nm, ccw, Raman Data Processed
Mineral: Microcline
Rruff sample: R040154
Ideal chemistry: KAlSi_3_O_8_
Locality: Mitchell County, North Carolina, USA
Source: University of Arizona Mineral Museum
Description: White cleavage fragment with some perthitic character
Measured chemistry: (K_0.90_Na_0.09_Ba_0.01_)Al_1.00_(Si_2.99_Al_0.01_)_Î£=3_O_8_
Pin_id: L00336
Orientation: Laser parallel to (-1 0 -1). Fiducial mark perpendicular to laser is parallel to a [1 0 0]
Raman shift (cm-1)	intensity
104.516	0
108.691	274.316
112.864	220.099
117.034	1518.25
121.203	4109.62
125.369	7153.65
129.534	6904.44
133.696	5514.33
137.857	9879.79
142.016	12682.5
146.172	10920.1
150.327	15556
154.48	25257.7
158.63	31843.6
162.779	20221.7
166.926	9702
171.07	5780.22
175.213	4823.94
179.354	4800.01
183.493	3710.02
187.63	2620.25
191.765	2622.61
195.898	3966.53
200.029	4661.57
204.158	2268.82
208.285	1143.28
212.41	418.877
216.533	40.438
220.654	192.838
224.773	141.489
228.891	114.288
233.006	165.45
237.119	50.838
241.231	365.771
245.34	1293.53
249.448	3629.81
253.553	8382.73
257.657	12541.1
261.758	9692.1
265.858	9391
269.956	7397.03
274.052	7771.46
278.146	14583.2
282.237	27044.3
286.327	29252.2
290.416	15053.1
294.502	6278.55
298.586	3248.32
302.668	1774.02
306.749	918.384
310.827	627.453
314.903	498.242
318.978	519.765
323.051	1266.02
327.121	3189.66
331.19	5161.2
335.257	2700.25
339.322	917.973
343.385	538.574
347.446	328.98
351.505	669.166
355.563	1107.11
359.618	721.813
363.672	464.281
367.723	625.584
371.773	720.672
375.821	326.563
379.866	97.719
383.91	86.983
387.952	263.614
391.992	126.005
396.031	47.341
400.067	114.887
404.101	215.082
408.134	240.894
412.165	32.522
416.193	47.05
420.22	4.825
424.245	117.691
428.268	64.662
432.289	93.258
436.309	240.066
440.326	505.325
444.342	1267.64
448.355	3115.57
452.367	6268.84
456.377	5407.15
460.385	3586.13
464.391	3855.78
468.395	7187.1
472.398	14390.1
476.398	16487.8
480.397	11319.1
484.394	9292.09
488.389	4959.77
492.382	3442.15
496.373	3715.24
500.362	6175.07
504.349	13230.6
508.335	29258.8
512.319	46622.8
516.3	32483.6
520.28	14120
524.259	6763.96
528.235	3869.89
532.209	2483.69
536.182	1982.54
540.152	1422.4
544.121	1234.66
548.088	877.385
552.053	757.367
556.017	713.38
559.978	450.145
563.938	521.116
567.895	429.202
571.851	610.699
575.805	579.118
579.758	882.208
583.708	861.986
587.657	566.62
591.603	272.475
595.548	299.778
599.491	225.621
603.432	246.253
607.372	143.689
611.309	275.936
615.245	352.999
619.179	588.886
623.111	827.602
627.041	1667.14
630.97	1734.52
634.896	1112.72
638.821	1328.77
642.744	1777.5
646.665	2352.38
650.584	2690.95
654.502	2567.37
658.418	1804.63
662.331	815.749
666.244	576.717
670.154	283.541
674.062	306.223
677.969	100.933
681.874	129.357
685.777	103.427
689.678	32.231
693.577	142.825
697.475	144.215
701.371	45.385
705.265	176.75
709.157	132.58
713.047	18.307
716.936	102.475
720.823	94.891
724.708	181.176
728.591	195.344
732.472	249.617
736.352	603.945
740.23	924.375
744.106	1647.91
747.98	2779.39
751.853	2244.63
755.723	1259.75
759.592	1038.45
763.459	966.773
767.325	999.252
771.188	741.762
775.05	573.025
778.91	409.16
782.768	318.168
786.625	250.051
790.479	240.812
794.332	333.514
798.183	342.035
802.033	599.441
805.88	1433.73
809.726	2719.91
813.57	4030.04
817.413	2171
821.253	956.854
825.092	444.605
828.929	410.26
832.764	158.385
836.598	302.199
840.429	231.598
844.259	170.307
848.088	156.281
851.914	47.955
855.739	184.902
859.562	41.445
863.383	95.754
867.203	160.516
871.02	110.182
874.836	77.699
878.65	141.498
882.463	49.846
886.274	8.865
890.083	43.459
893.89	64.336
897.695	118.75
901.499	23.811
905.301	74.846
909.102	225.238
912.9	184.971
916.697	35.033
920.492	142.146
924.285	141.211
928.077	72.373
931.867	56.434
935.655	70.5
939.442	49.566
943.226	23.625
947.009	248.67
950.791	194.713
954.57	129.512
958.348	233.846
962.124	14.934
965.899	331.033
969.671	328.188
973.442	271.467
977.211	295.764
980.979	320.111
984.745	588.301
988.509	898.879
992.271	1089.55
996.032	1519.32
999.791	2339.1
1003.55	2382.57
1007.3	1809.15
1011.06	1174.29
1014.81	773.85
1018.56	701.047
1022.31	745.984
1026.06	984.291
1029.8	1138.23
1033.55	1485.78
1037.29	1591.87
1041.03	1703.06
1044.77	1136.38
1048.5	1012.06
1052.24	874.555
1055.97	725.654
1059.7	545.023
1063.43	347.33
1067.16	375.807
1070.89	488.805
1074.61	319.281
1078.34	391.385
1082.06	214.654
1085.78	296.893
1089.5	253.078
1093.21	425.143
1096.93	463.121
1100.64	462.336
1104.35	730.34
1108.06	628.623
1111.77	828.148
1115.48	1303.78
1119.18	2040.79
1122.89	3354.49
1126.59	3222.39
1130.29	2748.05
1133.99	2775.87
1137.68	3857.52
1141.38	3327.55
1145.07	2289.3
1148.76	1325.83
1152.45	742.615
1156.14	423.516
1159.83	471.178
1163.51	186.434
1167.19	329.693
1170.88	85.352
1174.56	251.828
1178.23	36.605
1181.91	153.088
1185.59	130.203
1189.26	119.059
1192.93	291.906
1196.6	246.186
1200.27	41.689
1203.94	128.754
1207.6	174.686
1211.27	51.936
1214.93	230.676
1218.59	60.826
1222.25	35.521
1225.9	186.33
1229.56	378.648
1233.21	320.768
1236.86	320.975
1240.51	260.428
1244.16	155.039
1247.81	12.988
1251.45	124.484
1255.1	142.338
1258.74	300.641
1262.38	29.451
1266.02	89.57
1269.66	26.418
1273.29	24.791
1276.93	129.695
1280.56	134.262
1284.19	110.309
1287.82	170.686
1291.45	72.471
1295.07	101.553
1298.7	173.014
1302.32	145.854
1305.94	76.074
1309.56	194.461
1313.18	114.094
1316.8	149.666
1320.41	116.17
1324.02	7.762
1327.63	3.252
1331.24	128.027
1334.85	118.305
1338.46	53.301
1342.06	211.074
1345.67	33.244
1349.27	85.773
1352.87	317.582
1356.47	394.271
1360.07	457.855
1363.66	486.762
1367.25	345.66
1370.85	276.959
1374.44	276.943
1378.03	218.152
1381.61	173.557
1385.2	372.244
1388.78	423.314
1392.37	439.199
1395.95	511.943
1399.53	427.502
1403.1	448.74
1406.68	339.195
1410.26	299.674
1413.83	455.082
1417.4	220.639
1420.97	497.742
1424.54	266.242
1428.1	366.4
1431.67	428.055
1435.23	498.227
1438.8	325.443
1442.36	513.525
1445.91	400.248
1449.47	317.457
1453.03	547.947
1456.58	477.729
1460.13	597.586
1463.68	660.566
1467.23	392.359
1470.78	595.273
1474.33	282.328
1477.87	370.078
1481.42	250.66
1484.96	262.688
1488.5	261.582
1492.04	330.348
1495.57	366.688
1499.11	10.902
1502.64	11.91
1506.17	26.973
1509.71	6.535
1513.23	0
