Measurement: Raman, 514 nm, ccw, Raman Data Processed
Mineral: Microcline
Rruff sample: R050054
Ideal chemistry: KAlSi_3_O_8_
Locality: Kenticha, Negele area, Sidamo Province, Ethiopia
Source: Rock Currier
Description: Light blue single crystal
Measured chemistry: (K_0.96_Na_0.04_)Al_1.00_Si_3.00_O_8_
Pin_id: L00301
Orientation: Laser parallel to -c* (0 0 -1). Fiducial mark perpendicular to laser is parallel to a [1 0 0]
Raman shift (cm-1)	intensity
49.365	0
53.566	178.321
57.765	467.257
61.962	695.484
66.157	674.052
70.349	543.71
74.54	405.775
78.729	173.424
82.916	18.832
87.101	27.015
91.284	13.359
95.465	69.896
99.644	200.728
103.82	387.927
107.995	1145.02
112.168	1674
116.339	1681.89
120.508	1644.97
124.675	2772.97
128.84	2799.3
133.003	2049.98
137.164	2273.66
141.323	3084.99
145.48	4016.93
149.635	5386.65
153.788	6569.25
157.939	6868.63
162.088	5307.74
166.235	3764.77
170.38	3320.65
174.523	3775.4
178.664	4838.01
182.803	5120.19
186.94	4379.4
191.076	3017.34
195.209	2906.14
199.34	3079.08
203.47	2673.52
207.597	2868.3
211.722	2337.34
215.846	1018.05
219.967	448.915
224.087	188.837
228.204	170.471
232.32	139.156
236.434	120.761
240.545	241.616
244.655	563.464
248.763	1306.14
252.869	2401.95
256.973	3074.89
261.075	3290.07
265.175	4068.11
269.273	3749.52
273.369	2631.53
277.463	2769.51
281.556	4927.85
285.646	7401.11
289.734	7546.29
293.821	4842.38
297.905	2138.38
301.988	910.251
306.069	463.843
310.147	219.131
314.224	100.222
318.299	80.164
322.372	336.971
326.443	1236.67
330.512	1642.27
334.579	857.762
338.645	259.156
342.708	55.443
346.769	46.583
350.829	63.144
354.887	118.335
358.942	5.024
362.996	47.451
367.048	71.858
371.098	281.109
375.146	103.286
379.192	80.574
383.236	118.004
387.279	99.169
391.319	6.924
395.358	251.774
399.394	757.852
403.429	1023.69
407.462	1019.78
411.493	946.166
415.522	943.663
419.549	476.281
423.575	116.958
427.598	36.402
431.619	28.073
435.639	98.406
439.657	227.779
443.673	650.288
447.687	1657.69
451.699	3953.67
455.709	4486.77
459.717	2835.62
463.724	1840.19
467.728	2361.65
471.731	5045.73
475.732	8751.16
479.731	9197.04
483.728	5780.01
487.723	3034
491.716	1955.88
495.708	2144.68
499.697	3953.38
503.685	9571.08
507.671	16965.7
511.655	18590.6
515.637	13015.9
519.617	6247.42
523.596	2957.8
527.572	1813.3
531.547	1180.67
535.52	842.333
539.491	689.417
543.46	495.833
547.427	380.788
551.393	312.448
555.356	277.342
559.318	228.035
563.278	252.686
567.236	255.271
571.192	291.801
575.147	505.277
579.099	726.72
583.05	737.727
586.999	412.102
590.946	231.219
594.891	122.568
598.834	66.214
602.776	95.352
606.715	96.452
610.653	80.483
614.589	77.455
618.523	107.374
622.456	205.553
626.386	313.019
630.315	453.748
634.242	515.431
638.167	477.078
642.09	617.685
646.012	923.232
649.931	1042.72
653.849	876.141
657.765	601.503
661.679	385.818
665.592	174.109
669.502	92.373
673.411	49.459
677.318	19.79
681.223	20.942
685.126	32.032
689.028	50.314
692.927	59.885
696.825	10.473
700.721	15.144
704.616	23.131
708.508	3.492
712.399	93.391
716.288	81.766
720.175	149.336
724.06	163.574
727.944	167.432
731.825	186.037
735.705	329.251
739.584	571.205
743.46	1192.75
747.334	2151.31
751.207	2017.39
755.078	1419.89
758.947	1751.14
762.815	2818.33
766.68	2025.04
770.544	1062.05
774.406	646.373
778.267	428.719
782.125	332.004
785.982	276.229
789.837	289.395
793.69	316.501
797.542	388.549
801.391	508.538
805.239	952.469
809.085	2223.34
812.93	4226.16
816.772	3843.93
820.613	1729.63
824.452	782.289
828.29	475.508
832.125	319.298
835.959	257.639
839.791	159.387
843.621	135.885
847.45	97.338
851.277	4.271
855.102	35.048
858.925	60.389
862.746	21.283
866.566	13.453
870.384	18.428
874.2	8.434
878.015	6.58
881.828	3.364
885.639	15.25
889.448	4.065
893.256	1.145
897.061	19.385
900.865	38.699
904.668	16.101
908.468	54.449
912.267	36.942
916.064	61.391
919.86	19.178
923.653	18.206
927.445	36.566
931.236	24.92
935.024	81.266
938.811	82.605
942.596	115.16
946.379	79.27
950.161	132.601
953.94	188.931
957.719	157.262
961.495	194.597
965.27	263.935
969.043	373.276
972.814	800.636
976.583	1315.01
980.351	1299.39
984.117	886.786
987.882	776.23
991.644	1106.86
995.405	1311.64
999.165	1101.62
1002.92	1152.28
1006.68	981.514
1010.43	706.762
1014.18	665.564
1017.93	550.735
1021.68	434.985
1025.43	517.403
1029.18	694.003
1032.92	898.022
1036.66	783.014
1040.4	667.211
1044.14	488.062
1047.88	413.009
1051.62	387.675
1055.35	258.557
1059.08	217.346
1062.81	158.196
1066.54	106.948
1070.27	171.405
1073.99	225.363
1077.72	159.346
1081.44	254.303
1085.16	368.256
1088.88	532.131
1092.59	911.022
1096.31	1501.37
1100.02	1917.47
1103.73	1399.57
1107.44	884.909
1111.15	818.105
1114.86	751.214
1118.57	881.508
1122.27	1512.33
1125.97	1163.46
1129.67	842.24
1133.37	802.24
1137.07	980.031
1140.76	1021.02
1144.45	719.976
1148.15	431.722
1151.84	457.386
1155.53	328.034
1159.21	96.294
1162.9	122.789
1166.58	74.049
1170.26	56.062
1173.94	27.639
1177.62	62.628
1181.3	103.148
1184.97	83.617
1188.65	62.27
1192.32	66.562
1195.99	18.56
1199.66	1.481
1203.33	1.493
1206.99	50.444
1210.65	59.93
1214.32	67.529
1217.98	39.526
1221.64	23.486
1225.29	8.756
1228.95	37.309
1232.6	85.757
1236.26	76.309
1239.91	10.349
1243.56	26.341
1247.2	41.413
1250.85	46.201
1254.49	30.185
1258.13	35.57
1261.78	40.614
1265.41	17.076
1269.05	95.419
1272.69	100.526
1276.32	112.551
1279.95	73.617
1283.59	17.151
1287.21	9.429
1290.84	37.073
1294.47	5.969
1298.09	7.907
1301.72	70.673
1305.34	92.256
1308.96	16.406
1312.58	101.775
1316.19	80.818
1319.81	33.401
1323.42	39.125
1327.03	43.684
1330.64	49.061
1334.25	78.227
1337.86	66.27
1341.46	88.209
1345.07	52.648
1348.67	45.04
1352.27	75.35
1355.87	115.643
1359.46	63.63
1363.06	8.624
1366.65	65.876
1370.25	16.099
1373.84	78.417
1377.43	58.835
1381.02	69.213
1384.6	70.253
1388.18	94.185
1391.77	60.128
1395.35	17.878
1398.93	27.343
1402.51	16.588
1406.08	93.607
1409.66	46.891
1413.23	88.241
1416.8	131.722
1420.37	90.059
1423.94	108.836
1427.51	101.369
1431.08	41.229
1434.64	122.786
1438.2	97.833
1441.76	73.967
1445.32	105.524
1448.88	125.927
1452.43	74.531
1455.99	157.12
1459.54	166.204
1463.09	77.149
1466.64	103.473
1470.19	72.94
1473.74	45.063
1477.28	19.965
1480.83	72.052
1484.37	56.026
1487.91	104.767
1491.45	134.43
1494.98	93.271
1498.52	112.455
1502.05	66.373
1505.59	46.763
1509.12	19.943
1512.65	14.672
1516.17	8.576
1519.7	0
