Measurement: Raman, 514 nm, ccw, Raman Data Processed
Mineral: Microcline
Rruff sample: R050150
Ideal chemistry: KAlSi_3_O_8_
Locality: Crystal Peak area, Park/Teller Counties, Colorado, USA
Source: Dave Bunk Minerals
Description: Pale blue prismatic crystals
Measured chemistry: (K_0.95_Na_0.05_)_Î£=1_Al_1.00_Si_3.00_O_8_
Pin_id: L00941
Orientation: Laser parallel to (-1 0 -1). Fiducial mark perpendicular to laser is parallel to -b [0 -1 0]
Raman shift (cm-1)	intensity
137.683	0
142.633	2277.81
147.579	3915.17
152.522	6385.39
157.462	2154.82
162.4	257.121
167.334	1004.72
172.265	2631.51
177.193	4775.62
182.117	6806.69
187.039	9046.02
191.958	7521.15
196.874	4956.97
201.787	5433.88
206.696	5500.51
211.603	6551.9
216.506	3277.9
221.407	483.403
226.304	247.149
231.199	288.47
236.091	298.946
240.979	55.0781
245.864	870.956
250.747	1713.79
255.626	2819.98
260.503	3266.53
265.376	3803.5
270.247	4691.98
275.114	4096.61
279.979	3655.56
284.84	6072.44
289.699	8821.67
294.554	8471.69
299.407	3727.91
304.257	1293.43
309.103	619.113
313.947	620.76
318.788	929.242
323.626	1550.88
328.461	2305.99
333.292	2467.84
338.121	969.144
342.947	481.81
347.771	413.163
352.591	490.078
357.408	349.56
362.222	268.547
367.034	186.532
371.842	328.738
376.648	148.172
381.45	149.606
386.25	90.7666
391.047	204.745
395.841	704.568
400.632	1672.71
405.42	2027.28
410.205	3147.65
414.988	3031.26
419.767	3278.24
424.544	1003.62
429.318	381.248
434.089	349.53
438.857	707.924
443.622	1588.38
448.384	4089.85
453.143	6960.63
457.9	9445.17
462.654	7066.23
467.405	6166.16
472.153	13262.5
476.898	19707.8
481.64	25064
486.38	13089.9
491.116	5983.11
495.85	7049.96
500.581	17101.1
505.309	26964
510.035	36563.2
514.757	21749.6
519.477	8832.46
524.194	3916.12
528.908	2352.86
533.62	1528.36
538.328	982.311
543.034	918.35
547.737	519.615
552.437	550.502
557.134	405.057
561.829	535.641
566.521	461.33
571.21	791.824
575.896	1123.89
580.58	1337.34
585.261	1044.75
589.939	539.311
594.614	91.9824
599.286	8.75
603.956	63.248
608.623	175.941
613.287	164.273
617.949	86.9453
622.608	94.9258
627.264	197.16
631.917	297.678
636.568	500.385
641.215	723.316
645.861	2331.52
650.503	1094.1
655.143	650.875
659.78	201.824
664.414	36.7246
669.046	1.63281
673.674	143.793
678.301	117.094
682.924	6.94727
687.545	14.4707
692.163	74.6953
696.778	123.613
701.391	62.3008
706.001	147.344
710.609	52.5391
715.213	111.043
719.815	180.131
724.415	268.625
729.011	234.074
733.606	259.709
738.197	637.152
742.786	1019.86
747.372	1887.51
751.955	2715.77
756.536	5262.45
761.114	9104.62
765.69	11058.5
770.262	5757.49
774.833	2452.97
779.4	1551.91
783.965	977.852
788.528	774.129
793.087	812.523
797.645	1088.85
802.199	1697.43
806.751	4128.67
811.3	8464.03
815.847	11124.5
820.391	7421.2
824.933	2760.85
829.471	1220.25
834.008	951.203
838.541	439.815
843.073	389.113
847.601	459.225
852.127	227.322
856.65	153.428
861.171	9.26758
865.69	15.6855
870.205	589.775
874.718	12.6309
879.229	31.998
883.737	14.1035
888.242	32.3867
892.745	166.123
897.246	219.338
901.743	36.0293
906.239	80.4297
910.731	137.639
915.221	240.685
919.709	173.606
924.194	55.2168
928.677	201.67
933.157	81.875
937.634	64.8535
942.109	242.75
946.582	242.574
951.052	252.34
955.519	166.15
959.984	325.086
964.447	342.228
968.906	704.568
973.364	1191.17
977.819	1770.93
982.271	1459.9
986.721	728.008
991.169	779.629
995.614	981.354
1000.06	1127.62
1004.5	1659.37
1008.93	1550.94
1013.37	1256.92
1017.8	1083.51
1022.23	689.641
1026.66	695
1031.09	539.35
1035.51	755.481
1039.93	740.857
1044.35	864.488
1048.76	851.039
1053.17	562.775
1057.58	347.656
1061.99	352.309
1066.4	309.728
1070.8	271.006
1075.2	259.082
1079.6	653.369
1084	806.025
1088.39	1534.93
1092.78	2962.89
1097.17	4340.99
1101.56	4514.31
1105.94	2636.59
1110.32	1470.75
1114.7	1274.63
1119.08	1298.17
1123.45	1152.9
1127.82	842.717
1132.19	649.029
1136.56	757.426
1140.92	567.869
1145.29	643.322
1149.65	497.662
1154	549.102
1158.36	428.553
1162.71	197.68
1167.06	141.023
1171.41	237.394
1175.76	71.7812
1180.1	128.857
1184.44	165.293
1188.78	38.5098
1193.11	212.732
1197.45	326.066
1201.78	182.391
1206.11	296.629
1210.43	160.769
1214.76	16.5215
1219.08	61.5938
1223.4	31.6406
1227.72	119.758
1232.03	164.728
1236.35	224.783
1240.66	59.7227
1244.96	39.75
1249.27	127.625
1253.57	146.316
1257.88	328.174
1262.17	111.885
1266.47	126.973
1270.76	219.717
1275.06	266.879
1279.35	102.307
1283.63	90.5469
1287.92	142.709
1292.2	189.795
1296.48	273.812
1300.76	91.7519
1305.04	285.506
1309.31	338.279
1313.58	75.0254
1317.85	410.676
1322.12	66.2461
1326.38	96.7305
1330.64	276.055
1334.9	120.859
1339.16	669.203
1343.41	364.121
1347.67	431.969
1351.92	317.685
1356.17	463.359
1360.41	56.7852
1364.66	430.162
1368.9	107.375
1373.14	74.4121
1377.38	330.016
1381.61	215.219
1385.84	441.537
1390.08	126.543
1394.3	193.514
1398.53	272.572
1402.75	134.842
1406.97	270.178
1411.19	126.336
1415.41	40.6602
1419.63	276.549
1423.84	399.727
1428.05	156.477
1432.26	117.582
1436.46	45.5586
1440.67	491.065
1444.87	496.182
1449.07	355.199
1453.27	85.2812
1457.46	291.852
1461.66	333.398
1465.85	204.766
1470.04	237.82
1474.22	289.891
1478.41	166.805
1482.59	382.277
1486.77	166.074
1490.95	253.047
1495.12	360.106
1499.3	303.086
1503.47	71.2344
1507.63	243.621
1511.8	42.5625
1515.97	233.144
1520.13	233.418
1524.29	103.539
1528.45	366.731
1532.61	241.551
1536.76	252.953
1540.91	190.074
1545.06	180.324
1549.21	243.84
1553.35	454.82
1557.5	236.758
1561.64	2.08203
