Measurement: Raman, 514 nm, ccw, Raman Data Processed
Mineral: Microcline
Rruff sample: R050150
Ideal chemistry: KAlSi_3_O_8_
Locality: Crystal Peak area, Park/Teller Counties, Colorado, USA
Source: Dave Bunk Minerals
Description: Pale blue prismatic crystals
Measured chemistry: (K_0.95_Na_0.05_)_Î£=1_Al_1.00_Si_3.00_O_8_
Pin_id: L00961
Orientation: Laser parallel to b* (0 1 0). Fiducial mark perpendicular to laser is parallel to c [0 0 1]
Raman shift (cm-1)	intensity
137.683	0
142.633	2510.28
147.579	8604.8
152.522	8862.53
157.462	3804.47
162.4	678.748
167.334	212.852
172.265	356.209
177.193	2164.84
182.117	2257.72
187.039	1358.18
191.958	1655.4
196.874	2724.66
201.787	2649.63
206.696	737.699
211.603	67.5166
216.506	199.955
221.407	102.508
226.304	47.9111
231.199	36.2461
236.091	103.669
240.979	13.4307
245.864	629.657
250.747	1605.06
255.626	4337.95
260.503	6288.53
265.376	5806.53
270.247	4223.44
275.114	3530.07
279.979	5478.62
284.84	9113.21
289.699	6600.68
294.554	3730.67
299.407	2757.55
304.257	1297.09
309.103	473.775
313.947	349.15
318.788	360.525
323.626	788.596
328.461	1611.22
333.292	1783.91
338.121	913.428
342.947	728.578
347.771	691.928
352.591	1192.34
357.408	1643.01
362.222	1401.77
367.034	1928.66
371.842	3666.9
376.648	2009.32
381.45	506.871
386.25	121.701
391.047	213.24
395.841	1171.45
400.632	3467.97
405.42	3890.73
410.205	1719.81
414.988	1068.26
419.767	33.1523
424.544	69.6758
429.318	24.3184
434.089	79.3535
438.857	553.582
443.622	1548.07
448.384	3533.93
453.143	6379.65
457.9	5495.89
462.654	5318.36
467.405	10573.9
472.153	21460.7
476.898	27187.7
481.64	14368.6
486.38	7549.56
491.116	3825.76
495.85	3256.38
500.581	6581.59
505.309	14344.9
510.035	31044.8
514.757	39084.3
519.477	18022.1
524.194	6777.4
528.908	3373.74
533.62	2028.33
538.328	1273.12
543.034	913.068
547.737	644.293
552.437	431.783
557.134	301.75
561.829	414.606
566.521	254.201
571.21	319.705
575.896	420.557
580.58	399.357
585.261	513.682
589.939	103.465
594.614	108.543
599.286	20.8984
603.956	22.7461
608.623	113.75
613.287	22.9492
617.949	70.0391
622.608	282.44
627.264	507.238
631.917	550.482
636.568	731.309
641.215	1153.56
645.861	1830.89
650.503	2410.66
655.143	2214.38
659.78	1166.25
664.414	686.223
669.046	236.295
673.674	259.449
678.301	41.6504
682.924	227.885
687.545	112.178
692.163	103.453
696.778	57.5762
701.391	190.434
706.001	264.676
710.609	788.252
715.213	439.041
719.815	232.156
724.415	639.752
729.011	1071.71
733.606	565.049
738.197	962.057
742.786	2169.69
747.372	3662.07
751.955	2854.89
756.536	1309.2
761.114	819.5
765.69	911.732
770.262	472.91
774.833	225.66
779.4	144.191
783.965	140.496
788.528	195.731
793.087	42.5605
797.645	258.111
802.199	233.383
806.751	644.4
811.3	549.334
815.847	826.586
820.391	149.859
824.933	379.881
829.471	251.652
834.008	78.8965
838.541	73.9473
843.073	314.344
847.601	71.8633
852.127	140.197
856.65	69.1289
861.171	5.75
865.69	36.1875
870.205	67.3926
874.718	201.553
879.229	186.111
883.737	73.7012
888.242	52.9258
892.745	116.705
897.246	108.432
901.743	135.248
906.239	107.299
910.731	136.279
915.221	373.94
919.709	262.617
924.194	88.9336
928.677	364.609
933.157	203.644
937.634	261.857
942.109	273.986
946.582	305.037
951.052	449.053
955.519	395.022
959.984	297.459
964.447	341.826
968.906	262.856
973.364	442.893
977.819	617.682
982.271	542.182
986.721	1045.39
991.169	1814.74
995.614	2089.52
1000.06	1634.79
1004.5	1582.8
1008.93	1131.63
1013.37	673.844
1017.8	649.789
1022.23	1033.44
1026.66	1180.12
1031.09	1382.3
1035.51	1337.18
1039.93	1551.4
1044.35	1545.46
1048.76	1867.78
1053.17	1674.37
1057.58	1155.16
1061.99	772.481
1066.4	476.102
1070.8	216.92
1075.2	492.256
1079.6	360.635
1084	594.506
1088.39	691.588
1092.78	738.148
1097.17	760.193
1101.56	1165.38
1105.94	1495.02
1110.32	2269.39
1114.7	4401.51
1119.08	8694.82
1123.45	11694
1127.82	8294.38
1132.19	6231.64
1136.56	6116.66
1140.92	5002.91
1145.29	2911.71
1149.65	1479.08
1154	879.824
1158.36	640.418
1162.71	589.967
1167.06	249.473
1171.41	470.031
1175.76	220.049
1180.1	200.385
1184.44	180.965
1188.78	232.908
1193.11	107.33
1197.45	86.4102
1201.78	18.0352
1206.11	98.8731
1210.43	2.62305
1214.76	14.2012
1219.08	179.705
1223.4	18.5
1227.72	155.484
1232.03	232.647
1236.35	195.93
1240.66	65.709
1244.96	75.6816
1249.27	83.8106
1253.57	74.9219
1257.88	82.9414
1262.17	63.0527
1266.47	240.225
1270.76	102.553
1275.06	71.1152
1279.35	185.766
1283.63	205.318
1287.92	193.19
1292.2	22.2793
1296.48	20.3125
1300.76	203.674
1305.04	25.7617
1309.31	177.949
1313.58	32.7285
1317.85	375.422
1322.12	309.582
1326.38	553.814
1330.64	114.24
1334.9	360.514
1339.16	432.051
1343.41	312.588
1347.67	106.973
1351.92	495.627
1356.17	122.133
1360.41	165.961
1364.66	142.779
1368.9	50.5938
1373.14	161.359
1377.38	326.285
1381.61	307.922
1385.84	78.9648
1390.08	135.69
1394.3	15.0645
1398.53	319.185
1402.75	114.832
1406.97	176.338
1411.19	91.0195
1415.41	257.461
1419.63	89.3223
1423.84	202.547
1428.05	261.367
1432.26	92.418
1436.46	288.684
1440.67	392.574
1444.87	217.953
1449.07	78.707
1453.27	105.562
1457.46	415.453
1461.66	254.312
1465.85	218.582
1470.04	330.832
1474.22	82.2109
1478.41	229.215
1482.59	285.473
1486.77	133.824
1490.95	13.1602
1495.12	70.043
1499.3	337.09
1503.47	160.426
1507.63	315.719
1511.8	213.606
1515.97	196.223
1520.13	354.121
1524.29	294.91
1528.45	132.777
1532.61	91.7539
1536.76	130.734
1540.91	204.07
1545.06	219.207
1549.21	408.863
1553.35	416.207
1557.5	443.383
1561.64	369.402
