Measurement: Raman, 514 nm, ccw, Raman Data Processed
Mineral: Microcline
Rruff sample: R050054
Ideal chemistry: KAlSi_3_O_8_
Locality: Kenticha, Negele area, Sidamo Province, Ethiopia
Source: Rock Currier
Description: Light blue single crystal
Measured chemistry: (K_0.96_Na_0.04_)Al_1.00_Si_3.00_O_8_
Pin_id: M00161
Orientation: Laser parallel to a* (1 0 0). Fiducial mark perpendicular to laser is parallel to -b [0 -1 0]
Raman shift (cm-1)	intensity
87.329	0
91.527	583.591
95.723	1107.96
99.917	409.023
104.109	858.398
108.298	2773.8
112.486	2893.81
116.672	664.706
120.855	145.222
125.036	1136.96
129.216	1521.99
133.393	528.378
137.568	228.255
141.741	820.864
145.911	2423.79
150.08	6018.73
154.247	4303.22
158.411	2443.09
162.574	1351.92
166.734	849.209
170.893	634.259
175.049	1108.37
179.203	2393.45
183.355	1422.06
187.505	587.604
191.653	413.664
195.799	852.871
199.943	1505.56
204.084	645.752
208.224	224.3
212.362	13.47
216.497	18.285
220.631	109.39
224.762	114.775
228.891	154.323
233.018	133.609
237.144	104.372
241.267	6.613
245.388	94.879
249.507	324.919
253.624	1042.88
257.739	2578.14
261.852	2494.85
265.962	3159.58
270.071	2436.86
274.178	1361.46
278.283	1357.22
282.385	2936.23
286.486	4805.59
290.584	3188.11
294.681	2022.51
298.775	1601.97
302.868	964.282
306.958	533.451
311.047	312.275
315.133	295.349
319.217	259.5
323.299	294.132
327.38	490.331
331.458	920.187
335.534	772.708
339.608	319.024
343.681	314.375
347.751	313.282
351.819	503.764
355.885	754.55
359.949	733.635
364.011	526.783
368.071	699.57
372.129	1376.88
376.185	1023.62
380.239	443.264
384.291	275.205
388.341	216.514
392.389	247.254
396.435	330.251
400.479	1098.81
404.521	2617.95
408.561	982.279
412.599	812.154
416.636	535.828
420.67	126.066
424.702	42.702
428.732	103.708
432.76	68.125
436.786	126.187
440.81	267.274
444.832	441.715
448.852	1124.79
452.87	2871.6
456.887	2965.33
460.901	1894.45
464.913	2070.07
468.923	3445.82
472.931	8051.72
476.938	13149
480.942	7754.69
484.944	4890.82
488.945	2525.36
492.943	1481.6
496.94	1428.23
500.934	1883.42
504.927	3508.77
508.917	8217.92
512.906	18896.6
516.892	16068.2
520.877	6677.86
524.86	2977.22
528.841	1804.67
532.82	1115.97
536.796	837.383
540.771	559.007
544.744	358.537
548.715	299.66
552.684	223.188
556.652	199.874
560.617	187.82
564.58	86.697
568.541	118.087
572.501	142.27
576.458	177.983
580.414	227.366
584.367	309.92
588.319	220.494
592.268	41.083
596.216	11.606
600.162	37.697
604.106	27.771
608.048	36.816
611.988	21.547
615.926	28.891
619.862	52.231
623.797	150.576
627.729	279.138
631.659	308.226
635.588	243.687
639.515	234.534
643.439	444.665
647.362	748.484
651.283	1049.35
655.202	949.229
659.119	560.156
663.034	346.164
666.947	131.258
670.859	55.428
674.768	17.872
678.676	2.482
682.581	8.252
686.485	2.467
690.387	39.725
694.287	42.636
698.185	17.366
702.081	229.999
705.975	51.406
709.868	174.922
713.758	189.995
717.647	76.872
721.533	132.851
725.418	111.602
729.301	131.419
733.182	171.095
737.061	268.207
740.939	519.192
744.814	1107.68
748.688	2041.33
752.559	1561.29
756.429	821.223
760.297	504.972
764.163	412.698
768.027	358.821
771.89	211.435
775.75	94.256
779.609	33.051
783.465	138.778
787.32	24.439
791.173	66.054
795.024	41.605
798.873	89.001
802.721	97.362
806.566	132.652
810.41	344.87
814.252	563.014
818.092	388.085
821.93	190.08
825.766	152.999
829.601	98.603
833.433	77.599
837.264	20.356
841.093	26.49
844.92	9.769
848.745	5.578
852.568	53.591
856.39	14.465
860.209	52.53
864.027	71.785
867.843	11.75
871.657	16.187
875.47	29.938
879.28	52.797
883.089	22.149
886.896	37.747
890.701	55.551
894.504	26.293
898.305	17.939
902.105	46.502
905.902	3.013
909.698	7.469
913.492	0.095
917.285	45.295
921.075	89.634
924.864	35.931
928.65	31.186
932.435	149.196
936.218	89.365
940	16.443
943.779	115.3
947.557	75.801
951.333	61.175
955.107	144.467
958.879	165.679
962.65	189.029
966.418	197.406
970.185	218.047
973.95	170.972
977.714	256.823
981.475	270.419
985.235	366.856
988.993	530.92
992.749	940.426
996.503	1041.12
1000.26	809.387
1004.01	708.543
1007.75	560.956
1011.5	422.189
1015.25	305.375
1018.99	326.033
1022.73	327.42
1026.47	419.555
1030.21	587.802
1033.95	485.892
1037.68	502.121
1041.41	503.497
1045.15	510.765
1048.88	691.167
1052.6	800.592
1056.33	636.464
1060.05	451.932
1063.78	288.838
1067.5	217.436
1071.21	187.244
1074.93	170.058
1078.65	147.868
1082.36	188.712
1086.07	270.801
1089.78	316.764
1093.49	418.838
1097.2	425.805
1100.9	428.054
1104.6	586.172
1108.3	680.217
1112	868.354
1115.7	1460.83
1119.4	2439.29
1123.09	3880.42
1126.78	3805.8
1130.47	2674
1134.16	2067.55
1137.85	2493.09
1141.54	2249.59
1145.22	1473.06
1148.9	850.56
1152.58	500.27
1156.26	342.295
1159.94	268.131
1163.61	215.194
1167.28	248.463
1170.95	202.62
1174.62	157.591
1178.29	82.494
1181.96	62.08
1185.62	119.199
1189.29	0.245
1192.95	1.176
1196.61	53.777
1200.26	95.577
1203.92	117.334
1207.57	73.385
1211.23	54.02
1214.88	58.329
1218.53	12.87
1222.17	54.91
1225.82	108.982
1229.46	80.877
1233.11	62.589
1236.74	22.092
1240.38	80.224
1244.02	19.341
1247.66	26.019
1251.29	54.177
1254.92	69.209
1258.55	120.904
1262.18	45.032
1265.81	52.118
1269.43	29.176
1273.06	42.838
1276.68	15.318
1280.3	61.638
1283.91	53.826
1287.53	13.055
1291.15	73.199
1294.76	39.146
1298.37	3.97
1301.98	31.632
1305.59	6.87
1309.19	41.573
1312.8	12.433
1316.4	41.552
1320	16.422
1323.6	19.154
1327.2	43.731
1330.8	44.193
1334.39	80.519
1337.98	20.719
1341.58	10.125
1345.16	45.706
1348.75	29.661
1352.34	35.516
1355.92	98.643
1359.51	90.385
1363.09	72.971
1366.67	10.626
1370.24	40.355
1373.82	28.346
1377.39	41.284
1380.97	106.538
1384.54	94.167
1388.11	109.837
1391.68	132.799
1395.24	118.88
1398.81	175.925
1402.37	113.345
1405.93	102.635
1409.49	50.994
1413.05	68.516
1416.6	49.742
1420.16	68.637
1423.71	115.395
1427.26	75.106
1430.81	45.503
1434.36	157.934
1437.91	187.331
1441.45	127.567
1444.99	102.753
1448.54	110.628
1452.08	58.377
1455.61	59.88
1459.15	70.976
1462.68	113.612
1466.22	150.608
1469.75	149.094
1473.28	180.279
1476.81	163.631
1480.33	119.434
1483.86	101.425
1487.38	67.876
1490.9	107.762
1494.42	45.313
1497.94	43.452
1501.46	80.458
1504.97	44.663
1508.49	29.534
1512	122.437
1515.51	155.449
1519.02	0
