Measurement: Raman, 514 nm, ccw, Raman Data Processed
Mineral: Microcline
Rruff sample: R050193
Ideal chemistry: KAlSi_3_O_8_
Locality: Devil's Head, Douglas County, Colorado, USA
Source: Dave Bunk Minerals
Description: White to colorless heterogeneous mixture of K and Na feldspar in a cluster of crystals. Crystal structure determined, presented below. This sample is known as an intermediate microcline in the literature.
Measured chemistry: (K_0.929_Na_0.071_)(Al_1.005_Si_2.994_Fe_0.001_)O_7.993_F_0.007_  ; Light Band :  (Na_0.973_K_0.007_Ca_0.020_)(Al_1.020_Si_2.980_)O_8_ ; Dark Band
Pin_id: L01707
Orientation: Laser parallel to (-1 0 -1). Fiducial mark perpendicular to laser is parallel to b [0 1 0]
Raman shift (cm-1)	intensity
143.788	0
148.713	275.19
153.636	566.608
158.556	584.435
163.473	732.31
168.388	237.718
173.3	400.1
178.21	405.359
183.117	475.688
188.021	786.852
192.923	580.398
197.822	658.006
202.718	423.721
207.612	592.352
212.504	521.382
217.392	52.4209
222.279	70.4238
227.162	80.5225
232.043	245.898
236.921	76.082
241.797	53.3975
246.67	296.952
251.54	185.54
256.408	450.138
261.274	606.458
266.136	719.138
270.996	841.529
275.854	784.269
280.709	999.379
285.561	1360.96
290.41	1574.89
295.257	1039.94
300.102	387.656
304.944	151.656
309.783	230.447
314.619	199.699
319.453	149.172
324.285	301.065
329.113	375.423
333.939	325.39
338.763	207.495
343.584	206.19
348.402	232.83
353.218	263.501
358.031	201.178
362.841	22.042
367.649	137.512
372.454	148.464
377.257	40.2764
382.057	9.2998
386.854	154.219
391.649	15.7617
396.441	201.499
401.231	291.806
406.018	409.053
410.802	223.155
415.584	365.353
420.363	65.0557
425.139	55.7285
429.913	177.164
434.684	115.925
439.453	188.332
444.219	406.607
448.982	477.877
453.743	934.973
458.501	815.041
463.257	710.988
468.01	952.609
472.76	1590.45
477.508	2476.69
482.253	1880.94
486.996	890.875
491.736	758.256
496.473	1037.59
501.207	1749.03
505.94	3733.95
510.669	4133.19
515.396	2923.85
520.12	1273.12
524.842	637.93
529.561	402.463
534.277	339.06
538.991	209.957
543.702	194.68
548.41	105.297
553.116	256.295
557.819	193.408
562.52	162.785
567.218	260.037
571.913	181.162
576.606	211.947
581.296	225.795
585.984	88.8164
590.669	10.3027
595.351	158.766
600.031	119.789
604.708	116.344
609.383	77.457
614.055	184.588
618.724	191.654
623.391	166.762
628.055	87.8223
632.716	37.9414
637.375	296.986
642.031	112.953
646.685	222.654
651.335	130.307
655.984	276.365
660.63	147.397
665.273	5.07031
669.913	22.2129
674.551	26.9062
679.186	16.4707
683.819	22.1602
688.449	196.494
693.076	315.467
697.701	111.428
702.323	11.623
706.943	56.7383
711.56	234.988
716.174	131.428
720.786	118.934
725.395	258.025
730.001	202.08
734.605	271.252
739.206	83.2891
743.805	276.92
748.401	292.66
752.995	380.295
757.585	512.412
762.173	700.479
766.759	551.852
771.342	334.156
775.922	208.91
780.5	429.291
785.075	193.91
789.648	135.316
794.217	211.412
798.785	182.023
803.349	479.935
807.911	451.115
812.471	647.144
817.027	678.857
821.582	568.35
826.133	359.615
830.682	271.463
835.228	190.293
839.772	162.85
844.313	138.947
848.852	53.2598
853.387	102.752
857.921	64.8359
862.451	271.232
866.979	331.816
871.505	346.455
876.028	262.44
880.548	107.279
885.065	72.1426
889.58	61.3008
894.093	146.332
898.602	141.406
903.109	111.701
907.614	74.3066
912.116	33.959
916.615	172.693
921.112	148.957
925.606	87.4531
930.097	166.459
934.586	74.7539
939.072	210.994
943.556	297.606
948.037	143.484
952.515	126.586
956.991	164.293
961.464	150.715
965.934	87.8262
970.402	277.307
974.867	431.67
979.33	395.629
983.79	50.9043
988.248	396.336
992.702	331.815
997.155	304.891
1001.6	344.088
1006.05	474.072
1010.5	160.881
1014.94	380.107
1019.38	333.996
1023.81	146.223
1028.25	384.816
1032.68	108.137
1037.11	176.6
1041.53	169.299
1045.96	252.559
1050.38	203.385
1054.8	81.5625
1059.21	221.918
1063.62	56.1328
1068.04	53.041
1072.44	268.945
1076.85	186.094
1081.25	152.926
1085.65	239.883
1090.05	490.385
1094.44	492.666
1098.84	547.973
1103.22	527.979
1107.61	603.021
1112	330.033
1116.38	204.389
1120.76	455.912
1125.13	198.188
1129.51	439.045
1133.88	276.982
1138.25	371.01
1142.61	161.699
1146.98	248.033
1151.34	327.062
1155.7	59.5859
1160.05	181.551
1164.4	144.902
1168.76	34.0723
1173.1	195.772
1177.45	203.463
1181.79	116.717
1186.13	214.258
1190.47	140.522
1194.8	30.7148
1199.14	249.451
1203.46	61.3223
1207.79	170.393
1212.12	245.457
1216.44	60.5117
1220.76	45.1113
1225.08	181.727
1229.39	231.752
1233.7	391.721
1238.01	18.5508
1242.32	37.2266
1246.62	17.3281
1250.92	41.3945
1255.22	91.5234
1259.51	305.926
1263.81	0.445313
1268.1	11.1758
1272.38	166.648
1276.67	29.9727
1280.95	171.016
1285.23	147.785
1289.51	188.082
1293.79	119.43
1298.06	248.562
1302.33	142.5
1306.6	312.758
1310.86	198.129
1315.12	54.9023
1319.38	156.586
1323.64	339.66
1327.89	208.117
1332.14	6.47266
1336.39	271.266
1340.64	376.004
1344.88	61.5156
1349.12	141.914
1353.36	483.352
1357.6	33.8203
1361.83	203.164
1366.06	301.602
1370.29	422.277
1374.52	210.481
1378.74	157.926
1382.96	188.047
1387.18	12.207
1391.39	153.59
1395.61	100.519
1399.82	170.555
1404.02	229.516
1408.23	107.496
1412.43	129.961
1416.63	5.14453
1420.83	259.828
1425.02	294.508
1429.21	282.582
1433.4	255.258
1437.59	146.688
1441.77	377.769
1445.95	280.121
1450.13	219.402
1454.31	283.582
1458.48	347.777
1462.65	268.113
1466.82	343.133
1470.99	129.578
1475.15	382.473
1479.31	106.727
1483.47	348.156
1487.63	263.488
1491.78	79.7188
1495.93	449.43
1500.08	407.164
1504.22	257.769
1508.37	298.578
1512.51	499.742
1516.64	211.238
1520.78	423.164
1524.91	340.879
1529.04	387.191
1533.17	194.926
1537.29	12.793
1541.41	436.422
1545.53	115.531
1549.65	220.531
1553.77	496.934
1557.88	225.523
1561.99	410.016
