Measurement: Raman, 514 nm, ccw, Raman Data Processed
Mineral: Microcline
Rruff sample: R050054
Ideal chemistry: KAlSi_3_O_8_
Locality: Kenticha, Negele area, Sidamo Province, Ethiopia
Source: Rock Currier
Description: Light blue single crystal
Measured chemistry: (K_0.96_Na_0.04_)Al_1.00_Si_3.00_O_8_
Pin_id: M00161
Orientation: Laser parallel to a* (1 0 0). Fiducial mark perpendicular to laser is parallel to -b [0 -1 0]
Raman shift (cm-1)	intensity
87.329	0
91.527	252.277
95.723	370.597
99.917	342.646
104.109	977.929
108.298	2724.7
112.486	4396.94
116.672	1507.81
120.855	1333.93
125.036	3224.27
129.216	3138.61
133.393	1175.59
137.568	361.525
141.741	131.272
145.911	622.734
150.08	1448.95
154.247	1609.85
158.411	931.07
162.574	673.758
166.734	476.837
170.893	425.199
175.049	1052.57
179.203	1694.45
183.355	1222.38
187.505	478.184
191.653	362.224
195.799	567.167
199.943	865.07
204.084	400.1
208.224	192.564
212.362	6.53
216.497	71.466
220.631	96.723
224.762	150.026
228.891	70.603
233.018	79.702
237.144	55.329
241.267	40.463
245.388	85.863
249.507	569.748
253.624	1224.78
257.739	2608.97
261.852	3638.19
265.962	5028.78
270.071	3561.45
274.178	1907.17
278.283	1507.1
282.385	2482.86
286.486	3389.52
290.584	2095.79
294.681	1056.45
298.775	547.693
302.868	280.769
306.958	180.895
311.047	60.704
315.133	80.191
319.217	28.535
323.299	53.805
327.38	249.682
331.458	509.708
335.534	352.941
339.608	142.382
343.681	135.558
347.751	66.318
351.819	129.084
355.885	214.966
359.949	268.473
364.011	227.41
368.071	495.787
372.129	719.406
376.185	549.506
380.239	264.307
384.291	131.851
388.341	69.448
392.389	86.819
396.435	143.211
400.479	486.259
404.521	710.986
408.561	627.958
412.599	1208.06
416.636	572.556
420.67	217.649
424.702	91.274
428.732	84.393
432.76	134.015
436.786	255.284
440.81	490.655
444.832	1002.1
448.852	2704.69
452.87	6416.47
456.887	5786.04
460.901	2786.02
464.913	1844.38
468.923	2148.73
472.931	4395.78
476.938	6162.57
480.942	4236.99
484.944	3146.1
488.945	1812.68
492.943	1192.9
496.94	1283.81
500.934	1892.13
504.927	3898.93
508.917	9124.91
512.906	18326.7
516.892	13880.3
520.877	5954.29
524.86	2835.29
528.841	1657.27
532.82	1062.95
536.796	812.95
540.771	559.861
544.744	372.543
548.715	309.35
552.684	290.036
556.652	254.712
560.617	166.49
564.58	119.276
568.541	117.708
572.501	121.17
576.458	89.571
580.414	200.81
584.367	208.302
588.319	108.563
592.268	61.253
596.216	6.062
600.162	0.145
604.106	7.123
608.048	11.982
611.988	2.151
615.926	18.511
619.862	20.203
623.797	5.127
627.729	129.542
631.659	94.265
635.588	190.081
639.515	225.98
643.439	507.961
647.362	707.998
651.283	937.05
655.202	915.106
659.119	641.191
663.034	342.333
666.947	231.538
670.859	10.195
674.768	39.103
678.676	6.569
682.581	5.731
686.485	13.984
690.387	33.191
694.287	78.542
698.185	17.524
702.081	23.378
705.975	60.483
709.868	50.942
713.758	32.352
717.647	48.428
721.533	122.206
725.418	168.984
729.301	251.775
733.182	291.251
737.061	654.342
740.939	1109.06
744.814	2239.59
748.688	3947.28
752.559	3047.8
756.429	1612.34
760.297	1019.55
764.163	790.812
768.027	631.038
771.89	372.188
775.75	332.007
779.609	273.323
783.465	252.971
787.32	257.409
791.173	318.33
795.024	346.166
798.873	414.957
802.721	601.703
806.566	1034.4
810.41	2367.06
814.252	3561.67
818.092	2082.23
821.93	873.748
825.766	488.571
829.601	336.97
833.433	231.767
837.264	103.837
841.093	121.007
844.92	50.98
848.745	78.981
852.568	60.481
856.39	36.154
860.209	3.599
864.027	46.231
867.843	5.73
871.657	131.503
875.47	20.819
879.28	55.534
883.089	36.959
886.896	2.577
890.701	3.843
894.504	88.232
898.305	65.583
902.105	29.833
905.902	24.003
909.698	8.138
913.492	84.294
917.285	55.054
921.075	36.177
924.864	12.297
928.65	123.401
932.435	99.497
936.218	94.592
940	102.647
943.779	24.68
947.557	93.703
951.333	97.379
955.107	117.725
958.879	120.728
962.65	70.725
966.418	166.718
970.185	132.707
973.95	149.694
977.714	175.683
981.475	214.677
985.235	373.674
988.993	586.723
992.749	961.808
996.503	1040.92
1000.26	729.022
1004.01	533.408
1007.75	412.651
1011.5	372.533
1015.25	217.119
1018.99	249.975
1022.73	247.477
1026.47	163.484
1030.21	231.304
1033.95	252.771
1037.68	154.907
1041.41	189.531
1045.15	172.965
1048.88	193.808
1052.6	193.593
1056.33	113.129
1060.05	214.238
1063.78	164.495
1067.5	121.955
1071.21	103.154
1074.93	106.902
1078.65	138.057
1082.36	199.409
1086.07	286.642
1089.78	393.514
1093.49	531.927
1097.2	618.19
1100.9	718.6
1104.6	591.224
1108.3	469.623
1112	541.228
1115.7	764.616
1119.4	908.109
1123.09	801.492
1126.78	752.718
1130.47	572.553
1134.16	657.119
1137.85	934.553
1141.54	885.488
1145.22	544.198
1148.9	392.589
1152.58	167.201
1156.26	186.775
1159.94	63.324
1163.61	192.181
1167.28	61.956
1170.95	123.184
1174.62	6.1
1178.29	53.96
1181.96	55.69
1185.62	110.444
1189.29	6.381
1192.95	102.236
1196.61	98.834
1200.26	136.277
1203.92	111.434
1207.57	114.876
1211.23	32.761
1214.88	122.363
1218.53	55.076
1222.17	129.512
1225.82	179.07
1229.46	59.463
1233.11	148.2
1236.74	43.569
1240.38	61.798
1244.02	37.325
1247.66	19.813
1251.29	67.868
1254.92	232.928
1258.55	157.975
1262.18	164.727
1265.81	84.379
1269.43	47.937
1273.06	36.174
1276.68	43.763
1280.3	4.134
1283.91	110.547
1287.53	29.044
1291.15	1.624
1294.76	39.448
1298.37	36.083
1301.98	111.383
1305.59	21.297
1309.19	7.862
1312.8	11.625
1316.4	57.392
1320	56.728
1323.6	59.439
1327.2	12.968
1330.8	169.322
1334.39	27.861
1337.98	12.98
1341.58	7.75
1345.16	31.275
1348.75	19.737
1352.34	77.426
1355.92	105.03
1359.51	35.278
1363.09	107.824
1366.67	115.036
1370.24	16.072
1373.82	38.962
1377.39	48.368
1380.97	73.264
1384.54	91.757
1388.11	40.66
1391.68	89.605
1395.24	179.493
1398.81	181.414
1402.37	135.955
1405.93	157.341
1409.49	54.851
1413.05	65.116
1416.6	14.133
1420.16	36.936
1423.71	140.997
1427.26	122.304
1430.81	162.306
1434.36	211.315
1437.91	167.189
1441.45	127.54
1444.99	54.43
1448.54	68.878
1452.08	54.961
1455.61	119.727
1459.15	50.494
1462.68	148.333
1466.22	224.295
1469.75	244.894
1473.28	194.011
1476.81	235.115
1480.33	192.351
1483.86	199.566
1487.38	89.203
1490.9	93.448
1494.42	25.185
1497.94	17.021
1501.46	62.922
1504.97	138.98
1508.49	128.602
1512	152.98
1515.51	164.668
