Measurement: Raman, 514 nm, ccw, Raman Data Processed
Mineral: Microcline
Rruff sample: R040154
Ideal chemistry: KAlSi_3_O_8_
Locality: Mitchell County, North Carolina, USA
Source: University of Arizona Mineral Museum
Description: White cleavage fragment with some perthitic character
Measured chemistry: (K_0.90_Na_0.09_Ba_0.01_)Al_1.00_(Si_2.99_Al_0.01_)_Î£=3_O_8_
Pin_id: L00534
Orientation: Laser parallel to (1 1 0). Fiducial mark perpendicular to laser is parallel to c [0 0 1]
Raman shift (cm-1)	intensity
102.242	0
106.423	1572.82
110.603	3370.37
114.78	1517.21
118.956	696.871
123.129	1755.43
127.3	3870.75
131.469	3676.51
135.636	2548.15
139.801	3746.01
143.964	6283.48
148.125	10212.9
152.284	11456.9
156.441	10817.4
160.596	9142.35
164.749	5553.13
168.9	3281.43
173.049	3855.59
177.195	6341.79
181.34	5688.87
185.483	2997.73
189.624	1679.89
193.762	2083.2
197.899	3767.8
202.034	3373.66
206.166	1360.59
210.297	494.213
214.425	96.474
218.552	69.899
222.676	252.27
226.799	321.672
230.919	269.517
235.038	227.359
239.154	152.318
243.269	13.523
247.381	563.275
251.492	1823.07
255.6	4472.03
259.707	5670.68
263.811	6457.33
267.914	6603.03
272.014	4318.11
276.113	3109.53
280.209	5250.95
284.304	9485.05
288.396	9380.66
292.487	5216.95
296.575	2773.53
300.662	1749.89
304.746	865.455
308.829	372.241
312.909	171.358
316.988	152.805
321.065	91.57
325.139	572.538
329.212	1711.83
333.283	1947.96
337.351	871.812
341.418	325.229
345.483	125.461
349.546	206.355
353.606	323.958
357.665	686.337
361.722	568.495
365.777	730.425
369.83	1932.09
373.881	2773.39
377.93	1544.19
381.977	485.881
386.023	146.823
390.066	160.547
394.107	207.609
398.146	833.125
402.184	2176.41
406.219	1931.52
410.252	1389.66
414.284	1147.46
418.313	344.986
422.341	2.316
426.367	150.811
430.39	145.255
434.412	89.816
438.432	294.977
442.45	755.103
446.466	1743.23
450.48	4897.77
454.492	8011.32
458.502	5725.13
462.51	3577.72
466.517	3978.73
470.521	7709.31
474.523	14898.9
478.524	13927.5
482.523	8699.11
486.519	5505.76
490.514	3094.27
494.507	2312.44
498.498	2680.31
502.487	4497.88
506.474	10089.6
510.459	23257.8
514.442	31792.3
518.424	19289.3
522.403	8367.55
526.381	4154.81
530.356	2361.3
534.33	1676.05
538.302	1259.37
542.272	842.638
546.24	664.903
550.206	618.742
554.17	264.786
558.132	470.89
562.093	237.431
566.051	235.262
570.008	261.83
573.963	497.847
577.915	633.7
581.866	691.522
585.815	750.235
589.763	405.937
593.708	94.908
597.651	56.794
601.593	11.354
605.532	154.407
609.47	129.291
613.406	82.793
617.34	46.099
621.272	189.185
625.202	272.096
629.131	484.898
633.057	527.482
636.982	720.033
640.905	812.547
644.825	1284.98
648.744	1707.28
652.662	1909.43
656.577	1571.44
660.49	923.314
664.402	535.19
668.312	247.104
672.219	128.963
676.125	200.688
680.03	62.249
683.932	133.903
687.832	35.703
691.731	107.319
695.628	96.709
699.522	188.356
703.415	49.947
707.307	235.96
711.196	316.458
715.083	123.014
718.969	13.948
722.853	223.427
726.735	193.1
730.615	236.837
734.493	362.721
738.37	651.63
742.244	1323.24
746.117	3086.13
749.988	4555.32
753.857	3154.47
757.724	1671.98
761.59	1086.94
765.453	944.861
769.315	867.234
773.175	524.023
777.033	262.424
780.889	331.193
784.744	329.863
788.596	148.437
792.447	256.915
796.296	425.3
800.143	163.593
803.989	421.795
807.832	1029.91
811.674	2347.94
815.514	2715.88
819.352	1533.74
823.189	611.527
827.023	269.172
830.856	376.271
834.687	201.438
838.516	7.812
842.343	93.832
846.169	82.076
849.992	5.559
853.814	99.777
857.634	10.227
861.453	146.453
865.269	81.492
869.084	5.186
872.897	150.318
876.708	4.051
880.517	38.162
884.325	62.059
888.13	43.83
891.934	50.328
895.737	55.424
899.537	161.104
903.336	86.736
907.132	37.598
910.928	38.035
914.721	93.805
918.512	89.73
922.302	215.598
926.09	231.461
929.876	77.348
933.66	83.248
937.443	129.107
941.224	295.053
945.003	341.027
948.78	367.031
952.556	113.066
956.33	259.137
960.102	215.244
963.872	391.396
967.64	247.59
971.407	183.863
975.172	360.254
978.935	426.705
982.697	523.207
986.456	1229.77
990.214	1585.57
993.971	2592.23
997.725	2268.41
1001.48	1779.33
1005.23	1742.4
1008.98	1017.23
1012.73	859.488
1016.47	711.355
1020.22	676.543
1023.96	523.24
1027.7	790.404
1031.44	746.209
1035.17	958.289
1038.91	1072.95
1042.64	1148.54
1046.37	1007
1050.1	902.271
1053.83	984.822
1057.56	761.074
1061.28	710.643
1065.01	554.9
1068.73	424.297
1072.45	619.143
1076.16	388.85
1079.88	468.752
1083.6	518.859
1087.31	699.17
1091.02	889.707
1094.73	1380.41
1098.44	1371.06
1102.14	1241.57
1105.85	1142.28
1109.55	1253.33
1113.25	1634.42
1116.95	2265.72
1120.65	4084.48
1124.34	5356.46
1128.04	4057.5
1131.73	3276.96
1135.42	3276.45
1139.11	3926.46
1142.79	3136.79
1146.48	1887.57
1150.16	1068.78
1153.84	890.375
1157.52	562.291
1161.2	214.77
1164.88	367.666
1168.56	300.871
1172.23	434.357
1175.9	398.006
1179.57	372.057
1183.24	136.4
1186.9	81.031
1190.57	45.965
1194.23	141.234
1197.89	306.842
1201.55	282.57
1205.21	368.531
1208.87	305.084
1212.52	42.311
1216.18	250.227
1219.83	78.855
1223.48	278.197
1227.13	168.297
1230.77	368.443
1234.42	580.248
1238.06	302.477
1241.7	319.217
1245.34	333.338
1248.98	283.061
1252.62	102.885
1256.25	292.096
1259.88	430.201
1263.51	595.023
1267.14	534.289
1270.77	493.297
1274.4	154.277
1278.02	0
