Measurement: Raman, 514 nm, ccw, Raman Data Processed
Mineral: Microcline
Rruff sample: R040154
Ideal chemistry: KAlSi_3_O_8_
Locality: Mitchell County, North Carolina, USA
Source: University of Arizona Mineral Museum
Description: White cleavage fragment with some perthitic character
Measured chemistry: (K_0.90_Na_0.09_Ba_0.01_)Al_1.00_(Si_2.99_Al_0.01_)_Î£=3_O_8_
Pin_id: L00534
Orientation: Laser parallel to (1 1 0). Fiducial mark perpendicular to laser is parallel to c [0 0 1]
Raman shift (cm-1)	intensity
102.242	0
106.423	224.077
110.603	315.343
114.78	562.044
118.956	1501.24
123.129	3356.07
127.3	5510.01
131.469	4633.16
135.636	4195.73
139.801	7313.26
143.964	7761.39
148.125	7730.81
152.284	11401.4
156.441	18023.1
160.596	17948.2
164.749	10170.2
168.9	4948.96
173.049	3310.8
177.195	3317.82
181.34	2987.5
185.483	2062.53
189.624	1476.68
193.762	1525.8
197.899	2606.29
202.034	2442.31
206.166	1076.86
210.297	468.908
214.425	97.381
218.552	116.84
222.676	108.939
226.799	235.196
230.919	190.349
235.038	53.462
239.154	64.56
243.269	100.57
247.381	573.417
251.492	1774.18
255.6	4495.33
259.707	5248.85
263.811	5087.02
267.914	4825.95
272.014	3822.42
276.113	4535.27
280.209	9329.15
284.304	16635.6
288.396	14153.7
292.487	6722.84
296.575	3152.78
300.662	1793.14
304.746	1119.57
308.829	653.006
312.909	438.433
316.988	191.826
321.065	267.753
325.139	472.363
329.212	1404.41
333.283	1632.05
337.351	707.028
341.418	187.96
345.483	104.825
349.546	103.555
353.606	359.118
357.665	453.531
361.722	286.795
365.777	362.897
369.83	863.826
373.881	1186.61
377.93	509.219
381.977	176.31
386.023	42.713
390.066	65.804
394.107	92.561
398.146	147.929
402.184	523.711
406.219	452.729
410.252	211.008
414.284	139.475
418.313	56.365
422.341	154.637
426.367	114.842
430.39	75.41
434.412	99.406
438.432	321.003
442.45	659.729
446.466	1418.58
450.48	3487.97
454.492	5745.7
458.502	3935.67
462.51	2612.8
466.517	3179.65
470.521	6336.19
474.523	12212.4
478.524	11128.4
482.523	7484.02
486.519	5149.36
490.514	2764.4
494.507	2299.17
498.498	2593.66
502.487	4517.88
506.474	10120.2
510.459	23141.2
514.442	30754.6
518.424	17648.1
522.403	7551.32
526.381	3764.85
530.356	2328.64
534.33	1704
538.302	1296.8
542.272	888.374
546.24	871.719
550.206	789.12
554.17	440.179
558.132	424.51
562.093	339.947
566.051	324.563
570.008	387.033
573.963	548.119
577.915	616.287
581.866	706.031
585.815	753.019
589.763	294.776
593.708	208.413
597.651	196.699
601.593	86.51
605.532	96.138
609.47	155.561
613.406	44.78
617.34	213.77
621.272	342.562
625.202	505.258
629.131	649.617
633.057	747.884
636.982	625.979
640.905	933.906
644.825	981.785
648.744	1419.39
652.662	1526.83
656.577	1384.11
660.49	891.241
664.402	538.232
668.312	375.12
672.219	181.873
676.125	108.966
680.03	54.923
683.932	151.383
687.832	22.459
691.731	54.066
695.628	57.901
699.522	70.576
703.415	109.507
707.307	57.08
711.196	139.938
715.083	20.164
718.969	14.025
722.853	151.799
726.735	102.255
730.615	173.126
734.493	197.036
738.37	261.153
742.244	635.889
746.117	1430.6
749.988	2136.37
753.857	1632.43
757.724	841.666
761.59	655.996
765.453	739.264
769.315	952.772
773.175	635.385
777.033	239.411
780.889	213.289
784.744	297.061
788.596	260.732
792.447	204.303
796.296	227.776
800.143	301.153
803.989	424.438
807.832	1187.64
811.674	2360.75
815.514	2713.77
819.352	1216.72
823.189	529.587
827.023	372.381
830.856	304.58
834.687	176.497
838.516	148.689
842.343	127.17
846.169	108.441
849.992	95.485
853.814	136.736
857.634	13.599
861.453	139.451
865.269	9.231
869.084	10.498
872.897	197.655
876.708	101.483
880.517	61.541
884.325	29.506
888.13	50.167
891.934	91.197
895.737	52.219
899.537	83.235
903.336	44.226
907.132	104.814
910.928	116.023
914.721	56.894
918.512	67.775
922.302	138.664
926.09	239.588
929.876	20.527
933.66	71.48
937.443	62.457
941.224	183.461
945.003	84.494
948.78	145.561
952.556	266.777
956.33	47.686
960.102	78.869
963.872	220.098
967.64	151.375
971.407	72.729
975.172	204.174
978.935	275.678
982.697	157.254
986.456	538.898
990.214	800.445
993.971	1172.24
997.725	1023.54
1001.48	1023.36
1005.23	1113.77
1008.98	879.061
1012.73	515.633
1016.47	525.902
1020.22	494.045
1023.96	316.545
1027.7	382.889
1031.44	432.971
1035.17	713.166
1038.91	737.201
1042.64	971.352
1046.37	725.992
1050.1	660.332
1053.83	564.115
1057.56	493.588
1061.28	431.424
1065.01	455.848
1068.73	200.75
1072.45	405.434
1076.16	260.604
1079.88	355.871
1083.6	321.322
1087.31	476.918
1091.02	562.998
1094.73	858.895
1098.44	834.951
1102.14	711.164
1105.85	897.539
1109.55	904.076
1113.25	1170.77
1116.95	1877.67
1120.65	3169.1
1124.34	4596.49
1128.04	3493.83
1131.73	2781.23
1135.42	3108.77
1139.11	3766.5
1142.79	2894.66
1146.48	1677.65
1150.16	1016.38
1153.84	855.217
1157.52	476.963
1161.2	235.953
1164.88	285.055
1168.56	113.545
1172.23	303.676
1175.9	303.121
1179.57	292.566
1183.24	62.154
1186.9	211.152
1190.57	130.277
1194.23	7.52
1197.89	143.156
1201.55	241.016
1205.21	320.713
1208.87	200.652
1212.52	90.857
1216.18	121.326
1219.83	162.059
1223.48	83.062
1227.13	214.342
1230.77	445.9
1234.42	507.639
1238.06	279.6
1241.7	431.85
1245.34	184.385
1248.98	187.016
1252.62	169.82
1256.25	102.721
1259.88	275.584
1263.51	478.611
1267.14	441.994
1270.77	394.42
1274.4	174.648
1278.02	311.756
1281.65	246.34
1285.27	81.297
1288.89	146.613
1292.51	351.367
1296.12	307.348
1299.74	323.695
1303.35	530.352
1306.96	229.572
1310.57	93.953
1314.18	113.627
1317.79	373.029
1321.39	352.086
1324.99	321.543
1328.59	590.98
1332.19	520.512
1335.79	243.223
1339.39	222.326
1342.98	0
