Measurement: Raman, 514 nm, ccw, Raman Data Processed
Mineral: Microcline
Rruff sample: R050054
Ideal chemistry: KAlSi_3_O_8_
Locality: Kenticha, Negele area, Sidamo Province, Ethiopia
Source: Rock Currier
Description: Light blue single crystal
Measured chemistry: (K_0.96_Na_0.04_)Al_1.00_Si_3.00_O_8_
Pin_id: M00128
Orientation: Laser parallel to (-1 -1 0). Fiducial mark perpendicular to laser is parallel to -c [0 0 -1]
Raman shift (cm-1)	intensity
97.121	0
101.314	55.44
105.505	1235.83
109.694	4581.36
113.881	3111.36
118.066	729.348
122.249	1014.05
126.43	3190.15
130.608	3733.58
134.785	1149.54
138.959	91.162
143.131	155.693
147.301	1075.24
151.469	2475.64
155.635	1759.98
159.799	1376.25
163.961	1111.35
168.121	811.965
172.278	1238.22
176.434	3227.69
180.587	6292.84
184.739	3947.87
188.888	1740.56
193.035	1164.43
197.18	1868.11
201.324	2833.55
205.465	1423.45
209.603	624.362
213.74	263.351
217.875	41.573
222.008	70.606
226.139	142.842
230.267	132.967
234.394	77.641
238.518	68.839
242.641	28.58
246.761	166.283
250.879	629.51
254.996	1823.19
259.11	3858.11
263.222	4515.39
267.332	6453.99
271.44	4587.95
275.546	2223.34
279.65	1880.87
283.752	3551.14
287.852	5647.87
291.95	3789.14
296.046	1861.84
300.14	847.526
304.231	483.084
308.321	244.751
312.409	195.385
316.495	150.22
320.578	91.591
324.66	225.42
328.739	531.064
332.817	914.882
336.892	642.217
340.966	366.697
345.037	237.772
349.107	193.423
353.174	329.625
357.24	379.394
361.303	653.739
365.365	342.643
369.424	539.923
373.481	1034.73
377.537	713.103
381.59	444.724
385.642	281.02
389.691	101.84
393.738	168.573
397.784	274.741
401.827	890.86
405.868	1557.1
409.908	1040.47
413.945	1509.3
417.98	941.94
422.014	253.476
426.045	115.844
430.075	153.673
434.102	180.906
438.127	311.913
442.151	582.338
446.172	1285.06
450.192	3389.71
454.209	8345.82
458.225	7631.81
462.238	3728.7
466.25	2443.95
470.259	3088.69
474.267	6364.33
478.273	9136.76
482.276	6146.62
486.278	4265.26
490.278	2455.73
494.276	1755.5
498.271	1777.98
502.265	2814.94
506.257	5748.09
510.247	13444.5
514.235	26198.5
518.221	19635.3
522.205	8553.71
526.187	4014.27
530.167	2355.32
534.145	1589.73
538.122	1052.25
542.096	798.847
546.068	630.53
550.039	464.161
554.007	334.409
557.973	210.537
561.938	210.727
565.901	208.641
569.861	175.356
573.82	198.57
577.777	85.767
581.732	300.617
585.685	262.525
589.636	140.076
593.585	20.247
597.532	20.075
601.477	13.036
605.42	37.976
609.361	45.928
613.301	25.153
617.238	14.313
621.174	67.464
625.108	63.26
629.039	92.111
632.969	143.066
636.897	281.132
640.823	390.331
644.747	735.66
648.669	1311.08
652.589	1865.52
656.508	1606.97
660.424	963.465
664.339	488.04
668.251	212.709
672.162	150.466
676.071	89.271
679.978	37.103
683.883	24.37
687.786	4.744
691.687	136.288
695.586	84.147
699.484	55.906
703.379	1.899
707.273	3.511
711.165	100.233
715.055	95.523
718.943	147.491
722.829	154.085
726.713	120.049
730.595	114.23
734.476	316.652
738.354	589.52
742.231	1217.47
746.106	2762.06
749.978	4730.57
753.849	3483.82
757.719	1853.93
761.586	1132.35
765.451	948.837
769.315	632.299
773.177	405.304
777.036	306.874
780.894	254.09
784.75	239.575
788.605	241.633
792.457	385.859
796.307	489.63
800.156	482.417
804.003	763.033
807.848	1532.57
811.691	3359.03
815.532	5167.4
819.371	2977.69
823.209	1311.9
827.045	641.022
830.878	394.056
834.71	212.652
838.54	198.84
842.369	139.033
846.195	148.582
850.02	92.379
853.842	74.877
857.663	20.486
861.482	11.374
865.299	29.39
869.115	102.522
872.928	6.413
876.74	65.561
880.55	27.562
884.358	18.124
888.164	68.565
891.969	22.937
895.771	4.841
899.572	10.16
903.371	18.006
907.168	48.791
910.963	109.504
914.757	42.107
918.548	27.643
922.338	17.116
926.126	27.556
929.912	40.931
933.697	79.21
937.479	28.423
941.26	39.573
945.039	103.661
948.816	38.688
952.591	117.661
956.365	156.577
960.136	154.443
963.906	85.26
967.674	71.027
971.441	134.748
975.205	144.423
978.968	271.052
982.729	324.637
986.488	389.221
990.245	576.783
994	958.377
997.754	912.73
1001.51	735.745
1005.26	634.479
1009	517.078
1012.75	367.301
1016.5	254.903
1020.24	265.984
1023.98	166.118
1027.72	195.214
1031.46	304.913
1035.19	314.805
1038.93	216.801
1042.66	201.242
1046.39	226.2
1050.12	279.842
1053.85	278.606
1057.57	251.53
1061.29	275.24
1065.02	109.289
1068.74	80.629
1072.45	116.435
1076.17	120.247
1079.88	133.981
1083.6	208.041
1087.31	244.396
1091.02	351.375
1094.72	457.042
1098.43	812.744
1102.13	956.517
1105.84	724.323
1109.54	524.319
1113.24	456.232
1116.93	592.134
1120.63	799.188
1124.32	1048.97
1128.01	1116.8
1131.7	929.015
1135.39	1055.8
1139.08	1299.49
1142.76	965.553
1146.45	518.799
1150.13	386.419
1153.81	269.988
1157.48	183.96
1161.16	209.11
1164.84	206.675
1168.51	181.495
1172.18	39.052
1175.85	71.53
1179.52	5.131
1183.18	11.495
1186.85	45.726
1190.51	119.27
1194.17	130.892
1197.83	92.917
1201.48	77.119
1205.14	15.321
1208.79	70.161
1212.44	33.437
1216.09	72.234
1219.74	47.575
1223.39	101.047
1227.03	81.571
1230.68	136.24
1234.32	26.023
1237.96	40.525
1241.6	105.37
1245.23	79.472
1248.87	138.685
1252.5	84.041
1256.13	70.089
1259.76	156.103
1263.39	72.969
1267.02	47.719
1270.64	23.36
1274.26	33.521
1277.88	156.279
1281.5	143.934
1285.12	180.638
1288.74	154.91
1292.35	62.984
1295.96	77.062
1299.57	6.148
1303.18	38.322
1306.79	64.042
1310.4	44.187
1314	77.845
1317.6	142.068
1321.2	170.295
1324.8	161.063
1328.4	72.819
1331.99	28.637
1335.59	78.486
1339.18	28.472
1342.77	44.114
1346.36	25.215
1349.95	45.611
1353.53	86.166
1357.12	156.726
1360.7	98.033
1364.28	179.097
1367.86	13.41
1371.44	31.137
1375.01	5.876
1378.59	59.684
1382.16	87.997
1385.73	168.027
1389.3	131.475
1392.87	61.053
1396.43	130.851
1399.99	52.656
1403.56	55.401
1407.12	60.974
1410.68	16.842
1414.23	57.634
1417.79	199.663
1421.34	98.854
1424.9	154.446
1428.45	216.94
1431.99	264.006
1435.54	126.373
1439.09	132.367
1442.63	11.329
1446.17	68.759
1449.71	6.356
1453.26	94.465
1456.79	151.724
1460.33	266.951
1463.86	221.519
1467.39	198.637
1470.92	209.486
1474.45	194.537
1477.98	139.859
1481.51	32.706
1485.03	77.913
1488.56	84.021
1492.08	65.155
1495.6	79.219
1499.11	98.991
1502.63	231.804
1506.14	161.033
1509.66	280.979
1513.17	283.887
