Measurement: Raman, 514 nm, ccw, Raman Data Processed
Mineral: Microcline
Rruff sample: R050150
Ideal chemistry: KAlSi_3_O_8_
Locality: Crystal Peak area, Park/Teller Counties, Colorado, USA
Source: Dave Bunk Minerals
Description: Pale blue prismatic crystals
Measured chemistry: (K_0.95_Na_0.05_)_Î£=1_Al_1.00_Si_3.00_O_8_
Pin_id: L00945
Orientation: Laser parallel to a* (1 0 0). Fiducial mark perpendicular to laser is parallel to b [0 1 0]
Raman shift (cm-1)	intensity
137.683	0
142.633	229.351
147.579	834.623
152.522	1029.1
157.462	375.046
162.4	219.812
167.334	560.708
172.265	1841.32
177.193	2863.98
182.117	2363.61
187.039	1275.02
191.958	1392.2
196.874	1543.01
201.787	1422.57
206.696	304.507
211.603	36.6709
216.506	149.758
221.407	69.7402
226.304	104.648
231.199	126.471
236.091	259.006
240.979	711.505
245.864	1782.05
250.747	3968.17
255.626	8100.01
260.503	12089.2
265.376	12533.5
270.247	9801.49
275.114	7122.4
279.979	7337.32
284.84	7255.23
289.699	4871.68
294.554	1768.81
299.407	604
304.257	174.756
309.103	68.3652
313.947	108.173
318.788	20.7959
323.626	227.533
328.461	438.675
333.292	440.894
338.121	97.0908
342.947	11.9121
347.771	42.9365
352.591	140.262
357.408	334.294
362.222	372.925
367.034	851.752
371.842	1144.62
376.648	615.877
381.45	147.638
386.25	43.7422
391.047	137.708
395.841	739.537
400.632	1332.43
405.42	2459.57
410.205	2225
414.988	1938.59
419.767	489.465
424.544	107.591
429.318	345.846
434.089	834.931
438.857	1961.74
443.622	6098.28
448.384	13791.7
453.143	17307.6
457.9	13432.9
462.654	7466.54
467.405	9865.11
472.153	13647.1
476.898	14673.5
481.64	9444.77
486.38	5795.69
491.116	3965.66
495.85	4405.42
500.581	9413.12
505.309	26049
510.035	40957.9
514.757	41158.4
519.477	21145
524.194	8142
528.908	4072.57
533.62	2390.47
538.328	1700.08
543.034	1102.27
547.737	942.799
552.437	610.582
557.134	449.159
561.829	380.692
566.521	280.74
571.21	275.421
575.896	315.562
580.58	331.875
585.261	329.373
589.939	331.084
594.614	114.102
599.286	63.4053
603.956	68.8916
608.623	73.2148
613.287	0.34082
617.949	13.7549
622.608	404.079
627.264	528.184
631.917	793.598
636.568	1191.4
641.215	1327.5
645.861	2110.76
650.503	2470.18
655.143	2443.9
659.78	1646.77
664.414	1148.86
669.046	503.092
673.674	250.432
678.301	168.861
682.924	11.7188
687.545	44.5586
692.163	93.3125
696.778	43.9004
701.391	9.52539
706.001	19.1895
710.609	131.065
715.213	343.356
719.815	295.678
724.415	593.584
729.011	990.951
733.606	1896.7
738.197	3685.07
742.786	7362.44
747.372	9869.98
751.955	8587.31
756.536	4674.44
761.114	2509.83
765.69	1466.07
770.262	959.047
774.833	803.842
779.4	784.754
783.965	938.375
788.528	919.361
793.087	1175.85
797.645	1534.55
802.199	2717.02
806.751	6517.94
811.3	9282.71
815.847	7270.31
820.391	3048.38
824.933	1092.37
829.471	605.566
834.008	340.685
838.541	321.338
843.073	336.356
847.601	260.975
852.127	195.473
856.65	116.848
861.171	93.0644
865.69	98.1348
870.205	175.955
874.718	94.6055
879.229	104.217
883.737	169.326
888.242	164.611
892.745	146.709
897.246	91.4902
901.743	37.1016
906.239	99.5977
910.731	189.812
915.221	53.8281
919.709	184.752
924.194	86.4922
928.677	181.826
933.157	80.8633
937.634	176.055
942.109	37.8984
946.582	156.695
951.052	218.641
955.519	221.676
959.984	202.856
964.447	97.1445
968.906	245.5
973.364	364.06
977.819	475.672
982.271	687.299
986.721	1371.93
991.169	2402.62
995.614	2335.85
1000.06	1670.67
1004.5	1086.95
1008.93	787.141
1013.37	523.342
1017.8	581.342
1022.23	404.16
1026.66	542.814
1031.09	330.004
1035.51	454.34
1039.93	373.004
1044.35	274.856
1048.76	297.65
1053.17	274.338
1057.58	191.447
1061.99	230.902
1066.4	113.076
1070.8	312.041
1075.2	253.029
1079.6	491.654
1084	642.252
1088.39	862.734
1092.78	1379.38
1097.17	1858.18
1101.56	1560.15
1105.94	1018.27
1110.32	768.562
1114.7	1046
1119.08	1794.05
1123.45	2251.62
1127.82	1612.27
1132.19	1843.4
1136.56	2080.81
1140.92	1731.61
1145.29	1161.78
1149.65	558.545
1154	220.022
1158.36	286.559
1162.71	244.908
1167.06	164.432
1171.41	113.096
1175.76	121.768
1180.1	210.857
1184.44	211.365
1188.78	71.8496
1193.11	17.9258
1197.45	16.2793
1201.78	31.9648
1206.11	151.144
1210.43	31.6328
1214.76	176.326
1219.08	236.35
1223.4	206.482
1227.72	99.7168
1232.03	282.041
1236.35	167.457
1240.66	175
1244.96	10.3633
1249.27	33.6445
1253.57	66.9922
1257.88	125.576
1262.17	80.2266
1266.47	77.3066
1270.76	12.6562
1275.06	2.3418
1279.35	329.025
1283.63	17.3066
1287.92	121.894
1292.2	111.49
1296.48	253.102
1300.76	389.732
1305.04	64.3106
1309.31	260.832
1313.58	168.34
1317.85	226.746
1322.12	207.115
1326.38	298.871
1330.64	316.18
1334.9	427.494
1339.16	232.301
1343.41	277.397
1347.67	201.738
1351.92	426.258
1356.17	176.31
1360.41	293.465
1364.66	177.557
1368.9	292.232
1373.14	271.545
1377.38	253.135
1381.61	48.3477
1385.84	0.175781
1390.08	379.211
1394.3	390.617
1398.53	178.19
1402.75	21.9043
1406.97	147.852
1411.19	63.4492
1415.41	280.074
1419.63	206.498
1423.84	49.8906
1428.05	260.268
1432.26	239.99
1436.46	225.674
1440.67	201.572
1444.87	203.815
1449.07	216.209
1453.27	338.426
1457.46	181.9
1461.66	269.424
1465.85	357.051
1470.04	304.443
1474.22	146.012
1478.41	299.281
1482.59	134.416
1486.77	196.709
1490.95	41.5195
1495.12	356.752
1499.3	2.81836
1503.47	89.8555
1507.63	98.9062
1511.8	218.103
1515.97	191.31
1520.13	247.539
1524.29	267.533
1528.45	206.625
1532.61	122.92
1536.76	205.022
1540.91	270.143
1545.06	112.715
1549.21	164.779
1553.35	137.041
1557.5	27.7305
1561.64	1.08789
