Measurement: Raman, 514 nm, ccw, Raman Data Processed
Mineral: Microcline
Rruff sample: R050193
Ideal chemistry: KAlSi_3_O_8_
Locality: Devil's Head, Douglas County, Colorado, USA
Source: Dave Bunk Minerals
Description: White to colorless heterogeneous mixture of K and Na feldspar in a cluster of crystals. Crystal structure determined, presented below. This sample is known as an intermediate microcline in the literature.
Measured chemistry: (K_0.929_Na_0.071_)(Al_1.005_Si_2.994_Fe_0.001_)O_7.993_F_0.007_  ; Light Band :  (Na_0.973_K_0.007_Ca_0.020_)(Al_1.020_Si_2.980_)O_8_ ; Dark Band
Pin_id: L00422
Orientation: Laser parallel to b* (0 1 0). Fiducial mark perpendicular to laser is parallel to c [0 0 1]
Raman shift (cm-1)	intensity
130.23	0
135.163	111.137
140.092	2374.48
145.019	5049.14
149.944	6729.46
154.866	5374.77
159.785	2370.24
164.702	926.882
169.616	502.435
174.528	702.15
179.437	735.453
184.343	577.745
189.247	457.814
194.148	633.186
199.046	434.434
203.942	249.839
208.835	53.0884
213.726	84.1504
218.614	82.8042
223.5	64.2715
228.382	13.7144
233.263	55.5166
238.14	1.92725
243.015	204.602
247.888	638.011
252.758	1363.53
257.625	2291.04
262.49	2774.74
267.352	3075.46
272.211	3360.51
277.068	4000.72
281.922	4357
286.773	3475.73
291.622	2210.39
296.469	1383.13
301.312	871.368
306.154	594.741
310.992	306.626
315.828	168.043
320.661	355.242
325.492	353.743
330.32	467.209
335.145	370.254
339.968	128.458
344.789	65.7959
349.606	225.972
354.421	338.736
359.234	398.013
364.043	671.006
368.851	871.898
373.655	678.721
378.457	98.5781
383.256	34.9707
388.053	56.169
392.847	495.031
397.639	1231.13
402.428	1845.55
407.214	1524.24
411.998	843.227
416.779	233.606
421.557	81.7461
426.333	91.4297
431.106	56.7637
435.877	218.569
440.645	706.79
445.41	1646.92
450.173	2535
454.933	3228.05
459.691	3472.89
464.446	6176.95
469.198	11151.2
473.948	14673.8
478.695	11159.3
483.439	6096.5
488.181	3477.15
492.92	2776.21
497.657	4087.66
502.391	8979.68
507.122	17556.3
511.851	22342.5
516.577	15607.3
521.301	6663.62
526.022	3028.16
530.74	1732.88
535.456	1162.84
540.169	775.672
544.879	596.482
549.587	369.492
554.292	444.62
558.995	279.588
563.695	468.549
568.392	289.391
573.087	421.973
577.779	302.597
582.469	251.365
587.156	95.2822
591.84	136.43
596.522	176.872
601.201	39.585
605.877	149.468
610.551	58.4033
615.222	200.921
619.891	259.41
624.557	444.059
629.22	399.88
633.881	399.856
638.539	348.993
643.195	355.493
647.848	452.127
652.498	511.746
657.145	426.414
661.791	249.952
666.433	167.475
671.073	90.0664
675.71	58.5703
680.345	58.1426
684.977	43.6387
689.606	69.7852
694.233	78.6621
698.857	32.9033
703.478	84.7344
708.097	65.1553
712.714	171.141
717.327	341.036
721.938	232.969
726.547	343.722
731.153	379.483
735.756	787.636
740.356	1070.4
744.954	1486.81
749.55	1335.07
754.142	1171.33
758.733	910.839
763.32	799.565
767.905	507.651
772.487	385.776
777.067	308.556
781.644	227.56
786.218	324.693
790.79	254.154
795.359	183.998
799.926	214.634
804.49	269.644
809.051	370.505
813.61	316.214
818.166	308.476
822.72	165.859
827.271	90.2129
831.819	127.805
836.365	125.165
840.908	60.4424
845.448	69.0898
849.986	155.927
854.521	74.4766
859.054	97.7256
863.584	58.625
868.111	148.999
872.636	118.76
877.158	183.02
881.677	50.456
886.194	20.209
890.709	118.025
895.22	13.4463
899.729	130.478
904.236	105.163
908.74	37.4629
913.241	98.6231
917.739	36.5742
922.235	128.364
926.729	121.99
931.219	203.361
935.708	105.649
940.193	199.741
944.676	235.641
949.156	116.471
953.634	148.3
958.109	41.0117
962.582	143.118
967.051	179.7
971.519	117.689
975.983	217.922
980.445	287.934
984.905	515.553
989.362	645.852
993.816	699.415
998.267	584.726
1002.72	666.855
1007.16	507.134
1011.61	505.599
1016.05	339.691
1020.49	456.016
1024.92	630.855
1029.36	622.201
1033.79	698.279
1038.21	592.207
1042.64	692.664
1047.06	715.918
1051.48	1098.32
1055.9	858.238
1060.32	357.692
1064.73	462.506
1069.14	280.283
1073.55	329.472
1077.95	379.648
1082.35	495.962
1086.75	496.213
1091.15	809.36
1095.54	951.744
1099.93	1245.38
1104.32	1282.08
1108.71	1935.35
1113.09	2640.67
1117.47	3955.57
1121.85	4971.61
1126.23	4552.69
1130.6	3910.77
1134.97	3351.93
1139.34	2852.63
1143.7	2225.96
1148.07	1558.97
1152.43	1104.22
1156.79	715.973
1161.14	605.624
1165.49	426.825
1169.84	395.131
1174.19	393.295
1178.54	313.833
1182.88	191.307
1187.22	59.8164
1191.55	78.3291
1195.89	30.8145
1200.22	184.272
1204.55	86.0508
1208.87	0.595703
1213.2	0.547852
1217.52	56.582
1221.84	56.499
1226.15	107.367
1230.47	46.9395
1234.78	93.7549
1239.09	0.918945
1243.39	31.4258
1247.69	45.6455
1251.99	62.458
1256.29	188.356
1260.59	69.7529
1264.88	105.899
1269.17	103.992
1273.46	102.959
1277.74	127.704
1282.02	9.34375
1286.3	202.701
1290.58	110.792
1294.86	202.633
1299.13	71.5996
1303.39	159.914
1307.66	171.307
1311.93	236.252
1316.19	136.985
1320.45	173.594
1324.7	185.002
1328.96	35.3496
1333.21	130.653
1337.45	269.235
1341.7	314.096
1345.94	191.697
1350.18	310.362
1354.42	44.5918
1358.66	142.605
1362.89	128.137
1367.12	177.898
1371.35	183.174
1375.57	199.392
1379.8	176.352
1384.02	74.1719
1388.23	42.9082
1392.45	149.637
1396.66	167.539
1400.87	201.699
1405.08	62.5625
1409.28	126.805
1413.48	4.43164
1417.68	86.9961
1421.88	80.8184
1426.07	179.695
1430.26	37.5625
1434.45	125.848
1438.64	172.139
1442.82	91.5898
1447	166.66
1451.18	102.08
1455.35	196.822
1459.53	82.4356
1463.7	127.379
1467.87	59.5957
1472.03	118.713
1476.19	118.82
1480.35	251.412
1484.51	198.58
1488.67	71.6894
1492.82	22.3652
1496.97	125.334
1501.12	154.719
1505.26	92.8652
1509.4	113.789
1513.54	203.188
1517.68	12.2656
1521.81	8.74609
1525.94	126.541
1530.07	199.508
1534.2	173.012
1538.32	140.719
1542.44	132.383
1546.56	138.002
1550.68	179.303
1554.79	186.85
1558.9	139.17
1563.01	0
