Measurement: Raman, 514 nm, ccw, Raman Data Processed
Mineral: Mimetite
Rruff sample: R060920
Ideal chemistry: Pb^2+^_5_(As^5+^O_4_)_3_Cl
Locality: Tsumeb mine, Tsumeb, Otavi District, Oshikoto, Namibia
Source: Marcus Origlieri
Description: Yellow to brownish hexagonal prism, monoclinic polytype
Pin_id: L01429
Orientation: Laser parallel to a* (1 0 0). Fiducial mark perpendicular to laser is parallel to c [0 0 1]
Raman shift (cm-1)	intensity
42.248	0
47.226	16.8285
52.202	23.8064
57.176	53.9172
62.146	45.6453
67.115	13.928
72.08	6.9584
77.043	11.3285
82.003	78.6011
86.961	368.489
91.916	811.953
96.869	1731.82
101.819	2929.02
106.766	2969.53
111.711	2641.33
116.653	2386.37
121.592	2130.24
126.529	1943.62
131.464	1899.43
136.395	1927.53
141.324	1998.27
146.251	2212.74
151.175	2374.98
156.096	2459
161.015	2634.8
165.931	2819.38
170.844	2894.73
175.755	2799.83
180.663	2484.67
185.569	2197.24
190.472	1751.73
195.373	1412.83
200.27	1101.75
205.166	880.53
210.058	711.054
214.948	617.687
219.836	482.237
224.721	397.641
229.603	293.862
234.482	212.089
239.359	188.973
244.234	153.467
249.106	123.591
253.975	95.3177
258.841	91.6194
263.705	91.8998
268.567	85.8736
273.425	124.749
278.281	124.118
283.135	215.979
287.986	363.276
292.834	662.005
297.68	1207.19
302.523	2172.79
307.363	2604.78
312.201	3002.15
317.037	2736.86
321.869	2035.92
326.699	2223.28
331.527	2878.16
336.351	3383.26
341.174	3199.16
345.993	2410.33
350.81	1675.18
355.625	1004.22
360.436	687.336
365.245	636.533
370.052	653.22
374.856	660.24
379.657	598.298
384.456	610.335
389.252	660.418
394.045	713.89
398.836	936.277
403.625	1430.54
408.41	1903.18
413.193	1605.6
417.974	1163.05
422.751	956.122
427.527	862.644
432.299	552.499
437.069	418.587
441.836	277.142
446.601	174.337
451.363	121.826
456.123	54.0279
460.88	35.4716
465.634	34.5157
470.386	10.1844
475.135	6.18549
479.881	28.2531
484.625	6.65771
489.366	17.3973
494.105	29.402
498.84	8.4209
503.574	7.39209
508.305	5.27289
513.033	1.75464
517.758	6.95691
522.481	23.4173
527.201	30.384
531.919	9.99115
536.634	23.5259
541.346	0.372131
546.056	8.80255
550.763	18.0567
555.468	9.48016
560.17	3.52643
564.869	18.1409
569.566	39.5496
574.26	13.7726
578.952	23.7577
583.641	54.4645
588.327	24.9335
593.011	46.2637
597.692	24.2298
602.37	45.0765
607.046	49.7345
611.719	65.0112
616.39	70.1666
621.058	89.2519
625.723	42.5402
630.386	52.748
635.046	16.0753
639.703	6.71124
644.358	39.8492
649.01	25.2731
653.66	25.0963
658.307	53.8621
662.951	6.21362
667.593	19.5907
672.232	1.03919
676.869	2.33624
681.503	10.7989
686.134	8.25647
690.763	9.06195
695.389	18.1119
700.013	6.73187
704.633	56.3537
709.252	26.4594
713.867	64.3384
718.48	67.5012
723.091	104.083
727.698	151.043
732.304	191.301
736.906	224.275
741.506	301.633
746.103	388.099
750.698	576.317
755.29	880.853
759.88	1537.47
764.467	2308.06
769.051	2230.78
773.632	1855.73
778.211	2002.93
782.788	2653.93
787.362	3293.93
791.933	3489.18
796.501	5247.12
801.067	11599.7
805.631	25096.2
810.191	30399.8
814.749	33149.2
819.305	21005.5
823.858	9422.84
828.408	5009.33
832.956	3318.41
837.501	2334.81
842.043	1845.78
846.583	1478.6
851.12	1225.4
855.654	927.359
860.186	735.476
864.716	631.718
869.242	522.085
873.766	445.572
878.288	346.344
882.807	294.21
887.323	275.356
891.837	192.179
896.348	202.239
900.856	152.675
905.362	114.558
909.865	80.8637
914.366	32.4091
918.864	139.298
923.359	117.724
927.852	21.784
932.342	60.0834
936.829	12.0819
941.314	12.1288
945.796	19.6305
950.276	19.9277
954.753	31.73
959.228	31.5452
963.699	46.0035
968.169	11.7506
972.635	13.6785
977.099	7.16345
981.56	2.26727
986.019	15.7125
990.475	44.1699
994.929	32.6343
999.38	2.10303
1003.83	61.6336
1008.27	28.101
1012.72	5.64307
1017.16	36.2003
1021.6	5.26758
1026.03	2.08527
1030.46	37.94
1034.89	11.6747
1039.32	38.9254
1043.74	13.8959
1048.17	1.80206
1052.59	6.81036
1057	21.0371
1061.42	5.7851
1065.83	6.60693
1070.24	13.2898
1074.65	5.89734
1079.05	9.14191
1083.45	20.3103
1087.85	8.60443
1092.25	12.3471
1096.64	46.2318
1101.03	21.9496
1105.42	14.347
1109.8	33.699
1114.19	56.2469
1118.57	33.7334
1122.95	51.1498
1127.32	78.0603
1131.69	36.8134
1136.06	55.0693
1140.43	33.2607
1144.8	40.2213
1149.16	17.1479
1153.52	67.5992
1157.87	76.9191
1162.23	49.8032
1166.58	68.6375
1170.93	60.6025
1175.28	36.3482
1179.62	39.7026
1183.96	39.8019
1188.3	64.356
1192.64	56.5182
1196.97	35.0561
1201.3	81.1611
1205.63	71.7418
1209.95	60.526
1214.28	75.8066
1218.6	41.3775
1222.92	54.1254
1227.23	42.2871
1231.55	59.0457
1235.86	61.0999
1240.16	67.9276
1244.47	54.1094
1248.77	55.2224
1253.07	29.3121
1257.37	20.4421
1261.66	52.5494
1265.95	66.7283
1270.24	60.7371
1274.53	31.6682
1278.81	29.5104
1283.09	50.474
1287.37	60.4525
1291.65	31.3224
1295.92	32.3002
1300.19	22.3814
1304.46	25.4695
1308.73	7.43176
1312.99	10.4388
1317.25	26.4564
1321.51	16.5153
1325.77	42.6177
1330.02	18.7484
1334.27	19.9255
1338.52	28.4277
1342.76	39.3698
1347	23.95
1351.24	14.2007
1355.48	22.4722
1359.72	3.75061
1363.95	38.4182
1368.18	1.70679
1372.4	28.7379
1376.63	40.9343
1380.85	23.1228
1385.07	16.642
1389.29	2.4718
1393.5	41.8551
1397.71	15.0342
1401.92	16.8459
1406.13	73.1928
1410.33	38.1868
1414.53	48.3119
1418.73	13.2561
1422.92	3.18762
1427.12	33.0575
1431.31	29.0627
1435.5	19.0021
1439.68	43.4253
1443.87	42.8918
1448.05	72.4904
1452.22	45.9541
1456.4	42.1755
1460.57	37.7112
1464.74	4.828
1468.91	65.3125
1473.07	77.6881
1477.23	9.20349
1481.39	44.4365
1485.55	14.005
1489.7	69.2168
1493.86	16.6921
1498.01	35.4661
1502.15	65.5987
1506.3	26.0729
1510.44	41.848
1514.58	12.8892
1518.71	19.8127
1522.85	55.6544
1526.98	50.8517
1531.11	30.194
1535.23	46.3737
1539.35	27.77
1543.47	15.3439
1547.59	17.0604
1551.71	42.8844
1555.82	20.525
1559.93	28.0001
