Measurement: Raman, 514 nm, ccw, Raman Data Processed
Mineral: Mimetite
Rruff sample: R050527
Ideal chemistry: Pb^2+^_5_(As^5+^O_4_)_3_Cl
Locality: Tsumeb mine, Tsumeb, Otavi District, Oshikoto, Namibia
Source: University of Arizona Mineral Museum
Description: Yellow hexagonal prisms, monoclinic polytype
Measured chemistry: Pb_5.00_(As_1.00_O_4_)_3_Cl_1.00_
Pin_id: M01947
Orientation: Laser parallel to -c* (0 0 -1). Fiducial mark perpendicular to laser is parallel to a [1 0 0]
Raman shift (cm-1)	intensity
61.079	0
66.041	23.0099
71.001	137.994
75.957	679.514
80.912	1984.31
85.863	3410.04
90.812	5395.46
95.759	5915.49
100.703	7183.6
105.644	6400.71
110.583	4132.32
115.52	3029.82
120.453	2494.98
125.385	1802.63
130.313	1528.69
135.239	1386.22
140.163	1456.05
145.084	1580.69
150.002	1591.79
154.918	1462.59
159.832	1440.22
164.742	1367.25
169.651	1426.55
174.556	1465.06
179.459	1373.39
184.36	1232.74
189.258	1220.71
194.153	1102.2
199.046	1021.27
203.936	797.852
208.824	691.564
213.709	550.445
218.592	402.539
223.472	316.949
228.349	164.625
233.224	172.901
238.096	82.3875
242.966	77.7955
247.833	41.9367
252.698	13.2937
257.56	4.06921
262.419	52.5374
267.276	79.9592
272.13	73.4873
276.982	76.1715
281.831	31.0263
286.677	50.0221
291.521	1.15332
296.363	62.6945
301.202	290.589
306.038	596.497
310.872	754.099
315.703	906.107
320.531	733.936
325.357	752.342
330.181	813.112
335.001	1026.84
339.82	1181.64
344.635	1147.76
349.448	960.843
354.259	680.359
359.067	526.66
363.872	676.557
368.675	1244.26
373.475	1682.66
378.272	1076
383.067	677.826
387.86	473.432
392.649	449.008
397.437	380.448
402.221	409.289
407.003	470.19
411.783	579.282
416.56	677
421.334	989.572
426.106	1035.9
430.875	740.126
435.641	389.563
440.405	243.155
445.167	147.644
449.925	112.339
454.681	70.0392
459.435	48.581
464.186	37.8442
468.934	22.8445
473.68	1.44086
478.423	48.9062
483.164	7.97516
487.902	29.7225
492.637	30.1741
497.37	10.342
502.1	13.0545
506.828	29.0805
511.553	29.3074
516.276	39.2792
520.995	23.0599
525.713	22.4052
530.427	11.353
535.139	7.64795
539.849	3.76801
544.556	8.46729
549.26	19.3592
553.962	31.14
558.661	5.08569
563.357	19.6598
568.051	3.58606
572.742	35.1529
577.431	21.8583
582.117	1.57458
586.801	0.772827
591.481	37.419
596.16	45.8682
600.835	49.6218
605.508	62.7095
610.179	71.4792
614.847	58.9191
619.512	47.6891
624.175	53.0478
628.835	52.4072
633.492	40.0336
638.147	9.4541
642.799	1.20331
647.449	24.8435
652.096	6.63226
656.74	7.7132
661.382	16.66
666.021	21.525
670.658	9.38751
675.292	17.7304
679.923	30.9328
684.552	6.05414
689.178	12.2297
693.802	26.1253
698.423	38.9513
703.041	24.781
707.657	59.2047
712.27	88.493
716.881	81.993
721.489	143.163
726.094	175.09
730.697	251.845
735.297	244.952
739.894	371.067
744.489	472.291
749.081	587.647
753.671	904.101
758.258	1445.68
762.842	2794.35
767.424	4040.18
772.003	3716.13
776.58	3075.16
781.154	3144.95
785.725	3991.27
790.294	4765.68
794.86	5049.21
799.424	7333.84
803.985	14636.9
808.543	28337.9
813.099	23267.1
817.652	16483.2
822.202	7838.39
826.75	4035.9
831.295	2475.58
835.838	1774.51
840.378	1331.65
844.915	1145.81
849.45	934.625
853.982	803.846
858.512	624.48
863.039	586.948
867.563	503.459
872.085	446.92
876.604	370.723
881.12	302.572
885.634	288.984
890.145	284.869
894.654	236.817
899.16	226.518
903.663	150.512
908.164	129.696
912.662	103.276
917.158	118.59
921.651	170.555
926.141	101.401
930.628	29.9291
935.113	21.1909
939.596	10.3068
944.076	29.9175
948.553	11.5831
953.027	40.7938
957.499	29.3138
961.969	2.71625
966.435	46.4142
970.899	19.9898
975.361	16.3409
979.82	3.75427
984.276	27.5706
988.73	12.8398
993.181	1.14166
997.629	18.5162
1002.08	21.7156
1006.52	50.1596
1010.96	24.6893
1015.4	5.65698
1019.83	11.2705
1024.26	23.1661
1028.69	18.0328
1033.12	10.1697
1037.55	8.73517
1041.97	32.0617
1046.39	35.6152
1050.81	1.90021
1055.22	23.5082
1059.63	2.854
1064.04	17.1105
1068.45	16.2915
1072.85	3.10358
1077.25	24.1542
1081.65	38.6539
1086.05	48.3723
1090.44	32.256
1094.83	10.0648
1099.22	27.9559
1103.6	7.75385
1107.99	34.7006
1112.37	20.7449
1116.74	34.829
1121.12	7.25671
1125.49	52.2589
1129.86	39.5929
1134.23	20.8799
1138.59	17.1157
1142.95	41.5523
1147.31	49.7641
1151.67	34.8807
1156.02	24.9599
1160.38	58.0021
1164.72	47.3185
1169.07	12.3488
1173.41	30.2465
1177.75	14.0478
1182.09	34.9739
1186.43	11.7094
1190.76	46.062
1195.09	19.6346
1199.42	68.5451
1203.74	59.9192
1208.07	40.2709
1212.39	39.0182
1216.7	43.8312
1221.02	57.5873
1225.33	16.3616
1229.64	43.5834
1233.95	35.2786
1238.25	41.8227
1242.55	66.6505
1246.85	56.4584
1251.15	79.2206
1255.44	24.0445
1259.73	85.9022
1264.02	58.8145
1268.31	70.397
1272.59	55.7031
1276.87	62.6198
1281.15	62.6266
1285.42	37.5755
1289.69	75.5433
1293.96	37.5715
1298.23	29.6499
1302.5	11.739
1306.76	52.7895
1311.02	45.8699
1315.27	38.9724
1319.53	60.1047
1323.78	7.25873
1328.03	13.4326
1332.28	7.60767
1336.52	7.80774
1340.76	12.993
1345	5.81213
1349.23	0.574463
1353.47	13.3336
1357.7	48.8978
1361.93	22.3365
1366.15	0.63678
1370.37	15.4586
1374.59	29.7709
1378.81	25.3403
1383.03	24.9232
1387.24	0.702087
1391.45	28.9865
1395.65	15.3721
1399.86	32.9223
1404.06	2.31757
1408.26	52.7041
1412.46	50.1526
1416.65	2.54102
1420.84	10.9188
1425.03	16.399
1429.22	35.6545
1433.4	52.8912
1437.58	36.1715
1441.76	62.0915
1445.93	84.3723
1450.11	109.26
1454.28	78.6735
1458.44	106.299
1462.61	69.7703
1466.77	67.7976
1470.93	49.3813
1475.09	48.7142
1479.24	60.3071
1483.39	39.6022
1487.54	49.0963
1491.69	6.0622
1495.84	53.3915
1499.98	12.7758
1504.12	1.17413
1508.25	31.6708
1512.38	16.843
1516.52	51.6756
1520.64	39.2542
1524.77	44.0018
1528.89	65.5962
1533.01	44.8975
1537.13	34.0594
1541.25	31.101
1545.36	6.14563
1549.47	58.6094
1553.58	48.9728
1557.68	39.3561
1561.78	22.4231
1565.88	97.7289
1569.98	42.8803
1574.07	0.370605
