Measurement: Raman, 514 nm, ccw, Raman Data Processed
Mineral: Mimetite
Rruff sample: R050007
Ideal chemistry: Pb^2+^_5_(As^5+^O_4_)_3_Cl
Locality: Pingtouling, Guangdong, China
Source: Eugene Schlepp
Description: Reddish orange colored hexagonal prisms
Measured chemistry: Pb_5.00_((As_0.99_P_0.01_)O_4_)_3_Cl_1.00_
Pin_id: L00370
Orientation: Laser parallel to a* (1 0 0). Fiducial mark perpendicular to laser is parallel to c [0 0 1]
Raman shift (cm-1)	intensity
48.666	0
52.873	125.917
57.079	367.451
61.283	633.62
65.484	827.88
69.684	439.577
73.881	123.129
78.076	46.755
82.27	18.268
86.461	561.651
90.65	1470.98
94.838	2527.98
99.023	5362.39
103.206	6576.87
107.387	5772.45
111.566	4976.28
115.744	4610.78
119.919	4243.93
124.092	3976.68
128.263	3694.03
132.432	3369.97
136.599	3375.63
140.764	3283.8
144.927	3178.16
149.088	2947.17
153.247	2759.07
157.404	2590.33
161.559	2586.31
165.711	2730.73
169.862	2799.02
174.011	2709.33
178.158	2449.97
182.303	2271.94
186.446	2054.25
190.587	1923.91
194.726	1762.89
198.862	1552.25
202.997	1355.69
207.13	1174.63
211.261	1058.89
215.39	991.629
219.517	859.506
223.642	698.246
227.765	586.623
231.886	475.576
236.005	399.913
240.122	311.096
244.237	313.004
248.35	221.333
252.461	183.134
256.57	108.387
260.677	84.888
264.782	8.63
268.885	12.559
272.986	19.325
277.085	39.088
281.182	42.766
285.278	6.37
289.371	28.105
293.462	135.676
297.552	229.416
301.639	403.648
305.724	585.195
309.808	748.917
313.889	804.939
317.969	845.705
322.046	868.621
326.122	931.047
330.196	1054.82
334.267	1307.23
338.337	1496.15
342.405	1504.45
346.471	1274.48
350.535	969.471
354.597	762.316
358.657	717.464
362.715	881.751
366.771	1364.64
370.825	1976.14
374.877	1867.79
378.928	1346.61
382.976	998.784
387.023	852.292
391.067	725.679
395.11	619.213
399.15	589.935
403.189	632.519
407.226	762.449
411.261	916.528
415.294	1081.97
419.325	1448.85
423.354	1689.3
427.381	1380.22
431.406	951.449
435.43	649.525
439.451	464.24
443.471	318.629
447.488	197.417
451.504	140.436
455.518	107.502
459.53	76.387
463.54	54.079
467.548	33.758
471.554	26.844
475.558	25.901
479.561	43.736
483.561	16.34
487.559	27.723
491.556	21.866
495.551	9.82
499.544	14.967
503.535	16.908
507.524	9.017
511.511	18.867
515.496	27.567
519.48	15.617
523.461	13.874
527.441	15.849
531.418	16.597
535.394	25.75
539.368	3.281
543.34	2.171
547.311	10.561
551.279	25.075
555.245	18.09
559.21	0.513
563.173	8.767
567.133	23.285
571.092	16.686
575.049	15.574
579.005	12.393
582.958	11.348
586.909	1.173
590.859	11.917
594.807	23.1
598.753	54.964
602.697	46.693
606.639	50.281
610.579	79.721
614.518	88.992
618.454	74.897
622.389	19.243
626.322	36.191
630.253	16.916
634.182	27.277
638.109	11.913
642.035	2.881
645.958	3.992
649.88	0.004
653.8	13.094
657.718	38.097
661.634	31.497
665.549	41.718
669.461	56.54
673.372	68.475
677.281	69.088
681.188	117.913
685.093	62.4
688.997	115.837
692.898	125.506
696.798	188.874
700.696	169.429
704.592	232.151
708.486	248.745
712.378	351.368
716.269	399.009
720.158	437.342
724.045	499.852
727.93	607.699
731.813	696.244
735.694	805.594
739.574	1023.59
743.452	1158.67
747.328	1391.11
751.202	1899.88
755.075	2669.07
758.945	3938.59
762.814	5914.19
766.681	6745.95
770.546	6418.83
774.409	5758.82
778.271	5848.96
782.131	6890.25
785.989	8532.71
789.845	9877.38
793.699	11772.2
797.552	15847.3
801.402	25332.5
805.251	46047.9
809.098	47003.5
812.944	39679.2
816.787	29475.2
820.629	18331.4
824.469	12897.9
828.307	11104.5
832.144	9941.34
835.978	8608.41
839.811	7393.87
843.642	6054.61
847.472	5283.44
851.299	4731.51
855.125	4053.84
858.949	3286.45
862.771	2396
866.591	1910.96
870.41	1589.28
874.227	1335.71
878.042	1221.22
881.855	1191.58
885.667	1082.92
889.476	937.745
893.284	825.874
897.09	734.292
900.895	636.508
904.698	572.005
908.499	541.978
912.298	449.875
916.095	456.433
919.891	458.123
923.685	446.942
927.477	318.11
931.267	290.248
935.056	217.297
938.843	228.224
942.628	185.544
946.411	153.228
950.193	132.09
953.973	132.089
957.751	87.317
961.527	77.808
965.302	31.748
969.075	68.455
972.846	51.768
976.615	64.006
980.383	52.388
984.149	33.177
987.913	27.499
991.675	0.399
995.436	5.205
999.195	44.32
1002.95	62.17
1006.71	2.931
1010.46	22.242
1014.21	10.484
1017.96	27.84
1021.71	33.774
1025.46	16.446
1029.2	15.979
1032.95	3.446
1036.69	30.871
1040.43	16.604
1044.17	14.936
1047.9	31.444
1051.64	11.796
1055.37	22.962
1059.1	4.879
1062.83	85.114
1066.56	46.081
1070.29	49.009
1074.01	45.899
1077.73	0.275
1081.46	6.531
1085.17	2.869
1088.89	40.345
1092.61	8.983
1096.32	27.159
1100.04	0.812
1103.75	16.084
1107.46	17.884
1111.16	18.56
1114.87	15.102
1118.57	36.508
1122.28	59.802
1125.98	81.007
1129.67	74.121
1133.37	45.13
1137.07	33.074
1140.76	11.656
1144.45	30.131
1148.14	71.646
1151.83	83.251
1155.52	104.738
1159.21	83.979
1162.89	103.545
1166.57	110.809
1170.25	66.933
1173.93	137.24
1177.61	116.263
1181.28	128.187
1184.96	135.905
1188.63	128.689
1192.3	165.422
1195.97	84.365
1199.64	144.211
1203.3	144.415
1206.97	161.626
1210.63	186.092
1214.29	158.484
1217.95	151.459
1221.6	147.539
1225.26	141.689
1228.91	153.478
1232.57	155.216
1236.21	167.158
1239.86	187.038
1243.51	191.22
1247.16	132.587
1250.8	155.492
1254.44	120.946
1258.08	126.469
1261.72	127.646
1265.36	100.862
1268.99	171.867
1272.63	134.757
1276.26	170.538
1279.89	137.684
1283.52	77.096
1287.15	75.794
1290.77	82.554
1294.4	58.898
1298.02	70.337
1301.64	71.069
1305.26	60.919
1308.88	42.726
1312.49	43.605
1316.11	76.377
1319.72	26.1
1323.33	30.58
1326.94	21.461
1330.55	15.694
1334.15	53.803
1337.76	53.779
1341.36	63.588
1344.96	95.361
1348.56	95.07
1352.16	38.639
1355.75	1.067
1359.35	47.347
1362.94	13.368
1366.53	19.59
1370.12	48.505
1373.71	25.319
1377.3	66.06
1380.88	70.752
1384.46	46.726
1388.05	31.349
1391.63	3.924
1395.2	2.497
1398.78	2.966
1402.36	24.492
1405.93	26.841
1409.5	47.245
1413.07	65.074
1416.64	42.424
1420.21	63.989
1423.78	86.553
1427.34	15.078
1430.9	37.552
1434.46	28.76
1438.02	17.261
1441.58	64.263
1445.13	54.124
1448.69	60.474
1452.24	64.968
1455.79	74.912
1459.34	91.75
1462.89	55.617
1466.44	5.597
1469.98	13.483
1473.53	19.353
1477.07	22.746
1480.61	20.911
1484.14	37.939
1487.68	122.505
1491.22	108.514
1494.75	53.498
1498.28	89.825
1501.81	63.834
1505.34	68.754
1508.87	39.224
1512.4	38.894
1515.92	0.918
1519.44	33.299
1522.96	0
