Measurement: Raman, 514 nm, ccw, Raman Data Processed
Mineral: Mimetite
Rruff sample: R060920
Ideal chemistry: Pb^2+^_5_(As^5+^O_4_)_3_Cl
Locality: Tsumeb mine, Tsumeb, Otavi District, Oshikoto, Namibia
Source: Marcus Origlieri
Description: Yellow to brownish hexagonal prism, monoclinic polytype
Pin_id: L01165
Orientation: Laser parallel to -c* (0 0 -1). Fiducial mark perpendicular to laser is parallel to b [0 1 0]
Raman shift (cm-1)	intensity
91.916	0
96.869	1003.84
101.819	2048.79
106.766	2002.35
111.711	1955.38
116.653	2001.82
121.592	1894.04
126.529	1921.71
131.464	2195.96
136.395	2509
141.324	2934.38
146.251	2997.47
151.175	2760.33
156.096	2717.87
161.015	2580.97
165.931	2518.07
170.844	2689.44
175.755	2457.82
180.663	2472.82
185.569	2380.6
190.472	2143.04
195.373	1882.47
200.27	1632.64
205.166	1254.32
210.058	1025.82
214.948	860.861
219.836	657.754
224.721	565.982
229.603	421.494
234.482	311.045
239.359	186.814
244.234	23.5938
249.106	47.3545
253.975	154.669
258.841	86.0107
263.705	147.196
268.567	166.659
273.425	118.296
278.281	170.579
283.135	149.135
287.986	28.6641
292.834	262.806
297.68	699.168
302.523	1301.95
307.363	1689.11
312.201	1839.13
317.037	1574.71
321.869	1317.38
326.699	1197.76
331.527	1811.42
336.351	1881.19
341.174	1900.83
345.993	1491.15
350.81	1001.64
355.625	854.945
360.436	945.304
365.245	1303.24
370.052	1768.21
374.856	1406.96
379.657	929.727
384.456	573.133
389.252	792.869
394.045	722.935
398.836	681.692
403.625	868.354
408.41	1129.15
413.193	1279.04
417.974	1538.56
422.751	1315.06
427.527	938.257
432.299	613.047
437.069	426.318
441.836	389.996
446.601	234.323
451.363	176.391
456.123	145.143
460.88	15.4834
465.634	45.8369
470.386	27.4268
475.135	24.2812
479.881	36.375
484.625	2.42285
489.366	14.665
494.105	55.375
498.84	124.136
503.574	160.428
508.305	104.296
513.033	98.6768
517.758	80.625
522.481	99.3418
527.201	148.675
531.919	43.3184
536.634	166.299
541.346	68.6318
546.056	108.63
550.763	125.302
555.468	257.858
560.17	260.749
564.869	135.001
569.566	232.996
574.26	58.6201
578.952	295.566
583.641	164.904
588.327	248.314
593.011	305.414
597.692	215.63
602.37	380.454
607.046	335.818
611.719	275.881
616.39	409.438
621.058	178.694
625.723	122.16
630.386	298.301
635.046	220.389
639.703	204.317
644.358	156.856
649.01	293.191
653.66	65.9502
658.307	87.4512
662.951	52.7246
667.593	53.4834
672.232	100.305
676.869	74.626
681.503	59.1914
686.134	129.539
690.763	70.8809
695.389	120.705
700.013	43.5605
704.633	63.8057
709.252	342.784
713.867	10.415
718.48	302.269
723.091	154.025
727.698	373.363
732.304	422.94
736.906	423.198
741.506	616.09
746.103	898.201
750.698	1236.54
755.29	2243.02
759.88	3673.61
764.467	5641.52
769.051	5243.03
773.632	4642.01
778.211	4794.26
782.788	5791.48
787.362	6784.65
791.933	7527.45
796.501	12247.7
801.067	24419.8
805.631	37516.4
810.191	35088.2
814.749	24541
819.305	13362.5
823.858	6460.08
828.408	3858.03
832.956	2751.25
837.501	2025.84
842.043	1631.98
846.583	1391.48
851.12	1271.08
855.654	996.423
860.186	889.421
864.716	800.041
869.242	747.119
873.766	618.99
878.288	541.08
882.807	451.896
887.323	481.379
891.837	271.954
896.348	212.362
900.856	426.258
905.362	429.906
909.865	224.588
914.366	252.37
918.864	290.178
923.359	303.13
927.852	62.9385
932.342	38.7285
936.829	125.044
941.314	53.0703
945.796	52.3516
950.276	175.981
954.753	22.3926
959.228	188.873
963.699	126.159
968.169	162.356
972.635	127.403
977.099	12.7598
981.56	211.82
986.019	156.727
990.475	33.2949
994.929	38.5918
999.38	38.6846
1003.83	112.657
1008.27	26.3174
1012.72	128.778
1017.16	155.44
1021.6	135.499
1026.03	184.456
1030.46	30.0293
1034.89	205.787
1039.32	121.824
1043.74	50.3125
1048.17	79.3262
1052.59	210.18
1057	199.881
1061.42	228.43
1065.83	209.305
1070.24	115.508
1074.65	79.5234
1079.05	90.5606
1083.45	287.062
1087.85	437.717
1092.25	96.1133
1096.64	65.0801
1101.03	93.4922
1105.42	135.262
1109.8	100.652
1114.19	43.5723
1118.57	190.332
1122.95	201.096
1127.32	105.621
1131.69	173.576
1136.06	116.176
1140.43	255.662
1144.8	232.719
1149.16	123.449
1153.52	34.4824
1157.87	143.406
1162.23	97.1973
1166.58	40.043
1170.93	197.812
1175.28	184.309
1179.62	115.949
1183.96	93.4043
1188.3	149.643
1192.64	204.986
1196.97	251.326
1201.3	167.975
1205.63	172.525
1209.95	308.705
1214.28	9
1218.6	287.285
1222.92	146.098
1227.23	7.47266
1231.55	198.846
1235.86	79.2578
1240.16	171.279
1244.47	154.795
1248.77	102.768
1253.07	12.6133
1257.37	257.565
1261.66	199.873
1265.95	7.32812
1270.24	7.91992
1274.53	110.131
1278.81	114.574
1283.09	162.488
1287.37	105.766
1291.65	186.4
1295.92	222.664
1300.19	194.008
1304.46	258.117
1308.73	151.625
1312.99	152.227
1317.25	250.883
1321.51	222.609
1325.77	224.402
1330.02	179.295
1334.27	233.231
1338.52	252.312
1342.76	203.527
1347	57.8457
1351.24	193.455
1355.48	69.2637
1359.72	167.74
1363.95	129.695
1368.18	292.522
1372.4	18.2461
1376.63	164.693
1380.85	132.15
1385.07	12.7188
1389.29	84.5488
1393.5	85.9102
1397.71	186.039
1401.92	13.3477
1406.13	29.3945
1410.33	60.3164
1414.53	147.404
1418.73	150.67
1422.92	121.594
1427.12	129.397
1431.31	441.102
1435.5	415.691
1439.68	616.023
1443.87	620.076
1448.05	294.283
1452.22	392.65
1456.4	200.338
1460.57	253.111
1464.74	285.088
1468.91	271.81
1473.07	405.594
1477.23	250.844
1481.39	102.682
1485.55	195.791
1489.7	85.1621
1493.86	204.537
1498.01	315.287
1502.15	356.625
1506.3	104.953
1510.44	360.566
1514.58	410.656
1518.71	76.1719
1522.85	449.225
1526.98	328.799
1531.11	226.312
1535.23	291.67
1539.35	181.949
1543.47	10.5742
1547.59	322.762
1551.71	394.643
1555.82	376.965
1559.93	54.2812
