Measurement: Raman, 514 nm, ccw, Raman Data Processed
Mineral: Mimetite
Rruff sample: R050007
Ideal chemistry: Pb^2+^_5_(As^5+^O_4_)_3_Cl
Locality: Pingtouling, Guangdong, China
Source: Eugene Schlepp
Description: Reddish orange colored hexagonal prisms
Measured chemistry: Pb_5.00_((As_0.99_P_0.01_)O_4_)_3_Cl_1.00_
Pin_id: L00097
Orientation: Laser parallel to c* (0 0 1). Fiducial mark perpendicular to laser is parallel to -a [-1 0 0]
Raman shift (cm-1)	intensity
49.365	0
53.566	118.058
57.765	431.281
61.962	549.219
66.157	418.573
70.349	275.935
74.54	161.8
78.729	52.733
82.916	36.814
87.101	454.45
91.284	1131.36
95.465	2717.13
99.644	4934.45
103.82	4974
107.995	4495.64
112.168	4245.28
116.339	3907.83
120.508	3576.24
124.675	3520.5
128.84	3416.6
133.003	3458.56
137.164	3381.2
141.323	3459.32
145.48	3398.71
149.635	3262.97
153.788	3192.31
157.939	2972.05
162.088	3134.19
166.235	3093.85
170.38	3039.75
174.523	2863.02
178.664	2731.67
182.803	2496.73
186.94	2317.18
191.076	2053.12
195.209	1827.58
199.34	1651.6
203.47	1425.3
207.597	1280.61
211.722	1118.47
215.846	951.899
219.967	812.236
224.087	682.327
228.204	647.656
232.32	573.372
236.434	467.83
240.545	381.578
244.655	323.989
248.763	189.309
252.869	154.437
256.973	99.863
261.075	81.584
265.175	31.556
269.273	33.746
273.369	26.118
277.463	9.357
281.556	6.304
285.646	36.086
289.734	155.974
293.821	283.628
297.905	431.139
301.988	639.055
306.069	866.512
310.147	1042.2
314.224	1065.05
318.299	1079.14
322.372	1131.62
326.443	1231.22
330.512	1418.18
334.579	1535.51
338.645	1575.96
342.708	1434.95
346.769	1161.9
350.829	995.964
354.887	887.314
358.942	993.843
362.996	1400.35
367.048	2033.97
371.098	2199.96
375.146	1769.67
379.192	1315.78
383.236	1065.54
387.279	962.755
391.319	891.342
395.358	880.182
399.394	873.221
403.429	887.631
407.462	1005.82
411.493	1141.12
415.522	1412.43
419.549	1572.29
423.575	1481.11
427.598	1084.66
431.619	801.047
435.639	578.427
439.657	401.477
443.673	285.369
447.687	170.054
451.699	103.514
455.709	49.739
459.717	78.714
463.724	57.435
467.728	22.887
471.731	47.055
475.732	16.938
479.731	27.562
483.728	16.152
487.723	6.176
491.716	13.751
495.708	12.077
499.697	3.332
503.685	6.011
507.671	35.139
511.655	26.801
515.637	26.963
519.617	33.608
523.596	23.778
527.572	14.454
531.547	34.601
535.52	26.245
539.491	3.324
543.46	6.794
547.427	7.345
551.393	0.165
555.356	24.687
559.318	13.109
563.278	3.77
567.236	11.635
571.192	22.355
575.147	1.378
579.099	9.688
583.05	1.312
586.999	9.804
590.946	13.65
594.891	41.302
598.834	27.762
602.776	46.038
606.715	27.135
610.653	59.995
614.589	63.172
618.523	19.106
622.456	55.658
626.386	77.426
630.315	29.299
634.242	41.41
638.167	16.662
642.09	24.669
646.012	1.948
649.931	61.3
653.849	23.666
657.765	36.796
661.679	59.593
665.592	48.345
669.502	66.243
673.411	104.233
677.318	79.546
681.223	163.82
685.126	173.845
689.028	200.553
692.927	200.215
696.825	311.293
700.721	318.966
704.616	360.153
708.508	455.666
712.399	493.795
716.288	556.802
720.175	700.803
724.06	732.079
727.944	953.634
731.825	1034.05
735.705	1208.19
739.584	1421.11
743.46	1688.51
747.334	2137.83
751.207	2835.7
755.078	3938.78
758.947	5502.09
762.815	6862.63
766.68	7295.42
770.544	6945.42
774.406	6618.68
778.267	7319.19
782.125	8820
785.982	10367.1
789.837	12374.5
793.69	15692.1
797.542	23022.4
801.391	37267.9
805.239	49746.4
809.085	45345.2
812.93	34164.4
816.772	21403.8
820.613	14423.6
824.452	11373.8
828.29	9674.3
832.125	8345.15
835.959	6876.35
839.791	6064.9
843.621	5204.8
847.45	4562.04
851.277	3912.68
855.102	3230.45
858.925	2540.76
862.746	2021.16
866.566	1660.86
870.384	1456.28
874.2	1319.05
878.015	1209.18
881.828	1123.6
885.639	986.535
889.448	818.129
893.256	768.179
897.061	660.585
900.865	626.269
904.668	569.711
908.468	585.051
912.267	682.681
916.064	833.089
919.86	804.156
923.653	520.371
927.445	357.608
931.236	215.545
935.024	212.322
938.811	186.353
942.596	165.291
946.379	182.198
950.161	148.056
953.94	108.454
957.719	87.54
961.495	97.707
965.27	95.341
969.043	59.709
972.814	64.771
976.583	58.468
980.351	75.165
984.117	61.978
987.882	69.878
991.644	31.969
995.405	16.329
999.165	4.304
1002.92	36.396
1006.68	8.631
1010.43	31.403
1014.18	27.614
1017.93	0.382
1021.68	17.383
1025.43	4.598
1029.18	0.489
1032.92	14.4
1036.66	8.779
1040.4	20.003
1044.14	0.254
1047.88	7.589
1051.62	15.054
1055.35	27.641
1059.08	15.408
1062.81	41.355
1066.54	39.521
1070.27	1.123
1073.99	16.378
1077.72	0.895
1081.44	30.024
1085.16	27.204
1088.88	10.603
1092.59	33.777
1096.31	30.953
1100.02	41.943
1103.73	19.582
1107.44	34.511
1111.15	52.068
1114.86	68.508
1118.57	68.815
1122.27	69.979
1125.97	82.011
1129.67	90.913
1133.37	80.686
1137.07	82.33
1140.76	68.9
1144.45	96.409
1148.15	85.823
1151.84	120.001
1155.53	111.975
1159.21	88.105
1162.9	119.328
1166.58	131.153
1170.26	157.375
1173.94	124.822
1177.62	144.94
1181.3	143.279
1184.97	161.301
1188.65	165.453
1192.32	163.701
1195.99	195.275
1199.66	164.941
1203.33	168.78
1206.99	184.363
1210.65	187.477
1214.32	172.274
1217.98	168.364
1221.64	187.463
1225.29	142.047
1228.95	182.37
1232.6	174.5
1236.26	172.095
1239.91	183.774
1243.56	161.662
1247.2	133.344
1250.85	135.301
1254.49	161.356
1258.13	147.856
1261.78	160.007
1265.41	162.967
1269.05	166.041
1272.69	143.491
1276.32	150.931
1279.95	118.895
1283.59	84.018
1287.21	92.494
1290.84	80.942
1294.47	73.433
1298.09	107.997
1301.72	81.119
1305.34	66.938
1308.96	55.677
1312.58	36.287
1316.19	52.478
1319.81	65.422
1323.42	57.321
1327.03	44.139
1330.64	40.378
1334.25	46.368
1337.86	41.382
1341.46	35.343
1345.07	29.012
1348.67	39.5
1352.27	52.27
1355.87	7.25
1359.46	57.303
1363.06	38.19
1366.65	26.927
1370.25	24.557
1373.84	8.052
1377.43	11.594
1381.02	0.774
1384.6	2.638
1388.18	46.878
1391.77	5.704
1395.35	1.567
1398.93	45.712
1402.51	6.701
1406.08	44.439
1409.66	34.602
1413.23	12.693
1416.8	41.66
1420.37	22.196
1423.94	30.748
1427.51	21.59
1431.08	30.749
1434.64	43.111
1438.2	4.698
1441.76	64.944
1445.32	33.32
1448.88	43.748
1452.43	37.964
1455.99	36.696
1459.54	47.81
1463.09	15.393
1466.64	12.133
1470.19	6.386
1473.74	25.717
1477.28	47.87
1480.83	79.271
1484.37	51.805
1487.91	36.239
1491.45	17.825
1494.98	61.626
1498.52	31.258
1502.05	28.197
1505.59	38.687
1509.12	7.706
1512.65	9.942
1516.17	63.001
1519.7	85.737
