Measurement: Raman, 514 nm, ccw, Raman Data Processed
Mineral: Mimetite
Rruff sample: R050527
Ideal chemistry: Pb^2+^_5_(As^5+^O_4_)_3_Cl
Locality: Tsumeb mine, Tsumeb, Otavi District, Oshikoto, Namibia
Source: University of Arizona Mineral Museum
Description: Yellow hexagonal prisms, monoclinic polytype
Measured chemistry: Pb_5.00_(As_1.00_O_4_)_3_Cl_1.00_
Pin_id: M01947
Orientation: Laser parallel to -c* (0 0 -1). Fiducial mark perpendicular to laser is parallel to a [1 0 0]
Raman shift (cm-1)	intensity
73.479	0
78.435	460.411
83.388	2959.13
88.338	7066.07
93.286	9174.18
98.231	9585.04
103.174	10361.1
108.114	6701.64
113.052	3804.99
117.987	2125.05
122.919	1167.27
127.849	787.93
132.777	559.212
137.702	592.95
142.624	820.613
147.544	994.141
152.461	1125.28
157.375	1167.37
162.287	1165.22
167.197	1394.73
172.104	1762.58
177.008	1935.49
181.91	2006.81
186.809	1934.24
191.706	1710.59
196.6	1420.83
201.491	1057.51
206.38	846.465
211.267	619.651
216.151	403.059
221.032	256.136
225.911	95.5596
230.787	58.4338
235.66	112.11
240.531	121.058
245.4	147.213
250.266	144.878
255.129	128.054
259.99	144.125
264.848	98.8425
269.703	63.3054
274.556	30.9711
279.407	82.1388
284.255	91.299
289.1	196.699
293.942	351.654
298.783	750.345
303.62	1551.98
308.455	2404.67
313.288	3224.69
318.117	3010.9
322.945	2217.32
327.769	1914.87
332.591	2096.47
337.411	2470.62
342.228	2753.74
347.042	2624.27
351.854	2036.25
356.663	1499.37
361.47	1422.48
366.274	1772.87
371.075	2656.49
375.874	2347.56
380.67	1499.33
385.464	1171.1
390.255	1082.21
395.043	1018.91
399.829	1001.86
404.613	1135.13
409.393	1277.03
414.172	1381.18
418.947	1636.68
423.72	1953.88
428.49	1704.66
433.258	1130.91
438.024	763.352
442.786	585.78
447.546	447.418
452.304	349.632
457.059	215.162
461.811	251.833
466.56	142.82
471.308	122.108
476.052	95.7181
480.794	110.652
485.533	118.923
490.27	89.5518
495.004	62.529
499.736	63.8497
504.465	108.984
509.191	56.6489
513.915	55.1858
518.636	38.1857
523.354	32.2482
528.07	46.9846
532.784	9.60706
537.494	10.933
542.203	19.8507
546.908	35.8352
551.611	35.5934
556.311	43.4327
561.009	22.5637
565.704	12.0283
570.397	48.5908
575.087	44.1547
579.774	35.5201
584.459	36.6254
589.141	86.493
593.821	71.1471
598.498	63.4641
603.172	53.2594
607.844	86.2886
612.513	71.3326
617.18	88.0293
621.844	139.813
626.505	132.57
631.164	72.6586
635.82	64.3433
640.473	57.4636
645.124	46.1127
649.773	19.7698
654.418	21.1157
659.062	0.117065
663.702	38.2235
668.34	47.249
672.975	3.31714
677.608	15.8618
682.238	42.9541
686.866	28.5126
691.49	7.74268
696.113	15.2541
700.732	0.918823
705.349	68.0286
709.964	113.986
714.576	157.058
719.185	215.136
723.792	255.543
728.396	346.051
732.997	429.026
737.596	476.957
742.192	619.073
746.785	783.289
751.376	1038.62
755.965	1596.08
760.551	3022.66
765.134	5266.38
769.714	5792.26
774.292	4925.35
778.867	4614.7
783.44	5611.27
788.01	6881
792.578	7193.94
797.142	8941.03
801.705	16046.3
806.264	40071.2
810.821	53691
815.376	44991.6
819.927	26029.5
824.476	11766
829.023	6508.37
833.567	4214
838.108	3106.55
842.647	2505.91
847.183	2056.09
851.716	1717.44
856.247	1467.09
860.776	1217.9
865.301	997.782
869.824	861.874
874.345	768.103
878.862	643.468
883.377	663.932
887.89	528.707
892.4	529.468
896.907	395.427
901.412	358.859
905.914	280.597
910.413	247.472
914.91	254.271
919.404	321.763
923.896	297.368
928.385	169.283
932.871	99.3643
937.355	59.9491
941.836	21.7044
946.315	13.6928
950.79	48.8616
955.264	27.3517
959.734	15.0051
964.202	9.97058
968.668	22.6066
973.131	20.4159
977.591	17.9451
982.048	1.50696
986.503	45.6733
990.955	50.0915
995.405	9.60791
999.852	55.941
1004.3	119.232
1008.74	33.561
1013.18	29.9441
1017.61	27.6936
1022.05	34.838
1026.48	2.94141
1030.91	2.00098
1035.33	20.0059
1039.76	28.1361
1044.18	47.4559
1048.6	9.0459
1053.01	15.2094
1057.42	11.6431
1061.84	18.2677
1066.24	24.9995
1070.65	25.4125
1075.05	30.9657
1079.45	21.2328
1083.85	54.4006
1088.24	13.4834
1092.63	41.4208
1097.02	3.16724
1101.41	40.9226
1105.8	45.8252
1110.18	71.2793
1114.56	3.58655
1118.93	37.3829
1123.31	16.4559
1127.68	48.7293
1132.04	45.8547
1136.41	63.8938
1140.77	27.8451
1145.13	66.7085
1149.49	74.5117
1153.85	75.0456
1158.2	82.5902
1162.55	42.7318
1166.9	68.5624
1171.24	89.7437
1175.58	91.124
1179.92	57.2413
1184.26	81.3978
1188.6	87.0817
1192.93	79.1163
1197.26	42.7018
1201.58	40.5078
1205.9	18.8458
1210.23	56.7105
1214.55	96.5127
1218.86	73.8049
1223.17	107.994
1227.48	50.5215
1231.79	47.1973
1236.1	102.875
1240.4	88.547
1244.7	68.8492
1249	76.2518
1253.29	83.7015
1257.59	89.0742
1261.88	67.809
1266.16	87.4784
1270.45	93.0392
1274.73	103.824
1279.01	103.924
1283.28	45.4379
1287.56	33.1222
1291.83	43.78
1296.1	58.4522
1300.36	48.1705
1304.63	50.0085
1308.89	85.949
1313.15	51.9075
1317.4	68.912
1321.65	79.0137
1325.9	62.1798
1330.15	59.3777
1334.4	42.6459
1338.64	0.935303
1342.88	44.2313
1347.12	14.4751
1351.35	20.8232
1355.58	3.83826
1359.81	32.5145
1364.04	22.8772
1368.26	2.66663
1372.48	11.8213
1376.7	30.3547
1380.92	12.1614
1385.13	3.31067
1389.34	4.4436
1393.55	33.8324
1397.76	6.64771
1401.96	26.9434
1406.16	9.49426
1410.36	17.075
1414.55	30.6178
1418.75	45.1691
1422.94	35.7045
1427.12	92.2617
1431.31	8.76746
1435.49	71.3132
1439.67	74.9148
1443.85	148.965
1448.02	118.33
1452.19	159.411
1456.36	158.108
1460.53	120.011
1464.69	113.288
1468.85	71.0801
1473.01	89.9867
1477.17	54.7281
1481.32	73.9994
1485.47	81.5183
1489.62	84.0745
1493.76	29.9658
1497.91	23.9708
1502.05	9.74817
1506.18	49.4204
1510.32	8.1488
1514.45	11.1295
1518.58	22.6489
1522.71	24.4904
1526.83	27.4418
1530.95	26.4294
1535.07	70.8398
1539.19	49.6981
1543.3	47.1176
1547.41	34.3901
1551.52	43.5497
1555.63	8.9165
1559.73	23.8068
1563.83	65.3811
1567.93	30.8254
1572.03	52.8218
1576.12	18.8408
