Measurement: Raman, 514 nm, ccw, Raman Data Processed
Mineral: Mimetite
Rruff sample: R060920
Ideal chemistry: Pb^2+^_5_(As^5+^O_4_)_3_Cl
Locality: Tsumeb mine, Tsumeb, Otavi District, Oshikoto, Namibia
Source: Marcus Origlieri
Description: Yellow to brownish hexagonal prism, monoclinic polytype
Pin_id: L01429
Orientation: Laser parallel to a* (1 0 0). Fiducial mark perpendicular to laser is parallel to c [0 0 1]
Raman shift (cm-1)	intensity
42.248	0
47.226	29.4548
52.202	51.7467
57.176	67.4509
62.146	93.1047
67.115	34.8608
72.08	13.0687
77.043	29.186
82.003	87.174
86.961	556.14
91.916	1331.21
96.869	2702.02
101.819	4229.31
106.766	4406.66
111.711	3913.4
116.653	3504.02
121.592	3098.95
126.529	2766.69
131.464	2720.05
136.395	2703.77
141.324	2926.45
146.251	3168.26
151.175	3458.23
156.096	3738.39
161.015	3976.74
165.931	4095.27
170.844	4114.98
175.755	3759.86
180.663	3095.88
185.569	2709.01
190.472	2105.09
195.373	1757.01
200.27	1433.52
205.166	1160.56
210.058	914.989
214.948	760.971
219.836	638.244
224.721	507.545
229.603	410.417
234.482	331.573
239.359	245.709
244.234	211.885
249.106	155.974
253.975	124.949
258.841	168.75
263.705	77.4291
268.567	81.9112
273.425	156.147
278.281	169.132
283.135	281.889
287.986	526.412
292.834	1092.64
297.68	2003.54
302.523	3079.1
307.363	3196.32
312.201	3154.18
317.037	2654.6
321.869	2471.55
326.699	3143.02
331.527	4425.01
336.351	4960.44
341.174	4503.6
345.993	3269.4
350.81	2050.33
355.625	1293.5
360.436	861.125
365.245	704.022
370.052	608.277
374.856	606.853
379.657	740.144
384.456	863.859
389.252	1066.3
394.045	1091.72
398.836	1554.06
403.625	2395.2
408.41	3210.3
413.193	2475.16
417.974	1584.47
422.751	1371.61
427.527	1126.93
432.299	769.57
437.069	654.98
441.836	487.501
446.601	323.011
451.363	184.052
456.123	100.403
460.88	71.8446
465.634	69.1782
470.386	46.5336
475.135	53.9368
479.881	25.2736
484.625	13.0897
489.366	26.6598
494.105	25.3423
498.84	40.9006
503.574	5.01453
508.305	14.4005
513.033	51.0005
517.758	2.36035
522.481	28.1929
527.201	39.0376
531.919	9.90576
536.634	6.0918
541.346	16.7623
546.056	69.2078
550.763	10.0562
555.468	6.64356
560.17	2.85571
564.869	3.31494
569.566	0.903198
574.26	47.0848
578.952	38.7383
583.641	32.0642
588.327	29.0284
593.011	17.6027
597.692	63.7957
602.37	61.7156
607.046	72.3616
611.719	64.4365
616.39	81.8076
621.058	53.6426
625.723	98.733
630.386	46.2208
635.046	46.3214
639.703	66.6516
644.358	36.2228
649.01	75.846
653.66	60.7949
658.307	4.63806
662.951	36.3096
667.593	3.20801
672.232	14.8945
676.869	15.1925
681.503	10.4596
686.134	12.4601
690.763	94.8049
695.389	2.74939
700.013	10.203
704.633	25.7617
709.252	53.7922
713.867	63.2637
718.48	153.156
723.091	136.993
727.698	158.971
732.304	141.114
736.906	250.609
741.506	332.998
746.103	456.562
750.698	720.11
755.29	1168.68
759.88	2030.23
764.467	2709.79
769.051	2398.23
773.632	1806.03
778.211	1869.85
782.788	2448.8
787.362	3068.27
791.933	3738.65
796.501	7113.62
801.067	17968
805.631	38010
810.191	47679.6
814.749	51902.9
819.305	31275.4
823.858	14170.5
828.408	7831.3
832.956	5086.15
837.501	3634.36
842.043	2770.83
846.583	2172.53
851.12	1713.46
855.654	1385.58
860.186	1077.04
864.716	894.39
869.242	710.16
873.766	593.844
878.288	470.117
882.807	530.357
887.323	407.767
891.837	272.101
896.348	293.047
900.856	201.736
905.362	121.389
909.865	85.964
914.366	232.151
918.864	198.307
923.359	196.873
927.852	50.4457
932.342	40.365
936.829	79.552
941.314	4.65271
945.796	61.7241
950.276	71.0441
954.753	80.1486
959.228	78.3782
963.699	99.8176
968.169	10.6937
972.635	26.7297
977.099	20.0525
981.56	56.745
986.019	64.4851
990.475	74.2191
994.929	66.9661
999.38	25.7756
1003.83	38.8253
1008.27	39.5094
1012.72	19.1494
1017.16	10.7643
1021.6	8.39893
1026.03	91.103
1030.46	15.4929
1034.89	15.8231
1039.32	13.4691
1043.74	6.4259
1048.17	13.384
1052.59	25.4703
1057	7.24707
1061.42	0.064697
1065.83	25.6566
1070.24	36.9209
1074.65	42.2864
1079.05	17.3795
1083.45	11.6469
1087.85	51.1404
1092.25	5.1958
1096.64	57.2804
1101.03	62.6196
1105.42	38.8494
1109.8	39.9406
1114.19	34.9352
1118.57	63.8358
1122.95	83.6423
1127.32	105.356
1131.69	57.9749
1136.06	122.454
1140.43	42.1348
1144.8	110.274
1149.16	55.5042
1153.52	48.364
1157.87	114.951
1162.23	112.821
1166.58	131.807
1170.93	58.783
1175.28	99.5713
1179.62	84.7686
1183.96	84.613
1188.3	58.0284
1192.64	108.385
1196.97	50.8733
1201.3	76.983
1205.63	77.1996
1209.95	94.5258
1214.28	86.079
1218.6	100.787
1222.92	99.805
1227.23	102.954
1231.55	92.5175
1235.86	43.2589
1240.16	99.4611
1244.47	79.168
1248.77	70.8497
1253.07	79.51
1257.37	50.3651
1261.66	82.9055
1265.95	15.1743
1270.24	44.1208
1274.53	48.6792
1278.81	13.2102
1283.09	61.5066
1287.37	76.575
1291.65	17.7097
1295.92	77.9915
1300.19	5.49097
1304.46	49.0203
1308.73	26.5747
1312.99	40.1448
1317.25	30.6939
1321.51	53.2444
1325.77	113.636
1330.02	49.2869
1334.27	16.9175
1338.52	44.5691
1342.76	37.3049
1347	70.1257
1351.24	31.0569
1355.48	88.8413
1359.72	5.36353
1363.95	20.4744
1368.18	48.3206
1372.4	71.582
1376.63	75.9204
1380.85	1.81738
1385.07	37.6606
1389.29	53.4849
1393.5	2.69531
1397.71	29.0227
1401.92	92.8384
1406.13	19.793
1410.33	6.5271
1414.53	6.91455
1418.73	53.615
1422.92	24.5125
1427.12	70.3574
1431.31	42.7351
1435.5	69.9236
1439.68	49.6033
1443.87	77.4297
1448.05	79.666
1452.22	15.3005
1456.4	71.4329
1460.57	48.4729
1464.74	52.075
1468.91	43.9827
1473.07	8.14648
1477.23	58.6455
1481.39	80.0486
1485.55	71.9468
1489.7	57.0271
1493.86	61.6106
1498.01	115.443
1502.15	89.3769
1506.3	46.4248
1510.44	77.4343
1514.58	109.602
1518.71	73.1738
1522.85	13.8621
1526.98	25.9927
1531.11	53.0679
1535.23	28.6809
1539.35	93.4243
1543.47	37.1292
1547.59	1.36914
1551.71	44.4382
1555.82	9.27612
1559.93	20.6072
