Measurement: Raman, 514 nm, ccw, Raman Data Processed
Mineral: Mimetite
Rruff sample: R050527
Ideal chemistry: Pb^2+^_5_(As^5+^O_4_)_3_Cl
Locality: Tsumeb mine, Tsumeb, Otavi District, Oshikoto, Namibia
Source: University of Arizona Mineral Museum
Description: Yellow hexagonal prisms, monoclinic polytype
Measured chemistry: Pb_5.00_(As_1.00_O_4_)_3_Cl_1.00_
Pin_id: M01947
Orientation: Laser parallel to -c* (0 0 -1). Fiducial mark perpendicular to laser is parallel to a [1 0 0]
Raman shift (cm-1)	intensity
61.079	0
66.041	22.6516
71.001	243.846
75.957	1071.38
80.912	2669.64
85.863	4954.6
90.812	7605.23
95.759	8600.81
100.703	9999.47
105.644	8884.75
110.583	6121.39
115.52	4508.22
120.453	3436.89
125.385	2655.66
130.313	2232.88
135.239	2044.62
140.163	2197.26
145.084	2328.59
150.002	2467.58
154.918	2348.35
159.832	2191.35
164.742	1974.16
169.651	2116.01
174.556	2163.45
179.459	2134.11
184.36	1977.83
189.258	1872.38
194.153	1704.56
199.046	1413.47
203.936	1112.12
208.824	897.256
213.709	714.297
218.592	549.708
223.472	375.576
228.349	221.234
233.224	130.455
238.096	96.4198
242.966	31.7808
247.833	25.8517
252.698	18.2009
257.56	65.6985
262.419	62.9166
267.276	52.1956
272.13	125.683
276.982	108.523
281.831	74.6837
286.677	41.0807
291.521	69.4039
296.363	245.912
301.202	604.37
306.038	1145.63
310.872	1870.24
315.703	2278.83
320.531	2002.56
325.357	1698.65
330.181	1641.21
335.001	2024.38
339.82	2420.62
344.635	2399.95
349.448	1902.22
354.259	1412.92
359.067	1090.59
363.872	1232.94
368.675	2013.16
373.475	2892.18
378.272	1928.35
383.067	1068.26
387.86	757.147
392.649	726.105
397.437	634.354
402.221	672.038
407.003	745.274
411.783	908.208
416.56	1008.67
421.334	1272.69
426.106	1383.75
430.875	950.279
435.641	597.868
440.405	404.587
445.167	303.082
449.925	182.874
454.681	142.765
459.435	72.2529
464.186	44.3517
468.934	14.0531
473.68	47.3153
478.423	36.0781
483.164	3.33948
487.902	8.09888
492.637	2.34961
497.37	2.11157
502.1	18.8007
506.828	26.5996
511.553	16.9192
516.276	33.079
520.995	9.97461
525.713	37.9216
530.427	23.5461
535.139	13.4565
539.849	31.8361
544.556	10.4064
549.26	32.3987
553.962	26.2329
558.661	8.58337
563.357	34.8789
568.051	45.6881
572.742	78.408
577.431	36.9395
582.117	19.1343
586.801	35.9896
591.481	43.5386
596.16	59.7992
600.835	91.7906
605.508	81.2174
610.179	68.0969
614.847	81.9799
619.512	84.8738
624.175	116.526
628.835	98.175
633.492	90.0541
638.147	6.50293
642.799	62.6049
647.449	55.5236
652.096	41.952
656.74	13.07
661.382	26.5195
666.021	16.2188
670.658	4.93176
675.292	42.0138
679.923	28.4145
684.552	1.9458
689.178	2.26135
693.802	18.3058
698.423	19.6429
703.041	80.1561
707.657	45.811
712.27	88.1031
716.881	148.872
721.489	178.269
726.094	202.929
730.697	290.821
735.297	346.292
739.894	486.81
744.489	553.385
749.081	706.089
753.671	1100.91
758.258	1786.88
762.842	3336.02
767.424	4840.31
772.003	4880.78
776.58	4478.34
781.154	4790.88
785.725	6086.93
790.294	6830.17
794.86	7313.85
799.424	9562.49
803.985	16683.4
808.543	33236.5
813.099	33036.2
817.652	24371.7
822.202	12026.6
826.75	5865.57
831.295	3596.69
835.838	2605.92
840.378	2028.13
844.915	1674.8
849.45	1405.8
853.982	1137.75
858.512	1003.85
863.039	802.099
867.563	681.488
872.085	574.01
876.604	508.661
881.12	416.536
885.634	424.435
890.145	356.732
894.654	302.19
899.16	279.441
903.663	244.548
908.164	152.771
912.662	190.042
917.158	172.244
921.651	254.662
926.141	192.058
930.628	64.7288
935.113	63.3296
939.596	35.6266
944.076	45.1975
948.553	14.4614
953.027	27.7686
957.499	7.71826
961.969	43.7032
966.435	12.0446
970.899	4.68799
975.361	21.1822
979.82	1.72412
984.276	4.87585
988.73	24.6492
993.181	8.97583
997.629	42.2966
1002.08	91.6106
1006.52	43.8915
1010.96	21.149
1015.4	21.343
1019.83	28.5028
1024.26	44.6008
1028.69	36.7672
1033.12	4.2793
1037.55	1.60291
1041.97	0.523926
1046.39	3.89404
1050.81	38.6243
1055.22	23.0447
1059.63	31.6946
1064.04	12.3716
1068.45	6.27246
1072.85	23.9928
1077.25	33.2976
1081.65	17.0171
1086.05	55.2721
1090.44	1.55237
1094.83	2.13379
1099.22	25.2095
1103.6	24.1659
1107.99	27.2841
1112.37	43.025
1116.74	4.50977
1121.12	47.1017
1125.49	58.6337
1129.86	42.6898
1134.23	66.4797
1138.59	36.0411
1142.95	81.0237
1147.31	61.0953
1151.67	51.1926
1156.02	78.9431
1160.38	84.58
1164.72	56.9102
1169.07	66.2936
1173.41	75.1058
1177.75	93.8291
1182.09	81.6404
1186.43	61.5706
1190.76	38.971
1195.09	41.189
1199.42	80.7922
1203.74	12.3009
1208.07	75.1959
1212.39	78.4097
1216.7	83.7459
1221.02	76.7657
1225.33	56.5112
1229.64	89.6027
1233.95	53.5336
1238.25	92.5148
1242.55	53.7711
1246.85	69.8429
1251.15	95.2959
1255.44	87.8379
1259.73	67.4481
1264.02	77.3435
1268.31	116.609
1272.59	51.4443
1276.87	105.734
1281.15	34.0033
1285.42	32.7006
1289.69	28.9248
1293.96	65.3612
1298.23	70.7499
1302.5	37.8237
1306.76	80.8226
1311.02	16.3562
1315.27	56.9498
1319.53	29.6251
1323.78	43.3669
1328.03	21.1815
1332.28	22.0503
1336.52	6.94836
1340.76	9.35718
1345	8.61963
1349.23	35.8599
1353.47	12.8862
1357.7	4.75207
1361.93	45.0371
1366.15	7.80762
1370.37	19.3196
1374.59	6.51306
1378.81	88.6808
1383.03	35.954
1387.24	31.4852
1391.45	54.9091
1395.65	21.2991
1399.86	26.6637
1404.06	62.0286
1408.26	36.5264
1412.46	1.2583
1416.65	1.28613
1420.84	10.1554
1425.03	5.26807
1429.22	57.2221
1433.4	55.8713
1437.58	68.7346
1441.76	145.369
1445.93	149.92
1450.11	155.141
1454.28	195.598
1458.44	120.311
1462.61	147.041
1466.77	98.8204
1470.93	90.5438
1475.09	146.123
1479.24	108.729
1483.39	132.228
1487.54	75.0934
1491.69	64.1782
1495.84	35.4541
1499.98	38.2032
1504.12	34.7661
1508.25	25.6753
1512.38	28.5305
1516.52	24.4383
1520.64	58.4875
1524.77	32.6044
1528.89	68.8523
1533.01	2.19714
1537.13	36.6718
1541.25	43.045
1545.36	27.2094
1549.47	84.6107
1553.58	111.7
1557.68	55.4149
1561.78	26.8517
1565.88	64.3456
1569.98	22.3757
1574.07	4.32068
