Measurement: Raman, 514 nm, ccw, Raman Data Processed
Mineral: Mimetite
Rruff sample: R050007
Ideal chemistry: Pb^2+^_5_(As^5+^O_4_)_3_Cl
Locality: Pingtouling, Guangdong, China
Source: Eugene Schlepp
Description: Reddish orange colored hexagonal prisms
Measured chemistry: Pb_5.00_((As_0.99_P_0.01_)O_4_)_3_Cl_1.00_
Pin_id: L00370
Orientation: Laser parallel to a* (1 0 0). Fiducial mark perpendicular to laser is parallel to c [0 0 1]
Raman shift (cm-1)	intensity
48.666	0
52.873	76.374
57.079	82.762
61.283	130.721
65.484	82.075
69.684	13.636
73.881	14.147
78.076	73.97
82.27	327.101
86.461	800.444
90.65	1634.34
94.838	2226.07
99.023	3658.45
103.206	5107.01
107.387	4789.74
111.566	4250.67
115.744	3732.78
119.919	3241.06
124.092	2971.54
128.263	2732.21
132.432	2558.1
136.599	2452.28
140.764	2632.58
144.927	2820.78
149.088	3144.97
153.247	3489.52
157.404	3802.34
161.559	4041.36
165.711	4311.59
169.862	4252.95
174.011	3808.5
178.158	3010.22
182.303	2428.09
186.446	1981.1
190.587	1579.25
194.726	1369.53
198.862	1141.95
202.997	950.125
207.13	758.325
211.261	639.378
215.39	528.461
219.517	442.142
223.642	334.664
227.765	270.137
231.886	201.989
236.005	127.589
240.122	63.975
244.237	59.387
248.35	0.409
252.461	16.979
256.57	37.496
260.677	7.872
264.782	21.143
268.885	12.352
272.986	3.517
277.085	44.373
281.182	89.313
285.278	159.288
289.371	307.292
293.462	651.315
297.552	1279.35
301.639	2183.4
305.724	2746.45
309.808	2550.51
313.889	2281.56
317.969	2176.59
322.046	2396.74
326.122	3056.92
330.196	3935.24
334.267	4600.59
338.337	4514.31
342.405	3957.73
346.471	3046.31
350.535	2255.76
354.597	1641.46
358.657	1233.78
362.715	949.585
366.771	808.405
370.825	753.18
374.877	728.19
378.928	785.908
382.976	957.538
387.023	1288.39
391.067	1642.4
395.11	1552.09
399.15	1634.06
403.189	2346.04
407.226	3226.92
411.261	3179.66
415.294	2170.23
419.325	1551
423.354	1401.69
427.381	1298.26
431.406	1101.34
435.43	876.822
439.451	801.363
443.471	614.571
447.488	475.565
451.504	353.999
455.518	292.483
459.53	254.947
463.54	204.655
467.548	175.445
471.554	155.84
475.558	120.825
479.561	100.275
483.561	71.628
487.559	53.707
491.556	53.477
495.551	34.11
499.544	38.509
503.535	31.892
507.524	20.923
511.511	26.752
515.496	3.361
519.48	18.267
523.461	14.175
527.441	6.655
531.418	24.782
535.394	7.438
539.368	9.604
543.34	8.942
547.311	9.413
551.279	18.542
555.245	17.206
559.21	1.701
563.173	5.061
567.133	12.097
571.092	20.397
575.049	9.966
579.005	15.746
582.958	18.065
586.909	10.953
590.859	4.333
594.807	14.881
598.753	10.373
602.697	14.467
606.639	26.411
610.579	13.217
614.518	24.887
618.454	26.427
622.389	38.841
626.322	17.134
630.253	2.307
634.182	6.362
638.109	9.263
642.035	12.713
645.958	11.969
649.88	1.963
653.8	33.877
657.718	4.368
661.634	21.957
665.549	27.194
669.461	19.686
673.372	20.993
677.281	39.969
681.188	31.95
685.093	38.819
688.997	37.439
692.898	51.605
696.798	61.982
700.696	80.376
704.592	74.429
708.486	116.564
712.378	147.37
716.269	174.066
720.158	187.764
724.045	248.019
727.93	289.24
731.813	320.709
735.694	399.671
739.574	479.403
743.452	582.589
747.328	787.878
751.202	1170.65
755.075	1742
758.945	2573.69
762.814	3706.55
766.681	3977.78
770.546	3000.99
774.409	2318.41
778.271	2150.91
782.131	2364.5
785.989	2775.12
789.845	3194.81
793.699	4303.68
797.552	6957.6
801.402	14272.7
805.251	31269
809.098	44615.6
812.944	55542.2
816.787	50488.8
820.629	30445.6
824.469	17472.6
828.307	11509.7
832.144	8690.95
835.978	6948.36
839.811	5754.92
843.642	4753.68
847.472	3929.6
851.299	3464.68
855.125	2957.93
858.949	2444.36
862.771	1937.97
866.591	1595.75
870.41	1436.76
874.227	1303.88
878.042	1190.62
881.855	1123.98
885.667	986.621
889.476	795.937
893.284	661.316
897.09	547.364
900.895	446.982
904.698	415.421
908.499	354.358
912.298	291.474
916.095	307.609
919.891	309.799
923.685	276.072
927.477	162.585
931.267	181.192
935.056	134.383
938.843	105.262
942.628	103.747
946.411	99.219
950.193	110.058
953.973	117.738
957.751	128.231
961.527	97.89
965.302	77.579
969.075	64.252
972.846	56.448
976.615	49.232
980.383	61.122
984.149	91.05
987.913	68.478
991.675	51.543
995.436	39.542
999.195	47.594
1002.95	55.765
1006.71	15.837
1010.46	12.935
1014.21	8.065
1017.96	9.274
1021.71	1.586
1025.46	8.456
1029.2	24.337
1032.95	11.239
1036.69	26.162
1040.43	12.134
1044.17	10.863
1047.9	14.843
1051.64	39.207
1055.37	1.633
1059.1	5.578
1062.83	28.147
1066.56	24.834
1070.29	39.483
1074.01	58.103
1077.73	7.68
1081.46	8.798
1085.17	4.383
1088.89	27.063
1092.61	17.87
1096.32	1.218
1100.04	6.2
1103.75	3.929
1107.46	2.55
1111.16	20.458
1114.87	40.964
1118.57	27.573
1122.28	33.045
1125.98	49.487
1129.67	66.843
1133.37	29.155
1137.07	49.352
1140.76	67.775
1144.45	50.867
1148.14	38.869
1151.83	77.918
1155.52	64.161
1159.21	78.353
1162.89	69.22
1166.57	53.086
1170.25	98.427
1173.93	69.03
1177.61	83.856
1181.28	98.119
1184.96	113.834
1188.63	97.342
1192.3	123.829
1195.97	63.762
1199.64	99.307
1203.3	111.995
1206.97	125.165
1210.63	114.866
1214.29	126.787
1217.95	114.675
1221.6	130.907
1225.26	110.733
1228.91	107.769
1232.57	132.577
1236.21	125.7
1239.86	123.207
1243.51	115.513
1247.16	126.402
1250.8	105.646
1254.44	60.082
1258.08	50.615
1261.72	68.693
1265.36	61.585
1268.99	71.082
1272.63	72.154
1276.26	68.858
1279.89	88.301
1283.52	35.391
1287.15	36.797
1290.77	58.196
1294.4	38.793
1298.02	43.758
1301.64	49.138
1305.26	36.304
1308.88	38.413
1312.49	0.312
1316.11	2.754
1319.72	30.125
1323.33	19.956
1326.94	16.733
1330.55	16.503
1334.15	20.21
1337.76	46.674
1341.36	38.265
1344.96	48.842
1348.56	45.393
1352.16	19.894
1355.75	29.362
1359.35	16.774
1362.94	14.087
1366.53	59.797
1370.12	28.047
1373.71	50.225
1377.3	27.299
1380.88	33.256
1384.46	7.846
1388.05	30.912
1391.63	29.062
1395.2	22.193
1398.78	33.245
1402.36	32.257
1405.93	24.948
1409.5	40.898
1413.07	20.239
1416.64	82.462
1420.21	69.889
1423.78	44.014
1427.34	41.937
1430.9	43.745
1434.46	28.529
1438.02	40.605
1441.58	29.416
1445.13	54.336
1448.69	56.381
1452.24	27.65
1455.79	45.242
1459.34	66.9
1462.89	93.38
1466.44	70.409
1469.98	14.573
1473.53	45.663
1477.07	10.131
1480.61	62.104
1484.14	15.441
1487.68	18.393
1491.22	47.818
1494.75	66.198
1498.28	57.446
1501.81	40.603
1505.34	66.106
1508.87	32.426
1512.4	53.506
1515.92	4.38
1519.44	0.064
1522.96	0
