Measurement: Raman, 514 nm, ccw, Raman Data Processed
Mineral: Mimetite
Rruff sample: R050527
Ideal chemistry: Pb^2+^_5_(As^5+^O_4_)_3_Cl
Locality: Tsumeb mine, Tsumeb, Otavi District, Oshikoto, Namibia
Source: University of Arizona Mineral Museum
Description: Yellow hexagonal prisms, monoclinic polytype
Measured chemistry: Pb_5.00_(As_1.00_O_4_)_3_Cl_1.00_
Pin_id: M00655
Orientation: Laser parallel to a* (1 0 0). Fiducial mark perpendicular to laser is parallel to c [0 0 1]
Raman shift (cm-1)	intensity
43.476	0
48.456	20.1616
53.434	31.7586
58.408	53.9161
63.38	39.6732
68.349	4.77875
73.316	18.1902
78.279	6.40512
83.24	125.317
88.199	536.176
93.154	1140.59
98.107	2115.41
103.057	2776.55
108.004	2635.99
112.949	2406.68
117.891	2128.59
122.83	1928.28
127.767	1875.43
132.7	1832.94
137.631	1919.81
142.56	1931.35
147.485	2159.61
152.408	2213.61
157.328	2388.37
162.246	2543.88
167.16	2880.12
172.073	2936.11
176.982	2822.82
181.888	2574.22
186.792	2174.32
191.694	1754.3
196.592	1289.85
201.488	1080.95
206.381	884.901
211.271	679.797
216.159	518.414
221.044	382.149
225.926	344.003
230.806	254.105
235.683	199.861
240.557	164.943
245.429	151.289
250.298	112.853
255.164	83.9706
260.027	73.6428
264.888	52.8314
269.746	74.5016
274.601	91.6604
279.454	111.254
284.304	152.282
289.151	285.733
293.996	571.608
298.838	1067.88
303.677	1951.55
308.514	2618.57
313.348	2986.94
318.179	2697.62
323.008	2138.82
327.834	2185.09
332.657	2483.66
337.478	2799.33
342.295	2416.67
347.111	1852.22
351.923	1270.16
356.733	860.729
361.54	683.982
366.345	647.884
371.147	658.71
375.946	604.288
380.743	537.089
385.537	518.938
390.328	609.722
395.116	716.976
399.902	824.04
404.686	1183.65
409.466	1304.15
414.244	1097.88
419.019	889.313
423.792	780.353
428.562	629.516
433.329	474.458
438.094	347.898
442.856	241.852
447.616	203.499
452.372	166.756
457.126	61.0666
461.878	35.1826
466.627	39.254
471.373	18.2743
476.116	25.7448
480.857	11.8593
485.596	10.0914
490.331	5.47492
495.064	5.68024
499.795	2.94543
504.522	17.7719
509.247	25.8657
513.97	19.9233
518.69	16.4656
523.407	4.08716
528.121	17.8853
532.833	13.7565
537.543	0.953369
542.249	23.5209
546.953	9.16034
551.655	6.66254
556.354	4.24524
561.05	25.5635
565.743	12.1657
570.434	23.544
575.123	13.6928
579.808	15.5978
584.491	15.2646
589.172	20.7102
593.85	24.9462
598.525	56.9847
603.197	37.8451
607.868	53.317
612.535	57.8252
617.2	82.2595
621.862	57.0903
626.522	47.8862
631.178	26.7287
635.833	19.1462
640.485	44.2177
645.134	37.8338
649.78	13.2652
654.424	8.7699
659.066	23.5036
663.704	6.34985
668.341	4.7514
672.974	9.56311
677.605	3.8465
682.234	6.65314
686.859	3.21374
691.483	10.2891
696.103	34.6767
700.721	19.35
705.337	40.7841
709.949	38.9102
714.56	74.5869
719.167	79.1975
723.772	102.238
728.375	147.812
732.975	171.716
737.572	261.684
742.167	328.608
746.759	514.61
751.349	735.645
755.936	1231.71
760.52	2136.85
765.102	2942.06
769.681	2678.32
774.258	2157.29
778.832	2228.52
783.404	2790.08
787.973	3144.8
792.539	3304.43
797.103	5075.51
801.665	10792.1
806.223	20886.4
810.779	25730.2
815.333	23549.9
819.884	14395.5
824.433	7035.53
828.979	3865.65
833.522	2504.1
838.063	1886.66
842.601	1465.49
847.137	1192.25
851.67	973.135
856.2	767.247
860.729	642.592
865.254	521.217
869.777	430.553
874.297	357.984
878.815	307.14
883.33	266.121
887.843	213.553
892.353	208.98
896.861	160.2
901.366	129.273
905.869	124.281
910.369	78.3973
914.866	61.5833
919.361	83.1315
923.854	68.7747
928.344	20.3635
932.831	21.4019
937.316	12.3577
941.798	0.561584
946.278	3.55023
950.755	13.4151
955.23	18.8699
959.702	24.5864
964.171	19.4135
968.638	7.17108
973.103	0.511108
977.565	0.72998
982.025	17.1358
986.482	11.9295
990.936	0.697693
995.388	10.5392
999.837	5.19397
1004.28	14.9222
1008.73	21.6445
1013.17	19.3434
1017.61	16.0121
1022.05	2.63428
1026.48	10.2224
1030.91	3.7677
1035.34	6.2598
1039.77	3.68152
1044.19	15.0662
1048.62	5.42105
1053.03	17.2943
1057.45	6.83133
1061.87	2.12942
1066.28	9.83102
1070.69	10.2609
1075.09	4.53046
1079.5	15.1679
1083.9	12.691
1088.3	27.2452
1092.69	10.7263
1097.09	37.0659
1101.48	5.46112
1105.87	33.7234
1110.26	28.7987
1114.64	27.0063
1119.02	33.1647
1123.4	48.1623
1127.78	47.6069
1132.15	37.6195
1136.53	26.6216
1140.89	29.5109
1145.26	33.7411
1149.63	25.1931
1153.99	49.2328
1158.35	38.3167
1162.7	56.6427
1167.06	50.1484
1171.41	39.7515
1175.76	55.3242
1180.11	27.8205
1184.45	38.6163
1188.79	33.6552
1193.13	41.3698
1197.47	19.3912
1201.81	41.4739
1206.14	56.0974
1210.47	49.3748
1214.79	38.2891
1219.12	60.7548
1223.44	53.8766
1227.76	64.0503
1232.08	33.9111
1236.39	52.0655
1240.7	31.1863
1245.02	50.4142
1249.32	40.5046
1253.63	39.8287
1257.93	24.9304
1262.23	31.0104
1266.53	23.1145
1270.82	34.1588
1275.12	22.6917
1279.41	23.838
1283.69	22.9004
1287.98	17.9539
1292.26	27.0863
1296.54	26.1717
1300.82	1.24497
1305.1	27.3565
1309.37	15.4411
1313.64	9.47034
1317.91	4.65311
1322.17	14.0039
1326.44	7.13501
1330.7	7.28265
1334.96	22.4452
1339.21	0.642944
1343.47	10.8691
1347.72	9.50217
1351.97	15.729
1356.21	22.3465
1360.46	2.57419
1364.7	11.827
1368.94	7.21338
1373.17	15.4898
1377.41	4.70566
1381.64	0.917175
1385.87	6.12305
1390.1	11.3305
1394.32	27.5321
1398.54	15.6998
1402.76	2.86298
1406.98	26.0093
1411.19	27.1469
1415.41	28.2772
1419.62	1.60599
1423.82	6.85284
1428.03	1.22788
1432.23	17.3368
1436.43	15.4502
1440.63	28.4581
1444.82	5.78067
1449.02	16.0966
1453.21	36.2278
1457.4	28.5727
1461.58	18.8835
1465.77	29.8784
1469.95	1.92618
1474.12	16.8583
1478.3	4.12747
1482.47	12.3291
1486.64	11.6428
1490.81	8.79779
1494.98	2.74298
1499.14	15.8264
1503.31	37.9095
1507.47	70.6031
1511.62	56.7801
1515.78	63.8758
1519.93	26.7604
1524.08	40.6156
1528.23	30.4091
1532.37	31.5421
1536.51	34.282
1540.65	9.91498
1544.79	14.5856
1548.93	0.463043
1553.06	27.2211
1557.19	28.0419
1561.32	5.14609
