Measurement: Raman, 514 nm, ccw, Raman Data Processed
Mineral: Mimetite
Rruff sample: R050007
Ideal chemistry: Pb^2+^_5_(As^5+^O_4_)_3_Cl
Locality: Pingtouling, Guangdong, China
Source: Eugene Schlepp
Description: Reddish orange colored hexagonal prisms
Measured chemistry: Pb_5.00_((As_0.99_P_0.01_)O_4_)_3_Cl_1.00_
Pin_id: L00370
Orientation: Laser parallel to a* (1 0 0). Fiducial mark perpendicular to laser is parallel to c [0 0 1]
Raman shift (cm-1)	intensity
48.666	0
52.873	2.344
57.079	98.502
61.283	222.543
65.484	414.549
69.684	162.764
73.881	19.766
78.076	3.153
82.27	58.325
86.461	637.769
90.65	1411.68
94.838	2324.72
99.023	4355.69
103.206	5824.32
107.387	5385.09
111.566	4727.93
115.744	4400.85
119.919	3792.88
124.092	3653.06
128.263	3474.42
132.432	3344.99
136.599	3364.59
140.764	3352.22
144.927	3436.95
149.088	3611.66
153.247	3789.52
157.404	3990.02
161.559	4331.25
165.711	4795.46
169.862	5096.86
174.011	5052.42
178.158	4699.14
182.303	4249.03
186.446	3715.11
190.587	2942.4
194.726	2323.91
198.862	1867.64
202.997	1438.63
207.13	1144.88
211.261	861.577
215.39	659.627
219.517	519.84
223.642	368.919
227.765	289.396
231.886	177.035
236.005	149.025
240.122	67.653
244.237	33.083
248.35	8.777
252.461	21.373
256.57	59.458
260.677	41.497
264.782	50.12
268.885	35.674
272.986	45.122
277.085	100.885
281.182	188.608
285.278	318.285
289.371	556.907
293.462	948.467
297.552	1737.03
301.639	2883.7
305.724	4177.95
309.808	5585.22
313.889	6537.86
317.969	5791.62
322.046	4674.45
326.122	4280.15
330.196	4516.34
334.267	5209.34
338.337	5579.34
342.405	5253.98
346.471	4330.65
350.535	3269.11
354.597	2348.78
358.657	1769.71
362.715	1490.25
366.771	1477.06
370.825	1635.34
374.877	1575.51
378.928	1361.59
382.976	1281.44
387.023	1422.65
391.067	1514.64
395.11	1554.66
399.15	1676.77
403.189	2279.11
407.226	2913.2
411.261	2922.88
415.294	2252.32
419.325	1815.33
423.354	1666.7
427.381	1457.69
431.406	1101.14
435.43	860.835
439.451	732.052
443.471	538.009
447.488	405.294
451.504	273.32
455.518	219.911
459.53	183.169
463.54	114.127
467.548	119.771
471.554	68.166
475.558	60.152
479.561	65.861
483.561	27.183
487.559	47.105
491.556	51.648
495.551	21.902
499.544	5.654
503.535	9.041
507.524	0.967
511.511	1.526
515.496	4.291
519.48	3.689
523.461	30.575
527.441	31.051
531.418	8.91
535.394	17.559
539.368	10.546
543.34	3.973
547.311	9.98
551.279	3.388
555.245	14.831
559.21	12.698
563.173	21.801
567.133	2.69
571.092	6.064
575.049	9.487
579.005	0.369
582.958	3.502
586.909	24.163
590.859	8.668
594.807	35.951
598.753	34.996
602.697	60.809
606.639	42.401
610.579	67.781
614.518	59.957
618.454	86.852
622.389	67.092
626.322	14.807
630.253	56.947
634.182	11.639
638.109	6.999
642.035	9.518
645.958	11.098
649.88	19.886
653.8	7.967
657.718	18.746
661.634	28.5
665.549	14.238
669.461	0.321
673.372	19.142
677.281	34.52
681.188	47.324
685.093	21.295
688.997	29.953
692.898	40.447
696.798	89.242
700.696	92.505
704.592	135.628
708.486	159.554
712.378	206.527
716.269	250.409
720.158	302.221
724.045	367.481
727.93	413.555
731.813	501.036
735.694	602.707
739.574	774.286
743.452	929.426
747.328	1236.8
751.202	1642.59
755.075	2458.68
758.945	3625.98
762.814	5225.59
766.681	5856.41
770.546	5139.4
774.409	4562.54
778.271	4675.81
782.131	5650.17
785.989	6717.8
789.845	7224.6
793.699	8115.56
797.552	10859.8
801.402	19024.1
805.251	37458.7
809.098	46993.4
812.944	51658.4
816.787	44693.5
820.629	27298.8
824.469	16744.4
828.307	12120.1
832.144	9726.2
835.978	8082.53
839.811	6659.54
843.642	5647.9
847.472	4780.12
851.299	4226.55
855.125	3648.3
858.949	3027.24
862.771	2343.4
866.591	1956.89
870.41	1670.42
874.227	1531.2
878.042	1413.52
881.855	1333.22
885.667	1240.34
889.476	1082.28
893.284	911.702
897.09	738.022
900.895	670.077
904.698	547.005
908.499	467.569
912.298	441.089
916.095	473.704
919.891	469.444
923.685	406.626
927.477	272.134
931.267	271.873
935.056	223.95
938.843	197.836
942.628	168.722
946.411	191.882
950.193	131.132
953.973	171.672
957.751	150.303
961.527	164.124
965.302	121.862
969.075	87.385
972.846	91.734
976.615	101.878
980.383	37.229
984.149	83.49
987.913	48.865
991.675	51.216
995.436	36.608
999.195	87.033
1002.95	51.488
1006.71	15.966
1010.46	16.465
1014.21	11.998
1017.96	2.456
1021.71	29.087
1025.46	34.622
1029.2	4.847
1032.95	7.349
1036.69	67.923
1040.43	2.363
1044.17	5.387
1047.9	3.224
1051.64	10.812
1055.37	20.326
1059.1	11.625
1062.83	51.971
1066.56	22.517
1070.29	38.028
1074.01	62.473
1077.73	15.86
1081.46	12.81
1085.17	15.634
1088.89	2.64
1092.61	15.177
1096.32	56.868
1100.04	27.457
1103.75	22.932
1107.46	29.289
1111.16	36.554
1114.87	32.727
1118.57	35.799
1122.28	140.781
1125.98	85.673
1129.67	71.471
1133.37	94.213
1137.07	146.829
1140.76	84.322
1144.45	91.815
1148.14	110.112
1151.83	110.759
1155.52	147.967
1159.21	154.597
1162.89	163.935
1166.57	151.093
1170.25	179.473
1173.93	164.87
1177.61	180.501
1181.28	223.189
1184.96	247.386
1188.63	227.484
1192.3	204.22
1195.97	195.091
1199.64	166.245
1203.3	238.611
1206.97	210.483
1210.63	215.43
1214.29	230.353
1217.95	243.107
1221.6	238.558
1225.26	205.675
1228.91	207.337
1232.57	221.823
1236.21	200.75
1239.86	235.55
1243.51	221.705
1247.16	192.051
1250.8	184.09
1254.44	179.579
1258.08	147.626
1261.72	146.166
1265.36	121.509
1268.99	175.693
1272.63	164.17
1276.26	148.275
1279.89	143.348
1283.52	114.263
1287.15	130.074
1290.77	81.703
1294.4	39.215
1298.02	70.521
1301.64	73.681
1305.26	76.715
1308.88	47.439
1312.49	66.041
1316.11	53.51
1319.72	58.044
1323.33	18.219
1326.94	22.208
1330.55	15.095
1334.15	49.858
1337.76	56.49
1341.36	42.008
1344.96	21.479
1348.56	6.861
1352.16	17.18
1355.75	4.662
1359.35	45.394
1362.94	13.292
1366.53	8.896
1370.12	16.23
1373.71	34.341
1377.3	77.102
1380.88	74.271
1384.46	43.264
1388.05	59.201
1391.63	48.055
1395.2	16.802
1398.78	27.424
1402.36	30.862
1405.93	104.149
1409.5	0.949
1413.07	98.565
1416.64	126.526
1420.21	81.927
1423.78	98.156
1427.34	59.937
1430.9	78.258
1434.46	56.002
1438.02	68.982
1441.58	64.063
1445.13	59.401
1448.69	95.388
1452.24	97.844
1455.79	64.208
1459.34	86.517
1462.89	63.7
1466.44	59.133
1469.98	50.919
1473.53	67.155
1477.07	52.133
1480.61	48.042
1484.14	35.143
1487.68	47.461
1491.22	54.408
1494.75	72.071
1498.28	65.849
1501.81	47.862
1505.34	46.847
1508.87	35.034
1512.4	57.947
1515.92	1.122
1519.44	5.736
