Measurement: Raman, 514 nm, ccw, Raman Data Processed
Mineral: Mimetite
Rruff sample: R060920
Ideal chemistry: Pb^2+^_5_(As^5+^O_4_)_3_Cl
Locality: Tsumeb mine, Tsumeb, Otavi District, Oshikoto, Namibia
Source: Marcus Origlieri
Description: Yellow to brownish hexagonal prism, monoclinic polytype
Pin_id: L01165
Orientation: Laser parallel to -c* (0 0 -1). Fiducial mark perpendicular to laser is parallel to b [0 1 0]
Raman shift (cm-1)	intensity
42.248	0
47.226	27.5774
52.202	70.4381
57.176	117.916
62.146	113.171
67.115	37.2788
72.08	19.907
77.043	31.1938
82.003	193.859
86.961	1036.44
91.916	2564.65
96.869	5147.09
101.819	6441.59
106.766	6273.07
111.711	5888.43
116.653	5377.58
121.592	4962.63
126.529	4609.88
131.464	4629.03
136.395	4941.82
141.324	5139.1
146.251	5119.05
151.175	4928.7
156.096	4794.06
161.015	4864.24
165.931	4885.88
170.844	4944.31
175.755	4693.37
180.663	4437.04
185.569	4046.32
190.472	3748.48
195.373	3443.72
200.27	2913.53
205.166	2581.86
210.058	2158.4
214.948	1833.66
219.836	1519.16
224.721	1245.55
229.603	1096.04
234.482	925.047
239.359	768.447
244.234	665.182
249.106	610.178
253.975	424.397
258.841	490.808
263.705	352.506
268.567	307.94
273.425	282.552
278.281	241.2
283.135	275.877
287.986	423.569
292.834	748.193
297.68	1228.71
302.523	1921.08
307.363	2375.26
312.201	2417.22
317.037	2066.53
321.869	1804.64
326.699	2135.38
331.527	2684.05
336.351	3115.44
341.174	3036.38
345.993	2400.77
350.81	1774.15
355.625	1458.23
360.436	1787.05
365.245	2660.7
370.052	3048.05
374.856	2339.68
379.657	1407.31
384.456	909.849
389.252	892.776
394.045	792.049
398.836	878.923
403.625	1028.27
408.41	1376.03
413.193	1861.3
417.974	2198.94
422.751	2211.35
427.527	1553.44
432.299	859.217
437.069	524.63
441.836	274.864
446.601	161.608
451.363	56.4166
456.123	18.8594
460.88	13.9033
465.634	26.3226
470.386	29.5746
475.135	71.9052
479.881	25.4918
484.625	55.3223
489.366	1.55847
494.105	26.0729
498.84	10.9345
503.574	5.97375
508.305	20.4987
513.033	17.1409
517.758	28.8961
522.481	23.896
527.201	38.9822
531.919	11.2703
536.634	25.2323
541.346	14.5489
546.056	55.2753
550.763	33.5413
555.468	54.3837
560.17	70.8269
564.869	23.8295
569.566	57.3066
574.26	80.2683
578.952	77.0008
583.641	89.2965
588.327	87.2438
593.011	120.851
597.692	182.834
602.37	199.46
607.046	226.818
611.719	173.272
616.39	203.288
621.058	158.887
625.723	133.807
630.386	130.524
635.046	82.2848
639.703	91.5521
644.358	29.0416
649.01	61.7677
653.66	5.02551
658.307	58.1255
662.951	37.2301
667.593	8.84546
672.232	25.0503
676.869	13.5939
681.503	42.8395
686.134	14.7803
690.763	18.5076
695.389	79.22
700.013	78.4893
704.633	118.451
709.252	188.479
713.867	291.317
718.48	359.163
723.091	409.579
727.698	500.413
732.304	664.522
736.906	798.698
741.506	1058.94
746.103	1290.25
750.698	2004.12
755.29	3346.22
759.88	5823.99
764.467	8178.99
769.051	8732.3
773.632	7879.78
778.211	8247.52
782.788	10476.1
787.362	12015.7
791.933	12793.6
796.501	19068.5
801.067	37638
805.631	57057.1
810.191	53750.8
814.749	37999.2
819.305	20795.9
823.858	9854.89
828.408	5893.21
832.956	4240.79
837.501	3208.04
842.043	2548.68
846.583	2150.89
851.12	1809.56
855.654	1473.48
860.186	1247.26
864.716	1049.61
869.242	856.961
873.766	861.816
878.288	683.878
882.807	695.026
887.323	577.354
891.837	522.647
896.348	489.255
900.856	347.984
905.362	189.844
909.865	222.071
914.366	384.602
918.864	439.048
923.359	387.06
927.852	108.961
932.342	87.8003
936.829	10.2827
941.314	46.373
945.796	1.99829
950.276	59.9019
954.753	48.1777
959.228	21.1958
963.699	0.614746
968.169	7.19092
972.635	43.7957
977.099	20.7893
981.56	38.8005
986.019	19.1746
990.475	19.9414
994.929	33.1938
999.38	13.9956
1003.83	26.7786
1008.27	14.4934
1012.72	32.2793
1017.16	3.16113
1021.6	10.4568
1026.03	17.103
1030.46	23.1235
1034.89	9.21435
1039.32	28.3042
1043.74	4.16382
1048.17	5.89356
1052.59	23.5872
1057	35.6133
1061.42	36.5581
1065.83	0.299316
1070.24	41.905
1074.65	80.3674
1079.05	21.5928
1083.45	52.6321
1087.85	30.5117
1092.25	22.2524
1096.64	75.884
1101.03	64.2927
1105.42	62.3721
1109.8	116.642
1114.19	42.4487
1118.57	48.8962
1122.95	80.6787
1127.32	95.4583
1131.69	64.0842
1136.06	131.798
1140.43	73.4028
1144.8	79.2373
1149.16	122.15
1153.52	140.663
1157.87	69.2969
1162.23	111.497
1166.58	87.365
1170.93	95.1628
1175.28	114.298
1179.62	74.5364
1183.96	96.0098
1188.3	102.124
1192.64	59.197
1196.97	84.335
1201.3	122.946
1205.63	78.279
1209.95	101.909
1214.28	137.853
1218.6	73.0391
1222.92	120.817
1227.23	157.121
1231.55	66.604
1235.86	152.128
1240.16	129.591
1244.47	92.0461
1248.77	74.459
1253.07	65.6218
1257.37	112.399
1261.66	96.7173
1265.95	112.065
1270.24	89.4321
1274.53	53.6111
1278.81	60.9202
1283.09	50.3149
1287.37	44.8325
1291.65	103.212
1295.92	85.5881
1300.19	28.9482
1304.46	17.301
1308.73	31.6939
1312.99	56.134
1317.25	58.8049
1321.51	26.5994
1325.77	15.002
1330.02	36.6475
1334.27	54.3066
1338.52	3.02661
1342.76	2.65234
1347	39.4048
1351.24	16.3018
1355.48	54.6348
1359.72	33.3481
1363.95	65.2495
1368.18	19.8809
1372.4	61.5981
1376.63	19.2441
1380.85	19.8884
1385.07	57.5405
1389.29	50.2146
1393.5	55.9067
1397.71	97.5945
1401.92	58.1702
1406.13	48.7563
1410.33	113.346
1414.53	52.8623
1418.73	66.4446
1422.92	17.052
1427.12	94.6081
1431.31	85.219
1435.5	82.9343
1439.68	52.8582
1443.87	46.5112
1448.05	94.5503
1452.22	100.575
1456.4	17.7056
1460.57	36.9839
1464.74	57.7751
1468.91	46.6668
1473.07	104.495
1477.23	24.4507
1481.39	58.3503
1485.55	33.6528
1489.7	64.8286
1493.86	23.5252
1498.01	37.2983
1502.15	92.1868
1506.3	121.964
1510.44	81.8267
1514.58	129.045
1518.71	52.3389
1522.85	136.249
1526.98	179.771
1531.11	24.0388
1535.23	83.4602
1539.35	79.645
1543.47	46.5972
1547.59	58.696
1551.71	84.8655
1555.82	51.4956
1559.93	102.084
