Measurement: Raman, 514 nm, ccw, Raman Data Processed
Mineral: Mimetite
Rruff sample: R050527
Ideal chemistry: Pb^2+^_5_(As^5+^O_4_)_3_Cl
Locality: Tsumeb mine, Tsumeb, Otavi District, Oshikoto, Namibia
Source: University of Arizona Mineral Museum
Description: Yellow hexagonal prisms, monoclinic polytype
Measured chemistry: Pb_5.00_(As_1.00_O_4_)_3_Cl_1.00_
Pin_id: M00655
Orientation: Laser parallel to a* (1 0 0). Fiducial mark perpendicular to laser is parallel to c [0 0 1]
Raman shift (cm-1)	intensity
43.476	0
48.456	16.7748
53.434	45.5695
58.408	72.1822
63.38	46.9038
68.349	1.61121
73.316	12.869
78.279	5.99329
83.24	169.928
88.199	823.421
93.154	1638.97
98.107	2974.36
103.057	4603.51
108.004	4551.37
112.949	4091.92
117.891	3736.09
122.83	3340.32
127.767	2920.19
132.7	2816.54
137.631	2773.32
142.56	2955.99
147.485	3421.62
152.408	3929.25
157.328	4413.94
162.246	4673.61
167.16	4982.31
172.073	4773.01
176.982	3764.72
181.888	2842.41
186.792	2291.04
191.694	1804.44
196.592	1525.58
201.488	1252.43
206.381	1015.91
211.271	845.973
216.159	693.327
221.044	573.921
225.926	408.7
230.806	346.161
235.683	292.584
240.557	217.868
245.429	230.094
250.298	137.899
255.164	88.6445
260.027	65.146
264.888	6.3584
269.746	2.70569
274.601	38.8756
279.454	58.1018
284.304	135.961
289.151	318.457
293.996	809.574
298.838	1567.27
303.677	2436.53
308.514	2253.32
313.348	1858.6
318.179	1925.34
323.008	2457.52
327.834	3664.11
332.657	4912.09
337.478	5098.46
342.295	4415.27
347.111	3237.29
351.923	2158.3
356.733	1401.79
361.54	953.413
366.345	691.05
371.147	537.012
375.946	566.556
380.743	795.651
385.537	1158.57
390.328	1638.14
395.116	1607.26
399.902	1927.21
404.686	2754.31
409.466	3396.78
414.244	2614.22
419.019	1638.76
423.792	1338.64
428.562	1166.06
433.329	1077.96
438.094	951.188
442.856	831.486
447.616	693.137
452.372	557.349
457.126	374.793
461.878	241.799
466.627	117.746
471.373	74.6641
476.116	62.0333
480.857	32.3603
485.596	17.1622
490.331	7.19922
495.064	6.56329
499.795	30.9703
504.522	6.19824
509.247	14.3694
513.97	21.7374
518.69	31.7909
523.407	5.01001
528.121	18.5524
532.833	21.5619
537.543	35.7225
542.249	13.9004
546.953	24.0393
551.655	4.76337
556.354	14.0896
561.05	36.4631
565.743	8.47772
570.434	8.9693
575.123	6.57111
579.808	22.1782
584.491	13.6641
589.172	35.7818
593.85	30.5723
598.525	62.0637
603.197	88.2888
607.868	81.2528
612.535	72.9567
617.2	58.4023
621.862	88.5913
626.522	57.5246
631.178	36.2316
635.833	46.3574
640.485	34.0179
645.134	13.6847
649.78	25.7477
654.424	14.2491
659.066	20.1462
663.704	17.5842
668.341	14.3502
672.974	26.0087
677.605	8.47498
682.234	16.448
686.859	7.06763
691.483	22.1252
696.103	15.6354
700.721	28.7011
705.337	62.0614
709.949	70.8012
714.56	87.0136
719.167	120.749
723.772	140.419
728.375	184.7
732.975	229.879
737.572	325.142
742.167	406.558
746.759	623.037
751.349	987.548
755.936	1785.1
760.52	3040.71
765.102	4013.33
769.681	2979.99
774.258	1885.84
778.832	1579.54
783.404	1852.31
787.973	2329.55
792.539	3229.03
797.103	6232.38
801.665	15948.4
806.223	37082
810.779	54949.7
815.333	60296.3
819.884	39230.7
824.433	18589.3
828.979	10006.2
833.522	6467.27
838.063	4492.71
842.601	3557.37
847.137	2813.28
851.67	2233.43
856.2	1807.8
860.729	1449.42
865.254	1152.23
869.777	883.266
874.297	755.604
878.815	644.008
883.33	505.532
887.843	467.787
892.353	370.643
896.861	291.312
901.366	223.78
905.869	176.428
910.369	149.393
914.866	115.19
919.361	127.935
923.854	93.0339
928.344	52.3179
932.831	14.3095
937.316	13.2973
941.798	4.78241
946.278	33.0147
950.755	40.0848
955.23	23.7602
959.702	52.9141
964.171	21.8956
968.638	23.5269
973.103	35.0143
977.565	17.5442
982.025	39.3658
986.482	22.6271
990.936	38.9158
995.388	10.2255
999.837	10.5586
1004.28	34.9525
1008.73	23.369
1013.17	24.6993
1017.61	3.02246
1022.05	16.3245
1026.48	19.6003
1030.91	3.15674
1035.34	19.9605
1039.77	7.1571
1044.19	5.80359
1048.62	13.8791
1053.03	20.0776
1057.45	11.4398
1061.87	12.0401
1066.28	2.57831
1070.69	4.62244
1075.09	11.3905
1079.5	9.49799
1083.9	9.23615
1088.3	8.83026
1092.69	3.69995
1097.09	25.6086
1101.48	4.42242
1105.87	28.7698
1110.26	22.6667
1114.64	37.4542
1119.02	83.1438
1123.4	100.739
1127.78	53.2089
1132.15	44.6103
1136.53	34.8768
1140.89	61.9235
1145.26	68.9753
1149.63	68.9899
1153.99	78.0875
1158.35	63.1511
1162.7	76.1027
1167.06	70.5124
1171.41	73.7513
1175.76	50.3982
1180.11	62.0092
1184.45	62.8498
1188.79	70.3719
1193.13	68.2904
1197.47	70.3446
1201.81	84.8656
1206.14	68.5093
1210.47	95.3101
1214.79	105.63
1219.12	81.3533
1223.44	81.3106
1227.76	95.8558
1232.08	65.2359
1236.39	79.8881
1240.7	80.8548
1245.02	73.0383
1249.32	56.2732
1253.63	70.469
1257.93	43.6214
1262.23	61.675
1266.53	33.6019
1270.82	45.5515
1275.12	47.5832
1279.41	23.5145
1283.69	28.428
1287.98	32.2866
1292.26	29.1213
1296.54	28.9512
1300.82	34.0144
1305.1	12.8195
1309.37	30.6682
1313.64	22.5249
1317.91	20.3943
1322.17	34.2996
1326.44	21.2079
1330.7	6.15289
1334.96	0.52182
1339.21	20.5099
1343.47	21.5431
1347.72	1.33026
1351.97	8.73187
1356.21	12.0312
1360.46	1.24759
1364.7	20.3357
1368.94	7.50494
1373.17	19.5886
1377.41	3.66821
1381.64	8.74463
1385.87	13.8191
1390.1	34.9351
1394.32	6.93289
1398.54	1.01428
1402.76	5.017
1406.98	17.0337
1411.19	19.1017
1415.41	11.1539
1419.62	15.2563
1423.82	2.70438
1428.03	12.4646
1432.23	13.8269
1436.43	31.9787
1440.63	33.4715
1444.82	17.622
1449.02	7.47919
1453.21	21.5923
1457.4	7.27469
1461.58	13.5966
1465.77	18.6517
1469.95	2.22076
1474.12	7.32928
1478.3	7.51477
1482.47	0.722076
1486.64	31.2118
1490.81	13.2903
1494.98	11.1679
1499.14	18.0523
1503.31	46.0598
1507.47	101.11
1511.62	96.19
1515.78	22.2493
1519.93	57.9043
1524.08	47.0422
1528.23	39.825
1532.37	16.5551
1536.51	22.542
1540.65	30.5847
1544.79	17.761
1548.93	23.277
1553.06	37.2779
1557.19	21.9932
1561.32	13.9561
