Measurement: Raman, 514 nm, ccw, Raman Data Processed
Mineral: Mimetite
Rruff sample: R050007
Ideal chemistry: Pb^2+^_5_(As^5+^O_4_)_3_Cl
Locality: Pingtouling, Guangdong, China
Source: Eugene Schlepp
Description: Reddish orange colored hexagonal prisms
Measured chemistry: Pb_5.00_((As_0.99_P_0.01_)O_4_)_3_Cl_1.00_
Pin_id: L00097
Orientation: Laser parallel to c* (0 0 1). Fiducial mark perpendicular to laser is parallel to -a [-1 0 0]
Raman shift (cm-1)	intensity
49.365	0
53.566	130.743
57.765	506.892
61.962	654.947
66.157	638.604
70.349	323.833
74.54	112.131
78.729	97.094
82.916	84.259
87.101	508.579
91.284	1131.46
95.465	2686.6
99.644	4865.65
103.82	5050.18
107.995	4629
112.168	4279.01
116.339	3927.11
120.508	3658.25
124.675	3542.4
128.84	3506.56
133.003	3496.72
137.164	3516.86
141.323	3453.66
145.48	3462.75
149.635	3387.45
153.788	3289.23
157.939	3073.5
162.088	3198.26
166.235	3180.49
170.38	3142.18
174.523	2999.31
178.664	2758.89
182.803	2582.95
186.94	2432.47
191.076	2157.59
195.209	1939.32
199.34	1784.79
203.47	1523.95
207.597	1268.75
211.722	1131.14
215.846	1013.65
219.967	862.741
224.087	760.623
228.204	702.354
232.32	600.156
236.434	501.648
240.545	466.394
244.655	364.888
248.763	279.374
252.869	215.902
256.973	120.88
261.075	91.183
265.175	24.787
269.273	26.665
273.369	20.772
277.463	46.086
281.556	22.587
285.646	70.257
289.734	152.077
293.821	207.075
297.905	379.68
301.988	601.542
306.069	830.741
310.147	1033.69
314.224	1052.98
318.299	1093.88
322.372	1067.89
326.443	1206.12
330.512	1379.26
334.579	1630.31
338.645	1574.32
342.708	1459.95
346.769	1190.69
350.829	972.449
354.887	868.17
358.942	996.076
362.996	1403.89
367.048	2048.25
371.098	2240.38
375.146	1771.18
379.192	1309.73
383.236	1103.24
387.279	1049.08
391.319	944.199
395.358	914.712
399.394	838.034
403.429	898.799
407.462	1013.37
411.493	1204.41
415.522	1422.64
419.549	1655.33
423.575	1525.13
427.598	1113.38
431.619	777.392
435.639	542.767
439.657	434.922
443.673	264.862
447.687	169.597
451.699	101.122
455.709	87.431
459.717	36.514
463.724	52.356
467.728	0.05
471.731	41.269
475.732	23.447
479.731	12.757
483.728	11.885
487.723	14.788
491.716	10.945
495.708	26.691
499.697	42.778
503.685	4.646
507.671	14.381
511.655	48.873
515.637	37.871
519.617	5.366
523.596	51.296
527.572	30.707
531.547	24.62
535.52	35.028
539.491	4.918
543.46	23.206
547.427	10.152
551.393	9.217
555.356	9.956
559.318	6.353
563.278	16.571
567.236	19.853
571.192	26.474
575.147	17.444
579.099	6.7
583.05	15.198
586.999	5.97
590.946	50.03
594.891	22.82
598.834	19.424
602.776	28.841
606.715	52.079
610.653	76.115
614.589	35.906
618.523	62.889
622.456	39.842
626.386	54.658
630.315	36.957
634.242	45.114
638.167	20.759
642.09	8.663
646.012	18.604
649.931	40.237
653.849	85.187
657.765	28.347
661.679	41.802
665.592	94.937
669.502	95.013
673.411	84.917
677.318	88.915
681.223	155.009
685.126	177.65
689.028	205.531
692.927	245.615
696.825	293.408
700.721	350.094
704.616	431.513
708.508	488.545
712.399	526.204
716.288	571.899
720.175	753.071
724.06	824.454
727.944	977.496
731.825	1044.35
735.705	1261.77
739.584	1486.94
743.46	1771.58
747.334	2199.36
751.207	2821.05
755.078	3955.55
758.947	5539.02
762.815	7046.71
766.68	7388.66
770.544	7154.86
774.406	6848.34
778.267	7539.06
782.125	9065.03
785.982	10642.3
789.837	12329.6
793.69	15707
797.542	23076.5
801.391	37733.3
805.239	50991.9
809.085	46660.8
812.93	35290.1
816.772	22249.7
820.613	14869.6
824.452	11529.9
828.29	9750.49
832.125	8521.44
835.959	6992.73
839.791	6092.36
843.621	5192.35
847.45	4695.7
851.277	4091.38
855.102	3287.36
858.925	2611.62
862.746	2072.12
866.566	1773.16
870.384	1499.42
874.2	1365.31
878.015	1173.67
881.828	1129.14
885.639	996.453
889.448	874.409
893.256	804.819
897.061	746.184
900.865	660.358
904.668	615.583
908.468	601.719
912.267	682.028
916.064	851.601
919.86	821.394
923.653	594.117
927.445	391.779
931.236	295.613
935.024	190.999
938.811	208.157
942.596	206.527
946.379	147.176
950.161	124.01
953.94	121.42
957.719	129.891
961.495	95.043
965.27	135.088
969.043	60.019
972.814	73.268
976.583	50.01
980.351	45.88
984.117	63.816
987.882	53.28
991.644	46.39
995.405	25.729
999.165	46.952
1002.92	57.154
1006.68	23.301
1010.43	42.453
1014.18	19.647
1017.93	11.09
1021.68	24.975
1025.43	20.489
1029.18	19.969
1032.92	1.904
1036.66	12.266
1040.4	16.513
1044.14	18.753
1047.88	13.153
1051.62	7.296
1055.35	10.381
1059.08	21.247
1062.81	11.312
1066.54	36.566
1070.27	16.058
1073.99	23.787
1077.72	20.235
1081.44	7.895
1085.16	3.771
1088.88	18.267
1092.59	6.359
1096.31	21.844
1100.02	48.865
1103.73	49.737
1107.44	8.487
1111.15	54.074
1114.86	68.51
1118.57	35.809
1122.27	114.962
1125.97	77.99
1129.67	73.889
1133.37	60.653
1137.07	120.27
1140.76	105.741
1144.45	72.196
1148.15	97.557
1151.84	129.853
1155.53	120.108
1159.21	89.255
1162.9	146.238
1166.58	116.7
1170.26	112.394
1173.94	131.491
1177.62	151.108
1181.3	135.636
1184.97	160.205
1188.65	179.278
1192.32	165.631
1195.99	171.373
1199.66	166.528
1203.33	185.207
1206.99	193.05
1210.65	170.962
1214.32	154.184
1217.98	158.577
1221.64	154.092
1225.29	170.611
1228.95	148.81
1232.6	211.981
1236.26	176.742
1239.91	152.602
1243.56	155.071
1247.2	147.882
1250.85	145.496
1254.49	151.79
1258.13	141.381
1261.78	164.848
1265.41	185.661
1269.05	139.334
1272.69	121.472
1276.32	143.569
1279.95	104.845
1283.59	108.488
1287.21	96.351
1290.84	72.335
1294.47	82.573
1298.09	59.704
1301.72	61.825
1305.34	69.447
1308.96	64.327
1312.58	22.696
1316.19	42.074
1319.81	64.6
1323.42	38.348
1327.03	41.505
1330.64	37.135
1334.25	12.719
1337.86	37.008
1341.46	45.233
1345.07	22.112
1348.67	25.824
1352.27	12.432
1355.87	3.956
1359.46	4.304
1363.06	10.482
1366.65	45.41
1370.25	45.322
1373.84	15.802
1377.43	2.151
1381.02	2.162
1384.6	33.819
1388.18	14.391
1391.77	12.872
1395.35	0.252
1398.93	24.49
1402.51	38.595
1406.08	59.425
1409.66	45.712
1413.23	13.393
1416.8	43.732
1420.37	12.942
1423.94	23.555
1427.51	30.752
1431.08	74.94
1434.64	132.724
1438.2	65.231
1441.76	40.374
1445.32	21.828
1448.88	39.397
1452.43	39.626
1455.99	41.783
1459.54	6.7
1463.09	36.669
1466.64	28.053
1470.19	65.341
1473.74	30.649
1477.28	35.318
1480.83	32.58
1484.37	43.978
1487.91	38.823
1491.45	45.857
1494.98	59.998
1498.52	19.283
1502.05	38.577
1505.59	7.565
1509.12	22.564
1512.65	38.002
1516.17	33.115
1519.7	0
