Measurement: Raman, 514 nm, ccw, Raman Data Processed
Mineral: Mimetite
Rruff sample: R050007
Ideal chemistry: Pb^2+^_5_(As^5+^O_4_)_3_Cl
Locality: Pingtouling, Guangdong, China
Source: Eugene Schlepp
Description: Reddish orange colored hexagonal prisms
Measured chemistry: Pb_5.00_((As_0.99_P_0.01_)O_4_)_3_Cl_1.00_
Pin_id: L00097
Orientation: Laser parallel to c* (0 0 1). Fiducial mark perpendicular to laser is parallel to -a [-1 0 0]
Raman shift (cm-1)	intensity
49.365	0
53.566	132.005
57.765	471.107
61.962	704.08
66.157	482.133
70.349	320.07
74.54	159.237
78.729	54.783
82.916	90.268
87.101	479.801
91.284	1209.42
95.465	2827.86
99.644	5210.83
103.82	5324.96
107.995	4764.37
112.168	4486.76
116.339	4015.92
120.508	3681.83
124.675	3494.46
128.84	3531.82
133.003	3460.92
137.164	3484.79
141.323	3489.2
145.48	3521.84
149.635	3382.16
153.788	3238.4
157.939	3116
162.088	3112.74
166.235	3053.77
170.38	3135.22
174.523	2967.99
178.664	2816.14
182.803	2549.64
186.94	2438.5
191.076	2074.78
195.209	1881.57
199.34	1675.89
203.47	1413.68
207.597	1193.94
211.722	1069.76
215.846	893.705
219.967	822.038
224.087	684.337
228.204	579.329
232.32	514.9
236.434	480.885
240.545	333.928
244.655	256.072
248.763	197.817
252.869	179.017
256.973	169.731
261.075	79.669
265.175	49.808
269.273	25.094
273.369	13.497
277.463	11.995
281.556	13.586
285.646	43.237
289.734	90
293.821	232.135
297.905	417.135
301.988	654.442
306.069	881.828
310.147	1102.06
314.224	1135.87
318.299	1164.62
322.372	1131.76
326.443	1220.34
330.512	1455.16
334.579	1655.49
338.645	1696.84
342.708	1485.36
346.769	1210.24
350.829	987.641
354.887	907.244
358.942	1023.44
362.996	1470.58
367.048	2126.03
371.098	2236.48
375.146	1861.66
379.192	1344.33
383.236	1139.22
387.279	1049.04
391.319	990.781
395.358	851.058
399.394	855.588
403.429	884.365
407.462	1023.6
411.493	1206.86
415.522	1543.33
419.549	1726.25
423.575	1604.74
427.598	1181.27
431.619	813.077
435.639	598.237
439.657	445.959
443.673	302.782
447.687	222.685
451.699	176.331
455.709	105.711
459.717	67.806
463.724	57.598
467.728	50.081
471.731	28.284
475.732	57.135
479.731	59.666
483.728	15.829
487.723	24.743
491.716	9.839
495.708	8.862
499.697	1.618
503.685	0.641
507.671	7.778
511.655	4.664
515.637	1.978
519.617	21.136
523.596	64.179
527.572	37.078
531.547	37.536
535.52	38.526
539.491	20.04
543.46	1.04
547.427	12.551
551.393	11.819
555.356	14.218
559.318	37.409
563.278	7.273
567.236	8.328
571.192	15.3
575.147	15.642
579.099	17.272
583.05	15.515
586.999	15.044
590.946	19.645
594.891	1.45
598.834	31.353
602.776	38.072
606.715	56.609
610.653	56.916
614.589	38.505
618.523	48.164
622.456	48.49
626.386	2.582
630.315	14.488
634.242	50.259
638.167	4.659
642.09	56.809
646.012	35.357
649.931	23.476
653.849	41.764
657.765	29.499
661.679	72.219
665.592	55.991
669.502	55.843
673.411	95.589
677.318	123.068
681.223	194.585
685.126	184.379
689.028	215.325
692.927	211.371
696.825	298.012
700.721	364.323
704.616	369.064
708.508	452.001
712.399	537.925
716.288	602.332
720.175	697.162
724.06	819.39
727.944	978.353
731.825	1030.41
735.705	1238.06
739.584	1478.88
743.46	1781.68
747.334	2169.87
751.207	2984.31
755.078	3982.9
758.947	5810.95
762.815	7309.26
766.68	7745.83
770.544	7259.67
774.406	6977.79
778.267	7721.17
782.125	9208.83
785.982	10865.7
789.837	12682.9
793.69	15850.4
797.542	22648.2
801.391	38886.1
805.239	52754.5
809.085	47963.2
812.93	36162.2
816.772	22761.6
820.613	15261.3
824.452	11941.3
828.29	10201.7
832.125	8872.36
835.959	7366.42
839.791	6385.87
843.621	5432.71
847.45	4800.92
851.277	4256.49
855.102	3428.41
858.925	2637.62
862.746	2118.1
866.566	1706.85
870.384	1535.65
874.2	1400.8
878.015	1206.69
881.828	1152.1
885.639	1033.8
889.448	925.021
893.256	845.962
897.061	720.895
900.865	669.719
904.668	625.719
908.468	619.056
912.267	739.839
916.064	873.979
919.86	857.382
923.653	585.057
927.445	357.592
931.236	322.687
935.024	248.113
938.811	208.86
942.596	191.495
946.379	169.366
950.161	117.425
953.94	127.74
957.719	120.504
961.495	108.594
965.27	94.763
969.043	66.916
972.814	18.482
976.583	59.36
980.351	24.398
984.117	69.597
987.882	71.337
991.644	37.745
995.405	59.956
999.165	23.158
1002.92	5.032
1006.68	31.551
1010.43	17.879
1014.18	4.225
1017.93	1.578
1021.68	23.145
1025.43	21.153
1029.18	18.447
1032.92	3.302
1036.66	12.761
1040.4	4.748
1044.14	14.326
1047.88	10.491
1051.62	15.777
1055.35	55.181
1059.08	53.785
1062.81	38.622
1066.54	33.669
1070.27	8.955
1073.99	16.433
1077.72	13.129
1081.44	11.017
1085.16	17.902
1088.88	19.655
1092.59	33.255
1096.31	27.68
1100.02	29.946
1103.73	50.072
1107.44	9.069
1111.15	32.904
1114.86	46.613
1118.57	55.17
1122.27	117.582
1125.97	69.859
1129.67	83.002
1133.37	80.008
1137.07	97.865
1140.76	84.564
1144.45	103.13
1148.15	53.766
1151.84	130.357
1155.53	117.926
1159.21	115.305
1162.9	133.378
1166.58	147.549
1170.26	141.188
1173.94	98.658
1177.62	155.533
1181.3	149.106
1184.97	149.494
1188.65	151.67
1192.32	161.557
1195.99	154.276
1199.66	204.038
1203.33	157.717
1206.99	197.219
1210.65	187.491
1214.32	181.151
1217.98	192.352
1221.64	177.335
1225.29	163.906
1228.95	167.122
1232.6	177.367
1236.26	185.277
1239.91	160.21
1243.56	172.373
1247.2	163.143
1250.85	135.938
1254.49	155.432
1258.13	168.58
1261.78	173.369
1265.41	158.831
1269.05	157.878
1272.69	150.451
1276.32	135.792
1279.95	156.865
1283.59	115.276
1287.21	116.065
1290.84	87.146
1294.47	70.936
1298.09	74.203
1301.72	109.189
1305.34	79.303
1308.96	39.934
1312.58	53.265
1316.19	50.441
1319.81	28.237
1323.42	47.867
1327.03	54.466
1330.64	79.8
1334.25	60.132
1337.86	73.117
1341.46	48.977
1345.07	52.54
1348.67	55.11
1352.27	24.298
1355.87	1.57
1359.46	25.326
1363.06	43.193
1366.65	50.83
1370.25	39.257
1373.84	19.726
1377.43	10.516
1381.02	13.302
1384.6	0.21
1388.18	28.613
1391.77	27.897
1395.35	48.051
1398.93	30.065
1402.51	22.934
1406.08	49.669
1409.66	45.542
1413.23	49.797
1416.8	23.948
1420.37	9.695
1423.94	28.317
1427.51	11.746
1431.08	18.825
1434.64	44.206
1438.2	53.536
1441.76	63.477
1445.32	50.027
1448.88	39.713
1452.43	35.791
1455.99	37.821
1459.54	56.616
1463.09	58.398
1466.64	25.809
1470.19	78.14
1473.74	25.924
1477.28	29.173
1480.83	45.178
1484.37	50.711
1487.91	16.638
1491.45	44.879
1494.98	18.342
1498.52	24.616
1502.05	20.337
1505.59	4.942
1509.12	11.477
1512.65	1.893
1516.17	27.2
1519.7	0
