Measurement: Raman, 514 nm, ccw, Raman Data Processed
Mineral: Mimetite
Rruff sample: R050527
Ideal chemistry: Pb^2+^_5_(As^5+^O_4_)_3_Cl
Locality: Tsumeb mine, Tsumeb, Otavi District, Oshikoto, Namibia
Source: University of Arizona Mineral Museum
Description: Yellow hexagonal prisms, monoclinic polytype
Measured chemistry: Pb_5.00_(As_1.00_O_4_)_3_Cl_1.00_
Pin_id: M00655
Orientation: Laser parallel to a* (1 0 0). Fiducial mark perpendicular to laser is parallel to c [0 0 1]
Raman shift (cm-1)	intensity
43.476	0
48.456	20.172
53.434	43.0448
58.408	61.7148
63.38	46.5215
68.349	7.94675
73.316	2.67636
78.279	1.27701
83.24	132.551
88.199	581.781
93.154	1460.57
98.107	2935.76
103.057	4045.27
108.004	3583.06
112.949	3031.1
117.891	2698.34
122.83	2279.4
127.767	2079.94
132.7	2083.82
137.631	2029.03
142.56	2192.9
147.485	2262.48
152.408	2282.8
157.328	2157.85
162.246	2115.66
167.16	2162.19
172.073	2120.18
176.982	2060.42
181.888	1921.07
186.792	1858.41
191.694	1724.72
196.592	1579.81
201.488	1419.64
206.381	1234.13
211.271	1061.3
216.159	872.431
221.044	705.456
225.926	617.707
230.806	462.102
235.683	417.12
240.557	342.773
245.429	283.912
250.298	224.678
255.164	208.025
260.027	139.904
264.888	138.302
269.746	87.1774
274.601	76.4809
279.454	63.2269
284.304	42.4159
289.151	68.0238
293.996	182.053
298.838	384.46
303.677	757.231
308.514	831.35
313.348	787.801
318.179	680.571
323.008	613.653
327.834	673.642
332.657	819.22
337.478	952.054
342.295	992.473
347.111	800.108
351.923	609.458
356.733	472.552
361.54	573.733
366.345	893.961
371.147	1320.58
375.946	1013.33
380.743	538.794
385.537	388.61
390.328	352.47
395.116	344.361
399.902	354.24
404.686	349.19
409.466	501.579
414.244	686.353
419.019	1015.47
423.792	1264.85
428.562	992.014
433.329	578.835
438.094	328.339
442.856	174.166
447.616	131.796
452.372	53.2161
457.126	57.7158
461.878	27.9776
466.627	12.2311
471.373	21.5406
476.116	11.3868
480.857	14.65
485.596	45.4443
490.331	7.71905
495.064	39.1107
499.795	11.6849
504.522	28.3038
509.247	20.1841
513.97	11.5749
518.69	3.12109
523.407	11.9872
528.121	10.9608
532.833	0.0625
537.543	21.3891
542.249	4.37146
546.953	1.54938
551.655	11.5604
556.354	22.0088
561.05	10.8273
565.743	14.6583
570.434	12.6519
575.123	24.4299
579.808	22.9983
584.491	43.3907
589.172	34.6137
593.85	24.6727
598.525	78.5449
603.197	62.3061
607.868	89.8985
612.535	96.0023
617.2	83.6894
621.862	71.2104
626.522	47.705
631.178	72.3698
635.833	40.7382
640.485	23.8384
645.134	27.5128
649.78	2.7782
654.424	26.8743
659.066	9.33972
663.704	8.65643
668.341	12.572
672.974	9.27832
677.605	5.73334
682.234	3.14752
686.859	16.7248
691.483	44.9379
696.103	18.6813
700.721	44.473
705.337	82.5932
709.949	116.769
714.56	147.833
719.167	225.893
723.772	195.981
728.375	256.026
732.975	327.185
737.572	423.723
742.167	585.292
746.759	767.9
751.349	1048.57
755.936	1868.31
760.52	3330.16
765.102	5111.1
769.681	4814.15
774.258	3670.29
778.832	3435.53
783.404	4310.78
787.973	5237.03
792.539	5854.1
797.103	8629.82
801.665	17789.3
806.223	34286.9
810.779	33770.8
815.333	24604
819.884	13250.2
824.433	6144.52
828.979	3611.91
833.522	2442.33
838.063	1853.88
842.601	1505.86
847.137	1232.34
851.67	1088.57
856.2	884.191
860.729	696.64
865.254	641.327
869.777	506.459
874.297	460.889
878.815	446.557
883.33	398.47
887.843	349.51
892.353	319.507
896.861	295.695
901.366	227.137
905.869	197.226
910.369	163.861
914.866	134.471
919.361	169.522
923.854	151.648
928.344	44.8875
932.831	23.3715
937.316	32.1862
941.798	3.37701
946.278	15.4104
950.755	10.2123
955.23	32.9451
959.702	21.2847
964.171	10.2538
968.638	6.85272
973.103	9.44916
977.565	17.7711
982.025	15.7712
986.482	4.79639
990.936	3.36444
995.388	6.58215
999.837	6.15735
1004.28	19.8598
1008.73	11.5273
1013.17	1.14996
1017.61	11.2291
1022.05	8.73267
1026.48	10.0441
1030.91	24.3258
1035.34	5.3407
1039.77	12.9319
1044.19	59.1636
1048.62	11.372
1053.03	11.5053
1057.45	3.42419
1061.87	23.5415
1066.28	12.4217
1070.69	5.41406
1075.09	20.9358
1079.5	2.13892
1083.9	18.4066
1088.3	12.8852
1092.69	12.7335
1097.09	4.56934
1101.48	26.2177
1105.87	38.1854
1110.26	39.5958
1114.64	16.5606
1119.02	32.6504
1123.4	37.6414
1127.78	63.6093
1132.15	20.8931
1136.53	24.4381
1140.89	31.7156
1145.26	19.755
1149.63	22.829
1153.99	1.28619
1158.35	22.4373
1162.7	37.9288
1167.06	31.7637
1171.41	25.1718
1175.76	57.4598
1180.11	40.7899
1184.45	18.6887
1188.79	40.923
1193.13	23.6053
1197.47	55.1039
1201.81	49.1407
1206.14	42.2048
1210.47	60.703
1214.79	9.78546
1219.12	40.1005
1223.44	41.8428
1227.76	33.5923
1232.08	37.6054
1236.39	32.2928
1240.7	46.9382
1245.02	36.8503
1249.32	39.7538
1253.63	52.7404
1257.93	36.8617
1262.23	53.8854
1266.53	43.9111
1270.82	52.9213
1275.12	45.8255
1279.41	35.7945
1283.69	34.5392
1287.98	25.7295
1292.26	36.7577
1296.54	22.9151
1300.82	14.4113
1305.1	4.42566
1309.37	28.4423
1313.64	10.5157
1317.91	7.43762
1322.17	13.6188
1326.44	28.6909
1330.7	12.8117
1334.96	3.09607
1339.21	3.00177
1343.47	6.18256
1347.72	7.31366
1351.97	16.5187
1356.21	30.6151
1360.46	7.75098
1364.7	8.88318
1368.94	7.14032
1373.17	18.4901
1377.41	17.6241
1381.64	0.761047
1385.87	29.901
1390.1	6.04321
1394.32	11.1884
1398.54	2.3363
1402.76	1.48328
1406.98	8.66577
1411.19	4.17425
1415.41	24.9639
1419.62	12.131
1423.82	19.3428
1428.03	36.6027
1432.23	21.3837
1436.43	16.8054
1440.63	19.4404
1444.82	17.4618
1449.02	39.6857
1453.21	31.8974
1457.4	23.2404
1461.58	15.5425
1465.77	26.1187
1469.95	28.4569
1474.12	12.7631
1478.3	21.9361
1482.47	24.1889
1486.64	23.109
1490.81	16.1287
1494.98	1.83814
1499.14	33.5555
1503.31	38.6373
1507.47	67.8218
1511.62	73.9597
1515.78	33.2079
1519.93	48.2672
1524.08	62.4779
1528.23	31.9211
1532.37	35.2391
1536.51	34.8213
1540.65	32.5201
1544.79	37.4144
1548.93	17.3129
1553.06	51.8727
1557.19	30.2643
1561.32	39.6064
