Measurement: Raman, 514 nm, ccw, Raman Data Processed
Mineral: Mimetite
Rruff sample: R060920
Ideal chemistry: Pb^2+^_5_(As^5+^O_4_)_3_Cl
Locality: Tsumeb mine, Tsumeb, Otavi District, Oshikoto, Namibia
Source: Marcus Origlieri
Description: Yellow to brownish hexagonal prism, monoclinic polytype
Pin_id: L01165
Orientation: Laser parallel to -c* (0 0 -1). Fiducial mark perpendicular to laser is parallel to b [0 1 0]
Raman shift (cm-1)	intensity
42.248	0
47.226	47.3893
52.202	84.0196
57.176	139.018
62.146	127.232
67.115	52.8062
72.08	23.9624
77.043	40.8451
82.003	147.628
86.961	902.68
91.916	2224.4
96.869	4816.35
101.819	6134.41
106.766	5840.48
111.711	5450.48
116.653	5151.34
121.592	4898.21
126.529	4581.36
131.464	4539.42
136.395	4553.03
141.324	4802.12
146.251	4732.92
151.175	4424.47
156.096	4173.78
161.015	4154.86
165.931	4322.67
170.844	4379.22
175.755	4092.46
180.663	3812.37
185.569	3617
190.472	3251.94
195.373	2890.49
200.27	2531.58
205.166	2291.75
210.058	1944.38
214.948	1735.71
219.836	1493.57
224.721	1212.27
229.603	1080.48
234.482	918.812
239.359	818.633
244.234	752.874
249.106	665.457
253.975	578.326
258.841	563.4
263.705	459.685
268.567	311.054
273.425	359.514
278.281	308.045
283.135	312.631
287.986	452.267
292.834	700.905
297.68	1205.52
302.523	1715.06
307.363	1983.51
312.201	2103.82
317.037	1924.8
321.869	1739.6
326.699	1887.6
331.527	2231.88
336.351	2481.76
341.174	2282.8
345.993	2059.73
350.81	1428.79
355.625	1235.62
360.436	1450.05
365.245	2094.33
370.052	2368.8
374.856	2012.12
379.657	1199.02
384.456	811.839
389.252	664.197
394.045	621.947
398.836	722.626
403.625	889.657
408.41	1167.56
413.193	1417.93
417.974	1676.84
422.751	1762.92
427.527	1357.74
432.299	771.047
437.069	411.759
441.836	244.891
446.601	124.554
451.363	86.9416
456.123	35.03
460.88	2.19043
465.634	42.7148
470.386	67.3843
475.135	8.33325
479.881	16.3994
484.625	9.94849
489.366	47.5132
494.105	16.8574
498.84	18.6502
503.574	75.8103
508.305	2.66772
513.033	15.7698
517.758	14.1787
522.481	92.0276
527.201	15.1751
531.919	21.8237
536.634	12.999
541.346	70.9253
546.056	92.3489
550.763	134.335
555.468	16.4827
560.17	53.5361
564.869	40.8242
569.566	6.50513
574.26	77.8086
578.952	17.8084
583.641	68.4607
588.327	20.8311
593.011	65.8616
597.692	156.605
602.37	135.18
607.046	205.523
611.719	206.499
616.39	165.582
621.058	116.463
625.723	128.062
630.386	123.914
635.046	73.1819
639.703	25.5903
644.358	41.7588
649.01	0.5979
653.66	5.82544
658.307	25.8264
662.951	2.38428
667.593	52.1094
672.232	20.3945
676.869	17.5835
681.503	67.2253
686.134	42.3569
690.763	21.0259
695.389	47.9419
700.013	112.454
704.633	142.406
709.252	179.769
713.867	207.787
718.48	376.471
723.091	303.5
727.698	469.982
732.304	511.056
736.906	696.603
741.506	905.183
746.103	1162.83
750.698	1817.62
755.29	3034.32
759.88	5424.38
764.467	7441.61
769.051	7294.12
773.632	6368.36
778.211	6786.4
782.788	8765.44
787.362	10641.9
791.933	11972
796.501	17816.3
801.067	33239.7
805.631	49169.5
810.191	46517
814.749	33254.9
819.305	18136.2
823.858	8727.17
828.408	5264.52
832.956	3716.39
837.501	2797.77
842.043	2392.42
846.583	1913.39
851.12	1607.06
855.654	1287.47
860.186	1047.14
864.716	886.542
869.242	826.417
873.766	720.496
878.288	655.69
882.807	622.121
887.323	524.935
891.837	473.344
896.348	335.228
900.856	260.328
905.362	230.598
909.865	193.606
914.366	307.282
918.864	350.151
923.359	287.894
927.852	101.443
932.342	26.0039
936.829	32.7363
941.314	17.4402
945.796	10.7632
950.276	23.6956
954.753	66.2041
959.228	3.7832
963.699	103.746
968.169	17.7241
972.635	46.6103
977.099	55.0784
981.56	48.5476
986.019	2.94678
990.475	34.5217
994.929	15.1782
999.38	29.8845
1003.83	66.3227
1008.27	68.053
1012.72	44.9888
1017.16	16.0388
1021.6	3.99487
1026.03	22.8215
1030.46	36.5855
1034.89	30.2056
1039.32	10.3613
1043.74	32.9045
1048.17	10.9578
1052.59	54.9534
1057	9.76343
1061.42	6.31592
1065.83	6.69922
1070.24	64.9924
1074.65	13.0503
1079.05	53.8147
1083.45	78.7793
1087.85	45.499
1092.25	103.993
1096.64	62.897
1101.03	13.3037
1105.42	86.2627
1109.8	133.528
1114.19	29.6985
1118.57	101.013
1122.95	88.3936
1127.32	63.2322
1131.69	45.377
1136.06	5.83765
1140.43	58.4961
1144.8	85.1235
1149.16	14.3528
1153.52	73.1621
1157.87	138.305
1162.23	77.4939
1166.58	85.5283
1170.93	102.204
1175.28	74.7178
1179.62	104.957
1183.96	44.9519
1188.3	110.433
1192.64	91.3191
1196.97	172.584
1201.3	77.209
1205.63	102.801
1209.95	90.5884
1214.28	133.103
1218.6	106.591
1222.92	141.581
1227.23	94.052
1231.55	112.146
1235.86	153.085
1240.16	155.49
1244.47	66.8191
1248.77	134.22
1253.07	101.658
1257.37	119.067
1261.66	133.7
1265.95	138.574
1270.24	140.329
1274.53	145.918
1278.81	82.2114
1283.09	102.669
1287.37	21.1289
1291.65	55.5879
1295.92	52.1726
1300.19	134.744
1304.46	34.3652
1308.73	66.0332
1312.99	60.0454
1317.25	62.8108
1321.51	2.67969
1325.77	49.5339
1330.02	53.3227
1334.27	24.1943
1338.52	98.1265
1342.76	83.175
1347	91.073
1351.24	52.989
1355.48	6.18579
1359.72	53.5667
1363.95	147.363
1368.18	41.5283
1372.4	21.3523
1376.63	4.06177
1380.85	104.966
1385.07	9.18408
1389.29	119.637
1393.5	5.57739
1397.71	47.1892
1401.92	63.5002
1406.13	88.7896
1410.33	79.5532
1414.53	104.343
1418.73	109.402
1422.92	50.4006
1427.12	59.3081
1431.31	69.269
1435.5	127.475
1439.68	131.486
1443.87	82.9746
1448.05	74.3284
1452.22	68.1411
1456.4	128.431
1460.57	1.68677
1464.74	108.022
1468.91	12.3787
1473.07	105.665
1477.23	64.4265
1481.39	87.0603
1485.55	67.0833
1489.7	25.1148
1493.86	68.0212
1498.01	16.9795
1502.15	97.4299
1506.3	153.314
1510.44	156.541
1514.58	58.6328
1518.71	129.468
1522.85	210.612
1526.98	180.334
1531.11	127.745
1535.23	87.5591
1539.35	3.99756
1543.47	1.83594
1547.59	74.7881
1551.71	72.4321
1555.82	59.0029
1559.93	42.04
