Measurement: Raman, 514 nm, ccw, Raman Data Processed
Mineral: Mimetite
Rruff sample: R060920
Ideal chemistry: Pb^2+^_5_(As^5+^O_4_)_3_Cl
Locality: Tsumeb mine, Tsumeb, Otavi District, Oshikoto, Namibia
Source: Marcus Origlieri
Description: Yellow to brownish hexagonal prism, monoclinic polytype
Pin_id: L01429
Orientation: Laser parallel to a* (1 0 0). Fiducial mark perpendicular to laser is parallel to c [0 0 1]
Raman shift (cm-1)	intensity
42.248	0
47.226	16.6655
52.202	27.437
57.176	52.6224
62.146	49.0938
67.115	10.4212
72.08	3.44678
77.043	15.8399
82.003	55.016
86.961	384.785
91.916	940.087
96.869	2321.75
101.819	3214.52
106.766	2904.93
111.711	2477.39
116.653	2264.04
121.592	2040.5
126.529	1912.48
131.464	1962.83
136.395	1973.46
141.324	2136.71
146.251	2170.67
151.175	2147.36
156.096	1988.8
161.015	2025.96
165.931	1997.86
170.844	2145.49
175.755	2058.83
180.663	1911.87
185.569	1843.64
190.472	1711.37
195.373	1602.99
200.27	1334.36
205.166	1143.52
210.058	967.36
214.948	826.111
219.836	693.266
224.721	578.411
229.603	497.011
234.482	424.401
239.359	344.417
244.234	337.044
249.106	269.253
253.975	184.009
258.841	184.271
263.705	131.519
268.567	117.26
273.425	73.9226
278.281	75.0707
283.135	78.6605
287.986	130.684
292.834	238.137
297.68	564.989
302.523	964.252
307.363	1023.89
312.201	1007.88
317.037	785.002
321.869	636.576
326.699	634.613
331.527	825.58
336.351	1058.11
341.174	1091.15
345.993	898.909
350.81	647.133
355.625	514.827
360.436	543.163
365.245	826.6
370.052	1327.78
374.856	1014.39
379.657	568.186
384.456	333.544
389.252	347.084
394.045	262.431
398.836	323.321
403.625	362.832
408.41	499.336
413.193	712.571
417.974	996.628
422.751	1185.06
427.527	917.252
432.299	492.718
437.069	270.835
441.836	195.888
446.601	78.0065
451.363	65.9713
456.123	30.3438
460.88	23.7148
465.634	3.98169
470.386	13.2899
475.135	9.52338
479.881	14.3155
484.625	1.10699
489.366	21.0552
494.105	7.78827
498.84	32.582
503.574	22.7854
508.305	17.6547
513.033	1.05237
517.758	1.04852
522.481	20.3842
527.201	7.12341
531.919	26.6064
536.634	36.5168
541.346	3.28937
546.056	11.2026
550.763	26.0923
555.468	22.2274
560.17	5.15582
564.869	33.8068
569.566	32.2636
574.26	51.5024
578.952	48.5288
583.641	63.3556
588.327	15.9405
593.011	35.3342
597.692	36.5682
602.37	56.8362
607.046	62.7535
611.719	80.4746
616.39	79.3407
621.058	70.3201
625.723	40.8056
630.386	43.4802
635.046	45.3013
639.703	22.6172
644.358	23.0285
649.01	15.5346
653.66	20.4266
658.307	17.2681
662.951	37.6334
667.593	23.4114
672.232	1.38385
676.869	3.42658
681.503	24.104
686.134	5.50104
690.763	12.7896
695.389	14.7375
700.013	39.3876
704.633	84.6608
709.252	95.5464
713.867	123.719
718.48	128.285
723.091	213.982
727.698	225.184
732.304	310.802
736.906	374.15
741.506	437.802
746.103	640.505
750.698	892.248
755.29	1519.05
759.88	2818.91
764.467	4567.79
769.051	4291.84
773.632	3192.64
778.211	3043.31
782.788	4056.8
787.362	5477.71
791.933	6052.09
796.501	8646.92
801.067	17749.2
805.631	33076.5
810.191	26752
814.749	21608.5
819.305	11792.4
823.858	5386.51
828.408	3054.74
832.956	2153.25
837.501	1544.06
842.043	1302.67
846.583	1092.39
851.12	882.098
855.654	731.093
860.186	624.256
864.716	507.646
869.242	427.294
873.766	419.583
878.288	388.193
882.807	364.695
887.323	309.26
891.837	216.886
896.348	185.717
900.856	179.377
905.362	133.231
909.865	126.28
914.366	113.186
918.864	147.712
923.359	123.583
927.852	57.8834
932.342	58.2126
936.829	25.61
941.314	11.9304
945.796	35.5432
950.276	9.22229
954.753	18.5405
959.228	41.0383
963.699	5.97375
968.169	2.34314
972.635	32.9924
977.099	5.45935
981.56	16.9524
986.019	31.6928
990.475	5.90271
994.929	23.0275
999.38	27.3511
1003.83	22.5901
1008.27	2.354
1012.72	18.9364
1017.16	2.03552
1021.6	25.1301
1026.03	7.15747
1030.46	22.887
1034.89	28.8361
1039.32	12.4919
1043.74	24.0673
1048.17	18.4963
1052.59	12.7996
1057	39.0171
1061.42	12.1499
1065.83	7.20728
1070.24	37.1616
1074.65	44.9835
1079.05	28.7284
1083.45	3.60193
1087.85	49.8617
1092.25	16.1623
1096.64	30.4448
1101.03	16.4764
1105.42	81.2622
1109.8	50.3506
1114.19	12.377
1118.57	71.4945
1122.95	58.1708
1127.32	41.8684
1131.69	33.7853
1136.06	31.1892
1140.43	17.8182
1144.8	79.4802
1149.16	100.091
1153.52	64.705
1157.87	51.1632
1162.23	63.9584
1166.58	74.2257
1170.93	58.6143
1175.28	31.8469
1179.62	72.6891
1183.96	71.3894
1188.3	35.9131
1192.64	42.9817
1196.97	93.2398
1201.3	61.5857
1205.63	55.9252
1209.95	31.6204
1214.28	40.575
1218.6	76.5866
1222.92	48.485
1227.23	99.0765
1231.55	78.0179
1235.86	30.9712
1240.16	63.2319
1244.47	78.5031
1248.77	54.2306
1253.07	71.1617
1257.37	36.2833
1261.66	43.0974
1265.95	53.0575
1270.24	30.925
1274.53	63.8263
1278.81	89.7538
1283.09	49.6219
1287.37	2.49573
1291.65	34.4259
1295.92	43.4287
1300.19	16.4097
1304.46	13.415
1308.73	32.5874
1312.99	30.6827
1317.25	28.0165
1321.51	69.1517
1325.77	32.2462
1330.02	4.36816
1334.27	46.9849
1338.52	14.744
1342.76	17.0366
1347	69.0707
1351.24	14.2191
1355.48	41.3029
1359.72	5.45606
1363.95	6.42358
1368.18	2.68506
1372.4	58.8904
1376.63	10.4233
1380.85	23.1166
1385.07	61.2129
1389.29	31.2599
1393.5	26.5194
1397.71	42.7364
1401.92	11.8887
1406.13	52.9353
1410.33	41.9785
1414.53	32.0029
1418.73	27.3545
1422.92	19.3867
1427.12	43.4408
1431.31	42.0214
1435.5	71.9275
1439.68	35.8453
1443.87	38.2349
1448.05	25.1694
1452.22	50.1827
1456.4	22.769
1460.57	38.9465
1464.74	1.77661
1468.91	49.374
1473.07	28.2217
1477.23	44.3691
1481.39	56.4231
1485.55	17.5016
1489.7	27.6013
1493.86	17.634
1498.01	45.7181
1502.15	20.5309
1506.3	11.82
1510.44	41.691
1514.58	16.1462
1518.71	5.11804
1522.85	35.0211
1526.98	41.8574
1531.11	49.9747
1535.23	55.1144
1539.35	32.2323
1543.47	36.3888
1547.59	17.6304
1551.71	12.4507
1555.82	32.9757
1559.93	40.5671
