Measurement: Raman, 514 nm, ccw, Raman Data Processed
Mineral: Monazite-(Ce)
Rruff sample: R040106
Ideal chemistry: CePO_4_
Locality: Angola
Source: University of Arizona Mineral Museum
Description: Brown massive fragment
Measured chemistry: (Ce_0.41_La_0.17_Nd_0.17_Th_0.14_Ca_0.06_Y_0.04_)(P_0.95_Si_0.05_)O_4_
Pin_id: M00299
Orientation: Laser parallel to c* (0 0 1). Fiducial mark perpendicular to laser is parallel to a [1 0 0]
Raman shift (cm-1)	intensity
87.649	0
91.844	175.515
96.037	328.219
100.227	487.955
104.416	517.146
108.603	464.607
112.787	714.02
116.97	758.932
121.15	647.746
125.328	596.632
129.504	536.641
133.678	338.568
137.85	158.71
142.02	129.67
146.188	272.303
150.354	628.876
154.517	667.577
158.679	619.509
162.839	590.591
166.996	769.226
171.152	1023.17
175.305	1202.39
179.456	1097.51
183.605	732.194
187.752	458.12
191.898	276.969
196.041	9.52
200.182	125.799
204.321	162.321
208.457	162.187
212.592	132.991
216.725	43.334
220.856	40.837
224.984	95.399
229.111	181.628
233.236	160.951
237.358	115.159
241.479	79.738
245.597	212.946
249.713	269.807
253.828	428.87
257.94	609.648
262.05	746.873
266.159	856.903
270.265	1072.18
274.369	1246.76
278.471	1502.58
282.572	1672.52
286.67	1707.25
290.766	1702.91
294.86	1551.81
298.952	1630.19
303.042	1384.15
307.13	1357.27
311.216	1264.21
315.3	1173.04
319.382	1077.85
323.462	1032.54
327.54	915.741
331.616	836.683
335.69	917.097
339.762	842.977
343.832	929.303
347.9	1052.06
351.965	1176.24
356.029	1508.71
360.091	1814.38
364.151	2086.75
368.209	2367.63
372.265	2828.68
376.319	3286.92
380.371	3816.61
384.421	4466.79
388.469	5362.51
392.515	6438.95
396.559	7197.09
400.601	7175.74
404.641	6714.64
408.679	6824.42
412.715	7334.77
416.749	8195.7
420.781	7657.16
424.811	5979.11
428.839	4461.74
432.866	3225.05
436.89	2569.07
440.912	2290.84
444.932	2429.34
448.951	2585.53
452.967	2942.37
456.981	3259.85
460.994	3807.88
465.004	4106.43
469.013	4085.51
473.019	3545.1
477.024	2905.24
481.026	2355.93
485.027	1956.18
489.026	1551
493.023	1163.37
497.017	880.298
501.01	845.773
505.001	559.794
508.99	350.358
512.977	308.462
516.962	181.773
520.945	40.413
524.927	63.398
528.906	135.188
532.883	34.976
536.858	70.12
540.832	179.209
544.803	222.951
548.773	33.241
552.741	216.061
556.706	296.379
560.67	475.191
564.632	466.499
568.592	833.289
572.55	1037.25
576.506	981.256
580.46	682.103
584.412	526.813
588.363	817.009
592.311	1136.88
596.258	866.54
600.202	854.482
604.145	1055.13
608.086	1465.3
612.024	1906.19
615.961	2738.69
619.896	3321.15
623.829	3587.14
627.761	2827.75
631.69	2234.57
635.617	1623.67
639.543	1335.05
643.466	1252.7
647.388	1179.62
651.308	1155.8
655.226	869.236
659.142	899.928
663.056	916.867
666.968	1053.05
670.879	1052.47
674.787	903.128
678.694	960.013
682.598	1054.07
686.501	1100.32
690.402	1107.62
694.301	1027.5
698.198	961.401
702.093	994.476
705.987	874.722
709.878	562.137
713.768	488.716
717.656	360.457
721.542	152.355
725.426	173.409
729.308	38.559
733.188	17.36
737.067	94.448
740.943	145.872
744.818	20.893
748.691	91.43
752.562	220.56
756.431	164.312
760.298	73.605
764.163	39.246
768.027	38.811
771.888	59.661
775.748	28.454
779.606	63.43
783.462	121.438
787.317	267.622
791.169	154.992
795.019	114.551
798.868	417.303
802.715	474.249
806.56	601.394
810.403	594.738
814.245	586.285
818.084	762.038
821.922	782.998
825.758	1034.17
829.592	1125.55
833.424	1175.15
837.254	1367.97
841.082	1345.07
844.909	1496.45
848.734	1463.08
852.557	1488.93
856.378	1627.02
860.197	1601.33
864.015	1544.87
867.831	1687.66
871.645	1710.69
875.457	1606.97
879.267	1314.56
883.075	1160.31
886.882	1143.69
890.687	952.443
894.49	1007.59
898.291	643.718
902.09	512.453
905.888	495.821
909.683	387.539
913.477	320.216
917.269	318.147
921.06	298.128
924.848	233.001
928.635	523.193
932.42	908.165
936.203	1485.09
939.984	1991.58
943.764	2794.56
947.541	3976.01
951.317	5602.91
955.091	7800.25
958.864	10818
962.634	14886.1
966.403	20304.7
970.17	27003.6
973.935	31193
977.698	27462.7
981.46	20172.7
985.22	13433.1
988.978	9053.92
992.734	6515.02
996.488	4756.47
1000.24	3768.23
1003.99	3261.31
1007.74	2774.69
1011.49	2562.37
1015.23	2343.43
1018.98	2238.69
1022.72	2095.84
1026.46	2233.26
1030.2	2365.99
1033.93	2683.9
1037.67	2805.86
1041.4	3079.26
1045.13	3504.49
1048.86	4089.92
1052.59	5207.92
1056.32	6333.96
1060.04	7362.89
1063.77	8295.42
1067.49	8405.12
1071.2	7804.14
1074.92	7218.23
1078.64	6480.62
1082.35	5700.58
1086.06	4798.53
1089.78	3898.77
1093.48	3119.08
1097.19	2389.3
1100.89	1957.21
1104.6	1545.41
1108.3	1436.15
1112	1198.05
1115.7	905.97
1119.39	698.038
1123.09	537.993
1126.78	424.783
1130.47	366.821
1134.16	281.073
1137.85	236.213
1141.54	293.069
1145.22	201.469
1148.9	121.366
1152.58	46.835
1156.26	105.776
1159.94	97.926
1163.62	82.699
1167.29	69.227
1170.96	83.235
1174.63	37.141
1178.3	69.731
1181.97	79.049
1185.63	50.987
1189.3	27.536
1192.96	2.698
1196.62	34.292
1200.28	31.882
1203.93	3.271
1207.59	76.435
1211.24	110.139
1214.89	83.75
1218.54	14.674
1222.19	0.398
1225.84	92.199
1229.48	65.858
1233.13	18.961
1236.77	14.94
1240.41	28.084
1244.05	33.742
1247.68	106.265
1251.32	121.755
1254.95	160.419
1258.58	216.42
1262.21	179.651
1265.84	236.185
1269.46	192.252
1273.09	215.594
1276.71	279.303
1280.33	270.614
1283.95	288.127
1287.57	337.302
1291.18	393.492
1294.8	397.197
1298.41	417.165
1302.02	351.81
1305.63	333.954
1309.24	351.488
1312.84	385.262
1316.45	411.593
1320.05	435.634
1323.65	481.257
1327.25	412.62
1330.85	446.965
1334.44	369.861
1338.04	320.927
1341.63	350.125
1345.22	315.643
1348.81	325.159
1352.4	346.156
1355.98	314.006
1359.57	294.305
1363.15	275.882
1366.73	203.683
1370.31	207.293
1373.89	197.082
1377.46	132.109
1381.04	102.179
1384.61	246.741
1388.18	146.452
1391.75	182.419
1395.32	203.686
1398.88	180.068
1402.45	149.172
1406.01	113.44
1409.57	100.721
1413.13	112.872
1416.69	139.996
1420.24	111.104
1423.8	133.325
1427.35	195.297
1430.9	144.989
1434.45	155.147
1438	159.849
1441.55	94.761
1445.09	49.908
1448.63	31.607
1452.18	83.856
1455.71	18.738
1459.25	59.48
1462.79	132.205
1466.32	101.157
1469.86	83.606
1473.39	172.834
1476.92	78.737
1480.45	35.987
1483.97	77.629
1487.5	5.212
1491.02	39.146
1494.54	37.031
1498.06	37.847
1501.58	103.107
1505.1	97.883
1508.62	106.172
1512.13	64.41
1515.64	40.64
1519.15	18.21
1522.66	37.197
