Measurement: Raman, 514 nm, ccw, Raman Data Processed
Mineral: Monazite-(Ce)
Rruff sample: R040106
Ideal chemistry: CePO_4_
Locality: Angola
Source: University of Arizona Mineral Museum
Description: Brown massive fragment
Measured chemistry: (Ce_0.41_La_0.17_Nd_0.17_Th_0.14_Ca_0.06_Y_0.04_)(P_0.95_Si_0.05_)O_4_
Pin_id: L00169
Orientation: Laser parallel to b* (0 1 0). Fiducial mark perpendicular to laser is parallel to c [0 0 1]
Raman shift (cm-1)	intensity
89.89	0
94.071	8.731
98.251	83.01
102.428	281.924
106.604	462.571
110.777	809.798
114.949	1030.88
119.119	1020.93
123.286	954.517
127.452	784.47
131.615	769.282
135.777	599.654
139.937	584.418
144.094	663.904
148.25	865.067
152.403	1171.39
156.555	1415.87
160.705	1624.64
164.853	1543.58
168.998	1718.54
173.142	1817.41
177.284	1659.7
181.424	1206.36
185.562	697.791
189.698	396.228
193.831	212.81
197.963	83.627
202.093	107.737
206.221	61.174
210.347	297.956
214.472	358.222
218.594	465.901
222.714	543.683
226.832	443.975
230.948	408.283
235.063	278.653
239.175	224.477
243.286	137.545
247.394	248.236
251.501	255.212
255.605	246.148
259.708	304.254
263.808	501.559
267.907	804.753
272.004	1048.3
276.099	1406.89
280.192	1695.28
284.283	1880.32
288.372	1636.88
292.459	1414.87
296.544	1286.18
300.627	1117.77
304.709	878.566
308.788	807.544
312.865	582.658
316.941	482.88
321.015	298.146
325.086	96.416
329.156	32.669
333.224	120.864
337.29	224.1
341.354	142.335
345.416	44.791
349.476	6.568
353.534	202.845
357.591	333.058
361.645	699.812
365.698	984.185
369.748	1303.95
373.797	1651.82
377.844	1970.37
381.889	2259.35
385.932	2598.98
389.973	3079.49
394.012	3350.85
398.049	3833.07
402.084	4356.11
406.118	5169.99
410.15	6594.67
414.179	8170.16
418.207	8686.51
422.233	7234.01
426.257	5482.8
430.279	4052.98
434.299	3434.53
438.318	3387.52
442.334	3901.89
446.349	4627.62
450.361	5664.78
454.372	7073.28
458.381	8582.93
462.388	9383.72
466.394	9235.54
470.397	8178.35
474.398	6671.99
478.398	5216.44
482.396	3891.64
486.391	2997.59
490.385	2224.28
494.377	1634.59
498.368	1229.25
502.356	944.977
506.342	507.474
510.327	253.586
514.31	182.842
518.291	33.629
522.27	196.589
526.247	80.283
530.222	235.488
534.196	576.867
538.167	854.843
542.137	421.407
546.105	294.552
550.071	356.264
554.035	446.53
557.998	623.339
561.958	990.677
565.917	1758.53
569.874	2786.89
573.829	2626.06
577.782	1821.3
581.733	1032.34
585.683	910.27
589.63	736.298
593.576	736.467
597.52	695.199
601.462	749.991
605.402	960.442
609.341	1195.12
613.277	1641.8
617.212	2147.89
621.145	2544
625.076	2384.54
629.006	1852.4
632.933	1459.86
636.859	1455.26
640.783	1381.38
644.705	1224.55
648.625	1357.76
652.543	1111.06
656.46	1171.51
660.375	1184.18
664.288	1237.01
668.199	1314.94
672.108	1266.85
676.016	1438.6
679.921	1408.62
683.825	1559.54
687.727	1524.29
691.628	1536.99
695.526	1580.63
699.423	1526.19
703.318	1394.68
707.211	1115.07
711.102	968.376
714.992	878.577
718.879	552.67
722.765	405.648
726.649	399.504
730.532	140.224
734.412	30.688
738.291	84.268
742.168	53.015
746.043	122.693
749.916	186.386
753.788	57.241
757.658	165.118
761.526	118.176
765.392	33.46
769.257	60.667
773.119	1.353
776.98	94.272
780.839	1.502
784.697	156.887
788.552	138.103
792.406	177.166
796.258	351.119
800.108	473.972
803.957	540.73
807.804	572.4
811.649	730.985
815.492	786.49
819.333	865.917
823.173	1113.27
827.011	1173.55
830.847	1189.78
834.681	1373.06
838.514	1446.47
842.345	1547.86
846.174	1638.22
850.001	1635.53
853.827	1727.82
857.651	1599.09
861.473	1632.34
865.293	1725.58
869.112	1615.82
872.928	1589.05
876.744	1422.3
880.557	1159.56
884.369	1226.16
888.178	1033.66
891.987	904.229
895.793	677.899
899.598	578.185
903.401	566.271
907.202	401.754
911.001	410.898
914.799	456.07
918.595	403.922
922.389	368.861
926.182	623.283
929.972	876.058
933.761	1324.23
937.549	1981.31
941.334	2780.8
945.118	3886.11
948.9	5522.05
952.681	7388.42
956.459	10015.2
960.236	13382.4
964.012	18530.1
967.785	25478.1
971.557	31996.4
975.327	33235.1
979.095	26874.2
982.862	18093.6
986.627	12473.4
990.39	8983.44
994.152	6893.85
997.912	5434.61
1001.67	4685.69
1005.43	3987.12
1009.18	3568.88
1012.93	3380.97
1016.68	3083.39
1020.43	2956.11
1024.18	2979.16
1027.93	3132.51
1031.67	3186.17
1035.42	3290.41
1039.16	3456.4
1042.9	3986.44
1046.63	4570.62
1050.37	5541.11
1054.11	6811.84
1057.84	8018.77
1061.57	9074.89
1065.3	8859.25
1069.03	8082.89
1072.75	6900.81
1076.47	5636.4
1080.2	4601.23
1083.92	3608.14
1087.64	2939.91
1091.36	2214.89
1095.07	1722.59
1098.79	1400.73
1102.5	1213.93
1106.21	1088.7
1109.92	852.537
1113.62	721.597
1117.33	552.939
1121.04	486.007
1124.74	524.615
1128.44	362.025
1132.14	448.167
1135.83	325.495
1139.53	318.122
1143.22	294.564
1146.92	225.862
1150.61	204.967
1154.3	131.529
1157.98	245.824
1161.67	187.645
1165.35	225.551
1169.04	129.677
1172.72	118.334
1176.4	22.658
1180.07	7.975
1183.75	2.444
1187.42	37.208
1191.1	34.448
1194.77	60.45
1198.44	57.655
1202.1	27.85
1205.77	13.612
1209.43	57.813
1213.1	76.668
1216.76	77.605
1220.42	40.416
1224.07	7.798
1227.73	20.252
1231.38	61.954
1235.04	68.258
1238.69	75.083
1242.34	12.66
1245.99	58.936
1249.63	111.206
1253.28	58.917
1256.92	169.677
1260.56	78.231
1264.2	132.194
1267.84	40.703
1271.48	118.507
1275.11	88.733
1278.74	206.499
1282.38	253.706
1286.01	301.058
1289.63	219.253
1293.26	231.576
1296.89	73.063
1300.51	106.163
1304.13	208.562
1307.75	267.392
1311.37	241.584
1314.99	283.342
1318.6	307.423
1322.22	313.717
1325.83	278.625
1329.44	222.695
1333.05	248.845
1336.66	242.385
1340.26	237.395
1343.87	291.856
1347.47	302.99
1351.07	301.139
1354.67	246.714
1358.27	189.843
1361.86	185.255
1365.46	169.64
1369.05	119.08
1372.64	97.474
1376.23	108.947
1379.82	168.148
1383.41	242.645
1386.99	190.965
1390.57	238.398
1394.16	205.268
1397.74	141.59
1401.32	118.732
1404.89	125.398
1408.47	102.734
1412.04	144.103
1415.61	139.43
1419.18	112.385
1422.75	174.524
1426.32	280.278
1429.89	220.969
1433.45	157.88
1437.01	129.019
1440.58	56.104
1444.13	56.235
1447.69	71.318
1451.25	40.458
1454.81	86.594
1458.36	143.757
1461.91	151.484
1465.46	168.007
1469.01	223.853
1472.56	168.313
1476.1	166.77
1479.64	56.012
1483.19	48.861
1486.73	39.557
1490.27	27.993
1493.81	82.638
1497.34	137.603
1500.88	154.705
1504.41	171.259
1507.94	152.055
1511.47	223.827
1515	126.142
1518.53	199.906
1522.05	0
