Measurement: Raman, 514 nm, ccw, Raman Data Processed
Mineral: Monazite-(Ce)
Rruff sample: R040106
Ideal chemistry: CePO_4_
Locality: Angola
Source: University of Arizona Mineral Museum
Description: Brown massive fragment
Measured chemistry: (Ce_0.41_La_0.17_Nd_0.17_Th_0.14_Ca_0.06_Y_0.04_)(P_0.95_Si_0.05_)O_4_
Pin_id: M00371
Orientation: Laser parallel to (1 0 1). Fiducial mark perpendicular to laser is parallel to b [0 1 0]
Raman shift (cm-1)	intensity
90.446	0
94.639	83.805
98.831	627.895
103.02	918.8
107.207	797.633
111.393	666.299
115.576	711.255
119.757	588.581
123.936	524.827
128.112	450.399
132.287	435.666
136.46	557.246
140.63	574.621
144.799	538.216
148.965	483.737
153.13	371.195
157.292	261.823
161.452	127.723
165.611	72.899
169.767	74.481
173.921	4.663
178.073	60.645
182.222	58.278
186.37	74.965
190.516	76.36
194.66	41.989
198.801	27.382
202.941	79.043
207.079	154.106
211.214	273.615
215.348	274.255
219.479	408.692
223.608	506.882
227.736	599.358
231.861	597.023
235.984	605.428
240.105	758.586
244.224	891.512
248.342	1089.22
252.457	1300.72
256.57	1551.73
260.681	1794.89
264.79	1722.6
268.896	1753.27
273.001	1711.42
277.104	1707.71
281.205	1695.24
285.304	1680.22
289.401	1585.94
293.495	1492.46
297.588	1383.1
301.679	1243.48
305.767	1077.05
309.854	1053.3
313.939	868.788
318.021	739.587
322.102	588.562
326.181	497.434
330.257	381.272
334.332	327.376
338.405	296.412
342.475	312.063
346.544	261.908
350.61	324.058
354.675	402.384
358.738	515.068
362.798	678.91
366.857	753.098
370.913	995.911
374.968	1091.54
379.021	1348.15
383.071	1499.42
387.12	1770.31
391.166	1943.83
395.211	2161
399.254	2216.82
403.294	2468.27
407.333	2970.36
411.37	3635.09
415.405	4592.44
419.437	5173.39
423.468	4324.75
427.497	2978.61
431.524	2240.03
435.549	1660.01
439.572	1563.64
443.593	1595.93
447.611	1903.9
451.628	2370.62
455.644	3133.07
459.657	3858.26
463.668	4332.16
467.677	4340.85
471.684	4040.33
475.689	3359.58
479.692	2780.58
483.694	2155.38
487.693	1708.07
491.691	1325.59
495.686	1001
499.68	778.256
503.671	592.495
507.661	394.672
511.648	300.847
515.634	199.989
519.618	28.023
523.6	18.125
527.58	55.572
531.558	39.452
535.534	441.25
539.508	307.541
543.48	319.413
547.45	219.858
551.418	151.871
555.385	155.442
559.349	245.563
563.312	233.229
567.272	240.429
571.231	358.227
575.187	503.403
579.142	519.326
583.095	680.675
587.046	673.521
590.995	926.895
594.942	973.91
598.888	1109.23
602.831	1328.62
606.772	1414.6
610.712	1949.84
614.649	2683.06
618.585	3499.41
622.519	3549.75
626.45	3086.13
630.38	2431.51
634.308	1834.28
638.235	1535.01
642.159	1494
646.081	1282.25
650.002	1369.12
653.92	1366.01
657.837	1192.14
661.752	1310.49
665.664	1216.07
669.575	1248.84
673.484	1348.81
677.392	1209.95
681.297	1382.56
685.2	1200.97
689.102	1269.64
693.002	1134.4
696.899	1149.3
700.795	945.318
704.689	830.459
708.581	700.712
712.472	587.069
716.36	437.524
720.247	296.071
724.131	186.702
728.014	70.412
731.895	9.193
735.774	46.96
739.651	112.474
743.526	88.355
747.4	41.67
751.271	65.368
755.141	115.565
759.009	76.22
762.875	139.277
766.739	22.826
770.601	29.708
774.462	22.333
778.32	19.2
782.177	1.217
786.032	51.46
789.885	90.664
793.736	10.843
797.585	15.859
801.433	17.746
805.279	107.608
809.122	101.499
812.964	228.417
816.804	186.363
820.643	338.335
824.479	323.334
828.314	359.36
832.147	443.413
835.977	588.501
839.807	633.645
843.634	600.849
847.459	676.087
851.283	723.355
855.105	883.653
858.925	957.983
862.743	1056.34
866.559	1162.74
870.373	1114.18
874.186	1116.68
877.997	1136.23
881.806	1152.83
885.613	934.889
889.419	779.095
893.222	684.533
897.024	612.67
900.824	552.227
904.622	350.019
908.418	378.71
912.213	310.048
916.005	340.619
919.796	414.843
923.585	570.793
927.373	794.287
931.158	1113.6
934.942	1563.7
938.724	2297.12
942.504	3315.05
946.282	4434.76
950.059	6299.49
953.833	8516.31
957.606	11655.1
961.377	16154.1
965.147	22403.3
968.914	31082.7
972.68	39612.2
976.444	38452
980.206	29441.9
983.967	19692
987.725	12882.2
991.482	9052.61
995.237	6593.18
998.99	4813.9
1002.74	3677.77
1006.49	2742.79
1010.24	2371.95
1013.99	1990.26
1017.73	1855.88
1021.47	1901.68
1025.21	1763.17
1028.95	1652.04
1032.69	1635.91
1036.42	1587.84
1040.16	1793.95
1043.89	1996.27
1047.62	2213.78
1051.35	2605.66
1055.08	3210.94
1058.8	3864.39
1062.53	4348.91
1066.25	4392.31
1069.97	4117.5
1073.68	3624.02
1077.4	3067.06
1081.11	2496.29
1084.83	2027.55
1088.54	1734.86
1092.25	1448.96
1095.95	1208.7
1099.66	1018.88
1103.36	812.112
1107.07	640.728
1110.77	568.917
1114.47	470.792
1118.16	412.266
1121.86	366.279
1125.55	366.763
1129.24	366.564
1132.93	196.604
1136.62	173.333
1140.31	151.946
1143.99	134.099
1147.68	144.871
1151.36	111.35
1155.04	83.796
1158.71	52.08
1162.39	17.445
1166.07	10.761
1169.74	7.987
1173.41	13.481
1177.08	29.45
1180.75	1.202
1184.41	2.223
1188.08	17.081
1191.74	48.459
1195.4	35.43
1199.06	63.98
1202.71	27.262
1206.37	26.016
1210.02	18.331
1213.68	2.031
1217.33	18.378
1220.98	4.714
1224.62	23.528
1228.27	13.485
1231.91	12.744
1235.55	56.932
1239.19	56.629
1242.83	34.805
1246.47	74.749
1250.1	57.639
1253.74	67.866
1257.37	121.598
1261	121.302
1264.63	114.179
1268.25	156.821
1271.88	180.227
1275.5	155.897
1279.12	130.042
1282.74	167.617
1286.36	158.729
1289.98	220.72
1293.59	233.415
1297.21	198.714
1300.82	235.223
1304.43	237.4
1308.04	263.177
1311.64	201.006
1315.25	189.12
1318.85	225.884
1322.45	192.113
1326.05	221.862
1329.65	253.283
1333.24	243.871
1336.84	244.764
1340.43	208.16
1344.03	260.428
1347.61	225.277
1351.2	179.807
1354.79	140.353
1358.37	168.795
1361.96	157.23
1365.54	159.205
1369.12	168.706
1372.69	188.199
1376.27	101.685
1379.85	121.13
1383.42	95.063
1386.99	70.611
1390.56	61.038
1394.13	99.795
1397.7	67.775
1401.26	71.625
1404.82	129.817
1408.38	93.989
1411.94	112.146
1415.5	103.718
1419.06	84.931
1422.62	79.82
1426.17	93.611
1429.72	43.01
1433.27	71.129
1436.82	66.32
1440.37	82.133
1443.91	89.319
1447.45	67.449
1450.99	82.242
1454.54	90.281
1458.07	61.881
1461.61	60.084
1465.15	28.407
1468.68	29.372
1472.21	15.644
1475.74	85.474
1479.27	83.717
1482.8	61.469
1486.32	77.908
1489.85	76.69
1493.37	86.284
1496.89	137.732
1500.41	90.032
1503.93	4.491
1507.44	25.825
1510.96	8.455
1514.47	23.722
1517.98	23.215
1521.49	0.143
