Measurement: Raman, 514 nm, ccw, Raman Data Processed
Mineral: Monazite-(Ce)
Rruff sample: R040106
Ideal chemistry: CePO_4_
Locality: Angola
Source: University of Arizona Mineral Museum
Description: Brown massive fragment
Measured chemistry: (Ce_0.41_La_0.17_Nd_0.17_Th_0.14_Ca_0.06_Y_0.04_)(P_0.95_Si_0.05_)O_4_
Pin_id: M00462
Orientation: Laser parallel to -a* (-1 0 0). Fiducial mark perpendicular to laser is parallel to b [0 1 0]
Raman shift (cm-1)	intensity
54.966	0
59.164	306.915
63.36	322.571
67.554	14.585
71.747	139.967
75.937	584.145
80.125	1048.05
84.311	1488.49
88.496	2059.71
92.678	2730.97
96.858	3189.03
101.036	3166.89
105.212	2866.74
109.387	2407.44
113.559	2063.81
117.729	2047.59
121.897	1621.83
126.063	1406.56
130.228	1257.64
134.39	875.329
138.55	786.695
142.709	582.526
146.865	397.312
151.019	315.149
155.171	216.159
159.322	99.316
163.47	107.418
167.617	3
171.761	81.545
175.904	91.115
180.044	192.668
184.183	52.16
188.319	57.553
192.454	51.187
196.586	134.915
200.717	259.942
204.846	480.309
208.972	721.718
213.097	733.743
217.22	861.355
221.341	1102.86
225.46	1134.08
229.577	1273.55
233.692	1255.89
237.805	1364.42
241.916	1619.35
246.025	1811.07
250.132	2109.65
254.237	2388.87
258.34	2660.64
262.442	2530.06
266.541	2678.19
270.639	2542.08
274.734	2561.76
278.828	2472.49
282.919	2476.98
287.009	2272.88
291.097	2121.53
295.183	1850.22
299.266	1871.93
303.348	1544.67
307.428	1405.43
311.507	1182.21
315.583	928.014
319.657	751.842
323.729	619.686
327.8	462.561
331.868	362.786
335.935	158.047
339.999	257.934
344.062	412.153
348.123	397.879
352.182	539.254
356.239	634.92
360.294	841.505
364.347	1149.95
368.398	1450.44
372.448	1701.8
376.495	1894.98
380.54	2443.18
384.584	2536.38
388.626	2821.6
392.666	3197.89
396.704	3257.28
400.74	3581.79
404.774	4304.38
408.806	5339.03
412.836	6810.75
416.865	7471.56
420.891	6554.56
424.916	4689.94
428.939	3376.55
432.959	2488.54
436.978	2166.98
440.996	2369.94
445.011	2680.33
449.024	3441.08
453.036	4198.08
457.045	5100.4
461.053	5935.01
465.059	6273.87
469.063	6022.95
473.065	5053.29
477.065	3891.82
481.063	3057.48
485.06	2477.21
489.054	1808.94
493.047	1252.69
497.038	1085.55
501.027	720.597
505.014	573.861
508.999	392.27
512.982	111.771
516.964	82.242
520.944	52.392
524.921	140.278
528.897	119.48
532.871	135.06
536.844	281.445
540.814	213.669
544.783	300.716
548.749	211.574
552.714	274.23
556.677	194.669
560.638	374.876
564.597	475.835
568.555	623.533
572.511	659.955
576.464	771.909
580.416	848.889
584.366	1027.65
588.315	1270.39
592.261	1572.52
596.206	1556.46
600.148	1636.05
604.089	1872.16
608.028	2729.91
611.965	3558.98
615.901	4575.44
619.834	5114.69
623.766	4455.8
627.696	3567.58
631.624	2912.35
635.551	2293.59
639.475	2134.82
643.398	1883.65
647.318	1866.81
651.237	1795.7
655.155	1736.81
659.07	1833
662.984	1702.39
666.895	1818.96
670.805	1613.7
674.713	1682.6
678.62	1802.47
682.524	1588.6
686.427	1516.88
690.328	1513
694.227	1538.48
698.124	1310.04
702.02	1227.68
705.913	930.379
709.805	902.126
713.695	484.911
717.584	462.724
721.47	358.554
725.355	188.391
729.238	131.227
733.119	14.057
736.998	80.736
740.876	4.023
744.752	141.667
748.626	88.101
752.498	139.4
756.368	115.619
760.237	1.415
764.104	15.916
767.969	54.668
771.832	34.524
775.693	18.454
779.553	22.985
783.411	21.894
787.267	45.679
791.122	166.915
794.974	136.869
798.825	113.676
802.674	66.383
806.522	154.968
810.367	218.43
814.211	297.794
818.053	412.083
821.893	383.297
825.732	481.437
829.568	525.502
833.403	672.506
837.236	625.544
841.068	781.594
844.898	816.607
848.726	858.554
852.552	1022.44
856.376	1066.26
860.199	1287.02
864.02	1487.72
867.839	1569.37
871.656	1555.01
875.472	1413.67
879.286	1312.38
883.098	1242.14
886.909	1165.95
890.717	1110.76
894.524	972.592
898.33	805.924
902.133	702.725
905.935	719.34
909.735	741.468
913.533	702.303
917.33	862.235
921.124	987.693
924.918	1184.68
928.709	1511.37
932.499	2046.5
936.286	2800.01
940.073	3881.01
943.857	5450.78
947.64	7223.31
951.421	9833.57
955.2	13563.4
958.978	18781.6
962.753	25913
966.527	35588.8
970.3	46046.7
974.071	51161.8
977.84	44449.1
981.607	31326.5
985.372	21110.1
989.136	14025.9
992.898	9879.88
996.659	7157.97
1000.42	5711.2
1004.17	4736.92
1007.93	3938.62
1011.68	3202.6
1015.43	2806.67
1019.18	2533.48
1022.93	2400.35
1026.68	2379.17
1030.42	2373.6
1034.17	2359.73
1037.91	2348.04
1041.65	2564.43
1045.39	2799.19
1049.12	3263.23
1052.86	3879.91
1056.59	4654.34
1060.33	5211.59
1064.06	5516.37
1067.78	5168.69
1071.51	4487.04
1075.23	3889.37
1078.96	3211.2
1082.68	2609
1086.4	2110.16
1090.12	1722.51
1093.83	1460.18
1097.55	1211.48
1101.26	906.552
1104.97	878.007
1108.68	706
1112.39	652.762
1116.1	532.432
1119.8	405.315
1123.5	483.677
1127.2	399.944
1130.9	269.735
1134.6	304.427
1138.3	182.777
1141.99	134.142
1145.69	79.639
1149.38	6.378
1153.07	23.336
1156.76	5.315
1160.44	105.049
1164.13	7.07
1167.81	41.194
1171.49	22.797
1175.17	19.076
1178.85	15.269
1182.52	2.571
1186.2	11.686
1189.87	13.937
1193.54	26.637
1197.21	35.55
1200.88	49.186
1204.55	85.427
1208.21	95.82
1211.88	80.494
1215.54	20.355
1219.2	25.839
1222.86	0.381
1226.51	4.679
1230.17	33.598
1233.82	3.326
1237.47	8.576
1241.12	115.168
1244.77	76.387
1248.42	46.934
1252.06	76.083
1255.71	125.008
1259.35	67.727
1262.99	76.979
1266.63	217.711
1270.26	118.578
1273.9	164.828
1277.53	93.195
1281.16	98.99
1284.8	98.777
1288.42	197.923
1292.05	187.517
1295.68	187.154
1299.3	244.084
1302.92	208.816
1306.55	196.893
1310.16	239.625
1313.78	184.735
1317.4	235.061
1321.01	153.081
1324.62	132.023
1328.24	243.153
1331.85	148.912
1335.45	138.333
1339.06	216.641
1342.66	188.877
1346.27	214.871
1349.87	295.375
1353.47	240.565
1357.07	207.128
1360.66	129.005
1364.26	149.08
1367.85	112.637
1371.44	150.16
1375.04	102.015
1378.62	179.704
1382.21	144.815
1385.8	127.89
1389.38	166.865
1392.96	179.578
1396.54	171.677
1400.12	143.844
1403.7	141.833
1407.28	19.246
1410.85	102.949
1414.42	110.185
1417.99	189.082
1421.56	130.243
1425.13	146.437
1428.7	189.036
1432.26	86.666
1435.83	187.259
1439.39	137.814
1442.95	154.952
1446.51	125.18
1450.06	74.671
1453.62	195.287
1457.17	147.099
1460.73	106.738
1464.28	141.008
1467.83	57.899
1471.37	56.765
1474.92	124.595
1478.46	148.672
1482.01	157.777
1485.55	126.876
1489.09	29.742
1492.63	97.276
1496.16	131.197
1499.7	29.432
1503.23	43.327
1506.76	113.661
1510.29	71.854
1513.82	209.387
1517.35	125.258
1520.88	111.35
1524.4	114.191
