Measurement: Raman, 514 nm, ccw, Raman Data Processed
Mineral: Monazite-(Ce)
Rruff sample: R040106
Ideal chemistry: CePO_4_
Locality: Angola
Source: University of Arizona Mineral Museum
Description: Brown massive fragment
Measured chemistry: (Ce_0.41_La_0.17_Nd_0.17_Th_0.14_Ca_0.06_Y_0.04_)(P_0.95_Si_0.05_)O_4_
Pin_id: M00299
Orientation: Laser parallel to c* (0 0 1). Fiducial mark perpendicular to laser is parallel to a [1 0 0]
Raman shift (cm-1)	intensity
80.653	0
84.851	8.546
89.047	328.929
93.242	683.464
97.434	809.912
101.624	740.54
105.812	855.474
109.998	1072.35
114.182	1276.28
118.363	1430.15
122.543	1216.48
126.72	916.61
130.896	596.753
135.069	412.768
139.24	275.634
143.41	178.892
147.577	291.562
151.742	485.014
155.905	848.724
160.066	971.992
164.225	1325.82
168.381	1817.76
172.536	2427.03
176.689	2696.48
180.839	2224.92
184.988	1617.16
189.134	953.037
193.279	448.424
197.421	271.231
201.561	147.269
205.7	3.356
209.836	59.521
213.97	67.823
218.102	1.019
222.232	57.487
226.36	131.844
230.486	79.576
234.61	4.348
238.732	50.258
242.852	92.105
246.969	294.879
251.085	392.667
255.199	482.745
259.31	730.096
263.42	881.44
267.528	1111.62
271.633	1561.48
275.737	1845.03
279.838	2089.26
283.938	2301.99
288.035	2261.09
292.131	2049.66
296.224	1792.88
300.315	1572.85
304.405	1341.65
308.492	1214.19
312.578	1042.13
316.661	985.776
320.742	905.422
324.821	721.171
328.899	575.948
332.974	569.116
337.047	517.666
341.119	531.586
345.188	540.868
349.255	648.506
353.32	871.497
357.384	1230.84
361.445	1437.53
365.504	1819.74
369.561	2136.88
373.617	2466.26
377.67	2850.04
381.721	3113.12
385.77	3512.09
389.818	4012.19
393.863	4270.84
397.906	4872.72
401.948	5451.63
405.987	6360.81
410.025	7844.26
414.06	9968.04
418.093	11542.1
422.125	10716.7
426.154	7871.94
430.182	5347.75
434.207	3934.2
438.231	3283.33
442.252	3149.21
446.272	3161.85
450.29	3547.2
454.305	3927.27
458.319	4577.88
462.331	5128.95
466.341	5300.48
470.348	4972.54
474.354	4315.02
478.358	3597.93
482.36	2876.28
486.36	2561.08
490.358	1786.35
494.354	1454.09
498.349	1135.28
502.341	869.923
506.331	651.021
510.319	523.567
514.306	335.558
518.29	113.989
522.273	19.858
526.253	140.844
530.232	110.136
534.208	13.951
538.183	154.912
542.156	4.481
546.127	119.839
550.096	231.968
554.063	197.854
558.028	351.46
561.991	559.648
565.952	1160.33
569.911	2051.41
573.869	2235.88
577.824	1438.86
581.778	931.756
585.729	702.698
589.679	647.283
593.627	846.684
597.573	823.192
601.517	840.144
605.459	950.596
609.399	1173.93
613.337	1514.55
617.273	2050.57
621.208	2601.3
625.14	2386.05
629.071	1855.63
632.999	1510.12
636.926	1287.78
640.851	1275.61
644.774	1243.6
648.695	1152.74
652.614	1068.04
656.531	1077.5
660.447	1143.09
664.36	974.828
668.272	992.702
672.182	996.708
676.089	1200.84
679.995	1229.11
683.899	1249.51
687.802	1166.02
691.702	1256.56
695.6	1224.19
699.497	1227.96
703.391	1057.9
707.284	879.925
711.175	868.036
715.064	562.224
718.951	362.481
722.837	401.807
726.72	146.197
730.601	73.648
734.481	82.923
738.359	105.926
742.235	90.501
746.109	165.561
749.981	128.257
753.851	151.768
757.72	103.751
761.587	60.586
765.451	97.055
769.314	15.677
773.175	10.822
777.034	16.622
780.892	29.155
784.747	89.944
788.601	116.658
792.453	117.492
796.303	256.452
800.151	372.542
803.997	457.77
807.841	569.388
811.684	649.651
815.525	808.315
819.363	896.134
823.201	980.111
827.036	1069.25
830.869	1166.56
834.701	1242.04
838.53	1310.73
842.358	1630.64
846.184	1541.81
850.008	1548.18
853.831	1634.74
857.651	1644.51
861.47	1577.61
865.287	1579.64
869.102	1566.03
872.915	1539.63
876.727	1352.45
880.536	1205.5
884.344	1158.79
888.15	1007.21
891.954	788.099
895.757	623.014
899.557	574.829
903.356	473.235
907.153	434.795
910.948	419.627
914.741	311.182
918.533	225.708
922.323	377.097
926.111	583.48
929.897	834.479
933.681	1230.55
937.463	1749.76
941.244	2619.83
945.023	3593.42
948.8	5155.48
952.575	6886.06
956.349	9387.12
960.121	12628.6
963.891	17050.6
967.659	23213
971.425	29485.8
975.19	32459.1
978.952	26452.8
982.713	17826.9
986.473	12061.4
990.23	8206.26
993.986	6361.56
997.739	5117.26
1001.49	4265.33
1005.24	3765.78
1008.99	3314.61
1012.74	3050.81
1016.48	2873.37
1020.23	2918.29
1023.97	3277.57
1027.71	3262.19
1031.44	3274.01
1035.18	3544.49
1038.91	3659.46
1042.65	4392.79
1046.38	5133.36
1050.11	6408.38
1053.84	7730.32
1057.56	9112.79
1061.28	10051.4
1065.01	10466.3
1068.73	9990.23
1072.44	9148.91
1076.16	7763.72
1079.88	6659.64
1083.59	5398.49
1087.3	4367.4
1091.01	3374.36
1094.72	2803.49
1098.42	2197.39
1102.13	1807.23
1105.83	1569.31
1109.53	1161.86
1113.23	961.725
1116.93	811.43
1120.63	620.556
1124.32	645.417
1128.01	479.804
1131.7	450.371
1135.39	346.169
1139.08	319.867
1142.77	246.129
1146.45	104.247
1150.13	197.208
1153.81	172.979
1157.49	238.731
1161.17	179.907
1164.84	199.27
1168.51	135.136
1172.18	71.83
1175.86	27.795
1179.52	15.152
1183.19	4.946
1186.86	17.358
1190.52	26.641
1194.18	39.217
1197.84	60.581
1201.5	119.457
1205.15	99.329
1208.81	21.946
1212.46	80.121
1216.11	5.327
1219.76	35.332
1223.41	32.746
1227.05	62.185
1230.7	7.198
1234.34	16.72
1237.98	29.456
1241.62	47.097
1245.26	72.285
1248.89	107.799
1252.53	149.347
1256.16	108.904
1259.79	120.18
1263.42	168.974
1267.05	163.136
1270.67	208.935
1274.3	242.962
1277.92	253.428
1281.54	306.281
1285.16	283.426
1288.77	307.204
1292.39	296.444
1296	285.102
1299.61	286.366
1303.22	375.016
1306.83	392.977
1310.44	340.604
1314.05	340.538
1317.65	275.099
1321.25	318.944
1324.85	375.501
1328.45	362.579
1332.05	367.602
1335.64	335.712
1339.24	374.276
1342.83	338.657
1346.42	343.408
1350.01	295.377
1353.59	271.949
1357.18	152.565
1360.76	228.373
1364.34	160.69
1367.92	202.098
1371.5	164.116
1375.08	163.258
1378.65	151.998
1382.23	121.548
1385.8	175.09
1389.37	149.619
1392.94	55.664
1396.51	86.143
1400.07	69.088
1403.64	68.662
1407.2	120.407
1410.76	114.633
1414.32	146.816
1417.87	206.363
1421.43	152.143
1424.98	125.961
1428.54	121.086
1432.09	60.394
1435.63	71.662
1439.18	29.635
1442.73	72.676
1446.27	99.37
1449.82	83.86
1453.36	38.604
1456.89	83.107
1460.43	115.054
1463.97	86.75
1467.5	85.386
1471.04	21.52
1474.57	15.181
1478.1	0.237
1481.62	57.66
1485.15	31.198
1488.67	69.098
1492.2	53.573
1495.72	69.97
1499.24	71.242
1502.76	60.844
1506.27	88.31
1509.79	27.045
1513.3	47.003
1516.81	5.719
1520.32	32.977
1523.83	0
