Measurement: Raman, 514 nm, ccw, Raman Data Processed
Mineral: Monazite-(Ce)
Rruff sample: R040106
Ideal chemistry: CePO_4_
Locality: Angola
Source: University of Arizona Mineral Museum
Description: Brown massive fragment
Measured chemistry: (Ce_0.41_La_0.17_Nd_0.17_Th_0.14_Ca_0.06_Y_0.04_)(P_0.95_Si_0.05_)O_4_
Pin_id: M00371
Orientation: Laser parallel to (1 0 1). Fiducial mark perpendicular to laser is parallel to b [0 1 0]
Raman shift (cm-1)	intensity
87.649	0
91.844	112.225
96.037	464.432
100.227	1035.43
104.416	1128.35
108.603	1259.33
112.787	1561.59
116.97	1960.51
121.15	1824.3
125.328	1285.76
129.504	883.381
133.678	541.521
137.85	122.725
142.02	49.94
146.188	78.773
150.354	51.775
154.517	33.671
158.679	225.591
162.839	364.867
166.996	461.666
171.152	894.132
175.305	1161.74
179.456	1150.71
183.605	743.938
187.752	423.251
191.898	278.489
196.041	215.694
200.182	195.504
204.321	252.282
208.457	418.205
212.592	549.762
216.725	718.789
220.856	699.782
224.984	666.026
229.111	487.612
233.236	269.538
237.358	176.766
241.479	192.252
245.597	69.998
249.713	161.014
253.828	184.805
257.94	305.291
262.05	471.484
266.159	789.542
270.265	1189.1
274.369	1587.99
278.471	1872.53
282.572	2162.94
286.67	2191.45
290.766	1914.11
294.86	1636.08
298.952	1430.31
303.042	1151.81
307.13	909.619
311.216	724.743
315.3	574.708
319.382	475.342
323.462	272.921
327.54	148.665
331.616	64.421
335.69	42.413
339.762	106.39
343.832	220.473
347.9	23.728
351.965	0.026
356.029	183.791
360.091	254.795
364.151	555.993
368.209	773.397
372.265	1002.02
376.319	1220.74
380.371	1493.04
384.421	1720.9
388.469	2031.92
392.515	2337.2
396.559	2812.73
400.601	3352.52
404.641	4175.55
408.679	5438.84
412.715	7492.37
416.749	9606.14
420.781	9810.09
424.811	7714.2
428.839	5318.48
432.866	3593.02
436.89	2602.89
440.912	2254.21
444.932	2191
448.951	2217.28
452.967	2474.09
456.981	2673.4
460.994	2944.2
465.004	2962.47
469.013	2751.29
473.019	2427.78
477.024	1834.92
481.026	1504.53
485.027	1097.42
489.026	827.527
493.023	740.146
497.017	377.451
501.01	393.264
505.001	256.757
508.99	105.009
512.977	39.781
516.962	130.207
520.945	143.824
524.927	99.625
528.906	50.606
532.883	273.764
536.858	300.093
540.832	440.594
544.803	462.272
548.773	632.127
552.741	979.151
556.706	1321.34
560.67	1630.68
564.632	2389.18
568.592	4049.83
572.55	5504.62
576.506	4349.54
580.46	2698.59
584.412	1776.77
588.363	1421.36
592.311	1215.81
596.258	1125.77
600.202	874.406
604.145	769.763
608.086	851.438
612.024	906.784
615.961	909.841
619.896	925.344
623.829	1126.46
627.761	1086.84
631.69	1120.88
635.617	1019.32
639.543	1136.67
643.466	1184.33
647.388	1263.7
651.308	1312.98
655.226	1331.27
659.142	1329.66
663.056	1415.27
666.968	1499.06
670.879	1594.93
674.787	1640.69
678.694	1778.33
682.598	1838.83
686.501	2001.19
690.402	2058.41
694.301	2025.49
698.198	1972.42
702.093	1958.21
705.987	1781.84
709.878	1476.31
713.768	1360.63
717.656	1123.78
721.542	796.775
725.426	560.603
729.308	317.263
733.188	250.755
737.067	138.076
740.943	56.225
744.818	39.136
748.691	12.323
752.562	49.376
756.431	88.152
760.298	64.658
764.163	75.888
768.027	81.584
771.888	69.654
775.748	74.085
779.606	99.203
783.462	81.089
787.317	36.608
791.169	68.659
795.019	36.165
798.868	66.061
802.715	108.156
806.56	158.131
810.403	131.991
814.245	68.741
818.084	271.383
821.922	148.919
825.758	228.354
829.592	345.693
833.424	350.943
837.254	400.111
841.082	408.203
844.909	459.224
848.734	502.181
852.557	471.081
856.378	512.93
860.197	550.735
864.015	520.503
867.831	545.239
871.645	598.951
875.457	653.645
879.267	443.328
883.075	382.005
886.882	426.687
890.687	328.377
894.49	379.042
898.291	231.178
902.09	130.299
905.888	158.339
909.683	55.771
913.477	58.565
917.269	126.067
921.06	199.492
924.848	377.809
928.635	552.53
932.42	798.862
936.203	1420.98
939.984	1927.39
943.764	2910.91
947.541	4223.85
951.317	5915.65
955.091	8301.91
958.864	11738.5
962.634	16525.4
966.403	22752.8
970.17	30730.4
973.935	35848.5
977.698	32246.9
981.46	23775.7
985.22	16084.8
988.978	11184.1
992.734	8213.82
996.488	6243.81
1000.24	4814.1
1003.99	4184.69
1007.74	3512.57
1011.49	3220.76
1015.23	2828.25
1018.98	2524.05
1022.72	2239.15
1026.46	2190.56
1030.2	2150.29
1033.93	2218.32
1037.67	2247.65
1041.4	2338.27
1045.13	2481.19
1048.86	2789.46
1052.59	3333.14
1056.32	4020.36
1060.04	4751.14
1063.77	5317.74
1067.49	5249.45
1071.2	4733.79
1074.92	4031.01
1078.64	3572.95
1082.35	3129.84
1086.06	2675.87
1089.78	2316.25
1093.48	1871.67
1097.19	1431.53
1100.89	1287.18
1104.6	1054.33
1108.3	1071.75
1112	922.292
1115.7	874.995
1119.39	777.783
1123.09	637.896
1126.78	577.588
1130.47	543.798
1134.16	557.162
1137.85	636.928
1141.54	677.493
1145.22	716.735
1148.9	637.906
1152.58	649.925
1156.26	645.046
1159.94	635.595
1163.62	647.687
1167.29	613.004
1170.96	607.715
1174.63	487.162
1178.3	384.812
1181.97	309.478
1185.63	228.515
1189.3	176.443
1192.96	148.896
1196.62	158.333
1200.28	137.217
1203.93	80.655
1207.59	18.605
1211.24	24.744
1214.89	55.766
1218.54	91.892
1222.19	61.059
1225.84	3.583
1229.48	18.163
1233.13	6.848
1236.77	45.819
1240.41	56.714
1244.05	106.7
1247.68	93.445
1251.32	23.753
1254.95	13.751
1258.58	47.701
1262.21	124.336
1265.84	63.201
1269.46	46.624
1273.09	16.632
1276.71	58.86
1280.33	23.91
1283.95	73.638
1287.57	86.952
1291.18	113.608
1294.8	105.285
1298.41	180.163
1302.02	95.774
1305.63	70.151
1309.24	94.941
1312.84	67.212
1316.45	102.972
1320.05	120.201
1323.65	218.001
1327.25	168.416
1330.85	231.261
1334.44	177.84
1338.04	205.084
1341.63	142.547
1345.22	154.904
1348.81	113.836
1352.4	153.146
1355.98	229.056
1359.57	232.347
1363.15	249.065
1366.73	177.006
1370.31	139.108
1373.89	109.815
1377.46	71.525
1381.04	81.488
1384.61	105.477
1388.18	140.076
1391.75	135.396
1395.32	115.453
1398.88	170.538
1402.45	160.591
1406.01	137.643
1409.57	81.614
1413.13	69.715
1416.69	125.272
1420.24	85.783
1423.8	85.076
1427.35	170.945
1430.9	156.117
1434.45	91.118
1438	144.606
1441.55	145.278
1445.09	93.466
1448.63	33.834
1452.18	35.656
1455.71	45.516
1459.25	57.948
1462.79	53.229
1466.32	78.439
1469.86	91.449
1473.39	189.549
1476.92	166.255
1480.45	155.061
1483.97	65.767
1487.5	13.108
1491.02	58.395
1494.54	40.516
1498.06	1.789
1501.58	98.493
1505.1	130.077
1508.62	116.541
1512.13	102.379
1515.64	163.775
1519.15	135.98
1522.66	169.191
