Measurement: Raman, 514 nm, ccw, Raman Data Processed
Mineral: Monazite-(Ce)
Rruff sample: R040106
Ideal chemistry: CePO_4_
Locality: Angola
Source: University of Arizona Mineral Museum
Description: Brown massive fragment
Measured chemistry: (Ce_0.41_La_0.17_Nd_0.17_Th_0.14_Ca_0.06_Y_0.04_)(P_0.95_Si_0.05_)O_4_
Pin_id: M00299
Orientation: Laser parallel to c* (0 0 1). Fiducial mark perpendicular to laser is parallel to a [1 0 0]
Raman shift (cm-1)	intensity
90.446	0
94.639	169.459
98.831	680.361
103.02	881.84
107.207	913.009
111.393	794.212
115.576	813.988
119.757	666.876
123.936	600.217
128.112	530.472
132.287	511.511
136.46	440.446
140.63	491.838
144.799	470.98
148.965	441.548
153.13	410.625
157.292	178.1
161.452	163.963
165.611	61.201
169.767	36.934
173.921	26.503
178.073	4.909
182.222	39.77
186.37	74.664
190.516	113.908
194.66	39.394
198.801	61.508
202.941	37.391
207.079	107.144
211.214	147.536
215.348	269.202
219.479	392.295
223.608	504.739
227.736	623.27
231.861	587.031
235.984	638.567
240.105	729.898
244.224	820.035
248.342	990.994
252.457	1213.79
256.57	1510.1
260.681	1593.32
264.79	1595.52
268.896	1640.19
273.001	1575.17
277.104	1577.4
281.205	1660.78
285.304	1687.24
289.401	1614.98
293.495	1576.62
297.588	1450.99
301.679	1296.87
305.767	1247.81
309.854	1063.07
313.939	973.854
318.021	861.329
322.102	700.22
326.181	595.805
330.257	461.219
334.332	384.373
338.405	433.026
342.475	454.146
346.544	408.012
350.61	566.593
354.675	661.313
358.738	899.807
362.798	1035.96
366.857	1222.69
370.913	1435.06
374.968	1673.56
379.021	1993.29
383.071	2301.65
387.12	2731.85
391.166	3035.34
395.211	3442.71
399.254	3447.75
403.294	3495.47
407.333	3869.86
411.37	4426.99
415.405	5184.65
419.437	5643.08
423.468	4712.07
427.497	3332.72
431.524	2439.14
435.549	1847.31
439.572	1704.27
443.593	1929.06
447.611	2168.72
451.628	2673.2
455.644	3301.48
459.657	4157.52
463.668	4694.27
467.677	4681.83
471.684	4860.17
475.689	3569.27
479.692	3000.12
483.694	2329.73
487.693	1814.65
491.691	1425.38
495.686	1073.51
499.68	746.529
503.671	596.404
507.661	456.138
511.648	376.747
515.634	135.336
519.618	20.06
523.6	61.401
527.58	28.421
531.558	55.644
535.534	166.738
539.508	235.739
543.48	171.352
547.45	173.57
551.418	147.386
555.385	115.791
559.349	146.778
563.312	246.339
567.272	206.466
571.231	340.152
575.187	481.682
579.142	534.402
583.095	584.024
587.046	691.941
590.995	781.779
594.942	979.406
598.888	1218.17
602.831	1336.64
606.772	1518.48
610.712	2044.53
614.649	2861.91
618.585	3821.27
622.519	3810.83
626.45	3262.19
630.38	2543.32
634.308	2025.68
638.235	1654.11
642.159	1468.43
646.081	1399.99
650.002	1408.83
653.92	1406.94
657.837	1258.32
661.752	1259.94
665.664	1260.81
669.575	1293.91
673.484	1368.22
677.392	1362.59
681.297	1352.93
685.2	1298.56
689.102	1202.26
693.002	1197.52
696.899	1135.95
700.795	946.537
704.689	808.279
708.581	704.167
712.472	621.196
716.36	437.358
720.247	308.649
724.131	143.062
728.014	9.591
731.895	39.816
735.774	54.253
739.651	116.087
743.526	135.377
747.4	103.271
751.271	63.68
755.141	36.644
759.009	113.179
762.875	104.269
766.739	14.784
770.601	36.573
774.462	8.517
778.32	55.505
782.177	14.318
786.032	62.139
789.885	64.031
793.736	172.99
797.585	70.029
801.433	76.163
805.279	224.394
809.122	246.723
812.964	420.15
816.804	421.677
820.643	515.303
824.479	567.029
828.314	608.855
832.147	738.786
835.977	824.836
839.807	913.019
843.634	891.345
847.459	1053.79
851.283	1103.33
855.105	1235.99
858.925	1240.76
862.743	1371.63
866.559	1428.62
870.373	1359.74
874.186	1392.53
877.997	1312.44
881.806	1316.96
885.613	1077.4
889.419	929.915
893.222	832.382
897.024	611.676
900.824	654.668
904.622	493.13
908.418	439.648
912.213	329.711
916.005	355.896
919.796	392.082
923.585	627.682
927.373	781.788
931.158	1114.35
934.942	1565.12
938.724	2213.33
942.504	3264.65
946.282	4498.52
950.059	6298.08
953.833	8741
957.606	11734.2
961.377	16437.7
965.147	22741.4
968.914	31625.4
972.68	39989.7
976.444	38384.2
980.206	29088.9
983.967	19453.9
987.725	12679.1
991.482	8914.59
995.237	6530.27
998.99	4818.17
1002.74	3596.28
1006.49	2733.6
1010.24	2283.13
1013.99	1996.85
1017.73	2034.07
1021.47	1867.61
1025.21	1744.89
1028.95	1695.94
1032.69	1636.83
1036.42	1771.11
1040.16	1900.77
1043.89	2163.45
1047.62	2364.8
1051.35	2899.49
1055.08	3369.34
1058.8	4155.88
1062.53	4633.82
1066.25	4833.19
1069.97	4837.83
1073.68	4338.23
1077.4	3920.67
1081.11	3314.74
1084.83	2708.69
1088.54	2234.53
1092.25	1941.59
1095.95	1576.56
1099.66	1335.7
1103.36	1102.61
1107.07	825.619
1110.77	705.158
1114.47	670.504
1118.16	522.312
1121.86	465.197
1125.55	424.409
1129.24	328.271
1132.93	158.864
1136.62	177.251
1140.31	101.478
1143.99	113.298
1147.68	176.885
1151.36	123.12
1155.04	55.943
1158.71	62.604
1162.39	8.23
1166.07	22.322
1169.74	44.32
1173.41	32.863
1177.08	40.335
1180.75	6.233
1184.41	33.492
1188.08	75.635
1191.74	30.305
1195.4	86.65
1199.06	34.464
1202.71	28.102
1206.37	42.589
1210.02	5.652
1213.68	46.458
1217.33	31.13
1220.98	41.401
1224.62	38.354
1228.27	27.111
1231.91	42.058
1235.55	36.699
1239.19	125.818
1242.83	81.339
1246.47	81.252
1250.1	70.797
1253.74	104.434
1257.37	159.017
1261	153.246
1264.63	147.058
1268.25	235.128
1271.88	277.968
1275.5	221.007
1279.12	245.122
1282.74	180.733
1286.36	235.469
1289.98	262.68
1293.59	300.411
1297.21	354.764
1300.82	356.55
1304.43	394.091
1308.04	282.85
1311.64	265.196
1315.25	314.184
1318.85	292.295
1322.45	290.432
1326.05	351.34
1329.65	333.771
1333.24	369.932
1336.84	368.698
1340.43	330.342
1344.03	312.861
1347.61	261.008
1351.2	216.298
1354.79	219.654
1358.37	214.626
1361.96	215.524
1365.54	219.916
1369.12	218.965
1372.69	214.637
1376.27	146.989
1379.85	91.57
1383.42	117.097
1386.99	122.431
1390.56	74.368
1394.13	90.095
1397.7	100.698
1401.26	161.617
1404.82	113.233
1408.38	146.296
1411.94	68.084
1415.5	116.68
1419.06	104.806
1422.62	48.809
1426.17	56.146
1429.72	36.373
1433.27	63.431
1436.82	71.468
1440.37	73.205
1443.91	108.461
1447.45	101.132
1450.99	83.854
1454.54	59.538
1458.07	8.532
1461.61	54.711
1465.15	67.49
1468.68	47.875
1472.21	87.503
1475.74	61.473
1479.27	76.975
1482.8	65.276
1486.32	101.051
1489.85	68.646
1493.37	25.319
1496.89	27.169
1500.41	56.776
1503.93	49.215
1507.44	13.877
1510.96	33.48
1514.47	19.632
1517.98	26.512
1521.49	36.245
1525	0
