Measurement: Raman, 514 nm, ccw, Raman Data Processed
Mineral: Monazite-(Ce)
Rruff sample: R040106
Ideal chemistry: CePO_4_
Locality: Angola
Source: University of Arizona Mineral Museum
Description: Brown massive fragment
Measured chemistry: (Ce_0.41_La_0.17_Nd_0.17_Th_0.14_Ca_0.06_Y_0.04_)(P_0.95_Si_0.05_)O_4_
Pin_id: M00371
Orientation: Laser parallel to (1 0 1). Fiducial mark perpendicular to laser is parallel to b [0 1 0]
Raman shift (cm-1)	intensity
107.207	0
111.393	86.411
115.576	372.902
119.757	511.867
123.936	796.25
128.112	961.35
132.287	985.47
136.46	664.725
140.63	373.832
144.799	149.33
148.965	93.878
153.13	400.744
157.292	384.723
161.452	283.938
165.611	172.376
169.767	245.569
173.921	398.388
178.073	480.651
182.222	224.232
186.37	118.309
190.516	62.974
194.66	24.981
198.801	75.68
202.941	73.791
207.079	33.066
211.214	154.346
215.348	212.542
219.479	326.395
223.608	336.794
227.736	354.211
231.861	309.442
235.984	241.891
240.105	216.056
244.224	144.813
248.342	173.146
252.457	348.114
256.57	577.721
260.681	733.972
264.79	817.875
268.896	1136.44
273.001	1284.72
277.104	1601.01
281.205	1710.63
285.304	1791.92
289.401	1736.77
293.495	1632.02
297.588	1441.55
301.679	1409.65
305.767	1266.54
309.854	1100.05
313.939	920.222
318.021	879.65
322.102	734.642
326.181	598.769
330.257	489.754
334.332	360.975
338.405	292.906
342.475	308.46
346.544	303.782
350.61	462.149
354.675	550.029
358.738	796.844
362.798	987.756
366.857	1134.94
370.913	1375.1
374.968	1561.57
379.021	1980.56
383.071	2240.45
387.12	2619.17
391.166	3116.33
395.211	3504.95
399.254	3784.04
403.294	3753.62
407.333	4253.66
411.37	4694.24
415.405	5705.31
419.437	6146.88
423.468	5389.02
427.497	3741.83
431.524	2605.39
435.549	1875.64
439.572	1600.45
443.593	1503.69
447.611	1633.37
451.628	1769.53
455.644	2117.09
459.657	2432.14
463.668	2652.71
467.677	2620.79
471.684	2378.39
475.689	1875.52
479.692	1476.25
483.694	1268.5
487.693	1025.33
491.691	688.719
495.686	482.704
499.68	286.217
503.671	246.21
507.661	217.692
511.648	102.702
515.634	32.304
519.618	47.75
523.6	3.908
527.58	36.029
531.558	55.396
535.534	28.709
539.508	181.234
543.48	189.172
547.45	189.503
551.418	311.223
555.385	537.323
559.349	808.798
563.312	1103.64
567.272	1368.84
571.231	2187.4
575.187	2024.3
579.142	1352.39
583.095	1159.09
587.046	1086.1
590.995	1247.58
594.942	1129.7
598.888	800.724
602.831	824.614
606.772	870.236
610.712	1038.03
614.649	1433.92
618.585	1670.03
622.519	1832.21
626.45	1781.15
630.38	1484.32
634.308	1154.51
638.235	1049.66
642.159	1005.36
646.081	929.217
650.002	1056.18
653.92	1067.25
657.837	928.408
661.752	987.655
665.664	1088.98
669.575	1086.68
673.484	1183.81
677.392	1178.34
681.297	1304.88
685.2	1191.97
689.102	1220.61
693.002	1211.53
696.899	1210.19
700.795	1045.86
704.689	955.528
708.581	863.2
712.472	781.866
716.36	556.522
720.247	425.164
724.131	204.785
728.014	167.385
731.895	107.957
735.774	115.445
739.651	93.286
743.526	87.547
747.4	58.399
751.271	92.385
755.141	60.039
759.009	67.762
762.875	50.037
766.739	28.523
770.601	56.771
774.462	26.224
778.32	11.025
782.177	19.119
786.032	7.539
789.885	47.027
793.736	46.358
797.585	54.629
801.433	62.841
805.279	194.04
809.122	247.228
812.964	339.559
816.804	313.583
820.643	442.757
824.479	406.933
828.314	546.115
832.147	568.303
835.977	642.502
839.807	629.739
843.634	657.036
847.459	712.375
851.283	823.741
855.105	862.134
858.925	864.559
862.743	921.297
866.559	1024.51
870.373	895.047
874.186	890.627
877.997	890.255
881.806	860.935
885.613	680.67
889.419	572.614
893.222	519.153
897.024	398.227
900.824	385.65
904.622	191.183
908.418	198.145
912.213	76.326
916.005	102.754
919.796	124.781
923.585	268.377
927.373	367.849
931.158	671.964
934.942	967.307
938.724	1474.13
942.504	2365.12
946.282	3320.39
950.059	4710.57
953.833	6535.98
957.606	8981.74
961.377	12547.8
965.147	17494.2
968.914	24370.9
972.68	31577.9
976.444	30985.1
980.206	24032.5
983.967	16100.3
987.725	10508.2
991.482	7416.44
995.237	5474.9
998.99	4243.58
1002.74	3340.5
1006.49	2457.64
1010.24	2244
1013.99	1856.59
1017.73	1896.4
1021.47	1761.43
1025.21	1634.68
1028.95	1549.15
1032.69	1534.82
1036.42	1519.71
1040.16	1688.85
1043.89	1904.8
1047.62	2226.59
1051.35	2588.66
1055.08	3185.97
1058.8	3840.92
1062.53	4406.92
1066.25	4661.17
1069.97	4626.35
1073.68	4218
1077.4	3865.04
1081.11	3232.09
1084.83	2683.14
1088.54	2232.03
1092.25	1944.96
1095.95	1600.98
1099.66	1361.24
1103.36	1170
1107.07	1121.22
1110.77	759.638
1114.47	660.166
1118.16	569.829
1121.86	510.685
1125.55	500.645
1129.24	469.189
1132.93	311.088
1136.62	234.137
1140.31	189.914
1143.99	268.843
1147.68	292.576
1151.36	323.304
1155.04	301.357
1158.71	288.417
1162.39	296.083
1166.07	129.427
1169.74	195.967
1173.41	163.464
1177.08	109.783
1180.75	138.702
1184.41	60.467
1188.08	9.734
1191.74	38.815
1195.4	20.3
1199.06	17.949
1202.71	21.197
1206.37	9.263
1210.02	18.584
1213.68	23.63
1217.33	51.546
1220.98	81.103
1224.62	113.373
1228.27	48.289
1231.91	45.429
1235.55	1.912
1239.19	45.703
1242.83	28.254
1246.47	22.833
1250.1	36.777
1253.74	1.751
1257.37	26.65
1261	12.368
1264.63	45.253
1268.25	69.513
1271.88	145.706
1275.5	90.469
1279.12	84.856
1282.74	130.678
1286.36	96.132
1289.98	102.02
1293.59	205.389
1297.21	231.164
1300.82	265.575
1304.43	249.434
1308.04	194.74
1311.64	218.738
1315.25	209.294
1318.85	164.242
1322.45	177.705
1326.05	192.489
1329.65	269.156
1333.24	301.231
1336.84	269.987
1340.43	321.384
1344.03	268.135
1347.61	284.722
1351.2	237.947
1354.79	199.093
1358.37	255.907
1361.96	229.801
1365.54	219.8
1369.12	260.129
1372.69	193.396
1376.27	160.597
1379.85	73.609
1383.42	135.802
1386.99	131.394
1390.56	66.857
1394.13	74.425
1397.7	110.491
1401.26	107.19
1404.82	101.368
1408.38	123.145
1411.94	175.279
1415.5	151.577
1419.06	101.093
1422.62	110.943
1426.17	52.418
1429.72	62.914
1433.27	60.148
1436.82	71.592
1440.37	138.679
1443.91	85.401
1447.45	119.177
1450.99	78.678
1454.54	57.851
1458.07	68.07
1461.61	67.925
1465.15	8.76
1468.68	20.168
1472.21	28.18
1475.74	49.357
1479.27	74.907
1482.8	128.373
1486.32	119.175
1489.85	91.951
1493.37	129.828
1496.89	135.412
1500.41	28.125
1503.93	33.542
1507.44	42.45
1510.96	14.894
1514.47	46.627
1517.98	3.716
1521.49	0.58
