Measurement: Raman, 785 nm, ccw, Raman Data Processed
Mineral: Monazite-(Ce)
Rruff sample: R040106
Ideal chemistry: CePO_4_
Locality: Angola
Source: University of Arizona Mineral Museum
Description: Brown massive fragment
Measured chemistry: (Ce_0.41_La_0.17_Nd_0.17_Th_0.14_Ca_0.06_Y_0.04_)(P_0.95_Si_0.05_)O_4_
Pin_id: L00169
Orientation: Laser parallel to b* (0 1 0). Fiducial mark perpendicular to laser is parallel to c [0 0 1]
Raman shift (cm-1)	intensity
85.706	0
89.89	14.095
94.071	84.349
98.251	168.924
102.428	372.048
106.604	585.903
110.777	1258.81
114.949	1636.49
119.119	1812.02
123.286	1645.85
127.452	1351.97
131.615	1334.82
135.777	1081.66
139.937	1063.73
144.094	909.233
148.25	947.501
152.403	1204.01
156.555	1441.75
160.705	1805.21
164.853	2455.13
168.998	3584.53
173.142	4255.1
177.284	4116.71
181.424	3359.64
185.562	2260.02
189.698	1367.91
193.831	773.315
197.963	414.257
202.093	156.733
206.221	1.329
210.347	101.625
214.472	115.103
218.594	154.776
222.714	186.954
226.832	48.491
230.948	45.772
235.063	3.612
239.175	64.378
243.286	139.616
247.394	428.339
251.501	543.943
255.605	626.701
259.708	860.955
263.808	1206.81
267.907	1403.77
272.004	1579.53
276.099	1962.88
280.192	2247.7
284.283	2423.89
288.372	2161.27
292.459	1959.78
296.544	1769.43
300.627	1460.25
304.709	1342.22
308.788	1185.35
312.865	949.497
316.941	964.11
321.015	737.073
325.086	599.016
329.156	449.13
333.224	400.414
337.29	423.859
341.354	481.463
345.416	582.221
349.476	815.125
353.534	1069.17
357.591	1544.33
361.645	2098.94
365.698	2629.47
369.748	3207.51
373.797	3756.07
377.844	4224.81
381.889	4736.36
385.932	5263.7
389.973	5981.08
394.012	6694.17
398.049	7629.81
402.084	8686.58
406.118	10614.3
410.15	13433.1
414.179	16772.8
418.207	17593.8
422.233	14596
426.257	10699.8
430.279	7635.23
434.299	5912.26
438.318	5261.06
442.334	5421.63
446.349	6114.02
450.361	7268.1
454.372	8683.71
458.381	10330.8
462.388	11109.1
466.394	11098.7
470.397	10039.3
474.398	8460.85
478.398	6833.39
482.396	5336.89
486.391	4271.35
490.385	3406.74
494.377	2593.06
498.368	2200.3
502.356	1648.43
506.342	1217.44
510.327	757.335
514.31	498.081
518.291	69.669
522.27	87.913
526.247	194.912
530.222	21.567
534.196	177.689
538.167	96.827
542.137	7.839
546.105	48.388
550.071	175.496
554.035	253.366
557.998	561.964
561.958	631.262
565.917	1081.25
569.874	1681.9
573.829	1883.22
577.782	1328.3
581.733	1054.96
585.683	1084.76
589.63	1030.67
593.576	1173.87
597.52	1291.57
601.462	1557.22
605.402	1894.78
609.341	2341.28
613.277	3069.46
617.212	4008.87
621.145	4578.14
625.076	3992.89
629.006	3251.95
632.933	2689.59
636.859	2387.44
640.783	2305.49
644.705	2293.74
648.625	2332.18
652.543	2150.78
656.46	1979.56
660.375	1938.49
664.288	1947.57
668.199	2006.8
672.108	1966.15
676.016	1985.63
679.921	2182.55
683.825	2163.35
687.727	2302.87
691.628	2239.78
695.526	2217.45
699.423	2104.61
703.318	1974.66
707.211	1615.04
711.102	1425.52
714.992	1306.09
718.879	856.749
722.765	747.487
726.649	427.304
730.532	244.197
734.412	32.101
738.291	49.385
742.168	76.668
746.043	227.854
749.916	261.143
753.788	256.721
757.658	157.693
761.526	134.997
765.392	6.6
769.257	71.601
773.119	8.497
776.98	44.688
780.839	20.961
784.697	267.669
788.552	333.551
792.406	455.616
796.258	612.874
800.108	755.334
803.957	895.004
807.804	1087.89
811.649	1250.01
815.492	1442.36
819.333	1524.96
823.173	1917.81
827.011	2020.93
830.847	2124.31
834.681	2427.99
838.514	2422.13
842.345	2676.79
846.174	2771.91
850.001	2797.44
853.827	2963.34
857.651	3019.58
861.473	2826.16
865.293	2883.09
869.112	2810.36
872.928	2758
876.744	2406.01
880.557	1944.42
884.369	1953.36
888.178	1565.83
891.987	1427.59
895.793	1143.54
899.598	1083.51
903.401	977.509
907.202	619.663
911.001	676.776
914.799	665.861
918.595	796.306
922.389	879.515
926.182	1196
929.972	1860.18
933.761	2576.58
937.549	3782.35
941.334	5159.33
945.118	7111.91
948.9	9815.28
952.681	12739.4
956.459	17614.3
960.236	23179.9
964.012	31596.2
967.785	42893.3
971.557	52941
975.327	54179.5
979.095	43058.6
982.862	28818.4
986.627	19408.9
990.39	14080
994.152	10591.8
997.912	8564.25
1001.67	7537.29
1005.43	6640.96
1009.18	6115.23
1012.93	5820.1
1016.68	5485.55
1020.43	5460.89
1024.18	5518.34
1027.93	5776.32
1031.67	6038.23
1035.42	6413.26
1039.16	7086.52
1042.9	8087.54
1046.63	9323.89
1050.37	11588.8
1054.11	13994.6
1057.84	16612.5
1061.57	18938.7
1065.3	18558.9
1069.03	16791.5
1072.75	14282.2
1076.47	11641
1080.2	9279.86
1083.92	7405.46
1087.64	6012.38
1091.36	4670.04
1095.07	3693.8
1098.79	2912.32
1102.5	2291.4
1106.21	2008.64
1109.92	1539.61
1113.62	1313.51
1117.33	1038.14
1121.04	829.839
1124.74	817.466
1128.44	599.489
1132.14	453.433
1135.83	312.496
1139.53	320.268
1143.22	379.606
1146.92	231.082
1150.61	193.685
1154.3	197.378
1157.98	119.904
1161.67	139.381
1165.35	164.842
1169.04	91.025
1172.72	68.852
1176.4	8.01
1180.07	129.588
1183.75	141.754
1187.42	104.761
1191.1	111.623
1194.77	45.828
1198.44	136.319
1202.1	92.354
1205.77	70.845
1209.43	104.238
1213.1	117.735
1216.76	49.715
1220.42	37.913
1224.07	34.974
1227.73	64.75
1231.38	71.115
1235.04	96.285
1238.69	67.452
1242.34	87.417
1245.99	163.412
1249.63	238.751
1253.28	265.908
1256.92	255.25
1260.56	265.087
1264.2	297.937
1267.84	284.479
1271.48	341.235
1275.11	312.085
1278.74	406.046
1282.38	402.862
1286.01	447.914
1289.63	485.894
1293.26	446.895
1296.89	433.203
1300.51	480.548
1304.13	518.916
1307.75	483.365
1311.37	471.237
1314.99	478.087
1318.6	524.529
1322.22	551.513
1325.83	478.436
1329.44	475.5
1333.05	406.185
1336.66	418.633
1340.26	353.391
1343.87	398.838
1347.47	361.211
1351.07	363.459
1354.67	373.298
1358.27	320.646
1361.86	262.787
1365.46	223.371
1369.05	157.163
1372.64	174.482
1376.23	159.898
1379.82	162.488
1383.41	192.667
1386.99	240.051
1390.57	205.298
1394.16	235.302
1397.74	195.585
1401.32	148.255
1404.89	166.785
1408.47	169.076
1412.04	154.254
1415.61	158.847
1419.18	179.588
1422.75	238.714
1426.32	140.114
1429.89	191.964
1433.45	206.327
1437.01	149.368
1440.58	110.922
1444.13	35.379
1447.69	30.826
1451.25	48.537
1454.81	99.919
1458.36	27.002
1461.91	105.162
1465.46	126.995
1469.01	95.273
1472.56	98.955
1476.1	25.372
1479.64	45.654
1483.19	50.18
1486.73	100.925
1490.27	21.572
1493.81	30.031
1497.34	37.666
1500.88	8.62
1504.41	72.908
1507.94	42.479
1511.47	49.878
1515	111.005
1518.53	72.013
1522.05	0
