Measurement: Raman, 514 nm, ccw, Raman Data Processed
Mineral: Monazite-(Ce)
Rruff sample: R040106
Ideal chemistry: CePO_4_
Locality: Angola
Source: University of Arizona Mineral Museum
Description: Brown massive fragment
Measured chemistry: (Ce_0.41_La_0.17_Nd_0.17_Th_0.14_Ca_0.06_Y_0.04_)(P_0.95_Si_0.05_)O_4_
Pin_id: M00462
Orientation: Laser parallel to -a* (-1 0 0). Fiducial mark perpendicular to laser is parallel to b [0 1 0]
Raman shift (cm-1)	intensity
54.966	0
59.164	289.955
63.36	323.853
67.554	32.972
71.747	406.766
75.937	1544.62
80.125	2352.36
84.311	3265.93
88.496	3483.26
92.678	3811.42
96.858	3634.55
101.036	3545.09
105.212	3198.1
109.387	3219.47
113.559	2982.51
117.729	3151.78
121.897	2755.97
126.063	2541.93
130.228	2065.43
134.39	1687.5
138.55	1347.51
142.709	1125.72
146.865	1024.92
151.019	975.293
155.171	1011.13
159.322	1082.06
163.47	1086.77
167.617	1052.34
171.761	902.864
175.904	721.378
180.044	516.916
184.183	452.49
188.319	585.117
192.454	537.813
196.586	490.744
200.717	579.137
204.846	794.915
208.972	1005.4
213.097	735.651
217.22	785.104
221.341	852.945
225.46	914.333
229.577	796.893
233.692	731.869
237.805	611.734
241.916	534.743
246.025	496.638
250.132	489.217
254.237	503.329
258.34	633.859
262.442	659.694
266.541	701.732
270.639	736.905
274.734	865.159
278.828	854.457
282.919	755.768
287.009	802.067
291.097	970.335
295.183	980.513
299.266	965.487
303.348	881.234
307.428	889.772
311.507	823.129
315.583	639.322
319.657	497.366
323.729	408.267
327.8	172.03
331.868	22.657
335.935	129.863
339.999	201.654
344.062	278.916
348.123	286.827
352.182	315.462
356.239	201.798
360.294	68.706
364.347	150.543
368.398	336.38
372.448	509.176
376.495	749.618
380.54	1113.98
384.584	1382.28
388.626	1587.67
392.666	2126.16
396.704	2362.77
400.74	2926.46
404.774	3708.19
408.806	4585.93
412.836	5871.67
416.865	6303.1
420.891	6213.11
424.916	5364.78
428.939	5528.4
432.959	6136.01
436.978	7480.68
440.996	9749.62
445.011	12405.9
449.024	16245.3
453.036	20531.1
457.045	24760.2
461.053	28364.5
465.059	28988.1
469.063	26273.9
473.065	21635
477.065	16486.3
481.063	12738.6
485.06	9759.11
489.054	7168.67
493.047	5449.27
497.038	4240.76
501.027	3130.7
505.014	2373.24
508.999	1643.41
512.982	1296.55
516.964	957.197
520.944	809.729
524.921	709.019
528.897	1082.83
532.871	2077.46
536.844	2775.91
540.814	2544.14
544.783	1854.15
548.749	1395.92
552.714	1430.42
556.677	1205.65
560.638	1327.59
564.597	1352.2
568.555	1465.49
572.511	1540.42
576.464	1406.98
580.416	1297.16
584.366	1398.93
588.315	1478.12
592.261	1586.5
596.206	1339.71
600.148	1253.93
604.089	1363.08
608.028	1651.99
611.965	2210.79
615.901	2821.56
619.834	3484.48
623.766	3210.7
627.696	2918.38
631.624	2300.48
635.551	2067.95
639.475	1814.18
643.398	1826.92
647.318	1855.5
651.237	1730.3
655.155	1832.29
659.07	1987.7
662.984	1955.6
666.895	2086.58
670.805	2128.92
674.713	2197.77
678.62	2516.33
682.524	2583.65
686.427	2666.43
690.328	2443.6
694.227	2696.42
698.124	2576
702.02	2473.4
705.913	2111.6
709.805	1904.59
713.695	1563.34
717.584	1246.85
721.47	1105.1
725.355	812.063
729.238	546.74
733.119	209.111
736.998	180.163
740.876	103.88
744.752	55.238
748.626	33.857
752.498	136.234
756.368	101.735
760.237	45.793
764.104	204.901
767.969	153.338
771.832	134.915
775.693	44.613
779.553	129.46
783.411	100.542
787.267	91.771
791.122	17.751
794.974	107.258
798.825	60.46
802.674	32.563
806.522	7.471
810.367	72.406
814.211	11.792
818.053	28.273
821.893	113.094
825.732	88.63
829.568	69.954
833.403	221.006
837.236	98.563
841.068	210.62
844.898	165.201
848.726	237.311
852.552	270.965
856.376	299.167
860.199	308.925
864.02	493.241
867.839	451.125
871.656	514.583
875.472	498.624
879.286	409.254
883.098	545.482
886.909	528.318
890.717	562.065
894.524	491.844
898.33	444.511
902.133	520.503
905.935	515.479
909.735	560.778
913.533	550.551
917.33	486.814
921.124	648.972
924.918	792.509
928.709	1082.59
932.499	1382.58
936.286	1847.42
940.073	2651.76
943.857	3683.07
947.64	5046.4
951.421	7090.1
955.2	9884.93
958.978	13823.3
962.753	19082.1
966.527	26430.2
970.3	34954.5
974.071	39736.2
977.84	36139.6
981.607	27091.2
985.372	19821.8
989.136	14475.2
992.898	11261.4
996.659	8882.7
1000.42	7432.61
1004.17	5862.74
1007.93	5119.03
1011.68	4493.52
1015.43	3888.24
1019.18	3541.26
1022.93	3272.55
1026.68	3026.08
1030.42	2800.89
1034.17	2401
1037.91	2216.43
1041.65	2099.12
1045.39	2059.04
1049.12	1803.24
1052.86	1862.75
1056.59	1920.83
1060.33	1999.53
1064.06	2003.98
1067.78	1900.6
1071.51	1788.45
1075.23	1690.62
1078.96	1513.62
1082.68	1365.57
1086.4	1329.79
1090.12	1146.84
1093.83	1113.31
1097.55	986.334
1101.26	1050.29
1104.97	1054.28
1108.68	1011.07
1112.39	1018.17
1116.1	957.979
1119.8	997.709
1123.5	1157.68
1127.2	1072.93
1130.9	1013.08
1134.6	1022.27
1138.3	1108.51
1141.99	881.595
1145.69	964.102
1149.38	1034.16
1153.07	922.352
1156.76	884.77
1160.44	844.034
1164.13	822.339
1167.81	847.632
1171.49	767.737
1175.17	627.373
1178.85	503.547
1182.52	492.198
1186.2	510.801
1189.87	410.512
1193.54	331.749
1197.21	160.559
1200.88	165.432
1204.55	89.722
1208.21	28.62
1211.88	42.617
1215.54	20.826
1219.2	5.885
1222.86	22.345
1226.51	46.137
1230.17	56.898
1233.82	20.764
1237.47	0.165
1241.12	12.267
1244.77	76.491
1248.42	5.082
1252.06	2.005
1255.71	62.771
1259.35	14.877
1262.99	13.594
1266.63	11.994
1270.26	20.802
1273.9	14.77
1277.53	17.278
1281.16	24.293
1284.8	5.901
1288.42	7.736
1292.05	97.056
1295.68	33.062
1299.3	20.628
1302.92	20.688
1306.55	1.824
1310.16	60.821
1313.78	62.451
1317.4	27.183
1321.01	29.643
1324.62	18.056
1328.24	76.044
1331.85	55.468
1335.45	63.369
1339.06	52.773
1342.66	117.941
1346.27	174.343
1349.87	215.522
1353.47	168.995
1357.07	164.047
1360.66	180.569
1364.26	139.831
1367.85	160.357
1371.44	196.619
1375.04	158.942
1378.62	152.646
1382.21	203.821
1385.8	131.445
1389.38	103.369
1392.96	283.979
1396.54	250.877
1400.12	293.649
1403.7	261.282
1407.28	266.983
1410.85	199.94
1414.42	237.974
1417.99	250.623
1421.56	289.576
1425.13	196.933
1428.7	301.102
1432.26	176.143
1435.83	290.87
1439.39	220.146
1442.95	275.772
1446.51	262.342
1450.06	249.151
1453.62	269.521
1457.17	284.528
1460.73	235.394
1464.28	201.27
1467.83	105.848
1471.37	173.37
1474.92	150.805
1478.46	130.257
1482.01	68.284
1485.55	159.438
1489.09	104.802
1492.63	118.892
1496.16	164.522
1499.7	36.012
1503.23	74.748
1506.76	160.261
1510.29	73.455
1513.82	123.264
1517.35	24.67
1520.88	85.109
1524.4	0
