Measurement: Raman, 514 nm, ccw, Raman Data Processed
Mineral: Monazite-(Ce)
Rruff sample: R040106
Ideal chemistry: CePO_4_
Locality: Angola
Source: University of Arizona Mineral Museum
Description: Brown massive fragment
Measured chemistry: (Ce_0.41_La_0.17_Nd_0.17_Th_0.14_Ca_0.06_Y_0.04_)(P_0.95_Si_0.05_)O_4_
Pin_id: M00462
Orientation: Laser parallel to -a* (-1 0 0). Fiducial mark perpendicular to laser is parallel to b [0 1 0]
Raman shift (cm-1)	intensity
54.966	0
59.164	566.824
63.36	332.854
67.554	31.445
71.747	436.862
75.937	1433.84
80.125	2494.1
84.311	3561.43
88.496	3848.3
92.678	4194.58
96.858	4160.9
101.036	3811.03
105.212	3639.51
109.387	3595.53
113.559	3539.59
117.729	4246.39
121.897	4555.17
126.063	4893.4
130.228	4732.02
134.39	3757.68
138.55	2644.63
142.709	1603.35
146.865	1036.28
151.019	638.034
155.171	399.992
159.322	225.344
163.47	231.221
167.617	78.717
171.761	36.113
175.904	19.222
180.044	13.575
184.183	107.848
188.319	272.069
192.454	634.11
196.586	1058.35
200.717	1566.61
204.846	2347.75
208.972	3195.5
213.097	4293.91
217.22	5324.57
221.341	6088.05
225.46	6506.85
229.577	6168.17
233.692	5539.79
237.805	4794.96
241.916	4057.65
246.025	3636.63
250.132	3177.72
254.237	3182.77
258.34	3259.67
262.442	3467.34
266.541	3632.69
270.639	3831.66
274.734	3951.22
278.828	3723.08
282.919	3703.84
287.009	3595.91
291.097	3141.34
295.183	2659.28
299.266	2448.05
303.348	2089.29
307.428	1916.35
311.507	1496.8
315.583	1136.65
319.657	895.911
323.729	636.581
327.8	181.659
331.868	7.144
335.935	81.697
339.999	228.71
344.062	182.59
348.123	197.204
352.182	158.733
356.239	19.099
360.294	217.43
364.347	477.162
368.398	815.032
372.448	1059.69
376.495	1280.67
380.54	1841.98
384.584	2153.64
388.626	2346.86
392.666	2605.67
396.704	2912.11
400.74	3319.13
404.774	3784.68
408.806	4529.74
412.836	5617.28
416.865	6167.31
420.891	5557.88
424.916	4226.04
428.939	3632.8
432.959	3484.25
436.978	3990.48
440.996	5114.59
445.011	6385.56
449.024	8414.37
453.036	10555.1
457.045	12680.7
461.053	14599.1
465.059	15158.2
469.063	13622
473.065	11219.3
477.065	8234.15
481.063	6464.52
485.06	4883.25
489.054	3435.31
493.047	2478.53
497.038	1840.44
501.027	1375.54
505.014	899.448
508.999	555.392
512.982	328.256
516.964	184.66
520.944	76.205
524.921	44.76
528.897	133.337
532.871	837.958
536.844	1262.61
540.814	1112.27
544.783	892.916
548.749	655.53
552.714	891.084
556.677	1164.55
560.638	1356.91
564.597	1289.14
568.555	1182.2
572.511	1370.09
576.464	1542.32
580.416	1717.17
584.366	2622.59
588.315	2959.01
592.261	3268.88
596.206	2364.64
600.148	1908.16
604.089	1682.29
608.028	2382.76
611.965	3033.91
615.901	4062.02
619.834	4743.28
623.766	4174.22
627.696	3594.32
631.624	2555.84
635.551	2283.94
639.475	2250.99
643.398	1957.64
647.318	1868.34
651.237	1754.94
655.155	1734.59
659.07	1753.24
662.984	1822.13
666.895	1975.78
670.805	1846.56
674.713	1950.45
678.62	2119.81
682.524	2000.58
686.427	2260.94
690.328	1969.49
694.227	2245.89
698.124	1876.14
702.02	1793.21
705.913	1656.44
709.805	1267.76
713.695	972.199
717.584	755.393
721.47	645.325
725.355	436.979
729.238	345.34
733.119	97.32
736.998	101.707
740.876	18.493
744.752	98.445
748.626	185.383
752.498	93.605
756.368	117.17
760.237	98.069
764.104	152.404
767.969	207.305
771.832	70.577
775.693	39.175
779.553	81.022
783.411	4.007
787.267	25.141
791.122	96.323
794.974	46.624
798.825	45.264
802.674	153.229
806.522	141.556
810.367	183.336
814.211	86.617
818.053	239.4
821.893	443.766
825.732	548.726
829.568	529.282
833.403	489.443
837.236	495.258
841.068	683.688
844.898	770.733
848.726	782.397
852.552	938.687
856.376	931.607
860.199	1101.17
864.02	1265.37
867.839	1195.22
871.656	1248.73
875.472	1179.89
879.286	1163.73
883.098	1213.26
886.909	1025.3
890.717	952.736
894.524	879.313
898.33	768.139
902.133	764.66
905.935	787.276
909.735	668.83
913.533	603.745
917.33	759.689
921.124	741.398
924.918	926.171
928.709	1223.1
932.499	1674.63
936.286	2282.42
940.073	3216.17
943.857	4559.03
947.64	6472.36
951.421	8963.48
955.2	12538.7
958.978	17280.5
962.753	23793.1
966.527	33171.5
970.3	43086
974.071	48047.6
977.84	42325.5
981.607	30425.6
985.372	21336.9
989.136	14898.4
992.898	11051.1
996.659	8367.99
1000.42	6548.12
1004.17	5246.46
1007.93	4315.98
1011.68	4090.69
1015.43	3686.6
1019.18	3278.7
1022.93	3177
1026.68	3184.53
1030.42	3008.26
1034.17	2841.2
1037.91	2971.4
1041.65	2909.01
1045.39	2865.18
1049.12	3079.11
1052.86	3320.6
1056.59	3793.11
1060.33	4160.81
1064.06	4383.76
1067.78	4109.02
1071.51	3541.84
1075.23	3515
1078.96	2701.76
1082.68	2367.35
1086.4	1916.81
1090.12	1680.95
1093.83	1384.28
1097.55	1295.2
1101.26	1167.27
1104.97	1054.92
1108.68	815.763
1112.39	905.705
1116.1	787.772
1119.8	781.974
1123.5	987.008
1127.2	774.712
1130.9	576.163
1134.6	610.396
1138.3	686.35
1141.99	535.125
1145.69	424.41
1149.38	501.322
1153.07	409.443
1156.76	386.241
1160.44	425.784
1164.13	408.743
1167.81	294.891
1171.49	365.473
1175.17	250.383
1178.85	344.956
1182.52	213.558
1186.2	164.127
1189.87	116.204
1193.54	51.282
1197.21	53.704
1200.88	13.467
1204.55	75.542
1208.21	1.221
1211.88	118.451
1215.54	104.02
1219.2	111.824
1222.86	92.592
1226.51	39.574
1230.17	91.308
1233.82	76.966
1237.47	59.665
1241.12	5.184
1244.77	14.813
1248.42	14.408
1252.06	20.619
1255.71	56.944
1259.35	2.117
1262.99	97.885
1266.63	16.236
1270.26	1.511
1273.9	41.153
1277.53	94.103
1281.16	121.984
1284.8	85.106
1288.42	42.244
1292.05	116.502
1295.68	94.062
1299.3	157.741
1302.92	171.607
1306.55	113.677
1310.16	158.315
1313.78	118.152
1317.4	107.88
1321.01	137.911
1324.62	176.072
1328.24	140.052
1331.85	180.255
1335.45	191.139
1339.06	215.816
1342.66	226.6
1346.27	243.137
1349.87	260.984
1353.47	221.133
1357.07	271.395
1360.66	215.573
1364.26	210.5
1367.85	259.802
1371.44	227.542
1375.04	124.787
1378.62	129.737
1382.21	175.8
1385.8	166.053
1389.38	168.521
1392.96	173.489
1396.54	179.063
1400.12	180.914
1403.7	110.648
1407.28	92.197
1410.85	153.656
1414.42	157.404
1417.99	66.934
1421.56	229.728
1425.13	109.932
1428.7	184.04
1432.26	191.568
1435.83	122.636
1439.39	195.477
1442.95	160.366
1446.51	199.817
1450.06	70.657
1453.62	192.512
1457.17	177.644
1460.73	172.128
1464.28	135.65
1467.83	71.871
1471.37	56.451
1474.92	66.297
1478.46	440.002
1482.01	317.899
1485.55	418.386
1489.09	166.85
1492.63	42.641
1496.16	23.392
1499.7	7.809
1503.23	151.959
1506.76	16.261
1510.29	30.007
1513.82	183.815
1517.35	0.933
1520.88	43.138
1524.4	56.54
