Measurement: Raman, 514 nm, ccw, Raman Data Processed
Mineral: Monazite-(Ce)
Rruff sample: R040106
Ideal chemistry: CePO_4_
Locality: Angola
Source: University of Arizona Mineral Museum
Description: Brown massive fragment
Measured chemistry: (Ce_0.41_La_0.17_Nd_0.17_Th_0.14_Ca_0.06_Y_0.04_)(P_0.95_Si_0.05_)O_4_
Pin_id: L00169
Orientation: Laser parallel to b* (0 1 0). Fiducial mark perpendicular to laser is parallel to c [0 0 1]
Raman shift (cm-1)	intensity
84.311	0
88.496	90.382
92.678	126.022
96.858	328.592
101.036	771.291
105.212	972.543
109.387	1251.61
113.559	1664.66
117.729	1647.17
121.897	1593.12
126.063	1427.22
130.228	1208.5
134.39	1118.58
138.55	957.702
142.709	868.399
146.865	755.376
151.019	854.648
155.171	834.94
159.322	978.663
163.47	934.295
167.617	864.018
171.761	727.151
175.904	612.859
180.044	402.22
184.183	403.658
188.319	363.178
192.454	322.282
196.586	264.046
200.717	243.531
204.846	214.774
208.972	274.794
213.097	264.556
217.22	335.862
221.341	375.039
225.46	408.706
229.577	372.703
233.692	303.762
237.805	373.787
241.916	376.73
246.025	317.604
250.132	336.881
254.237	479.751
258.34	425.863
262.442	453.91
266.541	526.918
270.639	551.593
274.734	570.72
278.828	607.141
282.919	605.744
287.009	673.429
291.097	829.103
295.183	804.7
299.266	816.178
303.348	795.507
307.428	738.664
311.507	705.631
315.583	622.375
319.657	569.778
323.729	362.794
327.8	128.437
331.868	79.72
335.935	12.342
339.999	121.849
344.062	260.992
348.123	213.9
352.182	275.575
356.239	219.001
360.294	23.102
364.347	76.353
368.398	205.476
372.448	362.296
376.495	579.63
380.54	914.714
384.584	1194.41
388.626	1503.24
392.666	1807.79
396.704	2192.11
400.74	2579.18
404.774	3296.01
408.806	4113.58
412.836	5321.91
416.865	5941.13
420.891	5851.24
424.916	5022.21
428.939	4954
432.959	5346.66
436.978	6730.26
440.996	8684.89
445.011	10980.6
449.024	14347.4
453.036	18575.2
457.045	23164.2
461.053	26964.3
465.059	27425.4
469.063	24847.7
473.065	20241.1
477.065	16155.5
481.063	12210.9
485.06	9347.33
489.054	6974.74
493.047	5373.1
497.038	4101.1
501.027	3131.21
505.014	2428.63
508.999	1774.11
512.982	1325.19
516.964	1170.14
520.944	1025.86
524.921	897.932
528.897	1103.68
532.871	1972.06
536.844	2928.05
540.814	2524.66
544.783	1820.89
548.749	1456.73
552.714	1344.17
556.677	1165.21
560.638	1336.82
564.597	1373
568.555	1737.72
572.511	1790.97
576.464	1565.75
580.416	1432.02
584.366	1365.78
588.315	1338.16
592.261	1216.83
596.206	1240.83
600.148	1329.57
604.089	1353.81
608.028	1681.98
611.965	1912.47
615.901	2614.69
619.834	3119.6
623.766	3136.34
627.696	2789.12
631.624	2282.03
635.551	2013.65
639.475	1903.16
643.398	1764.42
647.318	1800.93
651.237	1737.42
655.155	1790.47
659.07	1764.36
662.984	1922.98
666.895	2128.22
670.805	2211.69
674.713	2300.45
678.62	2429.65
682.524	2496.53
686.427	2529.28
690.328	2667.87
694.227	2703.3
698.124	2579.54
702.02	2462.58
705.913	2271.41
709.805	1946.82
713.695	1702.37
717.584	1418.47
721.47	971.312
725.355	831.873
729.238	493.142
733.119	303.108
736.998	182.759
740.876	96.083
744.752	164.053
748.626	30.515
752.498	84.742
756.368	79.934
760.237	125.063
764.104	84.247
767.969	77.508
771.832	56.933
775.693	96.46
779.553	116.242
783.411	80.169
787.267	47.458
791.122	67.338
794.974	88.442
798.825	79.656
802.674	46.937
806.522	40.114
810.367	3.038
814.211	25.61
818.053	53.211
821.893	54.519
825.732	189.34
829.568	169.733
833.403	154.692
837.236	230.222
841.068	214.332
844.898	251.029
848.726	241.316
852.552	355.2
856.376	342.687
860.199	424.783
864.02	463.497
867.839	455.835
871.656	456.805
875.472	575.414
879.286	493.669
883.098	394.58
886.909	376.153
890.717	460.4
894.524	383.329
898.33	386.794
902.133	288.223
905.935	353.735
909.735	359.36
913.533	417.502
917.33	356.28
921.124	542.754
924.918	604.557
928.709	919.076
932.499	1249.23
936.286	1703.03
940.073	2344.68
943.857	3381.47
947.64	4743.43
951.421	6785.68
955.2	9391.3
958.978	13156.3
962.753	17995
966.527	25605.2
970.3	34770
974.071	39274.4
977.84	35162.2
981.607	26450.1
985.372	18837.9
989.136	14046.2
992.898	11054.7
996.659	8853.48
1000.42	7122.43
1004.17	5841.61
1007.93	4811.09
1011.68	4140.83
1015.43	3592.84
1019.18	3311.15
1022.93	2965.7
1026.68	2576.52
1030.42	2306.62
1034.17	2122.05
1037.91	1883.81
1041.65	1809.89
1045.39	1646.29
1049.12	1627.01
1052.86	1537.16
1056.59	1696.85
1060.33	1726.74
1064.06	1762.06
1067.78	1691.78
1071.51	1631.14
1075.23	1470.04
1078.96	1386.09
1082.68	1260.94
1086.4	1087.95
1090.12	1057.31
1093.83	1026.97
1097.55	980.69
1101.26	933.541
1104.97	902.484
1108.68	903.951
1112.39	917.037
1116.1	915.234
1119.8	1041.64
1123.5	1134.44
1127.2	1089.93
1130.9	884.627
1134.6	949.723
1138.3	973.817
1141.99	966.628
1145.69	1031.64
1149.38	999.357
1153.07	879.507
1156.76	940.164
1160.44	922.9
1164.13	845.485
1167.81	788.229
1171.49	734.365
1175.17	671.864
1178.85	638.614
1182.52	444.319
1186.2	310.315
1189.87	242.068
1193.54	323.826
1197.21	204.534
1200.88	163.481
1204.55	38.013
1208.21	43.552
1211.88	4.173
1215.54	55.451
1219.2	123.872
1222.86	74.566
1226.51	18.954
1230.17	69.137
1233.82	54.557
1237.47	1.82
1241.12	48.278
1244.77	64.25
1248.42	222.356
1252.06	21.469
1255.71	21.149
1259.35	63.283
1262.99	59.694
1266.63	24.174
1270.26	34.083
1273.9	3.996
1277.53	32.792
1281.16	0.858
1284.8	7.469
1288.42	5.629
1292.05	47.811
1295.68	33.766
1299.3	21.007
1302.92	50.747
1306.55	7.968
1310.16	77.546
1313.78	16.237
1317.4	111.651
1321.01	9.082
1324.62	44.657
1328.24	91.963
1331.85	82.581
1335.45	129.746
1339.06	71.454
1342.66	16.541
1346.27	23.265
1349.87	117.442
1353.47	50.017
1357.07	127.995
1360.66	170.334
1364.26	156.469
1367.85	163.712
1371.44	79.048
1375.04	35.495
1378.62	131.008
1382.21	124.98
1385.8	108.684
1389.38	110.252
1392.96	164.232
1396.54	240.313
1400.12	211.892
1403.7	212.682
1407.28	214.842
1410.85	164.994
1414.42	133.18
1417.99	167.383
1421.56	174.122
1425.13	158.417
1428.7	168.999
1432.26	207.096
1435.83	229.736
1439.39	197.956
1442.95	168.854
1446.51	130.375
1450.06	159.328
1453.62	24.843
1457.17	13.279
1460.73	81.126
1464.28	75.406
1467.83	68.617
1471.37	140.499
1474.92	136.004
1478.46	167.022
1482.01	125.945
1485.55	81.303
1489.09	70.456
1492.63	61.749
1496.16	45.807
1499.7	36.86
1503.23	37.303
1506.76	43.028
1510.29	50.672
1513.82	100.386
1517.35	64.472
1520.88	122.344
