Measurement: Raman, 514 nm, ccw, Raman Data Processed
Mineral: Monticellite
Rruff sample: R040115
Ideal chemistry: CaMgSiO_4_
Locality: Magnet Cove, Arkansas, USA
Source: University of Arizona Mineral Museum
Description: Brown blebs in matrix
Measured chemistry: Ca_0.99_(Mg_0.85_ Fe_0.12_Mn_0.03_)Si_1.00_O_4_
Pin_id: M00492
Orientation: Laser parallel to b* (0 1 0). Fiducial mark perpendicular to laser is parallel to -c [0 0 -1]
Raman shift (cm-1)	intensity
101.036	0
105.212	111
109.387	150.765
113.559	149.531
117.729	344.438
121.897	86.665
126.063	191.569
130.228	197.766
134.39	394.917
138.55	940.157
142.709	364.927
146.865	38.854
151.019	18.422
155.171	14.15
159.322	143.368
163.47	439.375
167.617	896.437
171.761	1007.44
175.904	226.61
180.044	20.905
184.183	4.431
188.319	1.324
192.454	9.851
196.586	123.942
200.717	196.342
204.846	194.838
208.972	355.611
213.097	18.827
217.22	24.934
221.341	50.339
225.46	127.895
229.577	252.089
233.692	387.826
237.805	661.433
241.916	936.357
246.025	1218.75
250.132	2400.91
254.237	5946.84
258.34	5796.53
262.442	2235.98
266.541	1101.57
270.639	686.907
274.734	463.38
278.828	201.534
282.919	121.25
287.009	37.012
291.097	111.787
295.183	177.478
299.266	434.207
303.348	982.569
307.428	733.095
311.507	232.783
315.583	25.964
319.657	56.865
323.729	57.061
327.8	85.42
331.868	33.348
335.935	50.127
339.999	6.226
344.062	21.028
348.123	4.511
352.182	19.369
356.239	16.658
360.294	18.483
364.347	31.096
368.398	17.624
372.448	74.917
376.495	142.408
380.54	271.273
384.584	383.001
388.626	603.331
392.666	954.855
396.704	1828.06
400.74	2772
404.774	4357.72
408.806	6099.27
412.836	4763.63
416.865	2430.81
420.891	1128.82
424.916	627.659
428.939	457.307
432.959	260.711
436.978	249.855
440.996	241.742
445.011	165.921
449.024	110.473
453.036	117.875
457.045	44.452
461.053	35.226
465.059	90.672
469.063	105.107
473.065	110.177
477.065	14.463
481.063	23.173
485.06	52.152
489.054	9.447
493.047	31.353
497.038	101.616
501.027	123.193
505.014	110.002
508.999	99.275
512.982	188.597
516.964	306.527
520.944	429.148
524.921	1021.67
528.897	2217.02
532.871	2873.2
536.844	1451.76
540.814	709.873
544.783	521.461
548.749	424.856
552.714	499.917
556.677	517.269
560.638	680.328
564.597	829.933
568.555	1154.35
572.511	1566.57
576.464	1804.61
580.416	2316.46
584.366	2875.13
588.315	2833.62
592.261	1951.93
596.206	1147.71
600.148	602.037
604.089	369.776
608.028	247.743
611.965	177.333
615.901	58.631
619.834	132.774
623.766	37.304
627.696	84.43
631.624	6.55
635.551	16.007
639.475	2.5
643.398	27.697
647.318	95.378
651.237	24.837
655.155	22.661
659.07	35.875
662.984	48.474
666.895	29.908
670.805	12.082
674.713	70.322
678.62	8.753
682.524	25.688
686.427	52.038
690.328	12.649
694.227	42.6
698.124	119.806
702.02	84.007
705.913	26.075
709.805	107.13
713.695	29.869
717.584	110.059
721.47	111.96
725.355	149.838
729.238	252.699
733.119	291.546
736.998	197.385
740.876	168.22
744.752	95.055
748.626	204.895
752.498	235.745
756.368	338.609
760.237	362.492
764.104	315.401
767.969	375.358
771.832	539.006
775.693	621.117
779.553	724.86
783.411	895.88
787.267	966.01
791.122	1260.32
794.974	1552.92
798.825	2159.62
802.674	3558.12
806.522	5875.76
810.367	11993.9
814.211	26500.2
818.053	37575.9
821.893	24031.9
825.732	12391.7
829.568	7661.44
833.403	5903.99
837.236	6277.74
841.068	10127.2
844.898	22600
848.726	45179.4
852.552	36061
856.376	15192.7
860.199	7340.55
864.02	4344.66
867.839	2678.17
871.656	2027.43
875.472	1771.83
879.286	1852.38
883.098	1380.07
886.909	732.929
890.717	775.932
894.524	704.08
898.33	765.376
902.133	678.821
905.935	471.527
909.735	361.269
913.533	205.161
917.33	330.203
921.124	228.452
924.918	254.354
928.709	426.849
932.499	531.519
936.286	900.343
940.073	2104.36
943.857	6786.58
947.64	11980.2
951.421	5702.71
955.2	2168.18
958.978	1066.41
962.753	664.312
966.527	370.888
970.3	332.766
974.071	61.89
977.84	168.252
981.607	59.155
985.372	227.301
989.136	63.213
992.898	16.554
996.659	46.219
1000.42	110.435
1004.17	137.751
1007.93	102.493
1011.68	139.006
1015.43	109.623
1019.18	102.345
1022.93	152.164
1026.68	228.068
1030.42	99.056
1034.17	82.222
1037.91	58.364
1041.65	142.579
1045.39	124.882
1049.12	13.263
1052.86	4.293
1056.59	90.207
1060.33	38.765
1064.06	93.376
1067.78	23.041
1071.51	37.295
1075.23	57.335
1078.96	104.018
1082.68	80.729
1086.4	145.664
1090.12	21.084
1093.83	27.956
1097.55	128.957
1101.26	2.474
1104.97	141.852
1108.68	2.718
1112.39	82.912
1116.1	78.515
1119.8	139.866
1123.5	198.528
1127.2	139.301
1130.9	10.562
1134.6	85.711
1138.3	156.325
1141.99	74.128
1145.69	68.578
1149.38	126.247
1153.07	1.997
1156.76	34.666
1160.44	192.232
1164.13	71.734
1167.81	177.147
1171.49	210.512
1175.17	233.823
1178.85	196.081
1182.52	131.379
1186.2	286.468
1189.87	146.497
1193.54	107.657
1197.21	254.626
1200.88	167.362
1204.55	400.148
1208.21	252.871
1211.88	223.531
1215.54	321.127
1219.2	157.086
1222.86	160.629
1226.51	220.095
1230.17	51.464
1233.82	26.245
1237.47	194.875
1241.12	55.914
1244.77	191.68
1248.42	175.319
1252.06	149.623
1255.71	133.331
1259.35	33.563
1262.99	106.371
1266.63	9.482
1270.26	110.249
1273.9	143.938
1277.53	29.773
1281.16	34.678
1284.8	51.784
1288.42	83.322
1292.05	64.656
1295.68	37.934
1299.3	38.826
1302.92	115.986
1306.55	54.088
1310.16	129.946
1313.78	203.107
1317.4	295.033
1321.01	139.913
1324.62	37.759
1328.24	282.473
1331.85	90.262
1335.45	23.971
1339.06	57.751
1342.66	188.463
1346.27	160.174
1349.87	119.126
1353.47	168.637
1357.07	220.412
1360.66	253.627
1364.26	304.845
1367.85	199.885
1371.44	289.033
1375.04	281.314
1378.62	195.688
1382.21	173.19
1385.8	124.198
1389.38	58.625
1392.96	246.504
1396.54	301.148
1400.12	167.555
1403.7	187.532
1407.28	74.686
1410.85	206.406
1414.42	324.792
1417.99	242.313
1421.56	275.917
1425.13	172.474
1428.7	316.864
1432.26	257.083
1435.83	382.371
1439.39	376.692
1442.95	383.948
1446.51	452.904
1450.06	396.736
1453.62	560.615
1457.17	632.556
1460.73	565.067
1464.28	214.33
1467.83	336.111
1471.37	298.082
1474.92	222.206
1478.46	524.565
1482.01	300.426
1485.55	280.68
1489.09	231.507
1492.63	215.096
1496.16	268.51
1499.7	93.782
1503.23	68.164
1506.76	190.971
1510.29	207.621
1513.82	162.596
1517.35	87.427
1520.88	19.188
1524.4	0
