Measurement: Raman, 514 nm, ccw, Raman Data Processed
Mineral: Monticellite
Rruff sample: R040115
Ideal chemistry: CaMgSiO_4_
Locality: Magnet Cove, Arkansas, USA
Source: University of Arizona Mineral Museum
Description: Brown blebs in matrix
Measured chemistry: Ca_0.99_(Mg_0.85_ Fe_0.12_Mn_0.03_)Si_1.00_O_4_
Pin_id: M00492
Orientation: Laser parallel to b* (0 1 0). Fiducial mark perpendicular to laser is parallel to -c [0 0 -1]
Raman shift (cm-1)	intensity
107.995	0
112.168	55.42
116.339	106.202
120.508	52.584
124.675	56.584
128.84	61.212
133.003	80.873
137.164	92.267
141.323	117.212
145.48	11.935
149.635	39.25
153.788	21.199
157.939	49.32
162.088	214.035
166.235	566.773
170.38	978.725
174.523	424.627
178.664	95.353
182.803	53.464
186.94	48.986
191.076	34.047
195.209	94.718
199.34	77.054
203.47	140.621
207.597	233.559
211.722	33.631
215.846	5.582
219.967	39.605
224.087	22.158
228.204	107.394
232.32	129.865
236.434	237.23
240.545	417.922
244.655	624.305
248.763	1569.75
252.869	4662.75
256.973	7428.55
261.075	2964.14
265.175	1025.51
269.273	434.219
273.369	246.82
277.463	115.438
281.556	71.854
285.646	93.223
289.734	75.304
293.821	74.902
297.905	120.6
301.988	297.934
306.069	352.746
310.147	154.925
314.224	75.882
318.299	34.263
322.372	57.365
326.443	34.88
330.512	39.615
334.579	78.954
338.645	60.837
342.708	45.756
346.769	19.612
350.829	5.104
354.887	51.046
358.942	12.295
362.996	47.562
367.048	84.782
371.098	67.867
375.146	42.355
379.192	108.397
383.236	141.423
387.279	199.854
391.319	397.263
395.358	658.924
399.394	857.371
403.429	830.587
407.462	1008.59
411.493	758.429
415.522	431.113
419.549	228.645
423.575	149.027
427.598	59.256
431.619	6.326
435.639	97.185
439.657	31.76
443.673	39.852
447.687	82.475
451.699	74.607
455.709	82.585
459.717	29.733
463.724	21.854
467.728	53.735
471.731	12.596
475.732	101.244
479.731	43.334
483.728	45.871
487.723	104.21
491.716	111.079
495.708	54.905
499.697	15.81
503.685	94.771
507.671	74.569
511.655	174.08
515.637	128.664
519.617	264.705
523.596	574.952
527.572	1502.37
531.547	2702.8
535.52	2111.22
539.491	836.886
543.46	649.042
547.427	471.191
551.393	404.024
555.356	465.306
559.318	499.03
563.278	719.599
567.236	994.041
571.192	1382.34
575.147	1993.49
579.099	2842.51
583.05	4098.4
586.999	4382.6
590.946	3468.97
594.891	2123.6
598.834	1178.65
602.776	651.882
606.715	409.064
610.653	310.842
614.589	183.734
618.523	149.735
622.456	212.008
626.386	108.862
630.315	125.709
634.242	37.874
638.167	10.379
642.09	47.305
646.012	86.636
649.931	22.014
653.849	10.891
657.765	5.861
661.679	36.836
665.592	17.417
669.502	42.015
673.411	53.464
677.318	17.877
681.223	23.775
685.126	8.467
689.028	66.779
692.927	52.028
696.825	145.275
700.721	124.49
704.616	23.713
708.508	141.94
712.399	161.139
716.288	68.297
720.175	28.48
724.06	104.692
727.944	99.939
731.825	190.223
735.705	103.549
739.584	107.921
743.46	153.349
747.334	282.843
751.207	247.426
755.078	219.094
758.947	349.842
762.815	420.688
766.68	483.626
770.544	545.661
774.406	597.822
778.267	749.111
782.125	828.506
785.982	1029.02
789.837	1293.46
793.69	1807.93
797.542	2650.37
801.391	3738.46
805.239	5978.79
809.085	11640.4
812.93	25946.5
816.772	46705.7
820.613	37597
824.452	18910.5
828.29	10539.9
832.125	7690.83
835.959	6423.31
839.791	8016.49
843.621	15745.7
847.45	34948
851.277	40378.4
855.102	18375
858.925	8412.81
862.746	4438.02
866.566	2756.77
870.384	1843.09
874.2	1402.6
878.015	1011.28
881.828	948.143
885.639	649.187
889.448	387.411
893.256	330.821
897.061	387.413
900.865	290.19
904.668	383.585
908.468	334.732
912.267	182.063
916.064	125.581
919.86	74.283
923.653	140.721
927.445	226.792
931.236	409.054
935.024	548.502
938.811	1264.13
942.596	4140.1
946.379	11016.4
950.161	8383.24
953.94	3315.69
957.719	1532.67
961.495	835.794
965.27	485.613
969.043	372.991
972.814	84.756
976.583	116.701
980.351	159.461
984.117	7.847
987.882	28.321
991.644	110.404
995.405	46.881
999.165	180.974
1002.92	208.3
1006.68	48.782
1010.43	129.406
1014.18	99.17
1017.93	130.142
1021.68	41.17
1025.43	91.366
1029.18	131.685
1032.92	94.137
1036.66	22.577
1040.4	122.432
1044.14	182.026
1047.88	129.179
1051.62	178.214
1055.35	205.344
1059.08	94.569
1062.81	39.896
1066.54	113.317
1070.27	186.832
1073.99	196.426
1077.72	137.179
1081.44	86.413
1085.16	3.258
1088.88	23.819
1092.59	23.852
1096.31	44.845
1100.02	27.157
1103.73	45.17
1107.44	0.209
1111.15	25.733
1114.86	6.864
1118.57	119.978
1122.27	91.031
1125.97	106.122
1129.67	80.482
1133.37	125.047
1137.07	57.179
1140.76	159.395
1144.45	43.244
1148.15	135.622
1151.84	143.183
1155.53	114.662
1159.21	101.326
1162.9	201.953
1166.58	188.714
1170.26	104.394
1173.94	159.071
1177.62	261.75
1181.3	250.926
1184.97	144.598
1188.65	221.263
1192.32	174.921
1195.99	234.571
1199.66	241.212
1203.33	277.41
1206.99	271.03
1210.65	97.641
1214.32	78.238
1217.98	141.827
1221.64	75.876
1225.29	27.468
1228.95	118.038
1232.6	78.257
1236.26	143.01
1239.91	196.361
1243.56	182.543
1247.2	30.77
1250.85	65.849
1254.49	44.701
1258.13	11.75
1261.78	117.385
1265.41	54.267
1269.05	157.978
1272.69	116.651
1276.32	104.744
1279.95	59.096
1283.59	113.969
1287.21	164.358
1290.84	85.341
1294.47	8.189
1298.09	130.226
1301.72	162.622
1305.34	104.005
1308.96	5.376
1312.58	128.732
1316.19	31.074
1319.81	229.408
1323.42	115.742
1327.03	170.061
1330.64	83.387
1334.25	224.734
1337.86	147.112
1341.46	45.526
1345.07	143.985
1348.67	120.505
1352.27	170.091
1355.87	83.762
1359.46	308.535
1363.06	345.05
1366.65	300.106
1370.25	266.808
1373.84	237.221
1377.43	244.969
1381.02	166.632
1384.6	179.947
1388.18	224.712
1391.77	204.798
1395.35	105.036
1398.93	115.775
1402.51	212.105
1406.08	162.759
1409.66	107.252
1413.23	198.056
1416.8	292.012
1420.37	233.873
1423.94	397.867
1427.51	169.267
1431.08	260.181
1434.64	372.116
1438.2	382.062
1441.76	317.014
1445.32	369.924
1448.88	233.741
1452.43	315.477
1455.99	417.06
1459.54	373.812
1463.09	448.385
1466.64	319.342
1470.19	264.092
1473.74	394.247
1477.28	400.815
1480.83	283.897
1484.37	277.456
1487.91	234.636
1491.45	226.669
1494.98	218.803
1498.52	307.15
1502.05	81.905
1505.59	154.453
1509.12	151.401
1512.65	108.576
1516.17	141.63
1519.7	201.674
1523.23	0.824
