Measurement: Raman, 514 nm, ccw, Raman Data Processed
Mineral: Montebrasite
Rruff sample: R060890
Ideal chemistry: LiAlPO_4_(OH)
Locality: Mount Marie, Paris, Maine, USA
Source: Bob Jenkins
Description: Colorless massive
Measured chemistry: Li_1.00_Al_1.00_(P_1.00_O_4_)(OH)_0.63_F_0.37_)_Î£=1_ ; Li not measured but estimated by stoichiometry
Pin_id: M01503
Orientation: Laser parallel to (-1 0 -1). Fiducial mark perpendicular to laser is parallel to b [0 1 0]
Raman shift (cm-1)	intensity
90.678	0
95.631	43.0925
100.581	6.34863
105.529	124.311
110.475	468.612
115.417	955.294
120.358	2037.98
125.295	3934.78
130.23	5519.39
135.163	4848.05
140.092	2291.42
145.019	1080.86
149.944	626.432
154.866	562.098
159.785	563.284
164.702	880.191
169.616	1064.43
174.528	1198.01
179.437	1258.42
184.343	1284.42
189.247	1389.85
194.148	1142.58
199.046	912.522
203.942	450.543
208.835	106.649
213.726	35.6804
218.614	13.3396
223.5	4.60938
228.382	53.3906
233.263	34.2776
238.14	11.905
243.015	75.6433
247.888	8.77979
252.758	32.8711
257.625	32.7078
262.49	275.477
267.352	430.07
272.211	824.446
277.068	1248.47
281.922	2519.06
286.773	5127.29
291.622	12069.2
296.469	22518
301.312	32129.4
306.154	26476.2
310.992	18347
315.828	11952
320.661	7058.14
325.492	4981.74
330.32	3869.43
335.145	3125.2
339.968	2662.06
344.789	2347.01
349.606	2336.03
354.421	2340.14
359.234	2672.08
364.043	2833.28
368.851	2938.39
373.655	2905.37
378.457	2627.28
383.256	2045.45
388.053	1563.53
392.847	1268.9
397.639	1045.11
402.428	689.278
407.214	484.269
411.998	467.297
416.779	678.543
421.557	1020.68
426.333	1256.85
431.106	647.259
435.877	226.689
440.645	110.249
445.41	57.0225
450.173	107.972
454.933	1.12036
459.691	36.477
464.446	89.9827
469.198	128.737
473.948	336.776
478.695	459.071
483.439	616.605
488.181	624.789
492.92	664.217
497.657	764.371
502.391	607.777
507.122	453.385
511.851	282.179
516.577	102.187
521.301	109.534
526.022	37.147
530.74	4.08911
535.456	25.7459
540.169	59.635
544.879	41.3044
549.587	123.239
554.292	29.4145
558.995	17.2114
563.695	35.3955
568.392	30.1597
573.087	66.7495
577.779	198.656
582.469	332.4
587.156	724.592
591.84	1331.05
596.522	2508.34
601.201	3851.78
605.877	3137.7
610.551	1867.4
615.222	1784.33
619.891	2462.88
624.557	4135.11
629.22	6645.25
633.881	9137.26
638.539	14125.9
643.195	22991.8
647.848	23568.2
652.498	10137.3
657.145	4064.04
661.791	2104.51
666.433	1284.67
671.073	793.533
675.71	547.294
680.345	375.864
684.977	234.374
689.606	262.935
694.233	173.16
698.857	71.8599
703.478	87.3389
708.097	54.8081
712.714	66.5088
717.327	73.5337
721.938	1.57666
726.547	95.1187
731.153	70.624
735.756	14.0742
740.356	54.2163
744.954	38.9326
749.55	51.6977
754.142	96.7363
758.733	8.99609
763.32	80.4189
767.905	9.78857
772.487	32.8384
777.067	22.5498
781.644	108.141
786.218	99.4702
790.79	175.459
795.359	139.12
799.926	293.462
804.49	253.498
809.051	325.237
813.61	233.741
818.166	260.082
822.72	276.237
827.271	204.149
831.819	105.593
836.365	82.7266
840.908	103.065
845.448	22.0264
849.986	16.8052
854.521	69.8193
859.054	1.3916
863.584	54.3296
868.111	9.53125
872.636	56.3828
877.158	61.9214
881.677	9.61182
886.194	52.2969
890.709	30.1108
895.22	48.6289
899.729	56.7319
904.236	19.1001
908.74	132.089
913.241	30.4917
917.739	72.0186
922.235	96.7803
926.729	182.711
931.219	206.951
935.708	310.426
940.193	397.152
944.676	365.161
949.156	530.453
953.634	619.053
958.109	802.02
962.582	953.315
967.051	1212.01
971.519	1805.16
975.983	2259.82
980.445	3191.73
984.905	5043.48
989.362	7964.87
993.816	13847.3
998.267	23522.6
1002.72	37272.8
1007.16	52056
1011.61	55116.1
1016.05	42317.7
1020.49	26132.6
1024.92	15689.6
1029.36	10040.3
1033.79	7513.99
1038.21	7056.73
1042.64	8158.68
1047.06	10600.3
1051.48	16217.6
1055.9	26325.3
1060.32	38158.7
1064.73	34086.5
1069.14	17633.8
1073.55	8063.68
1077.95	4163.09
1082.35	2378.97
1086.75	1537.2
1091.15	1002.64
1095.54	709.641
1099.93	767.003
1104.32	794.907
1108.71	1218.04
1113.09	1487.52
1117.47	1503.36
1121.85	1604.48
1126.23	1265.09
1130.6	1052.3
1134.97	713.228
1139.34	462.049
1143.7	269.804
1148.07	179.542
1152.43	83.0684
1156.79	25.2607
1161.14	42.3852
1165.49	40.9199
1169.84	57.6929
1174.19	123.629
1178.54	53.9961
1182.88	143.398
1187.22	187.179
1191.55	146.791
1195.89	173.754
1200.22	181.866
1204.55	31.8872
1208.87	143.439
1213.2	73.8731
1217.52	35.6445
1221.84	22.811
1226.15	20.687
1230.47	20.729
1234.78	1.04981
1239.09	49.9541
1243.39	29.1431
1247.69	29.7549
1251.99	39.979
1256.29	62.9053
1260.59	21.7109
1264.88	18.231
1269.17	2.61523
1273.46	80.2061
1277.74	12.7632
1282.02	67.8359
1286.3	75.0332
1290.58	147.77
1294.86	130.221
1299.13	121.967
1303.39	91.1875
1307.66	188.812
1311.93	175.289
1316.19	183.797
1320.45	153.415
1324.7	128.37
1328.96	177.389
1333.21	239.17
1337.45	195.82
1341.7	179.382
1345.94	206.526
1350.18	114.61
1354.42	130.778
1358.66	60.1294
1362.89	155.559
1367.12	90.6231
1371.35	115.105
1375.57	101.249
1379.8	20.251
1384.02	22.8955
1388.23	38.2568
1392.45	28.3486
1396.66	93.5864
1400.87	28.458
1405.08	79.7266
1409.28	129.159
1413.48	81.8276
1417.68	138.852
1421.88	51.5879
1426.07	71.2007
1430.26	0.42334
1434.45	39.833
1438.64	132.197
1442.82	52.0395
1447	117.883
1451.18	202.01
1455.35	123.17
1459.53	185.196
1463.7	154.909
1467.87	46.3687
1472.03	174.712
1476.19	138.343
1480.35	92.5703
1484.51	123.444
1488.67	198.532
1492.82	81.9019
1496.97	235.464
1501.12	188.829
1505.26	48.4868
1509.4	111.673
1513.54	147.28
1517.68	124.526
1521.81	104.365
1525.94	106.769
1530.07	195.14
1534.2	126.331
1538.32	188.745
1542.44	97.1182
1546.56	93.4111
1550.68	151.357
1554.79	174.259
1558.9	40.728
1563.01	107.688
1567.12	185.315
1571.22	54.8218
1575.32	27.1973
