Measurement: Raman, 514 nm, ccw, Raman Data Processed
Mineral: Montebrasite
Rruff sample: R040060
Ideal chemistry: LiAlPO_4_(OH)
Locality: Oxford County, Maine, USA
Source: University of Arizona Mineral Museum
Description: White massive
Measured chemistry: LiAl(PO_4_)((OH)_0.79_F_0.21_)
Pin_id: L00066
Orientation: Laser parallel to (0 -1 -1). Fiducial mark perpendicular to laser is parallel to a [1 0 0]
Raman shift (cm-1)	intensity
150.354	0
153.13	2.311
155.905	205.546
158.679	104.943
161.452	441.506
164.225	512.768
166.996	357.123
169.767	405.058
172.536	354.751
175.305	375.528
178.073	487.164
180.839	379.602
183.605	422.733
186.37	353.081
189.134	551.994
191.898	486.064
194.66	513.346
197.421	518.229
200.182	413.578
202.941	129.762
205.7	146.361
208.457	93.209
211.214	30.309
213.97	57.639
216.725	175.199
219.479	57.006
222.232	221.021
224.984	119.256
227.736	197.688
230.486	146.289
233.236	25.037
235.984	36.219
238.732	122.531
241.479	121.33
244.224	170.188
246.969	79.117
249.713	112.885
252.457	135.68
255.199	67.576
257.94	158.125
260.681	97.549
263.42	117.197
266.159	287.066
268.896	247.023
271.633	427.023
274.369	497.096
277.104	597.236
279.838	577.625
282.572	478.188
285.304	459.02
288.035	539.943
290.766	660.99
293.495	1502.08
296.224	2493.17
298.952	3154.26
301.679	2855.35
304.405	1916.43
307.13	1497.52
309.854	1268.66
312.578	1169.73
315.3	929.82
318.021	707.986
320.742	767.061
323.462	696.463
326.181	436.111
328.899	445.955
331.616	265.965
334.332	226.104
337.047	246.35
339.762	336.693
342.475	107.121
345.188	187.631
347.9	168.199
350.61	138.754
353.32	169.318
356.029	59.607
358.738	41.498
361.445	172.199
364.151	293.191
366.857	98.443
369.561	133.682
372.265	148.303
374.968	39.949
377.67	257.799
380.371	189.393
383.071	149.123
385.77	71.365
388.469	241.816
391.166	343.5
393.863	174.883
396.559	257.84
399.254	258.264
401.948	49.926
404.641	302.049
407.333	387.842
410.025	389.492
412.715	311.102
415.405	263.656
418.093	425.613
420.781	360.889
423.468	1262.09
426.154	2179.22
428.839	2330.9
431.524	1382.12
434.207	793.32
436.89	304.498
439.572	325.656
442.252	386.795
444.932	267.908
447.611	188.994
450.29	160.049
452.967	241.062
455.644	262.037
458.319	192.969
460.994	183.928
463.668	214.84
466.341	75.766
469.013	136.666
471.684	347.52
474.354	268.32
477.024	529.08
479.692	529.805
482.36	640.498
485.027	651.15
487.693	811.758
490.358	612.322
493.023	622.836
495.686	553.295
498.349	543.703
501.01	514.057
503.671	384.625
506.331	394.861
508.99	192.594
511.648	171.068
514.306	31.518
516.962	240.244
519.618	140.496
522.273	90.645
524.927	188.318
527.58	27.27
530.232	184.176
532.883	54.061
535.534	195.027
538.183	65.215
540.832	159.666
543.48	29.492
546.127	133.865
548.773	43.338
551.418	162.891
554.063	72.012
556.706	241.785
559.349	151.473
561.991	152.389
564.632	302.143
567.272	161.846
569.911	100.938
572.55	138.594
575.187	130.668
577.824	163.312
580.46	258.055
583.095	339.781
585.729	347.273
588.363	277.855
590.995	375.736
593.627	443.463
596.258	561.041
598.888	798.561
601.517	1106.07
604.145	983.062
606.772	980.119
609.399	736.734
612.024	452.547
614.649	438.916
617.273	605.877
619.896	487.896
622.519	368.721
625.14	678.393
627.761	923.432
630.38	1159.09
632.999	943.859
635.617	678.494
638.235	922.996
640.851	3417.36
643.466	2271.59
646.081	3205.67
648.695	2859.62
651.308	2213.43
653.92	1007.11
656.531	631.1
659.142	504.506
661.752	457.752
664.36	170.854
666.968	114.408
669.575	297.252
672.182	209.5
674.787	332.719
677.392	264.658
679.995	109.262
682.598	92.072
685.2	190.258
687.802	221.529
690.402	114.137
693.002	206.184
695.6	32.5
698.198	219.205
700.795	99.672
703.391	130.281
705.987	114.941
708.581	195.441
711.175	175.346
713.768	564.656
716.36	27.674
718.951	87.064
721.542	255.986
724.131	221.281
726.72	159.697
729.308	47.979
731.895	30.51
734.481	62.676
737.067	101.988
739.651	230.504
742.235	7.285
744.818	119.945
747.4	53.289
749.981	280.664
752.562	198.133
755.141	175.203
757.72	182.121
760.298	128.883
762.875	125.496
765.451	292.5
768.027	98.832
770.601	145.023
773.175	101.066
775.748	286.848
778.32	27.531
780.892	367.828
783.462	73.059
786.032	308.148
788.601	263.113
791.169	297.953
793.736	352.672
796.303	557.27
798.868	711.746
801.433	516.105
803.997	490.344
806.56	524.473
809.122	568.48
811.684	522.371
814.245	396.152
816.804	319.543
819.363	492.656
821.922	385.418
824.479	228.68
827.036	181.215
829.592	213.992
832.147	13.387
834.701	147.496
837.254	358.836
839.807	140.473
842.358	68.832
844.909	302.586
847.459	293.586
850.008	49.789
852.557	101.457
855.105	22.074
857.651	88.629
860.197	319.547
862.743	80.676
865.287	168.309
867.831	47.664
870.373	210.012
872.915	110.07
875.457	130.641
877.997	449.965
880.536	139.547
883.075	417.156
885.613	212.527
888.15	66.141
890.687	125.727
893.222	302.363
895.757	269.48
898.291	111.07
900.824	137.824
903.356	288.246
905.888	407.277
908.418	306.406
910.948	135.512
913.477	204.707
916.005	453.891
918.533	533.934
921.06	213.359
923.585	112.949
926.111	471.406
928.635	655.477
931.158	435.867
933.681	125.316
936.203	414.496
938.724	544.402
941.244	234.297
943.764	404.176
946.282	144.051
948.8	573.914
951.317	333.781
953.833	563.645
956.349	323.516
958.864	313.398
961.377	863.293
963.891	1022.75
966.403	1092.67
968.914	1042.65
971.425	692.664
973.935	842.148
976.444	722.258
978.952	602.273
981.46	781.988
983.967	1140.33
986.473	1099.86
988.978	996.664
991.482	942.859
993.986	1537.88
996.488	1518.73
998.99	1788.79
1001.49	2062
1003.99	2832.67
1006.49	3713.55
1008.99	4424.74
1011.49	5322.04
1013.99	5158.01
1016.48	4449.18
1018.98	3418.14
1021.47	2259.28
1023.97	2079.76
1026.46	1727.7
1028.95	1807.34
1031.44	1403.7
1033.93	1573.06
1036.42	2053.03
1038.91	2366.91
1041.4	2786.84
1043.89	3387.08
1046.38	3946.75
1048.86	3847.06
1051.35	3457.46
1053.84	3338.11
1056.32	4198.91
1058.8	4829.75
1061.28	4940.64
1063.77	3551.59
1066.25	3002.58
1068.73	2143.63
1071.2	1604.75
1073.68	1135.93
1076.16	807.172
1078.64	818.48
1081.11	970.004
1083.59	761.758
1086.06	543.688
1088.54	675.867
1091.01	868.16
1093.48	320.844
1095.95	363.711
1098.42	656.91
1100.89	530.316
1103.36	754.094
1105.83	728.262
1108.3	1062.91
1110.77	1487.92
1113.23	1143.32
1115.7	739.086
1118.16	695.273
1120.63	1001.91
1123.09	1579.06
1125.55	706.777
1128.01	315.133
1130.47	544.18
1132.93	574
1135.39	154.668
1137.85	113.723
1140.31	388.934
1142.77	642.734
1145.22	467.832
1147.68	414.414
1150.13	532.715
1152.58	643.016
1155.04	325.672
1157.49	68.719
1159.94	415.703
1162.39	651.328
1164.84	326.172
1167.29	47.18
1169.74	29.574
1172.18	0
