Measurement: Raman, 514 nm, ccw, Raman Data Processed
Mineral: Monticellite
Rruff sample: R040115
Ideal chemistry: CaMgSiO_4_
Locality: Magnet Cove, Arkansas, USA
Source: University of Arizona Mineral Museum
Description: Brown blebs in matrix
Measured chemistry: Ca_0.99_(Mg_0.85_ Fe_0.12_Mn_0.03_)Si_1.00_O_4_
Pin_id: M00451
Orientation: Laser parallel to c* (0 0 1). Fiducial mark perpendicular to laser is parallel to -a [-1 0 0]
Raman shift (cm-1)	intensity
113.559	0
117.729	84.228
121.897	30.215
126.063	128.582
130.228	209.14
134.39	363.402
138.55	919.937
142.709	1413.12
146.865	1344.92
151.019	707.479
155.171	785.02
159.322	1849.3
163.47	2755.43
167.617	2372.07
171.761	1618.96
175.904	697.843
180.044	129.081
184.183	70.463
188.319	3.901
192.454	7.645
196.586	45.792
200.717	55.211
204.846	109.821
208.972	174.764
213.097	59.994
217.22	57.721
221.341	32.165
225.46	79.834
229.577	23.866
233.692	67.309
237.805	23.862
241.916	163.66
246.025	318.284
250.132	784.778
254.237	1760.88
258.34	2229.71
262.442	1303.44
266.541	816.035
270.639	683.502
274.734	554.83
278.828	398.6
282.919	212.157
287.009	247.258
291.097	316.376
295.183	526.712
299.266	949.917
303.348	1125.11
307.428	770.339
311.507	330.26
315.583	164.614
319.657	109.864
323.729	57.193
327.8	134.436
331.868	218.657
335.935	138.08
339.999	42.919
344.062	99.606
348.123	71.229
352.182	6.197
356.239	49.525
360.294	49.317
364.347	156.032
368.398	125.122
372.448	253.083
376.495	188.944
380.54	554.761
384.584	774.062
388.626	1192.25
392.666	2296.04
396.704	4208.35
400.74	6976.31
404.774	9275.04
408.806	8018.64
412.836	4602.05
416.865	2358.28
420.891	1257.35
424.916	647.226
428.939	431.908
432.959	293.392
436.978	233.676
440.996	225.759
445.011	52.642
449.024	105.394
453.036	78.398
457.045	22.4
461.053	31.622
465.059	56.301
469.063	68.122
473.065	58.29
477.065	97.195
481.063	76.434
485.06	124.998
489.054	12.806
493.047	44.531
497.038	82.136
501.027	57.705
505.014	175.087
508.999	21.318
512.982	46.892
516.964	171.024
520.944	303.532
524.921	462.59
528.897	1172.49
532.871	1909.49
536.844	1230.15
540.814	674.826
544.783	460.929
548.749	388.56
552.714	510.418
556.677	541.059
560.638	577.909
564.597	456.997
568.555	542.799
572.511	682.343
576.464	738.551
580.416	802.399
584.366	972.932
588.315	932.146
592.261	948.048
596.206	603.635
600.148	389.908
604.089	239.233
608.028	205.173
611.965	203.243
615.901	132.375
619.834	176.996
623.766	39.363
627.696	202.12
631.624	8.497
635.551	54.509
639.475	9.163
643.398	102.564
647.318	77.66
651.237	28.392
655.155	211.656
659.07	88.836
662.984	42.845
666.895	17.563
670.805	49.171
674.713	39.631
678.62	78.208
682.524	44.817
686.427	246.51
690.328	64.007
694.227	51.872
698.124	26.748
702.02	122.037
705.913	38.077
709.805	236.914
713.695	41.482
717.584	140.834
721.47	295.94
725.355	209.816
729.238	289.535
733.119	227.048
736.998	255.387
740.876	314.589
744.752	144.657
748.626	231.598
752.498	252.417
756.368	399.119
760.237	367.66
764.104	284.916
767.969	205.715
771.832	568.874
775.693	711.94
779.553	683.888
783.411	877.634
787.267	1002.17
791.122	1334.94
794.974	1676.34
798.825	2468.09
802.674	3940.83
806.522	6983.09
810.367	14346.3
814.211	31466.7
818.053	46330.5
821.893	32271.4
825.732	16442.5
829.568	8900.96
833.403	5819.08
837.236	4201.83
841.068	5195.05
844.898	9374.38
848.726	17988.9
852.552	16123.1
856.376	7969.34
860.199	4079.15
864.02	2505.3
867.839	1493.97
871.656	1178.35
875.472	799.16
879.286	692.082
883.098	688.061
886.909	554.215
890.717	836.501
894.524	1294.88
898.33	2364.35
902.133	1523.92
905.935	657.581
909.735	468.34
913.533	219.199
917.33	344.159
921.124	248.229
924.918	140.415
928.709	331.72
932.499	372.151
936.286	308.714
940.073	1194.49
943.857	2997.41
947.64	5088.93
951.421	2922.17
955.2	1343.28
958.978	680.938
962.753	286.779
966.527	273.086
970.3	20.352
974.071	37.08
977.84	219.605
981.607	8.973
985.372	298.125
989.136	7.525
992.898	10.596
996.659	98.846
1000.42	146.463
1004.17	54.627
1007.93	296.715
1011.68	361.939
1015.43	334.781
1019.18	144.826
1022.93	266.848
1026.68	318.445
1030.42	429.619
1034.17	377.896
1037.91	370.268
1041.65	489.025
1045.39	481.359
1049.12	358.719
1052.86	178.1
1056.59	239.504
1060.33	176.291
1064.06	240.355
1067.78	160.799
1071.51	86.252
1075.23	370.785
1078.96	206.455
1082.68	211.922
1086.4	275.385
1090.12	110.941
1093.83	85.723
1097.55	190.791
1101.26	29.055
1104.97	195.488
1108.68	10.566
1112.39	240.312
1116.1	201.383
1119.8	140.385
1123.5	59.83
1127.2	61.916
1130.9	56.285
1134.6	39.936
1138.3	306.842
1141.99	58.77
1145.69	10.92
1149.38	1.248
1153.07	76.762
1156.76	23.477
1160.44	136.623
1164.13	58.691
1167.81	304.676
1171.49	279.576
1175.17	149.355
1178.85	290.967
1182.52	68.35
1186.2	269.576
1189.87	430.705
1193.54	329.74
1197.21	356.689
1200.88	283.617
1204.55	310.457
1208.21	301.088
1211.88	316.666
1215.54	253.223
1219.2	187.711
1222.86	167.125
1226.51	139.465
1230.17	266.57
1233.82	295.729
1237.47	161.047
1241.12	29.066
1244.77	124.549
1248.42	261.404
1252.06	201.268
1255.71	205.455
1259.35	109.51
1262.99	107.014
1266.63	195.57
1270.26	19.98
1273.9	64.307
1277.53	55.758
1281.16	152.949
1284.8	72.801
1288.42	102.834
1292.05	177.658
1295.68	181.834
1299.3	105.262
1302.92	149.59
1306.55	152.311
1310.16	281.879
1313.78	252.496
1317.4	463.068
1321.01	91.127
1324.62	131.658
1328.24	371.039
1331.85	126.596
1335.45	133.729
1339.06	132.346
1342.66	97.004
1346.27	94.727
1349.87	464.533
1353.47	387.449
1357.07	341.496
1360.66	402.908
1364.26	226.336
1367.85	351.02
1371.44	396.633
1375.04	211.213
1378.62	271.949
1382.21	441.633
1385.8	421.887
1389.38	241.338
1392.96	408.291
1396.54	342.916
1400.12	327.824
1403.7	389.51
1407.28	147.543
1410.85	191.467
1414.42	365.105
1417.99	394.746
1421.56	506.408
1425.13	267.307
1428.7	338.438
1432.26	283.607
1435.83	555.688
1439.39	768.879
1442.95	679.973
1446.51	459.904
1450.06	517.703
1453.62	841.42
1457.17	618.385
1460.73	599.531
1464.28	449.766
1467.83	218.787
1471.37	499.34
1474.92	408.408
1478.46	355.055
1482.01	287.424
1485.55	577.74
1489.09	236.377
1492.63	344.619
1496.16	344.543
1499.7	75.496
1503.23	81.117
1506.76	260.283
1510.29	141.195
1513.82	228.316
1517.35	1.771
1520.88	0
