Measurement: Raman, 514 nm, ccw, Raman Data Processed
Mineral: Montebrasite
Rruff sample: R040062
Ideal chemistry: LiAlPO_4_(OH)
Locality: Hebron, Maine, USA
Source: University of Arizona Mineral Museum
Description: White massive
Measured chemistry: LiAl(PO_4_)((OH)_0.62_F_0.38_)
Pin_id: L00072
Orientation: Laser parallel to (0 1 1). Fiducial mark perpendicular to laser is parallel to a [1 0 0]
Raman shift (cm-1)	intensity
117.519	0
121.706	112.234
125.892	475.173
130.075	1141.03
134.256	972.777
138.435	645.613
142.611	414.115
146.786	333.024
150.958	363.875
155.128	617.009
159.296	903.644
163.462	1149.99
167.625	1080.93
171.786	617.622
175.946	407.772
180.103	309.866
184.258	342.08
188.41	552.562
192.561	203.372
196.709	223.163
200.856	162.331
205	31.562
209.142	41.208
213.281	71.197
217.419	121.413
221.554	131.726
225.688	102.029
229.819	13.509
233.948	85.849
238.075	96.766
242.2	78.408
246.322	80.094
250.443	55.825
254.561	40.616
258.677	176.434
262.791	503.029
266.903	1337.64
271.013	2351.53
275.121	2685.16
279.226	1848.56
283.33	1405.64
287.431	1527.94
291.53	3122.01
295.627	7056.19
299.722	9080.19
303.815	5563.81
307.906	3096.93
311.995	2319.53
316.081	1711.5
320.166	1312.73
324.248	813.288
328.328	398.425
332.406	342.25
336.482	355.291
340.556	178.86
344.628	35.463
348.697	10.588
352.765	124.808
356.83	138.614
360.894	86.931
364.955	73.139
369.014	129.396
373.071	42.303
377.126	35.865
381.179	135.988
385.23	150.502
389.279	317.92
393.325	211.115
397.37	291.617
401.413	285.34
405.453	451.795
409.491	445.572
413.528	554.498
417.562	1269.41
421.594	3607.31
425.624	5827.06
429.652	2626.7
433.678	1265.56
437.702	764.174
441.724	782.572
445.743	690.734
449.761	628.566
453.777	636.021
457.79	643.105
461.802	969.793
465.811	1366.11
469.819	2032.02
473.824	3157.52
477.827	5202.62
481.829	5777.3
485.828	5251.58
489.825	4685.47
493.82	3998.95
497.813	3182.04
501.804	2253.86
505.793	1452.1
509.78	909.344
513.765	567.939
517.748	526.129
521.729	266.896
525.708	155.361
529.685	201.543
533.659	148.055
537.632	87.09
541.603	14.688
545.571	171.682
549.538	287.031
553.503	81.623
557.465	135.814
561.426	22.68
565.385	108.977
569.341	138.953
573.296	195.869
577.248	447.646
581.199	282.268
585.147	266.861
589.094	462.762
593.038	687.357
596.981	1442.86
600.922	1977.74
604.86	1533.13
608.797	1046.3
612.731	1112.11
616.664	1443.77
620.594	1898.02
624.523	2830.45
628.449	4340.91
632.374	4490.98
636.296	5870.65
640.217	11819.9
644.135	23088.8
648.052	16937.3
651.967	6815.34
655.879	3323.03
659.79	1810.34
663.698	1307.3
667.605	733.932
671.51	470.236
675.413	566.203
679.313	461.246
683.212	335.152
687.109	276.027
691.004	170.986
694.897	95.393
698.788	268.125
702.677	346.49
706.564	139.383
710.449	197.463
714.332	85.613
718.213	31.809
722.092	210.35
725.969	88.654
729.844	163.906
733.718	217.502
737.589	159.582
741.458	82.398
745.326	195.018
749.191	122.18
753.055	64.641
756.916	25.545
760.776	91.715
764.634	117.598
768.489	182.549
772.343	387.822
776.195	23.047
780.045	369.635
783.893	534.08
787.739	469.582
791.583	683.602
795.425	917.418
799.266	1121.04
803.104	1124.48
806.94	1237.75
810.775	1150.85
814.608	1433.79
818.438	986.58
822.267	1069.23
826.094	451.746
829.919	304.137
833.742	66.41
837.563	131.873
841.382	329.125
845.199	189.801
849.014	6.486
852.828	278.77
856.639	59.725
860.449	81.027
864.257	117.564
868.062	218.365
871.866	466.648
875.668	170.828
879.468	178.102
883.267	339.607
887.063	277.865
890.857	314.277
894.65	391.619
898.44	451.408
902.229	462.879
906.016	263.074
909.801	402.705
913.584	414.391
917.365	36.592
921.144	215.838
924.922	47.729
928.697	72.656
932.471	150.604
936.242	65.941
940.012	227.684
943.78	314.537
947.546	385.592
951.311	99.891
955.073	384.439
958.834	189.24
962.592	564.303
966.349	169.641
970.104	35.262
973.857	531.178
977.608	937.398
981.357	1163.94
985.105	1970.27
988.85	2579.69
992.594	3984.49
996.336	5523.76
1000.08	8469.99
1003.81	13421.7
1007.55	17568.2
1011.28	17377.8
1015.02	12801.4
1018.75	8601.21
1022.48	5892.09
1026.2	4983.63
1029.93	4975.48
1033.65	6477.82
1037.37	8100.69
1041.09	10754.2
1044.81	11558.2
1048.53	10852.8
1052.24	10407.9
1055.95	11083.3
1059.66	11759.2
1063.37	7865.56
1067.08	4152.38
1070.79	2790.3
1074.49	1698.08
1078.19	1244.56
1081.89	1122.65
1085.59	840.215
1089.28	769.516
1092.98	819.277
1096.67	389.531
1100.36	670.289
1104.05	1321.56
1107.73	1593.36
1111.42	1665.71
1115.1	1448.61
1118.78	1362.28
1122.46	1266.39
1126.14	776.238
1129.82	676.621
1133.49	399.191
1137.16	760.406
1140.83	398.465
1144.5	91.902
1148.17	344.77
1151.83	201.129
1155.5	215.262
1159.16	68.68
1162.82	452.809
1166.47	637.664
1170.13	493.23
1173.79	659.508
1177.44	766.48
1181.09	1074.16
1184.74	1682.54
1188.38	1971.89
1192.03	2152.06
1195.67	1813.07
1199.31	1484.86
1202.95	1167.44
1206.59	730.809
1210.23	584.949
1213.86	469.848
1217.5	665.48
1221.13	751.004
1224.76	522.027
1228.38	425.031
1232.01	681.145
1235.63	58.531
1239.26	66.715
1242.88	286.48
1246.49	337.477
1250.11	589.691
1253.73	593.137
1257.34	527.828
1260.95	873.805
1264.56	362.473
1268.17	375.23
1271.78	411.035
1275.38	930.34
1278.98	1303.94
1282.58	791.73
1286.18	657.734
1289.78	569.18
1293.38	183.336
1296.97	39.707
1300.56	0
