Measurement: Raman, 514 nm, ccw, Raman Data Processed
Mineral: Montebrasite
Rruff sample: R060890
Ideal chemistry: LiAlPO_4_(OH)
Locality: Mount Marie, Paris, Maine, USA
Source: Bob Jenkins
Description: Colorless massive
Measured chemistry: Li_1.00_Al_1.00_(P_1.00_O_4_)(OH)_0.63_F_0.37_)_Î£=1_ ; Li not measured but estimated by stoichiometry
Pin_id: M01503
Orientation: Laser parallel to (-1 0 -1). Fiducial mark perpendicular to laser is parallel to b [0 1 0]
Raman shift (cm-1)	intensity
90.678	0
95.631	143.735
100.581	20.4985
105.529	304.136
110.475	384.068
115.417	439.25
120.358	663.83
125.295	915.821
130.23	1079.75
135.163	694.605
140.092	504.28
145.019	327.656
149.944	394.375
154.866	498.216
159.785	812.354
164.702	805.68
169.616	425.724
174.528	158.464
179.437	107.242
184.343	68.1943
189.247	52.3906
194.148	190.851
199.046	295.577
203.942	222.564
208.835	308.793
213.726	236.235
218.614	392.881
223.5	406.078
228.382	371.062
233.263	382.42
238.14	173.473
243.015	189.876
247.888	106.807
252.758	294.752
257.625	604.76
262.49	1378.47
267.352	2402.87
272.211	3308.71
277.068	3154.99
281.922	2600.58
286.773	2981.41
291.622	5402.44
296.469	10629.7
301.312	16575
306.154	11202.6
310.992	5509.2
315.828	3369.88
320.661	2021.67
325.492	1093.45
330.32	537.342
335.145	329.709
339.968	299.73
344.789	158.809
349.606	16.9268
354.421	83.999
359.234	15.9028
364.043	63.3394
368.851	52.9092
373.655	2.07715
378.457	110.318
383.256	84.6968
388.053	296.193
392.847	313.801
397.639	331.959
402.428	487.249
407.214	814.355
411.998	782.482
416.779	1988.9
421.557	4197.69
426.333	6649.9
431.106	2644.77
435.877	1178.69
440.645	640.674
445.41	653.673
450.173	671.666
454.933	833.656
459.691	1292.72
464.446	1870.81
469.198	3266.97
473.948	5542.13
478.695	8416.29
483.439	9603.42
488.181	8690.5
492.92	7120.18
497.657	5586.51
502.391	3627.33
507.122	2236.46
511.851	1248.28
516.577	697.098
521.301	328.782
526.022	234.369
530.74	80.8521
535.456	50.2222
540.169	75.6231
544.879	135.995
549.587	0.366699
554.292	107.503
558.995	11.1787
563.695	83.8931
568.392	181.459
573.087	147.526
577.779	232.696
582.469	261.176
587.156	422.488
591.84	513.68
596.522	682.857
601.201	1049.65
605.877	1151.53
610.551	1167
615.222	1553.72
619.891	2284.59
624.557	3387.35
629.22	5573.94
633.881	9922.19
638.539	21693.7
643.195	44629.2
647.848	48982.8
652.498	19454.2
657.145	7540.35
661.791	3763.14
666.433	2197.58
671.073	1420.63
675.71	878.27
680.345	730.919
684.977	422.497
689.606	379.141
694.233	191.504
698.857	240.435
703.478	161.089
708.097	75.4922
712.714	84.6348
717.327	109.352
721.938	56.416
726.547	28.9966
731.153	3.23144
735.756	93.9106
740.356	85.3633
744.954	44.1187
749.55	72.6352
754.142	55.8379
758.733	130.406
763.32	142.068
767.905	13.0781
772.487	107.666
777.067	103.609
781.644	46.04
786.218	304.117
790.79	282.798
795.359	322.086
799.926	431.588
804.49	680.092
809.051	500.223
813.61	580.988
818.166	490.5
822.72	316.836
827.271	209.882
831.819	21.6514
836.365	178.325
840.908	156.421
845.448	19.5635
849.986	35.625
854.521	54.9873
859.054	22.9307
863.584	117.549
868.111	104.35
872.636	24.4609
877.158	28.7734
881.677	93.1025
886.194	56.3828
890.709	90.5996
895.22	20.6191
899.729	101.369
904.236	48.4502
908.74	29.8252
913.241	79.4971
917.739	60.085
922.235	48.0039
926.729	119.252
931.219	120.6
935.708	130.058
940.193	266.63
944.676	270.353
949.156	262.273
953.634	314.317
958.109	322.346
962.582	608.727
967.051	822.921
971.519	920.762
975.983	1343.31
980.445	1824.8
984.905	2948.72
989.362	4618.57
993.816	7824.84
998.267	12879
1002.72	20453.4
1007.16	28683.8
1011.61	31246.5
1016.05	24480.2
1020.49	15775
1024.92	11229.4
1029.36	10381.8
1033.79	12416.3
1038.21	16749.5
1042.64	20297.9
1047.06	20893
1051.48	19030.8
1055.9	17336
1060.32	16613.6
1064.73	13379.7
1069.14	7912.7
1073.55	4520.81
1077.95	3005.48
1082.35	2022.65
1086.75	1515.36
1091.15	995.569
1095.54	898.35
1099.93	771.127
1104.32	649.866
1108.71	903.848
1113.09	1014.73
1117.47	1006.75
1121.85	948.086
1126.23	904.894
1130.6	803.392
1134.97	488.521
1139.34	529.482
1143.7	340.998
1148.07	172.882
1152.43	37.1455
1156.79	176.792
1161.14	210.001
1165.49	231.612
1169.84	269.871
1174.19	335.103
1178.54	542.259
1182.88	707.584
1187.22	851.448
1191.55	854.485
1195.89	968.287
1200.22	962.242
1204.55	980.202
1208.87	595.521
1213.2	431.606
1217.52	240.231
1221.84	166.983
1226.15	8.7041
1230.47	68.5693
1234.78	32.1973
1239.09	21.6816
1243.39	104.592
1247.69	99.2129
1251.99	99.5361
1256.29	37.2353
1260.59	39.8369
1264.88	92.5576
1269.17	69.667
1273.46	154.248
1277.74	126.348
1282.02	116.138
1286.3	100.76
1290.58	113.297
1294.86	63.1699
1299.13	100.223
1303.39	110.384
1307.66	39.9316
1311.93	205.558
1316.19	169.939
1320.45	279.911
1324.7	168.698
1328.96	163.285
1333.21	3.63281
1337.45	254.889
1341.7	135.724
1345.94	207.39
1350.18	11.6484
1354.42	157.534
1358.66	57.54
1362.89	45.6221
1367.12	184.65
1371.35	94.0898
1375.57	187.025
1379.8	141.171
1384.02	185.637
1388.23	0.087891
1392.45	30.7783
1396.66	83.2441
1400.87	51.5586
1405.08	357.643
1409.28	38.5185
1413.48	92.2988
1417.68	18.6455
1421.88	130.019
1426.07	58.9639
1430.26	120.14
1434.45	190.27
1438.64	148.998
1442.82	249.246
1447	212.86
1451.18	166.477
1455.35	142.254
1459.53	139.199
1463.7	141.989
1467.87	112.58
1472.03	129.751
1476.19	198.141
1480.35	87.2363
1484.51	158.178
1488.67	132.329
1492.82	214.037
1496.97	253.931
1501.12	216.617
1505.26	215.086
1509.4	52.207
1513.54	328.316
1517.68	220.094
1521.81	62.1914
1525.94	80.2734
1530.07	136.026
1534.2	60.2812
1538.32	192.782
1542.44	35.9453
1546.56	174.609
1550.68	274.56
1554.79	274.702
1558.9	124.518
1563.01	13.2549
1567.12	74.3603
1571.22	228.815
1575.32	0.277344
