Measurement: Raman, 514 nm, ccw, Raman Data Processed
Mineral: Montebrasite
Rruff sample: R060890
Ideal chemistry: LiAlPO_4_(OH)
Locality: Mount Marie, Paris, Maine, USA
Source: Bob Jenkins
Description: Colorless massive
Measured chemistry: Li_1.00_Al_1.00_(P_1.00_O_4_)(OH)_0.63_F_0.37_)_Î£=1_ ; Li not measured but estimated by stoichiometry
Pin_id: M01677
Orientation: Laser parallel to b* (0 1 0). Fiducial mark perpendicular to laser is parallel to c [0 0 1]
Raman shift (cm-1)	intensity
90.678	0
95.631	148.299
100.581	216.221
105.529	232.152
110.475	702.651
115.417	1006.23
120.358	1964.14
125.295	2783.86
130.23	3451.9
135.163	2153.64
140.092	1204.93
145.019	1024.96
149.944	1806.06
154.866	3856.05
159.785	5806.02
164.702	7504.2
169.616	7162.2
174.528	5298.66
179.437	3991.06
184.343	3085.7
189.247	2386.44
194.148	1827.1
199.046	1219.54
203.942	745.574
208.835	466.901
213.726	404.498
218.614	314.362
223.5	225.485
228.382	37.1426
233.263	93.5644
238.14	170.407
243.015	142.338
247.888	44.3057
252.758	301.777
257.625	1124.47
262.49	2498.46
267.352	3925.95
272.211	4422
277.068	4007.13
281.922	4100.09
286.773	5568.84
291.622	11499.4
296.469	18724.9
301.312	21614.3
306.154	15866.5
310.992	8614.71
315.828	5074.52
320.661	3075.97
325.492	1784.62
330.32	1070.43
335.145	921.395
339.968	560.481
344.789	346.673
349.606	380.951
354.421	402.308
359.234	356.901
364.043	632.644
368.851	652.743
373.655	588.801
378.457	587.725
383.256	425.69
388.053	81.9268
392.847	51.2637
397.639	163.02
402.428	411.568
407.214	674.663
411.998	2058.8
416.779	7488.9
421.557	12266.5
426.333	12995.5
431.106	5359.65
435.877	1870.03
440.645	941.018
445.41	801.605
450.173	684.023
454.933	974.368
459.691	1111.71
464.446	1609.06
469.198	2635.32
473.948	4065.44
478.695	5225.53
483.439	5649.46
488.181	5203.22
492.92	4474.79
497.657	3353.16
502.391	2475.32
507.122	1653.26
511.851	1038.98
516.577	486.497
521.301	501.92
526.022	7.70019
530.74	24.002
535.456	55.6738
540.169	53.832
544.879	61.7227
549.587	23.8945
554.292	56.1357
558.995	150.164
563.695	7.6416
568.392	182.015
573.087	209.874
577.779	332.761
582.469	297.182
587.156	640.794
591.84	1389.66
596.522	2840.14
601.201	3644.4
605.877	2954.4
610.551	1869.28
615.222	1841.11
619.891	2488.49
624.557	4309.62
629.22	6049.6
633.881	7470.77
638.539	11352.5
643.195	15070
647.848	13113
652.498	5744.59
657.145	2503.7
661.791	1496.32
666.433	1002.33
671.073	718.42
675.71	650.97
680.345	337.263
684.977	346.759
689.606	302.094
694.233	72.3984
698.857	111.119
703.478	24.7549
708.097	154.5
712.714	36.3799
717.327	122.305
721.938	148.673
726.547	45.2685
731.153	37.8721
735.756	40.917
740.356	67.1816
744.954	72.4189
749.55	129.394
754.142	151.776
758.733	154.206
763.32	142.422
767.905	259.593
772.487	312.697
777.067	488.624
781.644	624.747
786.218	1014.04
790.79	1673.82
795.359	2255.13
799.926	2855.08
804.49	3361.79
809.051	3329.87
813.61	3085.22
818.166	2566.11
822.72	2122.6
827.271	1371.16
831.819	889.204
836.365	668.551
840.908	488.126
845.448	222.372
849.986	154.838
854.521	221.197
859.054	117.689
863.584	48.4199
868.111	114.051
872.636	26.4473
877.158	163.485
881.677	41.7744
886.194	101.502
890.709	6.46582
895.22	28.0752
899.729	97.0527
904.236	65.6533
908.74	61.6074
913.241	88.8857
917.739	45.8008
922.235	0.59082
926.729	76.6934
931.219	75.0938
935.708	181.622
940.193	1.58496
944.676	171.069
949.156	362
953.634	442.127
958.109	419.471
962.582	460.047
967.051	630.875
971.519	601.666
975.983	1214.45
980.445	1590.47
984.905	2330.6
989.362	3847.2
993.816	6689.18
998.267	10797.2
1002.72	16438.2
1007.16	21281.8
1011.61	20732.7
1016.05	15819.5
1020.49	10626
1024.92	7835.85
1029.36	7386.16
1033.79	8721.55
1038.21	11366.8
1042.64	13675.2
1047.06	16184.3
1051.48	19917.2
1055.9	26987
1060.32	34698.5
1064.73	29796.7
1069.14	16377.3
1073.55	8149.34
1077.95	4433.41
1082.35	2798.68
1086.75	1932.78
1091.15	1676.46
1095.54	1585.74
1099.93	2110.63
1104.32	2492.34
1108.71	3719.42
1113.09	4218.71
1117.47	4584.11
1121.85	4505.16
1126.23	3905.08
1130.6	3278.6
1134.97	2403.46
1139.34	1687.62
1143.7	818.559
1148.07	599.875
1152.43	499.428
1156.79	223.769
1161.14	163.533
1165.49	249.227
1169.84	330.812
1174.19	258.711
1178.54	488.18
1182.88	623.404
1187.22	904.824
1191.55	1112.46
1195.89	1332.94
1200.22	1301.78
1204.55	1475.29
1208.87	1309.11
1213.2	956.559
1217.52	768.859
1221.84	493.383
1226.15	114.834
1230.47	99.75
1234.78	53.9805
1239.09	269.592
1243.39	38.9062
1247.69	4.55078
1251.99	170.055
1256.29	76.7793
1260.59	1.63477
1264.88	39.3848
1269.17	35.9043
1273.46	177.438
1277.74	2.51562
1282.02	29.3008
1286.3	11.2695
1290.58	80.6758
1294.86	11.0117
1299.13	84.8301
1303.39	83.2109
1307.66	230.459
1311.93	68.4824
1316.19	269.348
1320.45	354.08
1324.7	354.674
1328.96	251.147
1333.21	136.488
1337.45	217.693
1341.7	221.723
1345.94	212.76
1350.18	149.457
1354.42	179.006
1358.66	47.584
1362.89	267.404
1367.12	355.06
1371.35	133.461
1375.57	199.228
1379.8	143.441
1384.02	107.707
1388.23	81.9004
1392.45	239.397
1396.66	113.115
1400.87	198.465
1405.08	50.8789
1409.28	237.324
1413.48	151.787
1417.68	172.488
1421.88	287.115
1426.07	194.984
1430.26	153.56
1434.45	138.881
1438.64	197.31
1442.82	303.613
1447	440.08
1451.18	313.412
1455.35	207.807
1459.53	256.447
1463.7	108.228
1467.87	315
1472.03	306.119
1476.19	349.012
1480.35	301.787
1484.51	121.481
1488.67	173.342
1492.82	182.445
1496.97	240.402
1501.12	241.58
1505.26	114.012
1509.4	253.662
1513.54	233.305
1517.68	186.924
1521.81	322.318
1525.94	258.195
1530.07	16.6113
1534.2	194.629
1538.32	157.242
1542.44	255.625
1546.56	144.406
1550.68	247.41
1554.79	328.607
1558.9	212.152
1563.01	59.8828
1567.12	1.11914
