Measurement: Raman, 514 nm, ccw, Raman Data Processed
Mineral: Montebrasite
Rruff sample: R040062
Ideal chemistry: LiAlPO_4_(OH)
Locality: Hebron, Maine, USA
Source: University of Arizona Mineral Museum
Description: White massive
Measured chemistry: LiAl(PO_4_)((OH)_0.62_F_0.38_)
Pin_id: L00090
Orientation: Laser parallel to -b* (0 -1 0). Fiducial mark perpendicular to laser is parallel to c [0 0 1]
Raman shift (cm-1)	intensity
131.469	0
135.649	84.675
139.827	6.061
144.003	70.125
148.177	75.185
152.348	196.311
156.517	391.565
160.685	910.524
164.85	1432.62
169.012	1766.2
173.173	1441.18
177.332	1257.37
181.488	964.548
185.642	872.607
189.794	584.099
193.944	326.146
198.092	132.402
202.237	162.381
206.38	124.201
210.522	286.244
214.661	438.912
218.798	331.779
222.932	314.756
227.065	197.953
231.196	221.416
235.324	75.154
239.45	130.471
243.574	134.721
247.696	40.752
251.816	14.141
255.933	169.559
260.049	386.131
264.162	763.764
268.274	1661.88
272.383	2760.2
276.49	2738.68
280.595	2127.32
284.697	1646.07
288.798	1994.89
292.896	3783.78
296.993	6871.02
301.087	7735.25
305.179	4819.48
309.269	2964.88
313.357	2160.57
317.443	1266.93
321.527	723.641
325.608	590.668
329.688	327.951
333.765	185.467
337.84	153.186
341.913	71.094
345.984	10.832
350.053	87.396
354.12	25.648
358.185	194
362.248	193.117
366.308	104.033
370.367	216.092
374.423	316.268
378.478	222.723
382.53	241.992
386.58	226.764
390.628	378.535
394.674	381.123
398.718	202.256
402.76	145.951
406.799	166.854
410.837	25.078
414.873	69.117
418.906	469.48
422.938	1120.94
426.967	1511.85
430.994	772.434
435.02	182.711
439.043	312.924
443.064	243.057
447.083	123.105
451.1	213.066
455.115	402.93
459.128	462.703
463.139	462.43
467.147	432.111
471.154	991.74
475.159	1201.3
479.161	1940.78
483.162	2310.17
487.161	2489.46
491.157	2068.64
495.151	1767.7
499.144	1396.64
503.134	945.461
507.123	843.586
511.109	622.119
515.093	340.971
519.075	110.213
523.055	428.281
527.034	286.246
531.01	94.436
534.984	133.373
538.956	106.41
542.926	97.807
546.894	50.229
550.86	123.258
554.824	81.834
558.786	22.352
562.746	258.475
566.704	53.582
570.66	351.801
574.614	199.943
578.565	194.199
582.515	442.869
586.463	247.67
590.409	400.803
594.353	883.578
598.295	1785.93
602.235	2907.98
606.172	1899.56
610.108	1180.73
614.042	1057.86
617.974	982.129
621.904	1212.37
625.832	2242.43
629.758	3502.18
633.681	2661.61
637.603	2250.73
641.523	3689.53
645.441	5268.01
649.357	3766.17
653.271	1964.02
657.183	1031.54
661.093	768.742
665.001	425.621
668.907	622.252
672.811	438.553
676.713	374.332
680.613	389.494
684.511	307.803
688.407	185.186
692.302	88.559
696.194	307.477
700.084	138.844
703.972	316.15
707.859	72.396
711.743	157.246
715.626	236.533
719.506	605.561
723.384	35.197
727.261	6.059
731.136	138.355
735.008	620.504
738.879	308.355
742.748	305.713
746.614	391
750.479	228.572
754.342	316.346
758.203	383.396
762.062	250.436
765.919	286.984
769.774	263.297
773.627	249.371
777.479	724.844
781.328	580.469
785.175	885.945
789.021	1031.12
792.864	1316.1
796.706	1620.86
800.545	1715.62
804.383	2259.99
808.219	1994.18
812.053	1608.17
815.885	1112
819.715	1460.75
823.543	1024.25
827.369	667.117
831.193	529.285
835.016	12.324
838.836	514.988
842.654	196.723
846.471	446.578
850.286	92.047
854.099	12.723
857.909	78.477
861.718	340.68
865.525	621.637
869.331	368.617
873.134	40.43
876.935	368.41
880.735	604.922
884.532	113.91
888.328	168.781
892.122	245.598
895.913	154
899.703	157.668
903.491	20.695
907.278	181.426
911.062	393.434
914.844	195.648
918.625	271.809
922.404	260.539
926.18	173.086
929.955	655.637
933.728	298.102
937.499	480.66
941.269	503.312
945.036	66.066
948.801	308.926
952.565	731.887
956.327	384.957
960.087	518.16
963.845	171.484
967.601	294.945
971.355	388.602
975.107	322.355
978.858	706.266
982.607	950.359
986.353	623.215
990.098	1057.66
993.841	1672.3
997.583	3167.15
1001.32	4680.85
1005.06	6337.5
1008.79	7902.96
1012.53	7103.44
1016.26	5626.63
1019.99	3783.02
1023.72	2580.26
1027.45	2386.81
1031.17	2844.73
1034.89	3102.42
1038.61	4450.52
1042.33	5349
1046.05	5820.38
1049.77	5899.44
1053.48	5858.31
1057.19	7037.9
1060.9	6517.76
1064.61	3917.65
1068.32	2348.07
1072.02	1618.78
1075.72	1369.77
1079.42	1271.45
1083.12	1003.06
1086.82	934.617
1090.51	516.219
1094.21	607.66
1097.9	1459.39
1101.59	2111.22
1105.28	3043.53
1108.96	3556.15
1112.65	3679.06
1116.33	2932.27
1120.01	2311.08
1123.69	2124.91
1127.37	1969.16
1131.04	1293.86
1134.71	1179.07
1138.39	523.648
1142.06	128.539
1145.72	795.695
1149.39	501.031
1153.05	505.844
1156.72	330.613
1160.38	555.59
1164.04	310.691
1167.69	66.18
1171.35	347.855
1175	51.312
1178.65	265.75
1182.31	813.25
1185.95	581.203
1189.6	1199.71
1193.24	1048.89
1196.89	1038.56
1200.53	288.789
1204.17	539.586
1207.81	450.949
1211.44	922.645
1215.07	784.941
1218.71	917.805
1222.34	991.246
1225.97	895.297
1229.59	320.195
1233.22	196.93
1236.84	655.816
1240.46	948.324
1244.08	831.262
1247.7	764.531
1251.32	928.027
1254.93	781.594
1258.54	555.035
1262.15	161.938
1265.76	82.125
1269.37	593.484
1272.98	757.832
1276.58	334.973
1280.18	588.148
1283.78	583.645
1287.38	9.277
1290.98	343.246
1294.57	58.891
