Measurement: Raman, 514 nm, ccw, Raman Data Processed
Mineral: Montebrasite
Rruff sample: R040062
Ideal chemistry: LiAlPO_4_(OH)
Locality: Hebron, Maine, USA
Source: University of Arizona Mineral Museum
Description: White massive
Measured chemistry: LiAl(PO_4_)((OH)_0.62_F_0.38_)
Pin_id: L00490
Orientation: Laser parallel to (1 0 1). Fiducial mark perpendicular to laser is parallel to b [0 1 0]
Raman shift (cm-1)	intensity
111.932	0
116.123	78.486
120.311	321.203
124.497	1486.89
128.681	3754.11
132.862	5142.5
137.042	3096.59
141.219	1083.32
145.394	325.498
149.567	253.215
153.738	289.387
157.907	380.4
162.073	525.219
166.237	626.661
170.4	680.505
174.559	705.125
178.717	797.871
182.873	1095.51
187.026	1301.98
191.178	1457.54
195.327	1358.28
199.474	928.92
203.618	441.998
207.761	171.337
211.902	59.657
216.04	26.634
220.176	0.029
224.31	40.362
228.442	57.797
232.572	110.493
236.7	136.499
240.825	96.604
244.948	99.729
249.07	17.027
253.189	44.25
257.306	22.732
261.42	164.471
265.533	437.55
269.643	745.874
273.752	973.075
277.858	1152.97
281.962	1293.94
286.064	2056.81
290.164	3890.84
294.262	8764.26
298.358	14987.5
302.451	13220
306.543	9071.51
310.632	7111.43
314.719	5580.18
318.804	4857.87
322.887	3944.68
326.968	2620.64
331.047	1925.36
335.124	1418.39
339.198	999.699
343.271	759.307
347.341	837.525
351.409	734.939
355.475	652.541
359.539	650.762
363.601	689.508
367.661	836.407
371.719	976.805
375.775	995.607
379.828	950.449
383.88	926.603
387.929	808.647
391.977	809.438
396.022	629.136
400.065	721.583
404.106	640.808
408.146	618.553
412.182	787.406
416.217	1207.64
420.25	3201.23
424.281	8064.08
428.31	7079.76
432.336	2435.81
436.361	921.831
440.383	447.764
444.404	403.46
448.422	208.858
452.438	233.913
456.453	264.917
460.465	252.979
464.475	236.995
468.483	350.662
472.489	424.004
476.493	587.034
480.495	859.765
484.495	1102.2
488.493	1184.36
492.489	1316.24
496.482	1257.86
500.474	1129.25
504.464	850.417
508.451	511.385
512.437	332.162
516.421	102.744
520.402	63.114
524.382	76.715
528.359	3.531
532.335	83.705
536.308	55.67
540.279	126.178
544.249	168.07
548.216	32.218
552.181	143.414
556.145	119.512
560.106	159.876
564.065	203.971
568.023	91.857
571.978	106.348
575.931	294.015
579.882	391.119
583.831	438.255
587.779	755.576
591.724	918.565
595.667	1911.91
599.608	3469.92
603.547	3169.04
607.485	1955.91
611.42	1251.64
615.353	1339.53
619.284	1524.48
623.213	2499.1
627.141	4433.83
631.066	5298.71
634.989	4493.33
638.91	6197.69
642.829	12971.8
646.747	13965.6
650.662	6819.26
654.575	2842.61
658.486	1715.72
662.396	888.594
666.303	741.22
670.209	573.607
674.112	364.825
678.013	305.539
681.913	120.143
685.81	166.559
689.706	74.117
693.599	157.514
697.491	3.615
701.38	154.771
705.268	50.537
709.154	0.403
713.037	170.105
716.919	78.828
720.799	64.507
724.677	61.481
728.553	51.989
732.427	124.724
736.299	18.969
740.169	32.851
744.037	47.212
747.903	61.955
751.767	32.966
755.629	47.692
759.49	22.196
763.348	66.506
767.204	221.113
771.059	285.297
774.911	219.119
778.762	212.814
782.611	346.389
786.457	749.84
790.302	883.177
794.145	1506.4
797.986	2119.53
801.825	2132.56
805.662	1995.49
809.497	1858.34
813.33	1331.11
817.162	1333.81
820.991	816.446
824.818	549.02
828.644	451.545
832.468	284.033
836.289	266.049
840.109	68.295
843.927	149.725
847.743	58.727
851.557	21.746
855.369	60.322
859.179	61.393
862.988	65.076
866.794	57.312
870.599	113.389
874.401	274.838
878.202	84.738
882.001	157.016
885.798	286.596
889.593	238.336
893.386	462.309
897.177	425.949
900.966	453.775
904.754	577.029
908.539	130.467
912.323	62.502
916.105	76.748
919.885	19.482
923.663	104.244
927.439	149.318
931.213	164.617
934.985	240.104
938.756	205.803
942.525	221.709
946.291	327.834
950.056	374.152
953.819	250.648
957.58	327.33
961.339	364.203
965.097	481.279
968.852	828.568
972.606	876.072
976.358	1036.54
980.108	1381.77
983.856	1549.98
987.602	2698.45
991.346	3807.16
995.089	6076.15
998.829	8933.44
1002.57	14032.6
1006.3	19842.3
1010.04	22652.5
1013.77	19746.9
1017.5	13423.4
1021.23	9283.59
1024.96	7039.54
1028.69	6381.91
1032.41	7184.7
1036.13	9187.94
1039.85	11631.7
1043.57	14175.9
1047.29	15310.6
1051	14435.8
1054.72	17011.4
1058.43	20896.8
1062.14	18022
1065.84	10467.4
1069.55	5732.41
1073.25	3498.36
1076.95	2334.51
1080.66	1700.98
1084.35	1299.26
1088.05	1085.66
1091.74	954.646
1095.44	872.68
1099.13	778.115
1102.82	744.031
1106.51	1060.44
1110.19	1007.36
1113.87	1054.8
1117.56	842.777
1121.24	1371.32
1124.91	830.494
1128.59	360.213
1132.27	70.178
1135.94	60.324
1139.61	276.549
1143.28	140.984
1146.95	128.824
1150.61	173.975
1154.28	37.932
1157.94	100.928
1161.6	135.525
1165.26	61.486
1168.91	163.008
1172.57	348.242
1176.22	174.389
1179.87	311.469
1183.52	359.512
1187.17	548.531
1190.81	488.633
1194.46	419.934
1198.1	372.559
1201.74	597.688
1205.38	382.85
1209.02	277.432
1212.65	421.773
1216.29	404.096
1219.92	172.498
1223.55	233.072
1227.17	455.615
1230.8	332.922
1234.42	493.588
1238.05	218.764
