Measurement: Raman, 514 nm, ccw, Raman Data Processed
Mineral: Montebrasite
Rruff sample: R040060
Ideal chemistry: LiAlPO_4_(OH)
Locality: Oxford County, Maine, USA
Source: University of Arizona Mineral Museum
Description: White massive
Measured chemistry: LiAl(PO_4_)((OH)_0.79_F_0.21_)
Pin_id: L00548
Orientation: Laser parallel to b* (0 1 0). Fiducial mark perpendicular to laser is parallel to -c [0 0 -1]
Raman shift (cm-1)	intensity
125.328	0
129.504	281.499
133.678	893.739
137.85	1173.28
142.02	555.388
146.188	112.358
150.354	12.642
154.517	17.326
158.679	168.486
162.839	299.896
166.996	545.861
171.152	605.035
175.305	456.221
179.456	295.872
183.605	268.638
187.752	328.451
191.898	512.823
196.041	686.595
200.182	381.787
204.321	126.304
208.457	80.182
212.592	13.737
216.725	117.205
220.856	39.456
224.984	43.648
229.111	196.58
233.236	71.684
237.358	33.853
241.479	23.369
245.597	23.398
249.713	13.665
253.828	59.957
257.94	43.647
262.05	5.527
266.159	195.167
270.265	504.466
274.369	1093.48
278.471	1352.08
282.572	940.317
286.67	998.207
290.766	1646.76
294.86	3858.59
298.952	4961.11
303.042	3313.95
307.13	2086.24
311.216	1547.72
315.3	1109.08
319.382	1018.55
323.462	839.568
327.54	540.336
331.616	350.85
335.69	81.048
339.762	100.919
343.832	9.495
347.9	109.906
351.965	69.438
356.029	69.547
360.091	38.332
364.151	82.05
368.209	103.049
372.265	26.635
376.319	70.703
380.371	108.135
384.421	165.414
388.469	155.492
392.515	306.134
396.559	334.598
400.601	272.254
404.641	358.67
408.679	442.732
412.715	476.627
416.749	642.124
420.781	984.767
424.811	2984.41
428.839	3376.45
432.866	1528.38
436.89	510.047
440.912	361.435
444.932	352.545
448.951	243.385
452.967	183.932
456.981	194.139
460.994	203.974
465.004	343.427
469.013	362.499
473.019	451.178
477.024	879.456
481.026	1457.35
485.027	1464.83
489.026	1321.91
493.023	1108.56
497.017	1114.3
501.01	779.044
505.001	531.163
508.99	303.725
512.977	181.115
516.962	68.946
520.945	75.482
524.927	17.805
528.906	39.24
532.883	31.955
536.858	80.598
540.832	153.996
544.803	45.33
548.773	31.135
552.741	151.008
556.706	204.053
560.67	140.334
564.632	131.812
568.592	233.721
572.55	4.65
576.506	246.219
580.46	348.045
584.412	402.436
588.363	581.885
592.311	839.826
596.258	1097.02
600.202	1603.07
604.145	1359.96
608.086	995.303
612.024	579.59
615.961	582.484
619.896	535.475
623.829	1138
627.761	1639.1
631.69	1469.06
635.617	1108.46
639.543	1937.34
643.466	4055.67
647.388	4453.46
651.308	2230.71
655.226	937.414
659.142	613.584
663.056	309.229
666.968	314.01
670.879	188.664
674.787	231.914
678.694	33.65
682.598	91.891
686.501	175.238
690.402	252.582
694.301	171.836
698.198	85.133
702.093	3.402
705.987	144.869
709.878	3.857
713.768	272.418
717.656	212.879
721.542	156.445
725.426	103.635
729.308	187.713
733.188	132.123
737.067	63.105
740.943	112.637
744.818	187.24
748.691	144.898
752.562	237.494
756.431	89.299
760.298	118.1
764.163	148.174
768.027	218.693
771.888	187.625
775.748	185.791
779.606	213.318
783.462	370.189
787.317	606.102
791.169	761.471
795.019	1107.19
798.868	1301.6
802.715	1265.38
806.56	898.629
810.403	771.363
814.245	573.58
818.084	475.025
821.922	465.268
825.758	124.348
829.592	262.545
833.424	178.9
837.254	104.27
841.082	129.107
844.909	254.422
848.734	56.338
852.557	113.992
856.378	306.43
860.197	169.281
864.015	40.291
867.831	37.34
871.645	128.576
875.457	138.516
879.267	2.732
883.075	96.816
886.882	184.176
890.687	14.621
894.49	93.033
898.291	40.086
902.09	2.758
905.888	214.797
909.683	108.414
913.477	47.555
917.269	13.941
921.06	190.223
924.848	206.273
928.635	351.588
932.42	226.963
936.203	183.35
939.984	210.164
943.764	376.693
947.541	152.941
951.317	438.922
955.091	294.652
958.864	600.15
962.634	2195.45
966.403	3440.56
970.17	1255.49
973.935	870.277
977.698	702.699
981.46	745.539
985.22	608.268
988.978	1083.82
992.734	1286.01
996.488	1528.86
1000.24	2147.82
1003.99	3549.74
1007.74	5650.24
1011.49	7509.06
1015.23	6451.07
1018.98	3809.49
1022.72	2693.57
1026.46	1820.95
1030.2	1782.94
1033.93	2353.2
1037.67	2898.11
1041.4	4680.72
1045.13	6461.55
1048.86	5972.83
1052.59	5414.57
1056.32	6746.84
1060.04	7468.21
1063.77	5070.34
1067.49	2872.37
1071.2	1854.17
1074.92	905.777
1078.64	677.281
1082.35	738.941
1086.06	700.586
1089.78	532.348
1093.48	514.727
1097.19	427.238
1100.89	620.426
1104.6	1174.07
1108.3	1889.3
1112	1435.24
1115.7	1001.69
1119.39	848.773
1123.09	536.629
1126.78	575.48
1130.47	145.594
1134.16	197.227
1137.85	39.289
1141.54	406.262
1145.22	394.242
1148.9	215.363
1152.58	260.582
1156.26	19.664
1159.94	204.59
1163.62	87.824
1167.29	144.258
