Measurement: Raman, 514 nm, ccw, Raman Data Processed
Mineral: Montebrasite
Rruff sample: R040062
Ideal chemistry: LiAlPO_4_(OH)
Locality: Hebron, Maine, USA
Source: University of Arizona Mineral Museum
Description: White massive
Measured chemistry: LiAl(PO_4_)((OH)_0.62_F_0.38_)
Pin_id: L00490
Orientation: Laser parallel to (1 0 1). Fiducial mark perpendicular to laser is parallel to b [0 1 0]
Raman shift (cm-1)	intensity
111.932	0
116.123	153.072
120.311	321.16
124.497	1624.17
128.681	4405.39
132.862	6157.7
137.042	3717.66
141.219	1274.69
145.394	353.439
149.567	182.414
153.738	76.698
157.907	266.397
162.073	515.38
166.237	687.049
170.4	803.719
174.559	670.929
178.717	517.451
182.873	497.224
187.026	434.705
191.178	457.431
195.327	238.526
199.474	268.57
203.618	42.068
207.761	41.864
211.902	63.651
216.04	93.112
220.176	61.549
224.31	95.872
228.442	62.761
232.572	123.898
236.7	87.358
240.825	118.1
244.948	168.2
249.07	115.471
253.189	79.912
257.306	33.286
261.42	115.426
265.533	408.307
269.643	719.697
273.752	1040.98
277.858	1395.82
281.962	1791.57
286.064	2849.6
290.164	5577.64
294.262	12356.1
298.358	20904
302.451	18901.5
306.543	13767.5
310.632	11182.2
314.719	7555.73
318.804	5628.19
322.887	4869.74
326.968	3760.23
331.047	2719.75
335.124	2157.8
339.198	1484.1
343.271	1308.57
347.341	1221.36
351.409	1203.52
355.475	1135.54
359.539	1157.4
363.601	1199.73
367.661	1541.08
371.719	1680.71
375.775	1790.24
379.828	1745.86
383.88	1522.79
387.929	1407.38
391.977	1326.77
396.022	1098.15
400.065	1055.06
404.106	872.893
408.146	812.479
412.182	626.629
416.217	649.355
420.25	945.956
424.281	1933.5
428.31	1743.9
432.336	874.361
436.361	494.751
440.383	365.02
444.404	305.043
448.422	284.75
452.438	274.096
456.453	133.176
460.465	161.881
464.475	220.231
468.483	298.221
472.489	475.868
476.493	393.187
480.495	690.183
484.495	836.869
488.493	1113.26
492.489	1269.35
496.482	1365.16
500.474	1460.72
504.464	1026.03
508.451	721.13
512.437	536.016
516.421	290.691
520.402	165.154
524.382	69.391
528.359	113.788
532.335	218.467
536.308	2.233
540.279	157.578
544.249	118.895
548.216	66.002
552.181	10.914
556.145	51.29
560.106	187.735
564.065	99.947
568.023	67.886
571.978	21.854
575.931	202.442
579.882	238.66
583.831	256.587
587.779	378.919
591.724	565.245
595.667	1279.66
599.608	2291.35
603.547	2174.62
607.485	1304.27
611.42	971.769
615.353	890.469
619.284	1010.07
623.213	1648.17
627.141	2616.6
631.066	3474.78
634.989	3672.7
638.91	6780.35
642.829	15287.7
646.747	17234.9
650.662	8401.73
654.575	3568.34
658.486	2094.7
662.396	1260.45
666.303	836.673
670.209	712.29
674.112	367.664
678.013	352.244
681.913	223.221
685.81	209.427
689.706	222.323
693.599	238.596
697.491	85.743
701.38	132.18
705.268	103.219
709.154	86.979
713.037	161.793
716.919	173.077
720.799	31.646
724.677	113.849
728.553	20.676
732.427	178.18
736.299	107.312
740.169	35.956
744.037	54.83
747.903	25.936
751.767	32.693
755.629	11.135
759.49	79.338
763.348	87.482
767.204	215.301
771.059	322.846
774.911	320.244
778.762	317.504
782.611	394.65
786.457	791.688
790.302	938.621
794.145	1485.46
797.986	1922.2
801.825	1998.87
805.662	2095.45
809.497	1831.96
813.33	1388.42
817.162	1294.81
820.991	781.15
824.818	537.449
828.644	273.711
832.468	249.943
836.289	326.104
840.109	31.881
843.927	127.291
847.743	56.613
851.557	2.982
855.369	113.113
859.179	69.137
862.988	74.844
866.794	30.148
870.599	22.857
874.401	395.248
878.202	151.092
882.001	117.004
885.798	225.926
889.593	340.496
893.386	390.311
897.177	512.438
900.966	557.213
904.754	654.807
908.539	341.525
912.323	12.258
916.105	306.402
919.885	187.436
923.663	175.992
927.439	244.164
931.213	163.643
934.985	333.361
938.756	213.277
942.525	263.393
946.291	343.727
950.056	524.264
953.819	535.018
957.58	375.99
961.339	607.191
965.097	878.625
968.852	1150.3
972.606	1252.23
976.358	1414.38
980.108	1746.75
983.856	2009.35
987.602	3192.2
991.346	4785.3
995.089	7249.58
998.829	10861.2
1002.57	17096.7
1006.3	23940.7
1010.04	27510.7
1013.77	23632.1
1017.5	15871
1021.23	10457.4
1024.96	7565.24
1028.69	6487.21
1032.41	6644.21
1036.13	8041.65
1039.85	10159.5
1043.57	12747.8
1047.29	13936.4
1051	15265.4
1054.72	19634.7
1058.43	25094.5
1062.14	22164.3
1065.84	12544.6
1069.55	6784.8
1073.25	4035.05
1076.95	2475.07
1080.66	1715.36
1084.35	1435.9
1088.05	1436.71
1091.74	968.871
1095.44	910.014
1099.13	821.605
1102.82	823.377
1106.51	1235.77
1110.19	1088.26
1113.87	1111.19
1117.56	1737.14
1121.24	1497.49
1124.91	959.662
1128.59	502.344
1132.27	235.533
1135.94	209.273
1139.61	233.623
1143.28	308.322
1146.95	213.271
1150.61	218.361
1154.28	13.914
1157.94	10.086
1161.6	93.65
1165.26	173.213
1168.91	39.479
1172.57	498.322
1176.22	166.65
1179.87	85.492
1183.52	154.887
1187.17	424.857
1190.81	155.406
1194.46	276.547
1198.1	98.545
1201.74	711.402
1205.38	522.883
1209.02	380.057
1212.65	288.896
1216.29	481.393
1219.92	377.512
1223.55	295.031
1227.17	341.727
1230.8	307.047
1234.42	380.121
1238.05	241.889
1241.67	137.551
1245.29	261.605
1248.91	257.742
1252.52	105.943
1256.13	399.723
1259.75	578.465
1263.36	0
