Measurement: Raman, 514 nm, ccw, Raman Data Processed
Mineral: Monticellite
Rruff sample: R040115
Ideal chemistry: CaMgSiO_4_
Locality: Magnet Cove, Arkansas, USA
Source: University of Arizona Mineral Museum
Description: Brown blebs in matrix
Measured chemistry: Ca_0.99_(Mg_0.85_ Fe_0.12_Mn_0.03_)Si_1.00_O_4_
Pin_id: M00321
Orientation: Laser parallel to a* (1 0 0). Fiducial mark perpendicular to laser is parallel to -b [0 -1 0]
Raman shift (cm-1)	intensity
95.465	0
99.644	61.183
103.82	6.593
107.995	114.378
112.168	62.832
116.339	176.877
120.508	112.429
124.675	122.281
128.84	113.947
133.003	164.76
137.164	386.336
141.323	864.225
145.48	707.747
149.635	306.238
153.788	182.386
157.939	209.769
162.088	586.626
166.235	1411.78
170.38	2007.8
174.523	899.572
178.664	193.106
182.803	12.396
186.94	37.859
191.076	14.234
195.209	12.486
199.34	79.299
203.47	188.316
207.597	538.434
211.722	732.578
215.846	848.716
219.967	319.783
224.087	158.593
228.204	147.156
232.32	218.848
236.434	382.681
240.545	636.652
244.655	1222.52
248.763	2363.26
252.869	4679.86
256.973	5854.33
261.075	2915.75
265.175	1367.02
269.273	1150.61
273.369	1125.22
277.463	730.735
281.556	309.678
285.646	286.674
289.734	274.545
293.821	425.408
297.905	772.59
301.988	1999.61
306.069	2198.31
310.147	1039.07
314.224	421.694
318.299	381.943
322.372	621.276
326.443	1396.95
330.512	2038.82
334.579	1303.45
338.645	504.493
342.708	264.663
346.769	94.46
350.829	5.081
354.887	3.224
358.942	52.415
362.996	27.592
367.048	0.216
371.098	86.915
375.146	177.537
379.192	304.839
383.236	545.133
387.279	1067.26
391.319	2336.14
395.358	4120.68
399.394	5040.04
403.429	3501.28
407.462	1973.37
411.493	1091.33
415.522	612.139
419.549	375.809
423.575	249.331
427.598	188.675
431.619	68.839
435.639	123.811
439.657	68.587
443.673	56.259
447.687	62.054
451.699	20.273
455.709	40.666
459.717	8.906
463.724	37.082
467.728	1.5
471.731	1.121
475.732	77.441
479.731	45.595
483.728	58.57
487.723	33.972
491.716	78.007
495.708	132.235
499.697	128.46
503.685	123.029
507.671	173.879
511.655	172.644
515.637	237.922
519.617	550.083
523.596	1091.39
527.572	2775.38
531.547	4390.91
535.52	2863.97
539.491	1323.74
543.46	744.756
547.427	554.576
551.393	405.374
555.356	409.81
559.318	495.051
563.278	518.11
567.236	742.984
571.192	1286.67
575.147	1555.18
579.099	1403.5
583.05	957.646
586.999	646.613
590.946	425.919
594.891	278.184
598.834	141.821
602.776	123.914
606.715	94.688
610.653	111.826
614.589	11.173
618.523	37.272
622.456	33.921
626.386	3.802
630.315	76.225
634.242	125.307
638.167	24.899
642.09	60.792
646.012	34.44
649.931	44.528
653.849	36.323
657.765	72.24
661.679	89.791
665.592	22.583
669.502	22.328
673.411	22.124
677.318	12.672
681.223	0.182
685.126	103.419
689.028	142.969
692.927	56.466
696.825	125.864
700.721	119.126
704.616	54.336
708.508	100.476
712.399	140.561
716.288	12.571
720.175	34.528
724.06	188.456
727.944	99.36
731.825	206.244
735.705	156.112
739.584	219.969
743.46	199.82
747.334	328.672
751.207	311.533
755.078	291.408
758.947	340.202
762.815	365.594
766.68	431.592
770.544	474.166
774.406	561.402
778.267	686.022
782.125	764.547
785.982	789.922
789.837	1001.48
793.69	1391.62
797.542	1940.99
801.391	2781.32
805.239	4367.84
809.085	8673.08
812.93	19142.3
816.772	32237
820.613	26109.9
824.452	13942.5
828.29	8326.55
832.125	6554.3
835.959	6305.88
839.791	9394.68
843.621	20628.1
847.45	45603.5
851.277	50963.5
855.102	24772.1
858.925	11588.9
862.746	6279.62
866.566	4060.66
870.384	2902.85
874.2	2304.18
878.015	1905.65
881.828	1934.27
885.639	2056.03
889.448	2872.94
893.256	6042.01
897.061	14342.2
900.865	13400.6
904.668	4949.12
908.468	2162.8
912.267	1201.63
916.064	884.625
919.86	686.248
923.653	651.792
927.445	618.057
931.236	681.744
935.024	1033.64
938.811	1790.01
942.596	4913.38
946.379	10501.4
950.161	6996.34
953.94	2776.55
957.719	1086.19
961.495	486.355
965.27	211.293
969.043	58.543
972.814	83.007
976.583	0.668
980.351	59.449
984.117	60.346
987.882	91.415
991.644	69.717
995.405	39.761
999.165	101.957
1002.92	223.317
1006.68	90.813
1010.43	98.422
1014.18	120.162
1017.93	72.01
1021.68	84.993
1025.43	256.078
1029.18	298.262
1032.92	223.544
1036.66	321.481
1040.4	402.388
1044.14	321.944
1047.88	286.584
1051.62	243.309
1055.35	162.112
1059.08	99.992
1062.81	5.945
1066.54	72.034
1070.27	144.961
1073.99	150.021
1077.72	50.249
1081.44	144.746
1085.16	79.988
1088.88	86.214
1092.59	1.078
1096.31	29.607
1100.02	45.969
1103.73	36.79
1107.44	80.975
1111.15	90.064
1114.86	209.79
1118.57	75.579
1122.27	122.606
1125.97	70.454
1129.67	121.67
1133.37	103.818
1137.07	50.263
1140.76	260.788
1144.45	27.204
1148.15	81.732
1151.84	264.583
1155.53	268.457
1159.21	126.292
1162.9	198.164
1166.58	172.833
1170.26	97.14
1173.94	143.025
1177.62	225.544
1181.3	56.008
1184.97	192.414
1188.65	210.763
1192.32	96.049
1195.99	160.274
1199.66	163.033
1203.33	252.527
1206.99	179.554
1210.65	94.512
1214.32	115.932
1217.98	130.756
1221.64	61.515
1225.29	36.203
1228.95	64.812
1232.6	123.36
1236.26	65.59
1239.91	90.727
1243.56	140.778
1247.2	33.357
1250.85	53.776
1254.49	72.692
1258.13	37.95
1261.78	227.733
1265.41	157.238
1269.05	53.61
1272.69	111.894
1276.32	11.902
1279.95	26.09
1283.59	58.117
1287.21	59.2
1290.84	102.176
1294.47	80.037
1298.09	103.806
1301.72	156.481
1305.34	123.063
1308.96	180.548
1312.58	233.931
1316.19	272.216
1319.81	360.415
1323.42	205.542
1327.03	115.604
1330.64	83.61
1334.25	200.561
1337.86	165.462
1341.46	132.315
1345.07	118.131
1348.67	187.918
1352.27	200.688
1355.87	270.456
1359.46	288.341
1363.06	292.642
1366.65	249.547
1370.25	203.114
1373.84	253.181
1377.43	209.943
1381.02	112.031
1384.6	129.369
1388.18	201.055
1391.77	117.134
1395.35	128.792
1398.93	249.667
1402.51	157.498
1406.08	167.974
1409.66	47.86
1413.23	136.794
1416.8	134.411
1420.37	159.205
1423.94	263.868
1427.51	259.4
1431.08	236.797
1434.64	261.049
1438.2	276.144
1441.76	240.069
1445.32	347.78
1448.88	362.25
1452.43	358.402
1455.99	231.418
1459.54	267.969
1463.09	419.735
1466.64	267
1470.19	119.914
1473.74	336.958
1477.28	324.161
1480.83	285.604
1484.37	237.398
1487.91	233.726
1491.45	177.857
1494.98	296.942
1498.52	153.921
1502.05	86.943
1505.59	92.396
1509.12	189.9
1512.65	157.454
1516.17	190.541
1519.7	104.012
1523.23	64.14
