Measurement: Raman, 514 nm, ccw, Raman Data Processed
Mineral: Montebrasite
Rruff sample: R040060
Ideal chemistry: LiAlPO_4_(OH)
Locality: Oxford County, Maine, USA
Source: University of Arizona Mineral Museum
Description: White massive
Measured chemistry: LiAl(PO_4_)((OH)_0.79_F_0.21_)
Pin_id: L00181
Orientation: Laser parallel to a* (1 0 0). Fiducial mark perpendicular to laser is parallel to -b [0 -1 0]
Raman shift (cm-1)	intensity
108.603	0
112.787	613.376
116.97	2569.72
121.15	1495.63
125.328	890.586
129.504	1456.56
133.678	3118.6
137.85	3531.07
142.02	1802.39
146.188	484.674
150.354	196.843
154.517	91.462
158.679	273.647
162.839	619.672
166.996	882.107
171.152	992.25
175.305	813.525
179.456	540.439
183.605	673.105
187.752	927.741
191.898	1221.28
196.041	1322.39
200.182	950.636
204.321	432.174
208.457	63.982
212.592	33.029
216.725	49.959
220.856	74.1
224.984	148.672
229.111	192.202
233.236	190.717
237.358	97.53
241.479	48.56
245.597	8.598
249.713	138.648
253.828	119.83
257.94	73.233
262.05	13.81
266.159	338.384
270.265	947.776
274.369	1977.97
278.471	2244.65
282.572	1655.16
286.67	1647.05
290.766	3309.6
294.86	8012.78
298.952	12435.7
303.042	9348.59
307.13	5400.99
311.216	3953.01
315.3	3034.48
319.382	2645.41
323.462	2345.84
327.54	1465.61
331.616	814.71
335.69	457.396
339.762	310.599
343.832	25.923
347.9	59.429
351.965	73.824
356.029	35.2
360.091	21.031
364.151	69.526
368.209	99.136
372.265	135.104
376.319	171.923
380.371	275.172
384.421	378.144
388.469	453.945
392.515	537.574
396.559	530.541
400.601	612.642
404.641	784.1
408.679	868.646
412.715	1043.13
416.749	1407.2
420.781	3200.67
424.811	9316.32
428.839	11532.2
432.866	5178.08
436.89	1863.68
440.912	878.93
444.932	723.776
448.951	568.173
452.967	472.112
456.981	445.565
460.994	398.516
465.004	432.412
469.013	682.834
473.019	1094.18
477.024	1944.97
481.026	2915.2
485.027	3164.88
489.026	2914.01
493.023	2632.58
497.017	2280.6
501.01	1777.62
505.001	1170.39
508.99	690.789
512.977	411.1
516.962	221.692
520.945	97.611
524.927	8.682
528.906	90.295
532.883	48.2
536.858	24.657
540.832	34.988
544.803	50.895
548.773	106.96
552.741	93.577
556.706	232.915
560.67	136.757
564.632	119.898
568.592	143.171
572.55	126.94
576.506	385.55
580.46	607.885
584.412	639.608
588.363	1019.48
592.311	1590.24
596.258	1959.08
600.202	3366.55
604.145	3122.81
608.086	2099.01
612.024	1244.7
615.961	1348.74
619.896	1521.67
623.829	2702.37
627.761	4332.19
631.69	4540.97
635.617	3949.09
639.543	5956.57
643.466	12683.4
647.388	16209.6
651.308	8765.16
655.226	3720.06
659.142	1724.32
663.056	1077.96
666.968	661.041
670.879	423.337
674.787	444.009
678.694	252.648
682.598	211.495
686.501	102.503
690.402	147.507
694.301	158.106
698.198	6.512
702.093	14
705.987	9.663
709.878	44.727
713.768	46.417
717.656	50.246
721.542	71.819
725.426	98.524
729.308	50.02
733.188	134.986
737.067	77.809
740.943	92.576
744.818	46.038
748.691	45.662
752.562	185.004
756.431	192.824
760.298	209.34
764.163	75.074
768.027	220.9
771.888	215.643
775.748	348.402
779.606	321.199
783.462	572.934
787.317	873.881
791.169	1233.9
795.019	1803.45
798.868	2452.28
802.715	2420.51
806.56	1988.16
810.403	1615.23
814.245	1191.73
818.084	917.664
821.922	763.035
825.758	437.709
829.592	289.5
833.424	162.619
837.254	303.037
841.082	122.781
844.909	111.047
848.734	161.584
852.557	46.871
856.378	200.678
860.197	53.91
864.015	26.162
867.831	164.178
871.645	18.213
875.457	240.619
879.267	81.918
883.075	141.131
886.882	5.74
890.687	35.053
894.49	45.613
898.291	94.08
902.09	152.354
905.888	33.879
909.683	62.018
913.477	81.869
917.269	120.092
921.06	119.223
924.848	167.98
928.635	127.6
932.42	117.959
936.203	128.885
939.984	219.525
943.764	349.902
947.541	390.02
951.317	629.912
955.091	469.613
958.864	1019.08
962.634	3198.33
966.403	8167.36
970.17	3046.23
973.935	1564.9
977.698	1503.38
981.46	1761.69
985.22	1758.14
988.978	2544.48
992.734	3169.09
996.488	4231.48
1000.24	6114.35
1003.99	9777.72
1007.74	15112.9
1011.49	19913.2
1015.23	17778.6
1018.98	11638.6
1022.72	7382.81
1026.46	5496.2
1030.2	5145.78
1033.93	5710.9
1037.67	7902.21
1041.4	11955.4
1045.13	16357.3
1048.86	15783.3
1052.59	14169.8
1056.32	15945.9
1060.04	18221.9
1063.77	13549.3
1067.49	7657
1071.2	4423.78
1074.92	2761.2
1078.64	2159.6
1082.35	1837.34
1086.06	1417.93
1089.78	1103.67
1093.48	1052.06
1097.19	1110.4
1100.89	1314.35
1104.6	2202.99
1108.3	3471.72
1112	3570.53
1115.7	2451.9
1119.39	1878.42
1123.09	2246.81
1126.78	1505.59
1130.47	718.322
1134.16	347.338
1137.85	36.516
1141.54	185.969
1145.22	266.072
1148.9	24.949
1152.58	104.219
1156.26	73.883
1159.94	66.066
1163.62	24.162
1167.29	5.178
1170.96	175.945
1174.63	477.43
1178.3	779.24
1181.97	821.338
1185.63	1373.76
1189.3	1566.48
1192.96	1289.51
1196.62	992.801
1200.28	926.285
1203.93	920.098
1207.59	684.189
1211.24	488.682
1214.89	573.611
1218.54	394.777
1222.19	50.506
1225.84	178.586
1229.48	414.242
1233.13	179.266
1236.77	483.461
1240.41	237.785
1244.05	102.164
1247.68	66.512
1251.32	302.824
1254.95	248.773
1258.58	218.734
1262.21	585.773
1265.84	417.035
1269.46	353.172
1273.09	381.438
1276.71	305.066
1280.33	67.27
1283.95	53.434
1287.57	1.766
