Measurement: Raman, 514 nm, ccw, Raman Data Processed
Mineral: Montebrasite
Rruff sample: R060890
Ideal chemistry: LiAlPO_4_(OH)
Locality: Mount Marie, Paris, Maine, USA
Source: Bob Jenkins
Description: Colorless massive
Measured chemistry: Li_1.00_Al_1.00_(P_1.00_O_4_)(OH)_0.63_F_0.37_)_Î£=1_ ; Li not measured but estimated by stoichiometry
Pin_id: M01503
Orientation: Laser parallel to (-1 0 -1). Fiducial mark perpendicular to laser is parallel to b [0 1 0]
Raman shift (cm-1)	intensity
90.678	0
95.631	112.942
100.581	223.574
105.529	455.232
110.475	693.653
115.417	1189.64
120.358	1583.83
125.295	2811.59
130.23	3871.04
135.163	2818.68
140.092	1602.78
145.019	1097.55
149.944	1220.45
154.866	1546.19
159.785	1554.37
164.702	1411.49
169.616	944.071
174.528	475.553
179.437	516.469
184.343	505.241
189.247	628.758
194.148	607.902
199.046	529.517
203.942	75.5254
208.835	34.1934
213.726	157.325
218.614	170.084
223.5	101.766
228.382	63.3696
233.263	70.9299
238.14	17.4707
243.015	39.2793
247.888	95.103
252.758	60.4968
257.625	352.76
262.49	1058.48
267.352	2232.54
272.211	3136.71
277.068	2884.97
281.922	2592.13
286.773	3145.19
291.622	6066.2
296.469	12612.8
301.312	19026.7
306.154	13509.8
310.992	7671.92
315.828	5053.41
320.661	3444.26
325.492	2269.29
330.32	1368.49
335.145	775.865
339.968	519.393
344.789	224.069
349.606	94.8835
354.421	10.4204
359.234	9.70508
364.043	14.5044
368.851	97.8435
373.655	183.312
378.457	209.91
383.256	75.6069
388.053	158.867
392.847	152.653
397.639	117.499
402.428	251.03
407.214	307.466
411.998	506.99
416.779	1685.12
421.557	4118.31
426.333	5250.18
431.106	2049.62
435.877	690.15
440.645	534.749
445.41	398.522
450.173	508.45
454.933	712.51
459.691	1139.72
464.446	1934.06
469.198	3167.61
473.948	5499.3
478.695	8353.16
483.439	9529.12
488.181	8810.12
492.92	7212.15
497.657	5623.51
502.391	3793.12
507.122	2352.16
511.851	1274.76
516.577	709.195
521.301	360.571
526.022	162.875
530.74	8.79346
535.456	6.22803
540.169	5.6958
544.879	10.5796
549.587	57.4878
554.292	5.95312
558.995	1.89356
563.695	43.0132
568.392	90.4463
573.087	168.955
577.779	282.377
582.469	294.021
587.156	490.97
591.84	842.789
596.522	1551.17
601.201	2415.17
605.877	2372.57
610.551	2015.5
615.222	2451.01
619.891	3476.75
624.557	5801.68
629.22	9825.49
633.881	13836.1
638.539	22897.8
643.195	46840.3
647.848	49727.4
652.498	20313
657.145	7851.22
661.791	3803.97
666.433	2256.26
671.073	1435.63
675.71	829.271
680.345	593.048
684.977	414.49
689.606	261.047
694.233	165.031
698.857	149.192
703.478	52.9893
708.097	98.4087
712.714	46.875
717.327	115.43
721.938	12.2622
726.547	23.8311
731.153	36.7168
735.756	24.7114
740.356	8.27588
744.954	62.7627
749.55	23.1191
754.142	15.2925
758.733	107.779
763.32	134.398
767.905	79.2085
772.487	115.76
777.067	88.9609
781.644	162.94
786.218	333.998
790.79	392.618
795.359	631.921
799.926	779.373
804.49	869.346
809.051	954.856
813.61	884.021
818.166	790.812
822.72	589.265
827.271	423.44
831.819	321.896
836.365	190.921
840.908	96.5093
845.448	126.183
849.986	82.2476
854.521	18.8789
859.054	8.46045
863.584	133.291
868.111	24.4121
872.636	56.2251
877.158	50.2612
881.677	45.1807
886.194	20.1045
890.709	37.5591
895.22	35.312
899.729	21.2173
904.236	65.1992
908.74	115.924
913.241	32.1401
917.739	60.2783
922.235	51.8579
926.729	37.1201
931.219	110.52
935.708	178.088
940.193	70.855
944.676	175.842
949.156	300.07
953.634	259.559
958.109	390.328
962.582	671.398
967.051	918.164
971.519	1134.54
975.983	1498.73
980.445	2251.4
984.905	3134.36
989.362	5332.39
993.816	9303.66
998.267	15373.5
1002.72	24605.5
1007.16	34781.2
1011.61	38074.9
1016.05	29578.3
1020.49	19274.5
1024.92	13176
1029.36	11594.5
1033.79	13680.3
1038.21	18067.4
1042.64	21757.2
1047.06	23363.2
1051.48	22586.1
1055.9	23118.2
1060.32	26010.9
1064.73	22002.1
1069.14	12196.3
1073.55	6494.22
1077.95	3949.79
1082.35	2632.15
1086.75	1920.98
1091.15	1402.62
1095.54	1325.92
1099.93	1245.89
1104.32	1651.61
1108.71	2118.44
1113.09	2624.81
1117.47	2872.24
1121.85	2905.1
1126.23	2499.75
1130.6	2231.54
1134.97	1858.83
1139.34	1247.53
1143.7	768.716
1148.07	533.164
1152.43	528.038
1156.79	507.069
1161.14	640.17
1165.49	593.358
1169.84	736.01
1174.19	847.599
1178.54	1016.13
1182.88	1372.29
1187.22	1616.79
1191.55	1902.19
1195.89	1893.04
1200.22	1601.35
1204.55	1384.15
1208.87	1017.03
1213.2	706.586
1217.52	313.756
1221.84	221.371
1226.15	68.7446
1230.47	32.6836
1234.78	60.3648
1239.09	30.3286
1243.39	81.6885
1247.69	33.9243
1251.99	78.2544
1256.29	19.8457
1260.59	66.3076
1264.88	44.2847
1269.17	10.4067
1273.46	93.6836
1277.74	18.125
1282.02	1.13477
1286.3	183.744
1290.58	80.9282
1294.86	172.604
1299.13	10.8403
1303.39	50.125
1307.66	71.7559
1311.93	124.235
1316.19	64.6943
1320.45	134.357
1324.7	97.542
1328.96	146.394
1333.21	232.977
1337.45	148.262
1341.7	80.9351
1345.94	90.1084
1350.18	176.003
1354.42	132.275
1358.66	74.2041
1362.89	106.86
1367.12	114.566
1371.35	149.706
1375.57	152.945
1379.8	152.526
1384.02	109.385
1388.23	82.2812
1392.45	46.8691
1396.66	154.15
1400.87	106.505
1405.08	61.626
1409.28	103.79
1413.48	128.633
1417.68	80.1499
1421.88	131.095
1426.07	5.16504
1430.26	105.577
1434.45	102.943
1438.64	196.638
1442.82	96.6187
1447	200.716
1451.18	123.494
1455.35	122.754
1459.53	142.942
1463.7	212.215
1467.87	95.8765
1472.03	55.3315
1476.19	73.2334
1480.35	32.1294
1484.51	200.037
1488.67	50.999
1492.82	118.394
1496.97	236.008
1501.12	168.282
1505.26	169.153
1509.4	147.642
1513.54	120.038
1517.68	207.744
1521.81	136.667
1525.94	134.51
1530.07	97.5571
1534.2	108.34
1538.32	66.501
1542.44	80.5708
1546.56	125.848
1550.68	235.276
1554.79	127.405
1558.9	88.7183
1563.01	79.2344
1567.12	61.2437
1571.22	69.9092
1575.32	8.31299
