Measurement: Raman, 514 nm, ccw, Raman Data Processed
Mineral: Monticellite
Rruff sample: R040115
Ideal chemistry: CaMgSiO_4_
Locality: Magnet Cove, Arkansas, USA
Source: University of Arizona Mineral Museum
Description: Brown blebs in matrix
Measured chemistry: Ca_0.99_(Mg_0.85_ Fe_0.12_Mn_0.03_)Si_1.00_O_4_
Pin_id: M00321
Orientation: Laser parallel to a* (1 0 0). Fiducial mark perpendicular to laser is parallel to -b [0 -1 0]
Raman shift (cm-1)	intensity
96.858	0
101.036	17.499
105.212	41.683
109.387	115.783
113.559	96.718
117.729	243.099
121.897	186.552
126.063	251.878
130.228	343.627
134.39	670.508
138.55	1533.53
142.709	2594.29
146.865	1641.83
151.019	656.516
155.171	324.768
159.322	393.295
163.47	861.237
167.617	1722.77
171.761	1704.7
175.904	636.878
180.044	116.856
184.183	33.234
188.319	31.239
192.454	22.094
196.586	12.685
200.717	29.009
204.846	41.744
208.972	99.08
213.097	46.795
217.22	54.791
221.341	3.989
225.46	7.958
229.577	28.521
233.692	9.386
237.805	1.714
241.916	9.041
246.025	132.611
250.132	306.146
254.237	646.446
258.34	806.575
262.442	405.736
266.541	332.766
270.639	500.556
274.734	493.478
278.828	248.803
282.919	86.877
287.009	43.572
291.097	34.438
295.183	17.038
299.266	60.453
303.348	92.772
307.428	98.975
311.507	56.714
315.583	17.291
319.657	57.831
323.729	134.607
327.8	164.528
331.868	144.24
335.935	62.363
339.999	119.647
344.062	82.098
348.123	120.658
352.182	10.007
356.239	3.37
360.294	45.555
364.347	133.533
368.398	149.378
372.448	150.09
376.495	193.1
380.54	323.515
384.584	478.445
388.626	837.055
392.666	1390.67
396.704	2347.52
400.74	2408.69
404.774	1757.97
408.806	951.226
412.836	541.34
416.865	305.352
420.891	211.147
424.916	40.842
428.939	119.37
432.959	30.724
436.978	159.866
440.996	96.175
445.011	5.999
449.024	115.671
453.036	7.632
457.045	4.407
461.053	2.11
465.059	53.303
469.063	31.129
473.065	8.984
477.065	4.119
481.063	15.674
485.06	116.54
489.054	70.313
493.047	60.509
497.038	24.401
501.027	35.332
505.014	125.626
508.999	79.815
512.982	41.248
516.964	133.382
520.944	291.279
524.921	606.451
528.897	1559.72
532.871	2110.74
536.844	1270.66
540.814	584.024
544.783	364.651
548.749	226.183
552.714	250.879
556.677	183.264
560.638	228.45
564.597	155.234
568.555	253.174
572.511	277.984
576.464	251.667
580.416	158.227
584.366	93.157
588.315	123.384
592.261	153.183
596.206	88.277
600.148	43.175
604.089	25.435
608.028	164.639
611.965	68.264
615.901	56.656
619.834	70.896
623.766	39.38
627.696	24.918
631.624	3.561
635.551	42.258
639.475	128.304
643.398	5.948
647.318	3.946
651.237	23.121
655.155	80.066
659.07	41.544
662.984	62.11
666.895	63.442
670.805	72.126
674.713	57.066
678.62	57.284
682.524	128.736
686.427	136.147
690.328	11.535
694.227	98.943
698.124	89.279
702.02	88.598
705.913	8.049
709.805	85.333
713.695	84.755
717.584	2.778
721.47	157.731
725.355	138.284
729.238	241.897
733.119	170.578
736.998	144.33
740.876	281.16
744.752	207.075
748.626	240.085
752.498	278.872
756.368	366.039
760.237	362.102
764.104	407.549
767.969	359.143
771.832	554.539
775.693	701.487
779.553	749.253
783.411	981.137
787.267	1107.02
791.122	1477.63
794.974	1955.64
798.825	2834.15
802.674	4731.76
806.522	8289.23
810.367	17484.5
814.211	38100.6
818.053	50725
821.893	31964.2
825.732	15159.5
829.568	7801.14
833.403	4868.2
837.236	3179.35
841.068	3180.76
844.898	4751.28
848.726	7814.99
852.552	6243.32
856.376	2955.43
860.199	1754.48
864.02	1247
867.839	814.647
871.656	675.523
875.472	605.041
879.286	483.419
883.098	593.027
886.909	649.883
890.717	1055.96
894.524	1975.26
898.33	3509.78
902.133	2182.52
905.935	836.486
909.735	513.688
913.533	330.127
917.33	393.796
921.124	303.701
924.918	255.872
928.709	321.272
932.499	246.998
936.286	222.982
940.073	787.223
943.857	2051.69
947.64	2895.4
951.421	1322.63
955.2	457.441
958.978	234.907
962.753	137.038
966.527	184.627
970.3	26.857
974.071	68.632
977.84	193.053
981.607	38.301
985.372	9.216
989.136	64.895
992.898	45.404
996.659	144.133
1000.42	173.097
1004.17	120.438
1007.93	187.895
1011.68	200.538
1015.43	199.395
1019.18	254.445
1022.93	157.677
1026.68	273.091
1030.42	204.684
1034.17	162.66
1037.91	240.602
1041.65	321.708
1045.39	374.977
1049.12	237.403
1052.86	160.989
1056.59	173.729
1060.33	150.839
1064.06	176.878
1067.78	107.062
1071.51	28.122
1075.23	93.589
1078.96	104.915
1082.68	114.649
1086.4	140.51
1090.12	114.493
1093.83	77.727
1097.55	45.949
1101.26	13.678
1104.97	148.371
1108.68	5.363
1112.39	80.978
1116.1	178.306
1119.8	117.851
1123.5	124.564
1127.2	129.813
1130.9	23.835
1134.6	129.994
1138.3	216.794
1141.99	41.387
1145.69	55.561
1149.38	51.864
1153.07	53.803
1156.76	75.787
1160.44	162.84
1164.13	242.377
1167.81	276.954
1171.49	194.171
1175.17	174.413
1178.85	109.699
1182.52	164.677
1186.2	142.959
1189.87	159.279
1193.54	142.636
1197.21	203.027
1200.88	80.45
1204.55	328.906
1208.21	210.372
1211.88	134.854
1215.54	117.366
1219.2	68.876
1222.86	75.426
1226.51	183.947
1230.17	65.383
1233.82	194.844
1237.47	156.326
1241.12	60.821
1244.77	14.318
1248.42	166.634
1252.06	162.396
1255.71	182.168
1259.35	30.366
1262.99	26.735
1266.63	101.41
1270.26	25.507
1273.9	80.592
1277.53	43.177
1281.16	105.23
1284.8	36.659
1288.42	60.416
1292.05	11.53
1295.68	38.504
1299.3	45.406
1302.92	33.406
1306.55	36.592
1310.16	91.379
1313.78	196.354
1317.4	257.332
1321.01	197.318
1324.62	0.683
1328.24	269.125
1331.85	168.17
1335.45	97.25
1339.06	141.376
1342.66	229.549
1346.27	115.777
1349.87	310.073
1353.47	292.227
1357.07	403.695
1360.66	242.273
1364.26	266.385
1367.85	269.256
1371.44	229.6
1375.04	277.395
1378.62	206.109
1382.21	162.53
1385.8	302.763
1389.38	231.584
1392.96	228.547
1396.54	258.719
1400.12	239.697
1403.7	282.663
1407.28	276.826
1410.85	296.701
1414.42	428.521
1417.99	397.272
1421.56	414.679
1425.13	178.113
1428.7	366.615
1432.26	315.141
1435.83	292.656
1439.39	475.175
1442.95	250.702
1446.51	485.157
1450.06	420.693
1453.62	442.264
1457.17	421.819
1460.73	371.536
1464.28	313.811
1467.83	142.601
1471.37	250.122
1474.92	247.147
1478.46	232.566
1482.01	123.403
1485.55	270.744
1489.09	188.743
1492.63	85.603
1496.16	192.536
1499.7	157.656
1503.23	78.155
1506.76	135.45
1510.29	201.146
1513.82	189.08
1517.35	20.836
1520.88	68.254
1524.4	0
