Measurement: Raman, 514 nm, ccw, Raman Data Processed
Mineral: Montebrasite
Rruff sample: R060890
Ideal chemistry: LiAlPO_4_(OH)
Locality: Mount Marie, Paris, Maine, USA
Source: Bob Jenkins
Description: Colorless massive
Measured chemistry: Li_1.00_Al_1.00_(P_1.00_O_4_)(OH)_0.63_F_0.37_)_Î£=1_ ; Li not measured but estimated by stoichiometry
Pin_id: M01084
Orientation: Laser parallel to -a* (-1 0 0). Fiducial mark perpendicular to laser is parallel to b [0 1 0]
Raman shift (cm-1)	intensity
90.678	0
95.631	283.912
100.581	75.3789
105.529	268.854
110.475	488.208
115.417	934.368
120.358	1498.89
125.295	2645.72
130.23	3902.52
135.163	2664.47
140.092	1209.59
145.019	250
149.944	269.172
154.866	333.859
159.785	334.673
164.702	669.861
169.616	985.68
174.528	1234.54
179.437	1626.07
184.343	1842.61
189.247	1938.91
194.148	1795.82
199.046	1173.01
203.942	257.295
208.835	115.291
213.726	163.728
218.614	44.9941
223.5	142.584
228.382	228.68
233.263	135.369
238.14	196.156
243.015	51.5586
247.888	137.593
252.758	142.777
257.625	393.299
262.49	667.86
267.352	742.245
272.211	843.089
277.068	1067.35
281.922	1191.94
286.773	2471.8
291.622	6338.14
296.469	13595.6
301.312	23264.1
306.154	20103.6
310.992	10535.7
315.828	6682
320.661	4033.44
325.492	2136.06
330.32	1308.85
335.145	829.787
339.968	625.863
344.789	502.068
349.606	270.403
354.421	164.391
359.234	178.046
364.043	89.2422
368.851	165.822
373.655	275.896
378.457	288.614
383.256	230.207
388.053	261.047
392.847	205.513
397.639	651.673
402.428	683.31
407.214	1334.03
411.998	3063.74
416.779	9655.45
421.557	21519.3
426.333	39217.1
431.106	16986.9
435.877	4777.07
440.645	1855.11
445.41	958.273
450.173	468.489
454.933	173.527
459.691	343.576
464.446	349.187
469.198	720.831
473.948	1087.49
478.695	1919.11
483.439	2757.77
488.181	3321.45
492.92	3058.08
497.657	2833.84
502.391	1864.28
507.122	1093.24
511.851	796.991
516.577	357.536
521.301	217.025
526.022	242.238
530.74	14.8369
535.456	21.4648
540.169	3.14746
544.879	120.74
549.587	69.9971
554.292	7.94629
558.995	72.626
563.695	97.21
568.392	348.684
573.087	151.037
577.779	341.501
582.469	725.193
587.156	714.345
591.84	838.322
596.522	1209.47
601.201	1468.11
605.877	1344.7
610.551	1363.93
615.222	1291.78
619.891	1975.52
624.557	2799.85
629.22	3813.55
633.881	5711.43
638.539	10994.1
643.195	21027.4
647.848	25999.6
652.498	11544.3
657.145	4742.46
661.791	2433
666.433	1361.73
671.073	898.284
675.71	630.867
680.345	340.085
684.977	264.338
689.606	266.69
694.233	103.872
698.857	112.139
703.478	8.61133
708.097	77.8379
712.714	203.551
717.327	51.4453
721.938	22.4258
726.547	113.578
731.153	56.9707
735.756	53.377
740.356	71.3594
744.954	329.135
749.55	140.58
754.142	163.447
758.733	194.527
763.32	62.1328
767.905	112.117
772.487	108.625
777.067	284.809
781.644	347.201
786.218	577.67
790.79	491.424
795.359	1045.32
799.926	1102.24
804.49	1481.63
809.051	1418.83
813.61	1342.21
818.166	1131.34
822.72	1006.49
827.271	749.191
831.819	764.252
836.365	468.144
840.908	362.832
845.448	401.961
849.986	299.357
854.521	379.664
859.054	386.031
863.584	496.08
868.111	503.961
872.636	274.693
877.158	241.092
881.677	118.525
886.194	228.658
890.709	206.059
895.22	103.33
899.729	185.447
904.236	123.543
908.74	0.011719
913.241	91.7832
917.739	17.1953
922.235	78.0566
926.729	89.25
931.219	40.1348
935.708	51.7832
940.193	103.035
944.676	202.648
949.156	298.619
953.634	234.935
958.109	532.637
962.582	476.736
967.051	931.289
971.519	974.312
975.983	1437.97
980.445	1990.19
984.905	2608.12
989.362	4296.83
993.816	6873.4
998.267	11741.5
1002.72	19090.3
1007.16	26185.8
1011.61	29126.1
1016.05	23659.9
1020.49	16033.3
1024.92	10576.2
1029.36	8695.2
1033.79	9049.91
1038.21	11008.7
1042.64	13132.6
1047.06	14597
1051.48	15762.5
1055.9	18174.9
1060.32	24275.2
1064.73	21444.5
1069.14	12267.5
1073.55	6389.49
1077.95	3850.88
1082.35	2637.51
1086.75	1803.74
1091.15	1449.38
1095.54	1125.45
1099.93	657.146
1104.32	381.092
1108.71	495.531
1113.09	799.236
1117.47	557.053
1121.85	598.475
1126.23	352.102
1130.6	84.1309
1134.97	177.949
1139.34	60.7617
1143.7	34.1367
1148.07	41.1152
1152.43	10.2754
1156.79	148.644
1161.14	10.9551
1165.49	31.8555
1169.84	31.4023
1174.19	207.801
1178.54	48.4609
1182.88	82.3457
1187.22	167.531
1191.55	375.951
1195.89	415.565
1200.22	252.373
1204.55	222.357
1208.87	210.504
1213.2	303.818
1217.52	177.297
1221.84	140.914
1226.15	17.3223
1230.47	104.994
1234.78	105.908
1239.09	326.926
1243.39	57.9609
1247.69	216.074
1251.99	22.8066
1256.29	153.211
1260.59	190.316
1264.88	258.473
1269.17	220.711
1273.46	447.658
1277.74	438.812
1282.02	128.418
1286.3	0.636719
1290.58	3.93359
1294.86	212.565
1299.13	188.316
1303.39	257.297
1307.66	191.678
1311.93	252.633
1316.19	368.127
1320.45	467.678
1324.7	386.322
1328.96	166.045
1333.21	102.791
1337.45	111.598
1341.7	245.42
1345.94	290.211
1350.18	12.9629
1354.42	113.672
1358.66	246.371
1362.89	70.0762
1367.12	90.5254
1371.35	65.2715
1375.57	225.764
1379.8	184.199
1384.02	43.3535
1388.23	233.75
1392.45	176.588
1396.66	38.7539
1400.87	50.9082
1405.08	8.79297
1409.28	75.0664
1413.48	103.658
1417.68	26.207
1421.88	44.9375
1426.07	10.2227
1430.26	185.408
1434.45	277.728
1438.64	444.299
1442.82	688.176
1447	845.764
1451.18	1023.03
1455.35	1017.63
1459.53	929.941
1463.7	747.299
1467.87	569.043
1472.03	377.799
1476.19	362.293
1480.35	580.231
1484.51	255.922
1488.67	383.781
1492.82	142.272
1496.97	197.744
1501.12	195.315
1505.26	134.928
1509.4	309.836
1513.54	158.592
1517.68	134.037
1521.81	295.299
1525.94	155.701
1530.07	22.1348
1534.2	384.033
1538.32	277.959
1542.44	247.272
1546.56	178.318
1550.68	473.022
1554.79	378.422
1558.9	197.422
1563.01	228.022
1567.12	215.566
1571.22	7.85547
1575.32	0.027344
