Measurement: Raman, 514 nm, ccw, Raman Data Processed
Mineral: Montebrasite
Rruff sample: R040060
Ideal chemistry: LiAlPO_4_(OH)
Locality: Oxford County, Maine, USA
Source: University of Arizona Mineral Museum
Description: White massive
Measured chemistry: LiAl(PO_4_)((OH)_0.79_F_0.21_)
Pin_id: L00181
Orientation: Laser parallel to a* (1 0 0). Fiducial mark perpendicular to laser is parallel to -b [0 -1 0]
Raman shift (cm-1)	intensity
111.393	0
115.576	1443.99
119.757	1690.4
123.936	467.955
128.112	703.229
132.287	1932.26
136.46	2815.32
140.63	2039.66
144.799	434.338
148.965	17.09
153.13	65.031
157.292	111.283
161.452	365.446
165.611	820.688
169.767	955.1
173.921	817.548
178.073	511.362
182.222	581.443
186.37	820.266
190.516	1051.87
194.66	1177.46
198.801	976.004
202.941	473.16
207.079	138.92
211.214	59.101
215.348	0.554
219.479	87.729
223.608	66.951
227.736	114.716
231.861	189.551
235.984	59.875
240.105	50.729
244.224	33.519
248.342	73.111
252.457	116.729
256.57	68.158
260.681	71.175
264.79	163.5
268.896	643.465
273.001	1610.48
277.104	2261.86
281.205	1802.08
285.304	1515.18
289.401	2339.14
293.495	5823.48
297.588	10947.7
301.679	9990.92
305.767	6013.55
309.854	4315.23
313.939	3225.95
318.021	2661.99
322.102	2430.68
326.181	1809.11
330.257	966.335
334.332	464.81
338.405	359.721
342.475	224.691
346.544	163.883
350.61	38.11
354.675	58.361
358.738	38.778
362.798	49.062
366.857	36.428
370.913	160.399
374.968	204.101
379.021	370.749
383.071	323.519
387.12	533.316
391.166	573.485
395.211	602.98
399.254	511.254
403.294	562.612
407.333	750.291
411.37	877.875
415.405	1055.7
419.437	1916.31
423.468	5439.14
427.497	9138.88
431.524	5341.15
435.549	2043.12
439.572	1124.77
443.593	725.987
447.611	476.69
451.628	446.865
455.644	486.488
459.657	395.537
463.668	374
467.677	461.879
471.684	959.169
475.689	1415.87
479.692	2212.02
483.694	2757.6
487.693	2652.61
491.691	2557.04
495.686	2260.89
499.68	1753.99
503.671	1204.96
507.661	766.53
511.648	436.853
515.634	325.528
519.618	147.686
523.6	180.136
527.58	29.505
531.558	53.27
535.534	4.646
539.508	35.527
543.48	78.062
547.45	180.893
551.418	256.657
555.385	172.127
559.349	96.434
563.312	112.154
567.272	170.047
571.231	241.705
575.187	261.591
579.142	458.62
583.095	705.007
587.046	1011.05
590.995	1246.93
594.942	1741.64
598.888	3045.99
602.831	3617.67
606.772	2379.99
610.712	1451.64
614.649	1092.2
618.585	1290.14
622.519	2057.74
626.45	3714.13
630.38	4539.18
634.308	3503.61
638.235	4077.42
642.159	8300.61
646.081	13513.2
650.002	8795.09
653.92	3976.4
657.837	1797.07
661.752	1127.13
665.664	706.608
669.575	445.406
673.484	342.439
677.392	347.652
681.297	72.502
685.2	226.706
689.102	140.531
693.002	166.92
696.899	127.217
700.795	23.428
704.689	79.572
708.581	54.936
712.472	75.24
716.36	82.159
720.247	31.388
724.131	10.925
728.014	4.598
731.895	34.775
735.774	82.611
739.651	178.926
743.526	27.064
747.4	123.588
751.271	0.627
755.141	151.11
759.009	161.553
762.875	45.719
766.739	147.658
770.601	207.182
774.462	297.236
778.32	326.775
782.177	525.504
786.032	663.238
789.885	1190.58
793.736	1737.72
797.585	2313.57
801.433	2538.81
805.279	2273.48
809.122	1707.59
812.964	1371.13
816.804	1014.13
820.643	746.578
824.479	608.404
828.314	209.018
832.147	298.496
835.977	95.391
839.807	142.07
843.634	216.906
847.459	141.979
851.283	54.311
855.105	52.203
858.925	38.738
862.743	54.997
866.559	110.664
870.373	41.957
874.186	14.674
877.997	25.572
881.806	38.846
885.613	126.549
889.419	5.525
893.222	74.275
897.024	1.09
900.824	8.838
904.622	24.129
908.418	143.746
912.213	80.889
916.005	106.812
919.796	126.338
923.585	259.971
927.373	75.369
931.158	84.756
934.942	282.982
938.724	191.281
942.504	109.309
946.282	157.066
950.059	354.57
953.833	581.836
957.606	758.873
961.377	1725.69
965.147	6652.29
968.914	3878.68
972.68	1604.87
976.444	1370.86
980.206	1686.08
983.967	1621.53
987.725	1705
991.482	2357.88
995.237	3220.89
998.99	4703.67
1002.74	7801.33
1006.49	12029.4
1010.24	16998.1
1013.99	17319.4
1017.73	12081.9
1021.47	7479.19
1025.21	5223.83
1028.95	4398.04
1032.69	4675.49
1036.42	5935.8
1040.16	8668.87
1043.89	12904.1
1047.62	14196.1
1051.35	12699.5
1055.08	13562.9
1058.8	16813.9
1062.53	14777.3
1066.25	8370.43
1069.97	4647.09
1073.68	2841.53
1077.4	2106.85
1081.11	1771.54
1084.83	1397.2
1088.54	1042.65
1092.25	837.656
1095.95	862.828
1099.66	1368.6
1103.36	2064.45
1107.07	3600.39
1110.77	3636.09
1114.47	2691.68
1118.16	1897.32
1121.86	1403.07
1125.55	1211.39
1129.24	887.342
1132.93	683.486
1136.62	409.754
1140.31	207.334
1143.99	16.195
1147.68	308.699
1151.36	254.66
1155.04	140.787
1158.71	257.172
1162.39	253.717
1166.07	69.297
1169.74	61.859
1173.41	104.039
1177.08	184.102
1180.75	612.604
1184.41	1231.33
1188.08	1510.29
1191.74	1459.5
1195.4	1158.98
1199.06	1008.73
1202.71	438.766
1206.37	419.133
1210.02	289.82
1213.68	400.801
1217.33	422.137
1220.98	372.949
1224.62	394.863
1228.27	58.586
1231.91	77.223
1235.55	65.398
1239.19	406.785
1242.83	278.391
1246.47	520.168
1250.1	362.039
1253.74	423.91
1257.37	445.285
1261	83.551
1264.63	64.352
1268.25	95.375
1271.88	315.5
1275.5	330.039
1279.12	320.195
1282.74	406.215
1286.36	264.805
1289.98	20.82
