Measurement: Raman, 514 nm, ccw, Raman Data Processed
Mineral: Montebrasite
Rruff sample: R060890
Ideal chemistry: LiAlPO_4_(OH)
Locality: Mount Marie, Paris, Maine, USA
Source: Bob Jenkins
Description: Colorless massive
Measured chemistry: Li_1.00_Al_1.00_(P_1.00_O_4_)(OH)_0.63_F_0.37_)_Î£=1_ ; Li not measured but estimated by stoichiometry
Pin_id: M01677
Orientation: Laser parallel to b* (0 1 0). Fiducial mark perpendicular to laser is parallel to c [0 0 1]
Raman shift (cm-1)	intensity
90.678	0
95.631	253.497
100.581	112.209
105.529	150.101
110.475	399.885
115.417	838.393
120.358	1503.05
125.295	2193.47
130.23	2452.16
135.163	1427.48
140.092	714.379
145.019	263.318
149.944	62.9277
154.866	163.72
159.785	112.664
164.702	484.674
169.616	1035.82
174.528	1492.79
179.437	1802.22
184.343	2086.32
189.247	1926.19
194.148	1454.85
199.046	714.27
203.942	115.412
208.835	13.7661
213.726	121.695
218.614	447.751
223.5	535.769
228.382	512.593
233.263	590.641
238.14	482.17
243.015	354.082
247.888	151.318
252.758	209.883
257.625	313.231
262.49	670.968
267.352	866.676
272.211	1196.09
277.068	1382.05
281.922	2275.37
286.773	4791.97
291.622	12922.8
296.469	23183.6
301.312	28277.5
306.154	21192.3
310.992	12277.1
315.828	7694.9
320.661	4481.57
325.492	2108.14
330.32	1239.6
335.145	685.898
339.968	533.023
344.789	93.9399
349.606	39.6177
354.421	28.9966
359.234	10.6479
364.043	92.4028
368.851	29.7993
373.655	91.1851
378.457	241.745
383.256	233.88
388.053	137.334
392.847	513.957
397.639	744.526
402.428	1154.96
407.214	2287.09
411.998	6233.83
416.779	20426.6
421.557	33901.1
426.333	36059.5
431.106	14468.2
435.877	4462.1
440.645	1726.45
445.41	817.32
450.173	505.651
454.933	485.329
459.691	560.313
464.446	1009.86
469.198	1980.11
473.948	3465.99
478.695	5289.11
483.439	6214.4
488.181	6416.85
492.92	5852.41
497.657	4564.65
502.391	3103.57
507.122	1705.23
511.851	1026.56
516.577	440.791
521.301	157.255
526.022	51.394
530.74	13.5015
535.456	81.5444
540.169	63.6079
544.879	0.216309
549.587	11.8218
554.292	29.4419
558.995	87.2432
563.695	96.2183
568.392	192.148
573.087	241.782
577.779	348.965
582.469	334.272
587.156	525.233
591.84	732.18
596.522	905.737
601.201	1062.63
605.877	1381.43
610.551	1395.16
615.222	1807.85
619.891	2578.8
624.557	4149.88
629.22	6542.21
633.881	12243
638.539	27784.6
643.195	40773.9
647.848	35532.6
652.498	15043.6
657.145	6200.1
661.791	3215.91
666.433	1800.87
671.073	1266.77
675.71	778.605
680.345	667.662
684.977	430.649
689.606	143.553
694.233	218.498
698.857	73.0298
703.478	55.1787
708.097	46.2583
712.714	131.69
717.327	51.8184
721.938	2.79297
726.547	68.0806
731.153	4.38184
735.756	72.4492
740.356	75.6948
744.954	9.28662
749.55	5.60254
754.142	40.0772
758.733	32.2993
763.32	15.8843
767.905	76.6123
772.487	106.733
777.067	176.214
781.644	281.648
786.218	433.3
790.79	604.285
795.359	908.63
799.926	1144.34
804.49	1292.79
809.051	1314.17
813.61	1186.79
818.166	995.53
822.72	914.478
827.271	599.387
831.819	536.631
836.365	282.718
840.908	75.6758
845.448	180.412
849.986	151.507
854.521	131.105
859.054	86.4956
863.584	69.7695
868.111	37.9844
872.636	6.76856
877.158	66.8213
881.677	114.019
886.194	58.6006
890.709	85.5225
895.22	30.4727
899.729	57.1943
904.236	16.6963
908.74	6.15625
913.241	56.0752
917.739	16.9756
922.235	196.282
926.729	245.86
931.219	216.871
935.708	193.879
940.193	336.346
944.676	477.132
949.156	532.243
953.634	736.184
958.109	869.456
962.582	1061.57
967.051	1423.03
971.519	1862.96
975.983	2347.38
980.445	3370.34
984.905	5048.78
989.362	8217.76
993.816	14561.6
998.267	23880.9
1002.72	36521.8
1007.16	47685.9
1011.61	46963.6
1016.05	35096.7
1020.49	22332.5
1024.92	14612.7
1029.36	11912.9
1033.79	12154.2
1038.21	14858.5
1042.64	17280.6
1047.06	18610.5
1051.48	19691.1
1055.9	22683.2
1060.32	25933.6
1064.73	20895.5
1069.14	11602.7
1073.55	6435.4
1077.95	4111.46
1082.35	2758.93
1086.75	1942.78
1091.15	1449.02
1095.54	1030.64
1099.93	833.639
1104.32	560.376
1108.71	638.462
1113.09	541.674
1117.47	359.062
1121.85	496.38
1126.23	234.724
1130.6	182.724
1134.97	33.3818
1139.34	44.9883
1143.7	9.68848
1148.07	37.1445
1152.43	19.5225
1156.79	38.4131
1161.14	3.30078
1165.49	11.7754
1169.84	83.2363
1174.19	37.8125
1178.54	71.1816
1182.88	323.32
1187.22	340.065
1191.55	450.221
1195.89	381.507
1200.22	564.908
1204.55	353.416
1208.87	541.023
1213.2	383.717
1217.52	295.493
1221.84	123.339
1226.15	48.248
1230.47	11.79
1234.78	44.1602
1239.09	122.374
1243.39	103.676
1247.69	119.443
1251.99	57.2207
1256.29	7.12695
1260.59	23.1123
1264.88	169.068
1269.17	43.6055
1273.46	13.8506
1277.74	3.18262
1282.02	73.6934
1286.3	146.256
1290.58	44.2949
1294.86	137.794
1299.13	208.89
1303.39	126.957
1307.66	29.8838
1311.93	162.19
1316.19	119.219
1320.45	56.1377
1324.7	189.968
1328.96	112.677
1333.21	155.296
1337.45	77.832
1341.7	71.2822
1345.94	136.64
1350.18	134.88
1354.42	153.097
1358.66	89.624
1362.89	48.3379
1367.12	131.651
1371.35	65.7822
1375.57	100.756
1379.8	85.4619
1384.02	15.1221
1388.23	173.291
1392.45	20.5488
1396.66	120.208
1400.87	106.744
1405.08	159.817
1409.28	144.919
1413.48	15.3193
1417.68	35.7871
1421.88	8.50098
1426.07	157.767
1430.26	185.884
1434.45	91.1309
1438.64	188.121
1442.82	111.326
1447	172.416
1451.18	104.655
1455.35	222.192
1459.53	199.667
1463.7	255.938
1467.87	135.999
1472.03	208.615
1476.19	88.6201
1480.35	175.61
1484.51	58.4863
1488.67	217.001
1492.82	187.456
1496.97	187.627
1501.12	109.769
1505.26	74.3506
1509.4	142.198
1513.54	55.8369
1517.68	83.2461
1521.81	11.1758
1525.94	144.548
1530.07	23.4688
1534.2	96.6074
1538.32	62.5449
1542.44	36.207
1546.56	214.095
1550.68	184.868
1554.79	163.688
1558.9	121.668
1563.01	9.06055
1567.12	110.002
1571.22	34.4824
1575.32	0.21875
