Measurement: Raman, 514 nm, ccw, Raman Data Processed
Mineral: Montebrasite
Rruff sample: R060890
Ideal chemistry: LiAlPO_4_(OH)
Locality: Mount Marie, Paris, Maine, USA
Source: Bob Jenkins
Description: Colorless massive
Measured chemistry: Li_1.00_Al_1.00_(P_1.00_O_4_)(OH)_0.63_F_0.37_)_Î£=1_ ; Li not measured but estimated by stoichiometry
Pin_id: M01084
Orientation: Laser parallel to -a* (-1 0 0). Fiducial mark perpendicular to laser is parallel to b [0 1 0]
Raman shift (cm-1)	intensity
90.678	0
95.631	166.057
100.581	151.768
105.529	200.759
110.475	478
115.417	1060.98
120.358	2157.96
125.295	4078.56
130.23	5309.1
135.163	3638.39
140.092	1568.15
145.019	526.061
149.944	376.932
154.866	310.57
159.785	632.987
164.702	922.105
169.616	1113.24
174.528	942.177
179.437	589.132
184.343	590.983
189.247	294.559
194.148	381.722
199.046	262.33
203.942	142.195
208.835	10.2197
213.726	96.5918
218.614	15.2158
223.5	8.34473
228.382	31.5459
233.263	185.9
238.14	52.1758
243.015	101.275
247.888	126.56
252.758	52.4453
257.625	291.581
262.49	435.864
267.352	661.248
272.211	1305.59
277.068	1865.68
281.922	3105.45
286.773	5238.07
291.622	10345.6
296.469	17854
301.312	25084.5
306.154	20087.4
310.992	14102.5
315.828	8738.15
320.661	5714.7
325.492	4761.44
330.32	3675.42
335.145	2973.62
339.968	2202.03
344.789	2087.65
349.606	2138.8
354.421	2201
359.234	2442.58
364.043	2467.51
368.851	2617.49
373.655	2503.7
378.457	2062.54
383.256	1534.74
388.053	1255.18
392.847	941.67
397.639	873.801
402.428	494.504
407.214	726.244
411.998	552.594
416.779	520.787
421.557	853.223
426.333	1213.8
431.106	728.047
435.877	437.201
440.645	371.637
445.41	289.416
450.173	195.527
454.933	241.949
459.691	222.648
464.446	145.67
469.198	281.041
473.948	443.607
478.695	615.342
483.439	599.299
488.181	842.438
492.92	1063.71
497.657	831.123
502.391	586.832
507.122	649.914
511.851	388.238
516.577	153.842
521.301	232.773
526.022	105.012
530.74	84.2539
535.456	130.43
540.169	74.4121
544.879	43.4355
549.587	59.1797
554.292	218.768
558.995	53.2988
563.695	125.727
568.392	91.2539
573.087	115.481
577.779	116.945
582.469	103.293
587.156	378.803
591.84	562.336
596.522	1365.84
601.201	2118.35
605.877	1746.99
610.551	1382.7
615.222	1238.62
619.891	2008.27
624.557	3196.87
629.22	4868.55
633.881	6498.09
638.539	10027.5
643.195	16736.8
647.848	17212.9
652.498	7441.8
657.145	3346.54
661.791	1897.09
666.433	1169.45
671.073	841.986
675.71	582.154
680.345	475.598
684.977	262.148
689.606	164.85
694.233	309.863
698.857	143.94
703.478	228.684
708.097	139.711
712.714	29.2148
717.327	132.129
721.938	96.9492
726.547	51.2656
731.153	1.9375
735.756	174.26
740.356	127.211
744.954	30.2344
749.55	105.365
754.142	124.252
758.733	192.744
763.32	204.137
767.905	365.252
772.487	367.613
777.067	190.269
781.644	453.527
786.218	780.156
790.79	1229.86
795.359	1357.13
799.926	2129.08
804.49	2222.2
809.051	2292.37
813.61	2159.64
818.166	1664.09
822.72	1605.59
827.271	1143.19
831.819	742.869
836.365	559.549
840.908	438.334
845.448	194.598
849.986	137.633
854.521	329.883
859.054	362.185
863.584	246.305
868.111	371.043
872.636	98.7109
877.158	261.394
881.677	106.4
886.194	49.2832
890.709	109.416
895.22	2.46875
899.729	45.7793
904.236	23.9414
908.74	63.2031
913.241	123.945
917.739	10.4316
922.235	18.4668
926.729	1.85938
931.219	273.574
935.708	128.695
940.193	102.166
944.676	390.957
949.156	101.107
953.634	348.617
958.109	602.467
962.582	635.664
967.051	971.193
971.519	925.08
975.983	1145.33
980.445	1603.97
984.905	2783.14
989.362	4181.92
993.816	7604.19
998.267	12745.1
1002.72	20223.4
1007.16	26553.3
1011.61	28017.1
1016.05	21628.4
1020.49	13695.4
1024.92	8914.34
1029.36	6799.89
1033.79	6831.4
1038.21	8030.63
1042.64	9509.94
1047.06	11075.3
1051.48	13362.6
1055.9	18370.8
1060.32	23743.5
1064.73	21733.5
1069.14	11514.3
1073.55	6007
1077.95	3341.97
1082.35	2019.87
1086.75	1457.41
1091.15	874.893
1095.54	552.705
1099.93	793.217
1104.32	704.828
1108.71	1161.35
1113.09	964.49
1117.47	1074.87
1121.85	1196.63
1126.23	904.447
1130.6	853.477
1134.97	600.697
1139.34	510.256
1143.7	312.06
1148.07	282.143
1152.43	55.4219
1156.79	73
1161.14	196.568
1165.49	30.7285
1169.84	99.0117
1174.19	123.484
1178.54	53.3809
1182.88	63.4785
1187.22	22.6641
1191.55	20.0625
1195.89	406.725
1200.22	197.228
1204.55	158.769
1208.87	195.389
1213.2	93.9629
1217.52	80.2012
1221.84	255.846
1226.15	229.522
1230.47	259.258
1234.78	12.6914
1239.09	75.7188
1243.39	265.572
1247.69	32.4629
1251.99	148.375
1256.29	110.314
1260.59	137.277
1264.88	237.935
1269.17	414.445
1273.46	175.736
1277.74	355.752
1282.02	264.713
1286.3	262.309
1290.58	135.891
1294.86	283.69
1299.13	224.967
1303.39	120.137
1307.66	538.932
1311.93	454.678
1316.19	210.752
1320.45	389.133
1324.7	473.541
1328.96	462.711
1333.21	322.109
1337.45	311.562
1341.7	9.57617
1345.94	290.967
1350.18	234.973
1354.42	209.617
1358.66	262.336
1362.89	145.297
1367.12	188.793
1371.35	274.227
1375.57	161.481
1379.8	193.805
1384.02	361.199
1388.23	133.648
1392.45	124.856
1396.66	124.531
1400.87	6.9375
1405.08	368.379
1409.28	90.1172
1413.48	42.4102
1417.68	7.82812
1421.88	266.262
1426.07	237.402
1430.26	191.902
1434.45	40.8984
1438.64	443.356
1442.82	613.332
1447	635.352
1451.18	698.981
1455.35	662.699
1459.53	702.023
1463.7	660.481
1467.87	639.496
1472.03	490.891
1476.19	527.891
1480.35	366.707
1484.51	356.539
1488.67	252.273
1492.82	462.227
1496.97	463.898
1501.12	298.633
1505.26	406.141
1509.4	516.609
1513.54	409.879
1517.68	409.234
1521.81	374.195
1525.94	318.519
1530.07	370.891
1534.2	475.207
1538.32	329.633
1542.44	533.91
1546.56	387.957
1550.68	477.176
1554.79	339.191
1558.9	342.699
1563.01	27.5898
1567.12	81.1914
1571.22	225.609
1575.32	0.289063
