Measurement: Raman, 514 nm, ccw, Raman Data Processed
Mineral: Montebrasite
Rruff sample: R060890
Ideal chemistry: LiAlPO_4_(OH)
Locality: Mount Marie, Paris, Maine, USA
Source: Bob Jenkins
Description: Colorless massive
Measured chemistry: Li_1.00_Al_1.00_(P_1.00_O_4_)(OH)_0.63_F_0.37_)_Î£=1_ ; Li not measured but estimated by stoichiometry
Pin_id: M01677
Orientation: Laser parallel to b* (0 1 0). Fiducial mark perpendicular to laser is parallel to c [0 0 1]
Raman shift (cm-1)	intensity
90.678	0
95.631	3.11914
100.581	111.32
105.529	430.297
110.475	386.754
115.417	397.531
120.358	178.869
125.295	368.434
130.23	373.975
135.163	344.041
140.092	390.793
145.019	544.764
149.944	971.639
154.866	1807.17
159.785	2931.73
164.702	4005.36
169.616	3918.86
174.528	2783.15
179.437	1962.13
184.343	1283.25
189.247	838.047
194.148	843.756
199.046	370.387
203.942	198.022
208.835	405.893
213.726	254.943
218.614	201.144
223.5	216.486
228.382	154.934
233.263	60.4102
238.14	11.5
243.015	44.1914
247.888	53.5996
252.758	366.076
257.625	574.672
262.49	1209.25
267.352	1815.4
272.211	2474.33
277.068	1997.4
281.922	2013.51
286.773	2474.58
291.622	4615.63
296.469	6895.86
301.312	8814.64
306.154	6817.14
310.992	3989.34
315.828	1977.29
320.661	1230.77
325.492	803.209
330.32	625.363
335.145	383.227
339.968	311.775
344.789	324.998
349.606	274.875
354.421	325.389
359.234	253.525
364.043	355.273
368.851	484.619
373.655	131.484
378.457	276.984
383.256	155.066
388.053	127.746
392.847	73.7832
397.639	23.3516
402.428	92.5176
407.214	30.1758
411.998	27.9668
416.779	309.998
421.557	602.068
426.333	969.646
431.106	589.586
435.877	208.002
440.645	183.707
445.41	80.9062
450.173	162.639
454.933	62.0625
459.691	9.01367
464.446	343.416
469.198	607.34
473.948	1162.73
478.695	1233.43
483.439	1506.88
488.181	1643.62
492.92	1343.81
497.657	986.432
502.391	872.471
507.122	496.918
511.851	430.773
516.577	206.08
521.301	282.799
526.022	45.1035
530.74	12.0215
535.456	134.338
540.169	214.879
544.879	21.627
549.587	209.533
554.292	20.8184
558.995	2.89062
563.695	158.231
568.392	144.301
573.087	38.5879
577.779	315.584
582.469	301.938
587.156	505.227
591.84	726.684
596.522	1417.21
601.201	2044.72
605.877	1741.27
610.551	923.023
615.222	513.967
619.891	639.273
624.557	630.527
629.22	1104.36
633.881	1335.58
638.539	1730.98
643.195	2584.52
647.848	2611.21
652.498	1268.27
657.145	857.508
661.791	291.871
666.433	374.754
671.073	602.711
675.71	101.027
680.345	222.801
684.977	434.273
689.606	249.848
694.233	149.047
698.857	213.398
703.478	21.8203
708.097	200.871
712.714	244.231
717.327	17.5664
721.938	315.266
726.547	330.957
731.153	222.938
735.756	193.609
740.356	26.0195
744.954	168.141
749.55	277.711
754.142	379.445
758.733	92.4844
763.32	282
767.905	274.961
772.487	439.398
777.067	614.82
781.644	523.227
786.218	557.859
790.79	1020.2
795.359	1005.02
799.926	1345.7
804.49	1437.71
809.051	1425.88
813.61	1536.33
818.166	1151.93
822.72	822.035
827.271	716.922
831.819	554.297
836.365	504.625
840.908	432.176
845.448	271.711
849.986	376.727
854.521	222.215
859.054	440.969
863.584	272.152
868.111	8.35938
872.636	247.219
877.158	61.2461
881.677	123.227
886.194	160.223
890.709	127.16
895.22	85.5352
899.729	437.664
904.236	171.898
908.74	399.086
913.241	128.156
917.739	313.324
922.235	283.484
926.729	162.188
931.219	87.9336
935.708	315.738
940.193	51.5703
944.676	208.457
949.156	42.2305
953.634	114.066
958.109	78.9062
962.582	477.766
967.051	240.785
971.519	375.969
975.983	371.344
980.445	312.969
984.905	446.816
989.362	823.16
993.816	1675.19
998.267	2388.51
1002.72	3595.44
1007.16	4655.23
1011.61	4367.56
1016.05	3854.69
1020.49	2540.67
1024.92	1808
1029.36	1951.43
1033.79	2884.52
1038.21	3767.53
1042.64	4509.12
1047.06	5791.28
1051.48	6402.68
1055.9	8824.9
1060.32	11609.1
1064.73	10131.8
1069.14	5795.97
1073.55	2716.04
1077.95	1495.8
1082.35	1024.67
1086.75	691.668
1091.15	798.019
1095.54	773.133
1099.93	865.062
1104.32	1026.3
1108.71	1481.83
1113.09	2175.86
1117.47	2060
1121.85	2101.09
1126.23	2020.61
1130.6	1595.57
1134.97	1161.59
1139.34	1097.9
1143.7	512.606
1148.07	517.996
1152.43	408.981
1156.79	128.449
1161.14	142.07
1165.49	92.25
1169.84	276.434
1174.19	228.754
1178.54	322.051
1182.88	324.531
1187.22	548.211
1191.55	545.195
1195.89	792.277
1200.22	443.348
1204.55	613.734
1208.87	592.547
1213.2	426.152
1217.52	189.801
1221.84	291.57
1226.15	301.398
1230.47	262.254
1234.78	322.106
1239.09	155.945
1243.39	185.762
1247.69	80.5742
1251.99	174.281
1256.29	295.586
1260.59	266.785
1264.88	257.258
1269.17	197.684
1273.46	22.6406
1277.74	127.363
1282.02	61.0859
1286.3	262.328
1290.58	52.207
1294.86	406.262
1299.13	327.219
1303.39	118.125
1307.66	525.715
1311.93	505.633
1316.19	352.078
1320.45	246.461
1324.7	494.777
1328.96	101.977
1333.21	33.0547
1337.45	691.574
1341.7	384.465
1345.94	251.137
1350.18	619.66
1354.42	416.777
1358.66	103.027
1362.89	633.191
1367.12	271.285
1371.35	334.109
1375.57	656.09
1379.8	415.375
1384.02	293.457
1388.23	393.363
1392.45	452.828
1396.66	122.856
1400.87	26.4023
1405.08	268.055
1409.28	262.496
1413.48	28.2656
1417.68	307.184
1421.88	294.809
1426.07	178.867
1430.26	178.797
1434.45	172.723
1438.64	50.8594
1442.82	325.426
1447	309.719
1451.18	378.613
1455.35	177.488
1459.53	288.535
1463.7	70.6055
1467.87	214.012
1472.03	440.457
1476.19	114.738
1480.35	279.438
1484.51	58.0703
1488.67	363.441
1492.82	122.828
1496.97	571.109
1501.12	221.66
1505.26	391.418
1509.4	329.496
1513.54	390.527
1517.68	52.3828
1521.81	211.164
1525.94	329.801
1530.07	78.5312
1534.2	147.758
1538.32	688.871
1542.44	135.34
1546.56	156.469
1550.68	699.856
1554.79	295.894
1558.9	118.852
1563.01	175.184
1567.12	184.477
