Measurement: Raman, 514 nm, ccw, Raman Data Processed
Mineral: Montebrasite
Rruff sample: R040062
Ideal chemistry: LiAlPO_4_(OH)
Locality: Hebron, Maine, USA
Source: University of Arizona Mineral Museum
Description: White massive
Measured chemistry: LiAl(PO_4_)((OH)_0.62_F_0.38_)
Pin_id: L00072
Orientation: Laser parallel to (0 1 1). Fiducial mark perpendicular to laser is parallel to a [1 0 0]
Raman shift (cm-1)	intensity
114.726	0
118.915	3.771
123.102	544.85
127.286	1167.69
131.469	2118.85
135.649	1762.81
139.827	921.276
144.003	555.041
148.177	577.021
152.348	724.772
156.517	915.76
160.685	1250.2
164.85	1463.9
169.012	1172.68
173.173	830.593
177.332	559.346
181.488	569.639
185.642	656.695
189.794	664.839
193.944	640.508
198.092	524.229
202.237	369.567
206.38	225.705
210.522	142.562
214.661	109.984
218.798	57.837
222.932	64.004
227.065	84.363
231.196	42.806
235.324	21.206
239.45	40.379
243.574	28.128
247.696	143.082
251.816	95.909
255.933	15.338
260.049	33.114
264.162	161.041
268.274	368.361
272.383	595.02
276.49	711.632
280.595	690.133
284.697	992.712
288.798	2097.08
292.896	5101.6
296.993	9906.53
301.087	10070.8
305.179	6714.65
309.269	4798.22
313.357	3461.37
317.443	2233.97
321.527	1766.09
325.608	1307.79
329.688	999.102
333.765	729.939
337.84	569.91
341.913	339.356
345.984	397.484
350.053	314.854
354.12	322.822
358.185	400.559
362.248	482.059
366.308	400.958
370.367	353.578
374.423	416.66
378.478	388.385
382.53	372.737
386.58	412.379
390.628	406.221
394.674	383.284
398.718	359.021
402.76	272.099
406.799	363.598
410.837	251.434
414.873	489.334
418.906	1020.11
422.938	2971.15
426.967	3347.09
430.994	1363.39
435.02	489.598
439.043	325.713
443.064	261.704
447.083	257.545
451.1	183.261
455.115	198.828
459.128	204.225
463.139	279.388
467.147	384.318
471.154	719.021
475.159	1003.48
479.161	1477.69
483.162	1641.66
487.161	1505.38
491.157	1218.86
495.151	992.092
499.144	755.085
503.134	557.848
507.123	390.379
511.109	332.695
515.093	124.785
519.075	33.105
523.055	358.789
527.034	70.24
531.01	28.42
534.984	23.512
538.956	54.422
542.926	2.527
546.894	52.773
550.86	2.975
554.824	30.262
558.786	31.438
562.746	155.346
566.704	86.061
570.66	279.395
574.614	95.068
578.565	255.004
582.515	378.449
586.463	589.373
590.409	847.934
594.353	1737.08
598.295	3894.84
602.235	4721.37
606.172	2344.86
610.108	1324.07
614.042	1017.98
617.974	1007.02
621.904	1402.07
625.832	2148.19
629.758	3022.75
633.681	2996.27
637.603	4249.45
641.523	9402.28
645.441	13094.8
649.357	7196.91
653.271	3238.7
657.183	1620.15
661.093	1081.26
665.001	632.02
668.907	442.59
672.811	241.125
676.713	337.953
680.613	276.049
684.511	285.773
688.407	167.938
692.302	94.035
696.194	190.441
700.084	7.361
703.972	147.908
707.859	26.158
711.743	157.43
715.626	257.791
719.506	330.701
723.384	0.758
727.261	47.658
731.136	134.73
735.008	277.631
738.879	130.088
742.748	112.004
746.614	135.215
750.479	126.496
754.342	147.443
758.203	198.107
762.062	21.629
765.919	91.797
769.774	32.441
773.627	106.545
777.479	59.939
781.328	150.107
785.175	308.324
789.021	497.762
792.864	475.547
796.706	413.133
800.545	520.525
804.383	667.736
808.219	464.768
812.053	341.631
815.885	118.334
819.715	464.885
823.543	251.289
827.369	2.684
831.193	213.475
835.016	309.115
838.836	74.943
842.654	139.979
846.471	123.914
850.286	261.621
854.099	47.748
857.909	28.674
861.718	285.992
865.525	203.174
869.331	479.578
873.134	3.189
876.935	405.596
880.735	513.156
884.532	67.771
888.328	51.859
892.122	259.213
895.913	66.145
899.703	148.482
903.491	242.199
907.278	117.211
911.062	123.131
914.844	67.305
918.625	147.18
922.404	176.906
926.18	93.566
929.955	73.514
933.728	105.455
937.499	77.891
941.269	39.646
945.036	87.406
948.801	265.389
952.565	383.609
956.327	92.064
960.087	210.766
963.845	159.713
967.601	398.922
971.355	658.545
975.107	558.367
978.858	937.758
982.607	1098.41
986.353	1429.5
990.098	2217.58
993.841	3597.7
997.583	6057.36
1001.32	9595.18
1005.06	13678.3
1008.79	17365.3
1012.53	15549.5
1016.26	11474
1019.99	7689.69
1023.72	5255.78
1027.45	3662.55
1031.17	3599.8
1034.89	3767.56
1038.61	5015.93
1042.33	6264.96
1046.05	7492.76
1049.77	8942.53
1053.48	12662.7
1057.19	19563.1
1060.9	19353.9
1064.61	11955
1068.32	5836.57
1072.02	3368.49
1075.72	2160.73
1079.42	1447.24
1083.12	1079.83
1086.82	841.643
1090.51	525.451
1094.21	819.223
1097.9	1173.49
1101.59	1387.98
1105.28	2052.4
1108.96	2137.11
1112.65	2081.89
1116.33	1858.83
1120.01	1721.2
1123.69	1278.54
1127.37	1311.07
1131.04	843.893
1134.71	500.908
1138.39	341.064
1142.06	30.021
1145.72	395.914
1149.39	349.465
1153.05	363.34
1156.72	291.021
1160.38	715.297
1164.04	126.799
1167.69	214.826
1171.35	276.467
1175	429.379
1178.65	820.875
1182.31	1261.41
1185.95	1517.25
1189.6	1878.25
1193.24	1217.96
1196.89	1166.6
1200.53	715.133
1204.17	652.449
1207.81	878.617
1211.44	1024.84
1215.07	741.609
1218.71	458.383
1222.34	404.727
1225.97	545.805
1229.59	258
1233.22	304.035
1236.84	728.73
1240.46	841.953
1244.08	464.973
1247.7	627.105
1251.32	337.621
1254.93	368.203
1258.54	90.055
1262.15	231.961
1265.76	161.652
1269.37	438.965
1272.98	555.578
1276.58	161.277
1280.18	235.676
1283.78	249.281
1287.38	142.383
1290.98	63.164
1294.57	86.324
1298.17	55.379
