Measurement: Raman, 514 nm, ccw, Raman Data Processed
Mineral: Montebrasite
Rruff sample: R040060
Ideal chemistry: LiAlPO_4_(OH)
Locality: Oxford County, Maine, USA
Source: University of Arizona Mineral Museum
Description: White massive
Measured chemistry: LiAl(PO_4_)((OH)_0.79_F_0.21_)
Pin_id: L00466
Orientation: Laser parallel to (-1 0 -1). Fiducial mark perpendicular to laser is parallel to b [0 1 0]
Raman shift (cm-1)	intensity
108.603	0
112.787	791.384
116.97	2730.59
121.15	1375.56
125.328	660.645
129.504	1462.44
133.678	2752.18
137.85	2744.92
142.02	1306.61
146.188	304.019
150.354	149.038
154.517	184.905
158.679	443.971
162.839	880.726
166.996	1317.58
171.152	1489.34
175.305	1076.79
179.456	1047.34
183.605	1026.73
187.752	1195.9
191.898	1362.44
196.041	1333.05
200.182	876.333
204.321	416.344
208.457	81.935
212.592	55.914
216.725	35.117
220.856	126.399
224.984	182.215
229.111	114.079
233.236	108.564
237.358	64
241.479	55.876
245.597	139.192
249.713	107.398
253.828	131.665
257.94	4.368
262.05	14.651
266.159	434.764
270.265	1298.72
274.369	2426.83
278.471	2526
282.572	1869.01
286.67	1923.19
290.766	3538.65
294.86	8333.55
298.952	12438.4
303.042	9242.4
307.13	5585.55
311.216	4038.03
315.3	3009.65
319.382	2560.5
323.462	2150.64
327.54	1409.83
331.616	730.306
335.69	408.211
339.762	230.36
343.832	175.754
347.9	104.88
351.965	76.772
356.029	16.488
360.091	105.655
364.151	183.754
368.209	293.798
372.265	211.114
376.319	254.134
380.371	325.252
384.421	440.657
388.469	464.43
392.515	509.003
396.559	508.869
400.601	577.791
404.641	590.025
408.679	794.99
412.715	825.931
416.749	1200.29
420.781	2877.59
424.811	7676.79
428.839	8351.86
432.866	3367.31
436.89	1302.55
440.912	687.459
444.932	881.953
448.951	295.998
452.967	969.553
456.981	272.607
460.994	335.15
465.004	527.183
469.013	678.707
473.019	1259.73
477.024	2080.25
481.026	2920.28
485.027	3219.81
489.026	2918.85
493.023	2597.41
497.017	2215.49
501.01	1851.97
505.001	1226.55
508.99	684.9
512.977	453.997
516.962	188.373
520.945	218.046
524.927	10.281
528.906	15.781
532.883	63.83
536.858	50.02
540.832	85.846
544.803	30.694
548.773	84.192
552.741	90.111
556.706	79.055
560.67	92.952
564.632	115.051
568.592	151.848
572.55	161.225
576.506	253.035
580.46	328.231
584.412	424.508
588.363	652.709
592.311	1010.92
596.258	2032.02
600.202	3711.05
604.145	3459.81
608.086	2017.11
612.024	1283.06
615.961	1337.87
619.896	1412.35
623.829	2546.19
627.761	4239.63
631.69	4262.57
635.617	3455.02
639.543	5136.98
643.466	10918.5
647.388	12489.5
651.308	6499.97
655.226	2819.98
659.142	1499.5
663.056	838.568
666.968	607.227
670.879	465.509
674.787	492.423
678.694	217.466
682.598	120.972
686.501	551.17
690.402	222.792
694.301	29.568
698.198	121.634
702.093	55.981
705.987	21.518
709.878	7.82
713.768	171.68
717.656	65.228
721.542	53.317
725.426	112.177
729.308	42.499
733.188	80.007
737.067	26.059
740.943	137.284
744.818	5.874
748.691	122.454
752.562	98.462
756.431	84.431
760.298	103.528
764.163	179.165
768.027	253.631
771.888	337.307
775.748	350.568
779.606	405.127
783.462	577.598
787.317	989.678
791.169	1471.38
795.019	2025.88
798.868	2586.84
802.715	2617.44
806.56	2387.68
810.403	1997.58
814.245	1427.13
818.084	1036.36
821.922	845.26
825.758	453.842
829.592	371.506
833.424	288.762
837.254	304.543
841.082	100.697
844.909	156.391
848.734	39.277
852.557	212.924
856.378	185.527
860.197	107.445
864.015	58.764
867.831	11.029
871.645	163.793
875.457	72.627
879.267	100.734
883.075	4.301
886.882	97.086
890.687	19.098
894.49	17.611
898.291	193.65
902.09	80.125
905.888	50.164
909.683	98.324
913.477	26.959
917.269	14.947
921.06	87.605
924.848	80.387
928.635	56.807
932.42	116.525
936.203	79.855
939.984	143.193
943.764	226.551
947.541	319.875
951.317	253.209
955.091	256.588
958.864	460.021
962.634	1223.52
966.403	2037.1
970.17	1120.77
973.935	764.553
977.698	1018.44
981.46	1012.45
985.22	1326.6
988.978	1830.71
992.734	2814.94
996.488	3819.64
1000.24	5764.09
1003.99	9297.87
1007.74	14369.2
1011.49	18354.4
1015.23	15790.1
1018.98	10305
1022.72	6458.67
1026.46	4833.45
1030.2	4668.75
1033.93	5403.29
1037.67	7391.28
1041.4	10592.4
1045.13	14275.8
1048.86	13614.2
1052.59	13083.5
1056.32	15983.1
1060.04	18678.4
1063.77	14207.8
1067.49	8107.52
1071.2	4288.25
1074.92	2579.26
1078.64	1858.88
1082.35	1560.48
1086.06	1182.4
1089.78	1154.62
1093.48	1007.14
1097.19	1026.81
1100.89	1479.98
1104.6	2433.48
1108.3	3867.32
1112	3481.51
1115.7	3557.62
1119.39	2393.13
1123.09	1988.44
1126.78	1364.32
1130.47	810.451
1134.16	439.084
1137.85	126.168
1141.54	293.719
1145.22	399.674
1148.9	348.127
1152.58	177.018
1156.26	156.441
1159.94	56.312
1163.62	136.5
1167.29	256.572
1170.96	297.307
1174.63	571.062
1178.3	731.203
1181.97	927.695
1185.63	1095.34
1189.3	1503.7
1192.96	1322.59
1196.62	1142.13
1200.28	1202.25
1203.93	1052.93
1207.59	814.189
1211.24	516.045
1214.89	468.547
1218.54	91.629
1222.19	75.27
1225.84	79.438
1229.48	334.148
1233.13	359.359
1236.77	273.23
1240.41	219.084
1244.05	245.398
1247.68	142.166
1251.32	118.975
1254.95	136.777
1258.58	225.574
1262.21	625.365
1265.84	536.18
1269.46	448.037
1273.09	280.971
1276.71	44.973
1280.33	30.312
1283.95	97.105
1287.57	104.471
1291.18	135.914
1294.8	377.988
1298.41	650.627
1302.02	492.945
1305.63	467.482
1309.24	308.234
1312.84	125.471
1316.45	7.312
1320.05	295.092
1323.65	0
