Measurement: Raman, 514 nm, ccw, Raman Data Processed
Mineral: Montebrasite
Rruff sample: R040060
Ideal chemistry: LiAlPO_4_(OH)
Locality: Oxford County, Maine, USA
Source: University of Arizona Mineral Museum
Description: White massive
Measured chemistry: LiAl(PO_4_)((OH)_0.79_F_0.21_)
Pin_id: L00171
Orientation: Laser parallel to (-1 -1 0). Fiducial mark perpendicular to laser is parallel to c [0 0 1]
Raman shift (cm-1)	intensity
121.15	0
125.328	70.479
129.504	918.299
133.678	1984.15
137.85	2108.51
142.02	862.153
146.188	291.33
150.354	3.727
154.517	22.591
158.679	224.169
162.839	236.606
166.996	419.214
171.152	373.221
175.305	280.764
179.456	253.072
183.605	380.637
187.752	646.381
191.898	772.842
196.041	816.921
200.182	520.799
204.321	137.49
208.457	55.898
212.592	14.227
216.725	61.49
220.856	142.187
224.984	302.837
229.111	326.492
233.236	240.26
237.358	275.828
241.479	173.887
245.597	171.889
249.713	135.865
253.828	88.025
257.94	80.171
262.05	152.362
266.159	264.592
270.265	926.847
274.369	1429.06
278.471	1571.2
282.572	1303.28
286.67	1585.35
290.766	2808.94
294.86	7073.23
298.952	10307.7
303.042	7261.95
307.13	3886.14
311.216	2570.32
315.3	2024.33
319.382	1925.92
323.462	1489.51
327.54	833.486
331.616	496.951
335.69	300.191
339.762	163.421
343.832	76.632
347.9	49.774
351.965	17.208
356.029	16.284
360.091	10.167
364.151	65.548
368.209	31.516
372.265	72.623
376.319	30.41
380.371	99.738
384.421	133.577
388.469	316.516
392.515	409.984
396.559	422.928
400.601	465.041
404.641	638.188
408.679	821.36
412.715	963.284
416.749	1556.03
420.781	4176.81
424.811	11517.5
428.839	11198.4
432.866	3999.38
436.89	1350.29
440.912	661.175
444.932	432.089
448.951	192.994
452.967	223.82
456.981	204.521
460.994	355.084
465.004	375.497
469.013	485.755
473.019	855.852
477.024	1425.79
481.026	2065.59
485.027	2225.22
489.026	2244.68
493.023	2003.97
497.017	1843.09
501.01	1272.03
505.001	900.702
508.99	494.544
512.977	369.215
516.962	223.112
520.945	24.518
524.927	11.212
528.906	1.486
532.883	39.015
536.858	63.843
540.832	93.882
544.803	76.127
548.773	4.886
552.741	185.756
556.706	134.414
560.67	176.041
564.632	183.167
568.592	208.754
572.55	97.581
576.506	157.331
580.46	216.444
584.412	238.864
588.363	421.282
592.311	519.749
596.258	957.019
600.202	1708.91
604.145	1485.71
608.086	1100.88
612.024	696.873
615.961	800.174
619.896	1043.28
623.829	1755.35
627.761	2726.97
631.69	3088.31
635.617	3309.37
639.543	6660.16
643.466	14930.7
647.388	17030.9
651.308	8180.86
655.226	3610.53
659.142	1769.93
663.056	1009.05
666.968	807.934
670.879	516.59
674.787	454.395
678.694	244.096
682.598	190.096
686.501	136.184
690.402	308.547
694.301	236.621
698.198	36.725
702.093	62.48
705.987	22.402
709.878	53.271
713.768	77.615
717.656	197.104
721.542	103.848
725.426	186.385
729.308	149.533
733.188	62.062
737.067	64.695
740.943	21.943
744.818	94.182
748.691	3.633
752.562	40.021
756.431	58.811
760.298	31.844
764.163	7.426
768.027	132.561
771.888	42.309
775.748	281.807
779.606	218.256
783.462	177.322
787.317	456.182
791.169	614.842
795.019	1023.3
798.868	1281.57
802.715	1229.66
806.56	967.566
810.403	805.297
814.245	572.859
818.084	450.254
821.922	297.492
825.758	304.574
829.592	361.514
833.424	148.295
837.254	134.699
841.082	40.277
844.909	66.514
848.734	1.709
852.557	31.959
856.378	15.812
860.197	46.863
864.015	91.422
867.831	75.18
871.645	34.898
875.457	178.684
879.267	194.277
883.075	255.854
886.882	166.014
890.687	60.758
894.49	40.887
898.291	8.406
902.09	259.979
905.888	149.477
909.683	175.324
913.477	82.432
917.269	3.785
921.06	118.658
924.848	102.99
928.635	78.203
932.42	203.631
936.203	129.328
939.984	145.113
943.764	250.988
947.541	196.961
951.317	313.043
955.091	219.234
958.864	315.533
962.634	621.949
966.403	998.488
970.17	815.152
973.935	741.961
977.698	918.99
981.46	1116.16
985.22	1170.28
988.978	1887.67
992.734	2675.7
996.488	3864.85
1000.24	5602.89
1003.99	8999.9
1007.74	13804.4
1011.49	17223.3
1015.23	14652.9
1018.98	9469.11
1022.72	5937.26
1026.46	4416.04
1030.2	4297.25
1033.93	5028.44
1037.67	7170.1
1041.4	10582.4
1045.13	14015.2
1048.86	13164.5
1052.59	10887.9
1056.32	11259.6
1060.04	11853.4
1063.77	8597.6
1067.49	5031.53
1071.2	2906.03
1074.92	1930.72
1078.64	1385.5
1082.35	1103.24
1086.06	868.742
1089.78	843.871
1093.48	839.1
1097.19	835.051
1100.89	801.07
1104.6	1126.84
1108.3	1662.4
1112	1478.76
1115.7	1155.58
1119.39	1013
1123.09	1096.07
1126.78	732.707
1130.47	410.4
1134.16	288.68
1137.85	31.652
1141.54	100.789
1145.22	258.627
1148.9	130.619
1152.58	150.461
1156.26	0.053
1159.94	100.803
1163.62	48.168
1167.29	94.561
1170.96	145.365
1174.63	436.49
1178.3	511.826
1181.97	677.078
1185.63	827.691
1189.3	927.197
1192.96	838.52
1196.62	764.672
1200.28	590.727
1203.93	905.023
1207.59	550.947
1211.24	465.768
1214.89	560.334
1218.54	315.084
1222.19	278.953
1225.84	293.102
1229.48	126.248
1233.13	409.094
1236.77	480.969
1240.41	443.453
1244.05	324.539
1247.68	216.182
1251.32	286.668
1254.95	166.457
1258.58	156.029
1262.21	336.275
1265.84	404.912
1269.46	352.844
1273.09	190.223
1276.71	136.32
1280.33	11.906
1283.95	174.791
1287.57	102.158
1291.18	18.17
1294.8	99.412
1298.41	260.457
1302.02	260.404
1305.63	79.633
1309.24	68.152
1312.84	4.195
1316.45	137.314
1320.05	221.293
1323.65	46.219
1327.25	58.025
1330.85	261.527
1334.44	74.385
1338.04	286.441
1341.63	117.885
1345.22	148.797
1348.81	69.23
1352.4	49.238
1355.98	48.871
1359.57	218.215
1363.15	217.393
1366.73	316.541
1370.31	296.242
1373.89	305.797
1377.46	177.613
1381.04	228.182
1384.61	307.838
1388.18	166.365
1391.75	353.242
1395.32	391.73
1398.88	411.883
1402.45	494.445
1406.01	564.914
1409.57	445.994
1413.13	294.039
1416.69	202.109
1420.24	35.977
1423.8	231.77
1427.35	225.336
1430.9	99.129
1434.45	432.57
1438	447.461
1441.55	428.652
1445.09	537.359
1448.63	545.898
1452.18	441.949
1455.71	548.512
1459.25	293.805
1462.79	433.582
1466.32	114.332
1469.86	399.648
1473.39	600.785
1476.92	423.008
1480.45	573.625
1483.97	636.492
1487.5	570.898
1491.02	608.863
1494.54	451.145
1498.06	457.695
1501.58	330.895
1505.1	144.07
1508.62	163.055
1512.13	5.004
