Measurement: Raman, 514 nm, ccw, Raman Data Processed
Mineral: Montebrasite
Rruff sample: R040062
Ideal chemistry: LiAlPO_4_(OH)
Locality: Hebron, Maine, USA
Source: University of Arizona Mineral Museum
Description: White massive
Measured chemistry: LiAl(PO_4_)((OH)_0.62_F_0.38_)
Pin_id: L00090
Orientation: Laser parallel to -b* (0 -1 0). Fiducial mark perpendicular to laser is parallel to c [0 0 1]
Raman shift (cm-1)	intensity
125.892	0
130.075	983.137
134.256	1369.22
138.435	640.015
142.611	101.057
146.786	44.356
150.958	74.205
155.128	216.399
159.296	594.478
163.462	746.97
167.625	800.401
171.786	466.532
175.946	318.785
180.103	103.935
184.258	42.98
188.41	217.614
192.561	48.293
196.709	64.611
200.856	158.246
205	52.535
209.142	147.402
213.281	57.352
217.419	188.35
221.554	174.449
225.688	19.035
229.819	67.842
233.948	145.025
238.075	32.455
242.2	20.094
246.322	137.822
250.443	126.311
254.561	35.279
258.677	64.422
262.791	93.871
266.903	183.475
271.013	363.354
275.121	443.359
279.226	483.523
283.33	623.842
287.431	1034.31
291.53	2013.57
295.627	5052.62
299.722	7592.95
303.815	6073.56
307.906	4324.57
311.995	3224.21
316.081	2245.51
320.166	1466.84
324.248	1228.12
328.328	1129.23
332.406	890.246
336.482	701.229
340.556	521.863
344.628	492.541
348.697	333.227
352.765	354.02
356.83	471.375
360.894	411.66
364.955	463.408
369.014	494.711
373.071	457.834
377.126	471.334
381.179	384.605
385.23	287.48
389.279	491.541
393.325	393.617
397.37	504.617
401.413	224.594
405.453	193.307
409.491	395.756
413.528	178.4
417.562	350.35
421.594	803.256
425.624	1716.32
429.652	1069.46
433.678	382.594
437.702	365.74
441.724	348.889
445.743	242.037
449.761	395.176
453.777	178.309
457.79	81.504
461.802	214.818
465.811	508.207
469.819	341.582
473.824	455.033
477.827	668.447
481.829	801.812
485.828	685.129
489.825	658.4
493.82	541.629
497.813	604.799
501.804	567.92
505.793	431.002
509.78	444.066
513.765	147.131
517.748	58.652
521.729	12.705
525.708	63.988
529.685	151.418
533.659	91.182
537.632	364.369
541.603	79.482
545.571	122.771
549.538	274.914
553.503	35.971
557.465	107.531
561.426	6.898
565.385	17.24
569.341	277.846
573.296	319.191
577.248	358.295
581.199	261.199
585.147	441.723
589.094	392.66
593.038	662.512
596.981	1732.91
600.922	2903.06
604.86	2263.12
608.797	1352.6
612.731	811.801
616.664	642.598
620.594	788.184
624.523	770.709
628.449	1256.59
632.374	1624.68
636.296	2222.41
640.217	4259.85
644.135	8567.06
648.052	7515.26
651.967	3262.05
655.879	1809.09
659.79	1125.43
663.698	795.744
667.605	476.643
671.51	392.516
675.413	468.148
679.313	332.557
683.212	262.443
687.109	330.338
691.004	472.205
694.897	36.045
698.788	368.248
702.677	124.711
706.564	41.01
710.449	327.553
714.332	159.779
718.213	19.674
722.092	406.455
725.969	187.924
729.844	140.365
733.718	138.824
737.589	108.592
741.458	51.174
745.326	210.717
749.191	210.068
753.055	129.221
756.916	48.172
760.776	236.918
764.634	335.486
768.489	343.871
772.343	231.879
776.195	30.51
780.045	226.771
783.893	263.824
787.739	290.588
791.583	207.199
795.425	173.668
799.266	40
803.104	237.762
806.94	343.797
810.775	519.703
814.608	545.91
818.438	471.496
822.267	296.883
826.094	282.074
829.919	347.164
833.742	280.699
837.563	32.91
841.382	312.094
845.199	216.695
849.014	398.574
852.828	502.188
856.639	75.086
860.449	258.305
864.257	185.184
868.062	316.258
871.866	478.074
875.668	352.383
879.468	42.355
883.267	61.969
887.063	217.031
890.857	321.703
894.65	635.648
898.44	390.938
902.229	666.285
906.016	110.637
909.801	294.98
913.584	540.508
917.365	305.723
921.144	261.094
924.922	454.738
928.697	49.5
932.471	125.109
936.242	283.285
940.012	389.199
943.78	345.41
947.546	361.797
951.311	82.188
955.073	313.66
958.834	300.312
962.592	826.566
966.349	253.359
970.104	86.031
973.857	208.016
977.608	374.941
981.357	621.973
985.105	1499.43
988.85	1496.1
992.594	2173.89
996.336	2836.91
1000.08	4220.07
1003.81	7408.45
1007.55	10127.1
1011.28	11265
1015.02	9197.78
1018.75	6217.48
1022.48	4187.17
1026.2	2877.4
1029.93	2377.11
1033.65	2587.59
1037.37	2648.46
1041.09	3689.72
1044.81	4191.85
1048.53	5223.72
1052.24	7025.85
1055.95	10668.3
1059.66	14361.6
1063.37	11404
1067.08	6096.09
1070.79	3168.43
1074.49	1790.12
1078.19	1302.05
1081.89	1154.1
1085.59	1019.22
1089.28	880.68
1092.98	606.066
1096.67	605.348
1100.36	677.75
1104.05	1099.07
1107.73	1560.34
1111.42	1729.55
1115.1	1737.21
1118.78	1611.52
1122.46	1316.33
1126.14	1034.37
1129.82	857.145
1133.49	663.191
1137.16	879.738
1140.83	716.34
1144.5	233.129
1148.17	160.109
1151.83	237.035
1155.5	194.523
1159.16	217.645
1162.82	490.512
1166.47	429.059
1170.13	768.07
1173.79	417.555
1177.44	457.156
1181.09	527.223
1184.74	457.996
1188.38	699.746
1192.03	1092.45
1195.67	715.895
1199.31	1087.68
1202.95	899.816
1206.59	497.895
1210.23	320.387
1213.86	209.891
1217.5	551.715
1221.13	653.02
1224.76	604.863
1228.38	791.453
1232.01	1145.8
1235.63	425.195
1239.26	242.078
1242.88	57.418
1246.49	344.219
1250.11	56.129
1253.73	307.32
1257.34	309.859
