Measurement: Raman, 514 nm, ccw, Raman Data Processed
Mineral: Montebrasite
Rruff sample: R040060
Ideal chemistry: LiAlPO_4_(OH)
Locality: Oxford County, Maine, USA
Source: University of Arizona Mineral Museum
Description: White massive
Measured chemistry: LiAl(PO_4_)((OH)_0.79_F_0.21_)
Pin_id: L00171
Orientation: Laser parallel to (-1 -1 0). Fiducial mark perpendicular to laser is parallel to c [0 0 1]
Raman shift (cm-1)	intensity
122.543	0
126.72	194.181
130.896	1300.61
135.069	2203.91
139.24	1925.19
143.41	729.291
147.577	157.694
151.742	80.104
155.905	314.163
160.066	541.222
164.225	1211.34
168.381	1566.56
172.536	1378.9
176.689	1056.17
180.839	695.912
184.988	893.675
189.134	1151.29
193.279	1124.32
197.421	1104.96
201.561	835.804
205.7	446.791
209.836	158.225
213.97	100.316
218.102	192.982
222.232	76.127
226.36	29.635
230.486	103.401
234.61	87.796
238.732	45.192
242.852	37.604
246.969	71.787
251.085	67.697
255.199	53.34
259.31	11.039
263.42	24.703
267.528	609.124
271.633	1192.09
275.737	1964.52
279.838	1746.81
283.938	1399.08
288.035	1973.37
292.131	4940.59
296.224	11209.3
300.315	12608.4
304.405	8047.14
308.492	5595.85
312.578	4404.38
316.661	2902.66
320.742	2280.57
324.821	1798
328.899	1165.01
332.974	591.67
337.047	478.021
341.119	313.987
345.188	129.307
349.255	103.714
353.32	136.971
357.384	71.425
361.445	135.699
365.504	80.426
369.561	255.745
373.617	313.175
377.67	239.121
381.721	334.512
385.77	398.749
389.818	463.753
393.863	577.595
397.906	577.494
401.948	601.748
405.987	436.156
410.025	562.605
414.06	680.943
418.093	904.871
422.125	2477.07
426.154	5395.29
430.182	3877.11
434.207	1518.87
438.231	540.553
442.252	442.129
446.272	113.594
450.29	194.904
454.305	216.027
458.319	116.924
462.331	217.582
466.341	367.998
470.348	578.162
474.354	978.072
478.358	1697.73
482.36	2117.12
486.36	2076.26
490.358	1915.15
494.354	1773.77
498.349	1412.14
502.341	940.252
506.331	507.801
510.319	404.191
514.306	10.633
518.29	146.16
522.273	102.314
526.253	38.564
530.232	25.551
534.208	137.332
538.183	9.73
542.156	107.414
546.127	54.482
550.096	92.383
554.063	6.662
558.028	186.195
561.991	52.598
565.952	10.883
569.911	156.629
573.869	136.703
577.824	298.305
581.778	319.049
585.729	534.467
589.679	854.613
593.627	1432.43
597.573	3315.7
601.517	5189.86
605.459	3501.26
609.399	1842.07
613.337	1272.7
617.273	1162.12
621.208	1412.01
625.14	2371.21
629.071	3199.84
632.999	2988.1
636.926	3175.98
640.851	5993.5
644.774	11570.6
648.695	9607.42
652.614	4373.83
656.531	2059.86
660.447	1075.52
664.36	790.82
668.272	395.76
672.182	329.17
676.089	432.398
679.995	334.262
683.899	445.328
687.802	218.348
691.702	77.229
695.6	115.957
699.497	29.842
703.391	154.621
707.284	6.02
711.175	113.578
715.064	35.391
718.951	34.137
722.837	51.895
726.72	10.246
730.601	37.232
734.481	33.84
738.359	22.545
742.235	57.377
746.109	20.186
749.981	64.574
753.851	24.979
757.72	80.516
761.587	204.143
765.451	157.445
769.314	162.725
773.175	85.395
777.034	187.748
780.892	370.424
784.747	492.195
788.601	803.688
792.453	1274.91
796.303	1655.86
800.151	1866.56
803.997	1757
807.841	1647.2
811.684	1137.16
815.525	1016.89
819.363	1076.39
823.201	475.672
827.036	404.75
830.869	573.562
834.701	521.895
838.53	0.279
842.358	116.475
846.184	72.848
850.008	209.096
853.831	103.484
857.651	29.604
861.47	72.211
865.287	32.137
869.102	18.811
872.915	22.637
876.727	59.844
880.536	26.859
884.344	75.621
888.15	88.727
891.954	98.926
895.757	130.098
899.557	71.326
903.356	126.18
907.153	9.871
910.948	65.195
914.741	191.68
918.533	137.598
922.323	103.656
926.111	139.822
929.897	253.096
933.681	103.818
937.463	151.033
941.244	158.365
945.023	45.82
948.8	233.402
952.575	61.123
956.349	358.988
960.121	536.994
963.891	1095.15
967.659	1023.47
971.425	771.943
975.19	840.594
978.952	849.424
982.713	1328.45
986.473	1737.8
990.23	2425.9
993.986	3264.05
997.739	4604.77
1001.49	7375.24
1005.24	12080.2
1008.99	17861.6
1012.74	20151.4
1016.48	15376.5
1020.23	9722.66
1023.97	6274.49
1027.71	4424.61
1031.44	4097.73
1035.18	4799.28
1038.91	6184.73
1042.65	9346.92
1046.38	11583
1050.11	11318
1053.84	13385.2
1057.56	19476.8
1061.28	21043
1065.01	13441
1068.73	6739.21
1072.44	3955.34
1076.16	2174.07
1079.88	1622.32
1083.59	1331.38
1087.3	1111.21
1091.01	961.195
1094.72	1100.88
1098.42	1171.53
1102.13	1482.55
1105.83	2803.11
1109.53	3673.84
1113.23	3184.7
1116.93	2295.78
1120.63	1887.21
1124.32	1309.07
1128.01	591.621
1131.7	572.938
1135.39	427.305
1139.08	365.348
1142.77	436.535
1146.45	263.051
1150.13	131.566
1153.81	117.355
1157.49	22.094
1161.17	123.309
1164.84	377.672
1168.51	288.934
1172.18	431.492
1175.86	538.305
1179.52	811.59
1183.19	842.918
1186.86	1414.02
1190.52	1509.41
1194.18	1484.72
1197.84	1367.47
1201.5	1418.31
1205.15	779.832
1208.81	540.77
1212.46	540.859
1216.11	250.742
1219.76	223.945
1223.41	353.078
1227.05	454.625
1230.7	393.586
1234.34	498.75
1237.98	428.055
1241.62	116.477
1245.26	182.984
1248.89	288.867
1252.53	323.824
1256.16	359.32
1259.79	443.738
1263.42	648.934
1267.05	341.988
1270.67	294.484
1274.3	93.98
1277.92	138.16
1281.54	23.133
1285.16	93.832
1288.77	310.668
1292.39	235.508
1296	129.828
1299.61	154.449
1303.22	97.129
1306.83	14.078
1310.44	143.371
1314.05	316.227
1317.65	64.668
1321.25	28
1324.85	348.234
1328.45	293.258
1332.05	167.27
1335.64	40.184
1339.24	232.168
1342.83	66.43
1346.42	194.039
1350.01	384.41
1353.59	383.566
1357.18	642.805
1360.76	461.012
1364.34	382.051
1367.92	83.027
1371.5	109.027
1375.08	25.828
1378.65	267.531
1382.23	150.578
1385.8	472.191
1389.37	872.344
1392.94	630.332
1396.51	737.637
1400.07	515.148
1403.64	550.477
1407.2	626.844
1410.76	305.887
1414.32	286.73
1417.87	473.344
1421.43	424.426
1424.98	582.18
1428.54	548.023
1432.09	668.512
1435.63	398.859
1439.18	641.746
1442.73	580.16
1446.27	613.926
1449.82	283.367
1453.36	319.918
1456.89	508.34
1460.43	558.559
1463.97	892.297
1467.5	749.973
1471.04	957.348
1474.57	1141.33
1478.1	548.684
1481.62	768.461
1485.15	330.559
1488.67	16.75
1492.2	257.23
1495.72	52.434
1499.24	307.246
1502.76	126.676
1506.27	481.414
