Measurement: Raman, 514 nm, ccw, Raman Data Processed
Mineral: Monticellite
Rruff sample: R040115
Ideal chemistry: CaMgSiO_4_
Locality: Magnet Cove, Arkansas, USA
Source: University of Arizona Mineral Museum
Description: Brown blebs in matrix
Measured chemistry: Ca_0.99_(Mg_0.85_ Fe_0.12_Mn_0.03_)Si_1.00_O_4_
Pin_id: M00451
Orientation: Laser parallel to c* (0 0 1). Fiducial mark perpendicular to laser is parallel to -a [-1 0 0]
Raman shift (cm-1)	intensity
110.777	0
114.949	31.793
119.119	88.417
123.286	84.412
127.452	68.873
131.615	76.005
135.777	157.322
139.937	154.771
144.094	76.987
148.25	20.733
152.403	117.018
156.555	259.363
160.705	477.275
164.853	623.692
168.998	741.691
173.142	720.984
177.284	270.971
181.424	121.099
185.562	1.946
189.698	10.819
193.831	13.557
197.963	37.99
202.093	115.612
206.221	51.476
210.347	82.525
214.472	40.741
218.594	37.313
222.714	111.422
226.832	91.863
230.948	126.038
235.063	273.415
239.175	412.236
243.286	637.799
247.394	1284.84
251.501	3440.43
255.605	6250.86
259.708	5850.1
263.808	2373.14
267.907	893.991
272.004	392.895
276.099	320.109
280.192	168.828
284.283	127.872
288.372	60.856
292.459	169.155
296.544	222.413
300.627	430.246
304.709	661.012
308.788	443.438
312.865	149.417
316.941	60.482
321.015	53.904
325.086	28.767
329.156	112.313
333.224	20.066
337.29	82.473
341.354	33.578
345.416	16.712
349.476	55.405
353.534	33.293
357.591	25.476
361.645	16.595
365.698	10.816
369.748	9.124
373.797	81.396
377.844	72.814
381.889	118.035
385.932	206.057
389.973	457.858
394.012	760.432
398.049	1383.68
402.084	2145.69
406.118	2469.47
410.15	2051.07
414.179	1105.48
418.207	539.683
422.233	410.686
426.257	227.486
430.279	162.082
434.299	9.468
438.318	100.596
442.334	116.489
446.349	107.125
450.361	44.48
454.372	65.515
458.381	42.224
462.388	19.557
466.394	8.871
470.397	7.955
474.398	20.386
478.398	22.516
482.396	38.674
486.391	57.095
490.385	29.822
494.377	4.495
498.368	20.649
502.356	106.213
506.342	76.316
510.327	82.938
514.31	208.302
518.291	263.024
522.27	303.989
526.247	1079.2
530.222	2124.41
534.196	2198.63
538.167	1254.94
542.137	716.024
546.105	456.023
550.071	515.377
554.035	465.989
557.998	587.304
561.958	676.26
565.917	795.915
569.874	1076.33
573.829	1680.49
577.782	2393.4
581.733	3329.04
585.683	4226.17
589.63	3941.31
593.576	2694.55
597.52	1584.4
601.462	850.936
605.402	544.421
609.341	379.759
613.277	291.248
617.212	199.296
621.145	225.387
625.076	213.335
629.006	38.744
632.933	70.847
636.859	58.804
640.783	19.917
644.705	84.111
648.625	104.565
652.543	12.97
656.46	58.031
660.375	61.534
664.288	19.683
668.199	26.825
672.108	24.186
676.016	87.723
679.921	23.686
683.825	121.292
687.727	66.759
691.628	14.648
695.526	106.93
699.423	64.843
703.318	7.739
707.211	19.491
711.102	21.521
714.992	122.455
718.879	55.304
722.765	218.968
726.649	92.504
730.532	89.972
734.412	26.373
738.291	170.718
742.168	204.01
746.043	173.254
749.916	273.464
753.788	316.665
757.658	378.848
761.526	364.041
765.392	503.235
769.257	605.479
773.119	669.76
776.98	554.134
780.839	918.258
784.697	966.67
788.552	1264.47
792.406	1602.96
796.258	2188.16
800.108	3369.79
803.957	5095.87
807.804	8716.85
811.649	19341.9
815.492	39463.8
819.333	47162.2
823.173	28186.5
827.011	14791
830.847	9380.3
834.681	7280.47
838.514	7835.02
842.345	12979.8
846.174	28893.7
850.001	48015.7
853.827	31801.5
857.651	14059.3
861.473	7266.96
865.293	3706.64
869.112	2510.55
872.928	1632.57
876.744	1376.75
880.557	1069.04
884.369	804.464
888.178	581.019
891.987	609.705
895.793	729.526
899.598	929.483
903.401	498.576
907.202	209.807
911.001	321.175
914.799	260.681
918.595	156.436
922.389	193.236
926.182	277.422
929.972	257.771
933.761	576.994
937.549	1135.41
941.334	2667.98
945.118	8171.7
948.9	10697.4
952.681	4983.23
956.459	1990.45
960.236	1020.76
964.012	531.173
967.785	361.911
971.557	325.841
975.327	165.535
979.095	115.883
982.862	34.438
986.627	56.637
990.39	43.646
994.152	80.229
997.912	55.848
1001.67	25.227
1005.43	193.337
1009.18	285.358
1012.93	78.33
1016.68	84.409
1020.43	254.568
1024.18	157.801
1027.93	147.954
1031.67	237.407
1035.42	122.97
1039.16	116.56
1042.9	287.217
1046.63	247.934
1050.37	73.705
1054.11	257.529
1057.84	110.401
1061.57	221.319
1065.3	70.281
1069.03	41.411
1072.75	7.556
1076.47	54.498
1080.2	28.518
1083.92	16.438
1087.64	65.254
1091.36	16.756
1095.07	14.986
1098.79	83.909
1102.5	120.115
1106.21	61.139
1109.92	244.889
1113.62	50.792
1117.33	17.767
1121.04	3.333
1124.74	42.983
1128.44	37.831
1132.14	32.845
1135.83	52.336
1139.53	66.463
1143.22	34.978
1146.92	80.189
1150.61	28.536
1154.3	36.193
1157.98	229.576
1161.67	55.067
1165.35	43.5
1169.04	266.941
1172.72	183.183
1176.4	108.423
1180.07	36.688
1183.75	168.775
1187.42	140.534
1191.1	173.554
1194.77	248.541
1198.44	213.351
1202.1	334.087
1205.77	172.752
1209.43	275.346
1213.1	322.865
1216.76	214.189
1220.42	121.297
1224.07	156.177
1227.73	132.54
1231.38	148.674
1235.04	29.729
1238.69	52.699
1242.34	129.84
1245.99	132.9
1249.63	129.569
1253.28	122.476
1256.92	57.696
1260.56	19.884
1264.2	56.3
1267.84	15.531
1271.48	88.266
1275.11	120.09
1278.74	49.39
1282.38	25.138
1286.01	109.559
1289.63	58.339
1293.26	122.73
1296.89	208.452
1300.51	10.438
1304.13	146.266
1307.75	58.111
1311.37	188.906
1314.99	177.652
1318.6	207.348
1322.22	342.225
1325.83	276.791
1329.44	214.373
1333.05	19.934
1336.66	10.484
1340.26	177.029
1343.87	221.586
1347.47	92.16
1351.07	290.764
1354.67	195.414
1358.27	311.77
1361.86	195.994
1365.46	219.523
1369.05	279.607
1372.64	182.023
1376.23	291.658
1379.82	170.166
1383.41	54.102
1386.99	243.096
1390.57	279.037
1394.16	272.695
1397.74	168.938
1401.32	269.238
1404.89	230.756
1408.47	177.48
1412.04	288.742
1415.61	178.381
1419.18	357.08
1422.75	219.766
1426.32	296.457
1429.89	354.941
1433.45	278.344
1437.01	244.998
1440.58	318.65
1444.13	308.299
1447.69	320.936
1451.25	579.498
1454.81	459.986
1458.36	404.41
1461.91	351.076
1465.46	358.02
1469.01	591.738
1472.56	478.531
1476.1	446.645
1479.64	276.135
1483.19	487.135
1486.73	311.68
1490.27	262.168
1493.81	318.125
1497.34	402.553
1500.88	364.381
1504.41	9.197
1507.94	220.305
1511.47	106.619
1515	149.545
1518.53	316.643
1522.05	340.223
1525.57	73.719
