Measurement: Raman, 514 nm, ccw, Raman Data Processed
Mineral: Montebrasite
Rruff sample: R040060
Ideal chemistry: LiAlPO_4_(OH)
Locality: Oxford County, Maine, USA
Source: University of Arizona Mineral Museum
Description: White massive
Measured chemistry: LiAl(PO_4_)((OH)_0.79_F_0.21_)
Pin_id: L00181
Orientation: Laser parallel to a* (1 0 0). Fiducial mark perpendicular to laser is parallel to -b [0 -1 0]
Raman shift (cm-1)	intensity
112.787	0
116.97	1295.07
121.15	583.713
125.328	111.621
129.504	593.54
133.678	1791.98
137.85	2034.85
142.02	1032.71
146.188	149.838
150.354	30.194
154.517	14.46
158.679	142.373
162.839	515.098
166.996	750.03
171.152	877.084
175.305	578.442
179.456	461.35
183.605	557.482
187.752	772.271
191.898	830.449
196.041	1013.63
200.182	606.941
204.321	264.845
208.457	18.219
212.592	25.81
216.725	59.209
220.856	81.339
224.984	140.3
229.111	116.681
233.236	116.435
237.358	69.674
241.479	55.598
245.597	44.145
249.713	109.906
253.828	87.745
257.94	29.45
262.05	10.128
266.159	274.147
270.265	846.096
274.369	1570.32
278.471	1769.92
282.572	1274.56
286.67	1310.2
290.766	2510.75
294.86	5951.56
298.952	8921.04
303.042	6669.86
307.13	4237.22
311.216	3163.15
315.3	2426.37
319.382	2063.89
323.462	1747.27
327.54	1190.02
331.616	540.684
335.69	394.668
339.762	324.976
343.832	44.33
347.9	129.154
351.965	105.223
356.029	13.445
360.091	17.524
364.151	60.245
368.209	115.08
372.265	126.379
376.319	241.761
380.371	209.3
384.421	328.533
388.469	443.589
392.515	367.678
396.559	432.222
400.601	555.757
404.641	596.781
408.679	615.368
412.715	651.215
416.749	872.086
420.781	1746.99
424.811	4845.56
428.839	5432.03
432.866	2480.07
436.89	997.784
440.912	445.141
444.932	372
448.951	378.307
452.967	304.056
456.981	259.228
460.994	253.804
465.004	387.788
469.013	511.188
473.019	644.003
477.024	1196.25
481.026	1868.02
485.027	1989.22
489.026	1899.84
493.023	1629.89
497.017	1489.34
501.01	1166.52
505.001	731.104
508.99	505.064
512.977	287.058
516.962	143.968
520.945	168.775
524.927	101.77
528.906	7.387
532.883	11.739
536.858	29.168
540.832	96.204
544.803	57.189
548.773	77.342
552.741	70.479
556.706	165.866
560.67	110.222
564.632	154.169
568.592	77.559
572.55	199.333
576.506	392.025
580.46	564.188
584.412	577.186
588.363	688.215
592.311	1107.82
596.258	1737.31
600.202	2725.11
604.145	2652.4
608.086	1679.01
612.024	995.304
615.961	988.596
619.896	1090.8
623.829	1882.93
627.761	3213.41
631.69	3323.36
635.617	2482.44
639.543	3500.87
643.466	7248.63
647.388	8785.73
651.308	4702.15
655.226	2067.91
659.142	993.012
663.056	517.476
666.968	531.319
670.879	453.212
674.787	273.725
678.694	50.861
682.598	10.068
686.501	156.84
690.402	159.273
694.301	23.602
698.198	69.105
702.093	36.729
705.987	110.674
709.878	120.908
713.768	123.369
717.656	98.488
721.542	140.053
725.426	20.168
729.308	205.48
733.188	107.576
737.067	28.912
740.943	75.551
744.818	137.941
748.691	68.668
752.562	158.447
756.431	96.643
760.298	212.545
764.163	95
768.027	322.463
771.888	356.713
775.748	179.695
779.606	252.738
783.462	366.314
787.317	888.172
791.169	1138.44
795.019	1438.2
798.868	1886.71
802.715	1964.61
806.56	1731.93
810.403	1438.66
814.245	1134.81
818.084	810.389
821.922	515.404
825.758	418.787
829.592	300.742
833.424	390.959
837.254	148.295
841.082	197.254
844.909	55.439
848.734	47.33
852.557	7.842
856.378	362.98
860.197	43.846
864.015	79.949
867.831	66.701
871.645	146.604
875.457	29.213
879.267	49.77
883.075	25.332
886.882	75.652
890.687	25.713
894.49	56.064
898.291	56.738
902.09	87.271
905.888	57.615
909.683	8.033
913.477	141.449
917.269	97.721
921.06	77.123
924.848	147.025
928.635	86.395
932.42	53.652
936.203	12.396
939.984	88.822
943.764	289.826
947.541	260.623
951.317	381.225
955.091	351.654
958.864	471.916
962.634	2572.02
966.403	6481.96
970.17	2421.76
973.935	1291.44
977.698	941.004
981.46	959.201
985.22	988.035
988.978	1584.61
992.734	2222.65
996.488	2659.48
1000.24	4096.78
1003.99	6597.18
1007.74	10483.7
1011.49	13812.6
1015.23	12301.7
1018.98	8202.09
1022.72	5123.06
1026.46	3763.19
1030.2	3172.23
1033.93	3665.19
1037.67	5135.08
1041.4	7524.83
1045.13	10139.4
1048.86	9987.61
1052.59	9146.82
1056.32	11156
1060.04	13056
1063.77	9601.18
1067.49	5663.84
1071.2	3323.64
1074.92	2046.35
1078.64	1318.75
1082.35	998.621
1086.06	831.162
1089.78	993.852
1093.48	1017.22
1097.19	1039.76
1100.89	1143.11
1104.6	1736.81
1108.3	2800.16
1112	2563.58
1115.7	2097.94
1119.39	1752.34
1123.09	1655.98
1126.78	1169.12
1130.47	642.328
1134.16	154.957
1137.85	9.844
1141.54	335.016
1145.22	654.785
1148.9	324.184
1152.58	147.668
1156.26	240.82
1159.94	29.988
1163.62	2.465
1167.29	50.336
1170.96	139.863
1174.63	783.355
1178.3	848.461
1181.97	901.672
1185.63	1073.29
1189.3	1208.56
1192.96	927.973
1196.62	958.227
1200.28	918.301
1203.93	1168.96
1207.59	1118.72
1211.24	760.219
1214.89	540.613
1218.54	359.891
1222.19	358.035
1225.84	314.91
1229.48	511.781
1233.13	790.758
1236.77	756.73
1240.41	770.977
1244.05	693.391
1247.68	424.812
1251.32	424.363
1254.95	282.918
1258.58	390.902
1262.21	837.727
1265.84	793.32
1269.46	788.762
1273.09	563.094
1276.71	385.137
1280.33	66.41
1283.95	103.449
1287.57	94.801
1291.18	243.359
1294.8	519.316
1298.41	864.996
1302.02	608.062
1305.63	338.195
