Measurement: Raman, 514 nm, ccw, Raman Data Processed
Mineral: Montebrasite
Rruff sample: R060890
Ideal chemistry: LiAlPO_4_(OH)
Locality: Mount Marie, Paris, Maine, USA
Source: Bob Jenkins
Description: Colorless massive
Measured chemistry: Li_1.00_Al_1.00_(P_1.00_O_4_)(OH)_0.63_F_0.37_)_Î£=1_ ; Li not measured but estimated by stoichiometry
Pin_id: M01846
Orientation: Laser parallel to (1 -1 0). Fiducial mark perpendicular to laser is parallel to c [0 0 1]
Raman shift (cm-1)	intensity
90.678	0
95.631	3.14819
100.581	111.735
105.529	259.603
110.475	523.683
115.417	946.936
120.358	1715.04
125.295	2949.09
130.23	4636.18
135.163	3350.7
140.092	1142.9
145.019	251.826
149.944	26.364
154.866	1.77441
159.785	24.2024
164.702	148.723
169.616	63.7935
174.528	6.35693
179.437	76.4866
184.343	108.163
189.247	196.365
194.148	16.0762
199.046	9.98096
203.942	14.4761
208.835	91.2788
213.726	352.738
218.614	497.75
223.5	523.289
228.382	467.104
233.263	478.609
238.14	349.862
243.015	265.765
247.888	341.788
252.758	307.491
257.625	500.785
262.49	1004.6
267.352	1657.79
272.211	2313.92
277.068	2389.35
281.922	2404.2
286.773	3212.47
291.622	6411.14
296.469	13913.8
301.312	23590.6
306.154	16576.1
310.992	7897.28
315.828	4558.1
320.661	2602.9
325.492	1529.57
330.32	876.021
335.145	660.792
339.968	342.87
344.789	241.701
349.606	38.3272
354.421	23.3044
359.234	13.5669
364.043	70.9065
368.851	66.8508
373.655	203.847
378.457	176.057
383.256	301.508
388.053	230.264
392.847	389.919
397.639	543.21
402.428	745.057
407.214	1085.51
411.998	2294.97
416.779	5930.19
421.557	15728.2
426.333	30479.9
431.106	12176.7
435.877	3310.57
440.645	1347.61
445.41	708.896
450.173	391.417
454.933	466.247
459.691	522.318
464.446	767.629
469.198	1368.13
473.948	2456.75
478.695	4117.49
483.439	5147.43
488.181	5229.52
492.92	4692.76
497.657	3680.14
502.391	2582.4
507.122	1527.45
511.851	920.889
516.577	389.326
521.301	213.731
526.022	60.0989
530.74	1.39722
535.456	64.4646
540.169	79.7466
544.879	9.27075
549.587	23.1209
554.292	1.98999
558.995	1.17651
563.695	118.038
568.392	30.9229
573.087	176.614
577.779	207.85
582.469	303.059
587.156	319.919
591.84	463.212
596.522	872.814
601.201	1452.75
605.877	1405.22
610.551	1241.76
615.222	1366.27
619.891	1862.57
624.557	2803.6
629.22	4930.64
633.881	8811.05
638.539	19280.8
643.195	42239.1
647.848	49034
652.498	19561
657.145	7675.68
661.791	3796.06
666.433	2273.65
671.073	1377.69
675.71	1060.54
680.345	693.818
684.977	406.834
689.606	322.408
694.233	203.492
698.857	127.399
703.478	63.054
708.097	140.819
712.714	55.9312
717.327	87.1958
721.938	105.364
726.547	59.7805
731.153	33.8562
735.756	1.31543
740.356	49.229
744.954	41.4946
749.55	26.8777
754.142	73.6531
758.733	35.8603
763.32	6.20215
767.905	19.5146
772.487	0.363037
777.067	56.0332
781.644	34.2681
786.218	37.5635
790.79	116.639
795.359	77.3999
799.926	55.0039
804.49	108.188
809.051	107.133
813.61	95.9238
818.166	51.6733
822.72	84.5327
827.271	60.273
831.819	19.1392
836.365	61.2578
840.908	54.0015
845.448	82.5825
849.986	42.5996
854.521	7.04883
859.054	76.7573
863.584	25.8584
868.111	11.875
872.636	139.639
877.158	51.3335
881.677	8.22119
886.194	20.4043
890.709	21.1777
895.22	18.6592
899.729	1.05127
904.236	23.481
908.74	38.2925
913.241	63.0977
917.739	39.8662
922.235	102.69
926.729	3.06787
931.219	11.6372
935.708	80.7876
940.193	230.82
944.676	177.085
949.156	335.595
953.634	378.356
958.109	578.384
962.582	585.042
967.051	817.648
971.519	1004.93
975.983	1355.54
980.445	1920.59
984.905	2800.64
989.362	4310.15
993.816	7447.35
998.267	12164.9
1002.72	19136.1
1007.16	28320.7
1011.61	31660.8
1016.05	25330
1020.49	17129.5
1024.92	12301.2
1029.36	11395.9
1033.79	14182.9
1038.21	19256
1042.64	23709.5
1047.06	24715
1051.48	23070.9
1055.9	22540.9
1060.32	23374.2
1064.73	19530.8
1069.14	11075.9
1073.55	6281.38
1077.95	4240.23
1082.35	3000.45
1086.75	2241.03
1091.15	1644.92
1095.54	1385.96
1099.93	1160.17
1104.32	901.669
1108.71	1022.8
1113.09	1045.09
1117.47	1075.18
1121.85	964.599
1126.23	805.483
1130.6	698.76
1134.97	501.968
1139.34	439.053
1143.7	226.796
1148.07	178.793
1152.43	139.343
1156.79	61.8779
1161.14	19.2573
1165.49	4.20068
1169.84	57.3355
1174.19	29.1265
1178.54	17.7534
1182.88	34.3057
1187.22	45.2803
1191.55	42.2007
1195.89	81.8833
1200.22	35.6587
1204.55	31.5024
1208.87	30.4082
1213.2	12.3662
1217.52	25.5503
1221.84	16.5615
1226.15	51.0645
1230.47	69.2339
1234.78	59.7666
1239.09	25.0425
1243.39	54.3345
1247.69	116.679
1251.99	107.42
1256.29	93.4297
1260.59	74.6943
1264.88	7.7041
1269.17	58.0312
1273.46	54.0225
1277.74	93.0029
1282.02	62.0283
1286.3	15.936
1290.58	100.066
1294.86	120.537
1299.13	21.8779
1303.39	78.625
1307.66	150.128
1311.93	96.6401
1316.19	110.375
1320.45	147.085
1324.7	104.114
1328.96	202.317
1333.21	182.34
1337.45	152.224
1341.7	60.9702
1345.94	86.1406
1350.18	98.853
1354.42	104.219
1358.66	113.507
1362.89	172.295
1367.12	82.6675
1371.35	85.8579
1375.57	97.0908
1379.8	74.1602
1384.02	6.1875
1388.23	136.201
1392.45	27.1172
1396.66	22.3809
1400.87	10.5142
1405.08	109.441
1409.28	135.799
1413.48	56.4106
1417.68	141.758
1421.88	78.8003
1426.07	73.9263
1430.26	129.529
1434.45	91.4341
1438.64	69.9858
1442.82	66.2583
1447	144.962
1451.18	131.735
1455.35	83.5889
1459.53	125.183
1463.7	159.288
1467.87	125.478
1472.03	27.7817
1476.19	106.057
1480.35	149.9
1484.51	132.751
1488.67	10.0102
1492.82	165.794
1496.97	135.751
1501.12	116.584
1505.26	53.8447
1509.4	46.6289
1513.54	140.044
1517.68	118
1521.81	102.79
1525.94	133.316
1530.07	57.7656
1534.2	117.255
1538.32	239.407
1542.44	179.144
1546.56	122.918
1550.68	168.575
1554.79	70.2383
1558.9	156.523
1563.01	80.6958
1567.12	92.3521
1571.22	42.6157
1575.32	6.26758
