Measurement: Raman, 514 nm, ccw, Raman Data Processed
Mineral: Montebrasite
Rruff sample: R040060
Ideal chemistry: LiAlPO_4_(OH)
Locality: Oxford County, Maine, USA
Source: University of Arizona Mineral Museum
Description: White massive
Measured chemistry: LiAl(PO_4_)((OH)_0.79_F_0.21_)
Pin_id: L00466
Orientation: Laser parallel to (-1 0 -1). Fiducial mark perpendicular to laser is parallel to b [0 1 0]
Raman shift (cm-1)	intensity
109.998	0
114.182	1031.87
118.363	2289.76
122.543	673.595
126.72	473.889
130.896	1510.72
135.069	2513.89
139.24	2132.07
143.41	704.366
147.577	151.011
151.742	82.738
155.905	96.777
160.066	360.011
164.225	696.369
168.381	851.739
172.536	785.571
176.689	549.279
180.839	534.632
184.988	818.731
189.134	962.122
193.279	1161.65
197.421	1119.07
201.561	810.036
205.7	257.581
209.836	48.428
213.97	7.864
218.102	7.694
222.232	152.756
226.36	122.98
230.486	63.878
234.61	93.088
238.732	23.705
242.852	6.874
246.969	112.035
251.085	68.076
255.199	141.819
259.31	38.111
263.42	36.394
267.528	360.498
271.633	1062.31
275.737	1799.94
279.838	1582.81
283.938	1302.71
288.035	1576.06
292.131	3913.86
296.224	8621.46
300.315	10088.6
304.405	6425.36
308.492	3871.59
312.578	3087.19
316.661	2371.73
320.742	2215.8
324.821	1609.14
328.899	991.415
332.974	487.057
337.047	231.194
341.119	221.636
345.188	15.323
349.255	45.538
353.32	36.479
357.384	65.696
361.445	111.762
365.504	89.079
369.561	220.415
373.617	273.017
377.67	245.725
381.721	327.914
385.77	335.133
389.818	411.675
393.863	366.012
397.906	410.543
401.948	420.613
405.987	641.057
410.025	776.864
414.06	903.861
418.093	1481.56
422.125	4200.78
426.154	9797.8
430.182	6937.1
434.207	2535.98
438.231	974.586
442.252	532.863
446.272	350.741
450.29	318.191
454.305	305.219
458.319	351.595
462.331	357.834
466.341	453.417
470.348	708.51
474.354	1073.11
478.358	1877.23
482.36	2450.87
486.36	2294.03
490.358	2206.71
494.354	1988.93
498.349	1710.27
502.341	1200.65
506.331	803.658
510.319	557.365
514.306	169.637
518.29	50.001
522.273	62.004
526.253	42.538
530.232	15.929
534.208	26.74
538.183	2.387
542.156	18.828
546.127	64.232
550.096	96.358
554.063	134.543
558.028	121.462
561.991	198.79
565.952	35.88
569.911	96.882
573.869	151.306
577.824	281.15
581.778	338.969
585.729	285.707
589.679	660.765
593.627	1144.63
597.573	1939.29
601.517	3013.05
605.459	2085.35
609.399	1301.94
613.337	922.805
617.273	1093.23
621.208	1523.04
625.14	2661.73
629.071	3749.81
632.999	3397.43
636.926	3424.59
640.851	6461.3
644.774	12397.6
648.695	10093.4
652.614	4628.7
656.531	2153.61
660.447	1038.09
664.36	712.163
668.272	485.918
672.182	328.368
676.089	193.577
679.995	188.523
683.899	144.26
687.802	144.409
691.702	110.427
695.6	21.306
699.497	34.885
703.391	0.638
707.284	56.579
711.175	65.844
715.064	80.69
718.951	14.516
722.837	42.951
726.72	36.861
730.601	32.98
734.481	39.539
738.359	105.096
742.235	60.438
746.109	95.162
749.981	38.188
753.851	164.359
757.72	97.66
761.587	89.41
765.451	100.645
769.314	165.807
773.175	96.252
777.034	196.309
780.892	326.02
784.747	665.4
788.601	834.455
792.453	1263.19
796.303	1641.62
800.151	2009.75
803.997	1907.58
807.841	1605.12
811.684	1372.38
815.525	999.363
819.363	946.082
823.201	492.541
827.036	318.748
830.869	283.508
834.701	147.744
838.53	51.336
842.358	16.117
846.184	6.803
850.008	74.725
853.831	141.16
857.651	54.098
861.47	15.59
865.287	55.457
869.102	39.197
872.915	85.883
876.727	182.816
880.536	57.229
884.344	85.08
888.15	77.457
891.954	58.834
895.757	0.17
899.557	70.91
903.356	101.375
907.153	42.307
910.948	112.348
914.741	53.631
918.533	169.895
922.323	1.557
926.111	33.086
929.897	5.529
933.681	228.375
937.463	231.283
941.244	264.262
945.023	117.32
948.8	280.463
952.575	253.695
956.349	527.023
960.121	630.453
963.891	1823.99
967.659	1647.65
971.425	891.428
975.19	715.336
978.952	1009.38
982.713	1263.57
986.473	1457.94
990.23	1972.01
993.986	2612.57
997.739	3965.92
1001.49	6189.05
1005.24	9992.86
1008.99	14739.1
1012.74	16446.1
1016.48	12488.8
1020.23	7741.19
1023.97	5429.43
1027.71	4263.53
1031.44	4140.11
1035.18	5275.7
1038.91	7325.81
1042.65	10913.7
1046.38	12874.5
1050.11	11444.3
1053.84	11725.7
1057.56	14533.7
1061.28	15184.4
1065.01	9626.58
1068.73	5249.06
1072.44	3177.42
1076.16	2020.39
1079.88	1483.59
1083.59	1357
1087.3	1070.61
1091.01	894.891
1094.72	908.926
1098.42	793.061
1102.13	1237.45
1105.83	2421.97
1109.53	2976.54
1113.23	2621.53
1116.93	1946.78
1120.63	1642.09
1124.32	1117.43
1128.01	502.568
1131.7	410.055
1135.39	683.537
1139.08	366.715
1142.77	299.531
1146.45	166.824
1150.13	170.271
1153.81	85.322
1157.49	84.738
1161.17	28.232
1164.84	319.326
1168.51	335.031
1172.18	471.529
1175.86	436.391
1179.52	498.67
1183.19	711.564
1186.86	1305.98
1190.52	1365.69
1194.18	1435.35
1197.84	1245.16
1201.5	1123.78
1205.15	763.002
1208.81	683.156
1212.46	402.289
1216.11	230.646
1219.76	399.432
1223.41	507.061
1227.05	544.16
1230.7	540.871
1234.34	416.727
1237.98	191.336
1241.62	264.916
1245.26	197.729
1248.89	350.49
1252.53	272.324
1256.16	493.455
1259.79	443.76
1263.42	294.596
1267.05	193.742
1270.67	273.121
1274.3	60.863
1277.92	139.639
1281.54	256.277
1285.16	111.143
1288.77	184.352
1292.39	321.914
1296	112.771
1299.61	41.75
1303.22	178.715
1306.83	169.896
1310.44	171.65
1314.05	136.074
1317.65	223.611
1321.25	230.984
