Measurement: Raman, 514 nm, ccw, Raman Data Processed
Mineral: Montebrasite
Rruff sample: R040060
Ideal chemistry: LiAlPO_4_(OH)
Locality: Oxford County, Maine, USA
Source: University of Arizona Mineral Museum
Description: White massive
Measured chemistry: LiAl(PO_4_)((OH)_0.79_F_0.21_)
Pin_id: L00466
Orientation: Laser parallel to (-1 0 -1). Fiducial mark perpendicular to laser is parallel to b [0 1 0]
Raman shift (cm-1)	intensity
108.603	0
112.787	744.601
116.97	2980.89
121.15	1560.91
125.328	793.39
129.504	1742.29
133.678	3263.85
137.85	3331.66
142.02	1497.33
146.188	388.881
150.354	109.722
154.517	147.265
158.679	317.625
162.839	697.213
166.996	860.655
171.152	1063.51
175.305	752.526
179.456	657.783
183.605	846.04
187.752	1241.06
191.898	1528.98
196.041	1582.84
200.182	1114.26
204.321	467.319
208.457	6.881
212.592	48.78
216.725	24.859
220.856	122.986
224.984	200.745
229.111	208.911
233.236	158.931
237.358	73.478
241.479	32.566
245.597	140.431
249.713	120.345
253.828	180.077
257.94	137.16
262.05	76.359
266.159	351.63
270.265	968.178
274.369	2002.88
278.471	2171.54
282.572	1593.49
286.67	1896.53
290.766	3580.59
294.86	8915
298.952	13328.9
303.042	10022
307.13	5704.39
311.216	4076.16
315.3	3297.11
319.382	3017.32
323.462	2486.83
327.54	1465.54
331.616	843.532
335.69	410.005
339.762	317.86
343.832	107.171
347.9	145.325
351.965	73.98
356.029	6.906
360.091	21.925
364.151	10.179
368.209	128.833
372.265	178.132
376.319	189.634
380.371	347.013
384.421	429.091
388.469	440.69
392.515	480.46
396.559	609.7
400.601	648.696
404.641	784.89
408.679	848.99
412.715	1075.62
416.749	1550.81
420.781	4068.93
424.811	11463.1
428.839	12206.9
432.866	4671.71
436.89	1626.29
440.912	760.527
444.932	584.384
448.951	267.83
452.967	280.81
456.981	263.295
460.994	345.271
465.004	456.744
469.013	707.712
473.019	1008.18
477.024	1988.15
481.026	2767.62
485.027	3126.61
489.026	2825.1
493.023	2623.11
497.017	2310.64
501.01	1697.2
505.001	1210.69
508.99	613.814
512.977	373.307
516.962	163.816
520.945	186.463
524.927	38.943
528.906	59.8
532.883	57.828
536.858	91.641
540.832	34.654
544.803	45.401
548.773	188.285
552.741	203.966
556.706	91.094
560.67	174.705
564.632	180.903
568.592	105.512
572.55	156.574
576.506	319.202
580.46	426.957
584.412	392.443
588.363	596.225
592.311	1166.93
596.258	2089.38
600.202	3527.45
604.145	3069.2
608.086	1967.72
612.024	1304.01
615.961	1288.28
619.896	1682.46
623.829	2925.79
627.761	4638.83
631.69	4831.37
635.617	4123.42
639.543	6564.98
643.466	14336.1
647.388	16556.6
651.308	8286.75
655.226	3526.36
659.142	1795.5
663.056	964.189
666.968	812.44
670.879	500.254
674.787	406.024
678.694	160.284
682.598	179.265
686.501	101.894
690.402	154.395
694.301	21.508
698.198	58.014
702.093	33.937
705.987	73.611
709.878	14.307
713.768	120.732
717.656	14.123
721.542	72.023
725.426	79.333
729.308	128.931
733.188	61.211
737.067	90.874
740.943	32.574
744.818	171.323
748.691	12.137
752.562	213.82
756.431	10.68
760.298	36.387
764.163	110.836
768.027	226.754
771.888	230.352
775.748	383.555
779.606	337.514
783.462	429.963
787.317	862.047
791.169	1323.77
795.019	1975.14
798.868	2426.16
802.715	2436.85
806.56	2157.21
810.403	1717.24
814.245	1266.95
818.084	976.365
821.922	725.473
825.758	354.285
829.592	332.682
833.424	170
837.254	266.916
841.082	122.461
844.909	147.562
848.734	15.25
852.557	114.229
856.378	63.1
860.197	81.438
864.015	18.861
867.831	78.234
871.645	111.508
875.457	241.654
879.267	101.492
883.075	15.291
886.882	105.098
890.687	67.199
894.49	97.535
898.291	58.049
902.09	165.412
905.888	68.656
909.683	62.424
913.477	48.629
917.269	20.727
921.06	63.686
924.848	17.24
928.635	301.277
932.42	75.559
936.203	159.855
939.984	164.219
943.764	358.619
947.541	173.07
951.317	327.574
955.091	442.15
958.864	496.801
962.634	1451.53
966.403	2456.36
970.17	1261.3
973.935	986.404
977.698	1191.63
981.46	1396.99
985.22	1572.49
988.978	2367.88
992.734	3193.49
996.488	4530.51
1000.24	6856.31
1003.99	11109.8
1007.74	16972.4
1011.49	21463.8
1015.23	18570.3
1018.98	12038.6
1022.72	7766.78
1026.46	5785.27
1030.2	5313.83
1033.93	6209.57
1037.67	8345.32
1041.4	12522.1
1045.13	16439.1
1048.86	15687.8
1052.59	14218.6
1056.32	16789.6
1060.04	19388.8
1063.77	14330.5
1067.49	8132.44
1071.2	4572.79
1074.92	2865.34
1078.64	1948.2
1082.35	1500.24
1086.06	1296.16
1089.78	1139.88
1093.48	1073.91
1097.19	1048.25
1100.89	1222.9
1104.6	2208.24
1108.3	3273.55
1112	3159.22
1115.7	2415.68
1119.39	2126.45
1123.09	1623.21
1126.78	1210.38
1130.47	937.939
1134.16	425.924
1137.85	144.223
1141.54	168.877
1145.22	328.223
1148.9	87.734
1152.58	187.535
1156.26	227.838
1159.94	68.268
1163.62	89.277
1167.29	180.445
1170.96	312.217
1174.63	452.918
1178.3	481.029
1181.97	769.809
1185.63	1269.24
1189.3	1509.21
1192.96	1399.72
1196.62	1120.78
1200.28	1062.39
1203.93	964.551
1207.59	717.16
1211.24	340.303
1214.89	383.963
1218.54	8.158
1222.19	22.76
1225.84	2.182
1229.48	293.383
1233.13	256.641
1236.77	242.795
1240.41	148.352
1244.05	245.322
1247.68	17.338
1251.32	150.77
1254.95	219.758
1258.58	189.629
1262.21	320.398
1265.84	322.082
1269.46	354.717
1273.09	458.26
1276.71	4.699
1280.33	30.176
1283.95	84.381
1287.57	113.904
1291.18	211.541
1294.8	287.311
1298.41	465.486
1302.02	477.232
1305.63	233.598
1309.24	248.594
1312.84	21.145
1316.45	0.891
