Measurement: Raman, 514 nm, ccw, Raman Data Processed
Mineral: Montebrasite
Rruff sample: R060890
Ideal chemistry: LiAlPO_4_(OH)
Locality: Mount Marie, Paris, Maine, USA
Source: Bob Jenkins
Description: Colorless massive
Measured chemistry: Li_1.00_Al_1.00_(P_1.00_O_4_)(OH)_0.63_F_0.37_)_Î£=1_ ; Li not measured but estimated by stoichiometry
Pin_id: M01846
Orientation: Laser parallel to (1 -1 0). Fiducial mark perpendicular to laser is parallel to c [0 0 1]
Raman shift (cm-1)	intensity
90.678	0
95.631	75.1636
100.581	36.2051
105.529	189.482
110.475	488.678
115.417	861.923
120.358	1353.18
125.295	3027.75
130.23	5245.85
135.163	4605.42
140.092	1713.22
145.019	297.352
149.944	56.6875
154.866	374.41
159.785	1545.32
164.702	3451.26
169.616	4789.89
174.528	4191.35
179.437	3068.86
184.343	2062.53
189.247	1300.15
194.148	575.495
199.046	477.408
203.942	442.767
208.835	889.231
213.726	899.68
218.614	824.131
223.5	593.596
228.382	477.077
233.263	80.6123
238.14	66.2168
243.015	169.556
247.888	89.77
252.758	79.6694
257.625	295.43
262.49	1228.97
267.352	3098.71
272.211	5118.4
277.068	5905.94
281.922	6719.91
286.773	9374.32
291.622	16808.3
296.469	30923.8
301.312	46255.9
306.154	35910.9
310.992	23494.6
315.828	14522.4
320.661	9194.22
325.492	6810.93
330.32	5038.71
335.145	3580.53
339.968	2959.37
344.789	2456.22
349.606	2430.06
354.421	2512.88
359.234	2928.68
364.043	3432.45
368.851	3984.87
373.655	4150.42
378.457	3744.95
383.256	3081.12
388.053	2377.15
392.847	1861.09
397.639	1483.92
402.428	1154.26
407.214	1151.95
411.998	845.309
416.779	894.4
421.557	1262.1
426.333	2436.81
431.106	1520.56
435.877	672.006
440.645	539.24
445.41	316.314
450.173	352.253
454.933	381.058
459.691	324.696
464.446	264.235
469.198	464.639
473.948	567.216
478.695	820.999
483.439	1021.85
488.181	850.465
492.92	744.849
497.657	581.99
502.391	541.88
507.122	243.51
511.851	159.861
516.577	38.8799
521.301	7.49072
526.022	20.7095
530.74	95.2227
535.456	102.157
540.169	111.935
544.879	79.3662
549.587	49.9522
554.292	2.50147
558.995	46.7842
563.695	80.0361
568.392	246.434
573.087	335.725
577.779	401.075
582.469	691.56
587.156	1160.92
591.84	2734.22
596.522	6306.73
601.201	12709.4
605.877	10872.7
610.551	5273.99
615.222	3755.88
619.891	4172.89
624.557	6330.06
629.22	10227
633.881	12362.6
638.539	13233.7
643.195	21689.3
647.848	24847.4
652.498	10941.1
657.145	4699.82
661.791	2487.06
666.433	1667.01
671.073	1146.52
675.71	730.721
680.345	598.546
684.977	389.367
689.606	246.572
694.233	181.51
698.857	152.774
703.478	9.146
708.097	14.0513
712.714	14.395
717.327	113.232
721.938	50.4976
726.547	69.0405
731.153	16.9424
735.756	66.0015
740.356	44.6846
744.954	14.1675
749.55	174.658
754.142	153.177
758.733	222.045
763.32	397.419
767.905	402.545
772.487	564.209
777.067	971.25
781.644	1323.37
786.218	2095.86
790.79	3341.56
795.359	5004.84
799.926	6546.77
804.49	7501.36
809.051	7478.73
813.61	6830.98
818.166	5625.09
822.72	4475.25
827.271	3048.45
831.819	2054.51
836.365	1198.9
840.908	780.297
845.448	378.457
849.986	288.928
854.521	160.859
859.054	123.577
863.584	117.407
868.111	26.2812
872.636	13.2646
877.158	56.188
881.677	34.5337
886.194	62.2222
890.709	70.4316
895.22	27.2041
899.729	99.9727
904.236	3.79004
908.74	11.5083
913.241	30.1948
917.739	21.9531
922.235	44.835
926.729	108.874
931.219	145.107
935.708	165.553
940.193	228.232
944.676	200.163
949.156	320.362
953.634	449.845
958.109	503.627
962.582	698.719
967.051	960.144
971.519	1201.96
975.983	1683.27
980.445	2395.3
984.905	3416.07
989.362	5773.43
993.816	9893.5
998.267	16740.4
1002.72	26367.4
1007.16	37168.9
1011.61	40105.4
1016.05	30992
1020.49	19502.7
1024.92	13207.7
1029.36	11412.3
1033.79	12800.2
1038.21	17351.6
1042.64	21195.9
1047.06	24601.8
1051.48	26616.4
1055.9	31835.9
1060.32	39323.4
1064.73	34529.5
1069.14	18295.3
1073.55	9091.83
1077.95	5255.02
1082.35	3515.89
1086.75	2683.47
1091.15	2362.71
1095.54	2563.62
1099.93	3268.89
1104.32	4592.61
1108.71	6361.99
1113.09	7904.35
1117.47	8405.39
1121.85	8223.29
1126.23	7330.88
1130.6	6089.45
1134.97	4729.45
1139.34	3124.63
1143.7	1935.41
1148.07	1114.68
1152.43	828.302
1156.79	611.745
1161.14	506.052
1165.49	459.519
1169.84	291.652
1174.19	337.12
1178.54	227.098
1182.88	30.4346
1187.22	108.093
1191.55	267.443
1195.89	235.654
1200.22	359.11
1204.55	464.402
1208.87	448.084
1213.2	380.415
1217.52	140.323
1221.84	72.7461
1226.15	13.3735
1230.47	14.9458
1234.78	71.5552
1239.09	66.7598
1243.39	47.5674
1247.69	14.5879
1251.99	79.9248
1256.29	80.2295
1260.59	89.8003
1264.88	69.9326
1269.17	43.9102
1273.46	31.6299
1277.74	35.2417
1282.02	20.7705
1286.3	25.8193
1290.58	120.855
1294.86	118.445
1299.13	38.2744
1303.39	169.118
1307.66	182.828
1311.93	100.835
1316.19	156.871
1320.45	195.342
1324.7	226.594
1328.96	140.451
1333.21	167.597
1337.45	161.258
1341.7	149.178
1345.94	231.812
1350.18	207.595
1354.42	146.421
1358.66	143.769
1362.89	148.443
1367.12	190.531
1371.35	48.6865
1375.57	98.1309
1379.8	8.58447
1384.02	71.938
1388.23	68.9722
1392.45	153.793
1396.66	86.9951
1400.87	114.004
1405.08	94.3603
1409.28	28.8042
1413.48	67.3906
1417.68	44.3584
1421.88	51.6587
1426.07	150.577
1430.26	97.3516
1434.45	54.4067
1438.64	234.346
1442.82	130.438
1447	120.739
1451.18	165.226
1455.35	79.1484
1459.53	227.023
1463.7	225.595
1467.87	108.802
1472.03	226.035
1476.19	132.899
1480.35	126.074
1484.51	124.202
1488.67	123.823
1492.82	115.052
1496.97	139.113
1501.12	164.147
1505.26	133.289
1509.4	105.017
1513.54	99.8394
1517.68	6.34326
1521.81	79.4683
1525.94	51.6426
1530.07	114.266
1534.2	207.621
1538.32	155.708
1542.44	147.72
1546.56	26.9316
1550.68	106.29
1554.79	10.4131
1558.9	7.12793
1563.01	44.9199
1567.12	46.2334
1571.22	136.7
1575.32	0.129395
