Measurement: Raman, 514 nm, ccw, Raman Data Processed
Mineral: Montebrasite
Rruff sample: R060890
Ideal chemistry: LiAlPO_4_(OH)
Locality: Mount Marie, Paris, Maine, USA
Source: Bob Jenkins
Description: Colorless massive
Measured chemistry: Li_1.00_Al_1.00_(P_1.00_O_4_)(OH)_0.63_F_0.37_)_Î£=1_ ; Li not measured but estimated by stoichiometry
Pin_id: M01846
Orientation: Laser parallel to (1 -1 0). Fiducial mark perpendicular to laser is parallel to c [0 0 1]
Raman shift (cm-1)	intensity
90.678	0
95.631	72.9072
100.581	246.107
105.529	447.552
110.475	1064.23
115.417	2026.07
120.358	3511.15
125.295	6595.3
130.23	10517.2
135.163	8399
140.092	3071.92
145.019	729.425
149.944	246.439
154.866	454.582
159.785	553.841
164.702	943.091
169.616	1089.86
174.528	876.031
179.437	585.481
184.343	450.137
189.247	339.741
194.148	43.0562
199.046	45.2715
203.942	176.34
208.835	41.248
213.726	183.945
218.614	420.113
223.5	393.923
228.382	303.664
233.263	222.713
238.14	29.2266
243.015	41.3867
247.888	142.821
252.758	181.419
257.625	278.24
262.49	876.095
267.352	1815.86
272.211	2809.09
277.068	3128.93
281.922	3091.33
286.773	4631.3
291.622	9205.16
296.469	17711
301.312	27424
306.154	20349.1
310.992	11038.1
315.828	7544.96
320.661	5427.67
325.492	3579.25
330.32	2154.95
335.145	1393.73
339.968	797.53
344.789	478.362
349.606	210.678
354.421	252.934
359.234	243.385
364.043	295.51
368.851	426.695
373.655	493.965
378.457	505.31
383.256	334.623
388.053	435.988
392.847	310.807
397.639	503.234
402.428	674.601
407.214	1018.34
411.998	2078.47
416.779	6069.35
421.557	13667.5
426.333	24068.1
431.106	9969.24
435.877	2948.38
440.645	1395.19
445.41	775.083
450.173	551.024
454.933	623.08
459.691	889.102
464.446	1289.01
469.198	2091.87
473.948	3662.79
478.695	5843.6
483.439	6950.3
488.181	6900.94
492.92	5958.63
497.657	4669.88
502.391	3366.11
507.122	1982.1
511.851	1159.82
516.577	448.267
521.301	249.791
526.022	48.2769
530.74	29.6201
535.456	73.2842
540.169	58.1235
544.879	72.814
549.587	19.4351
554.292	7.28027
558.995	97.9033
563.695	23.4663
568.392	141.658
573.087	194.354
577.779	381.713
582.469	409.181
587.156	694.021
591.84	1380.88
596.522	2550.73
601.201	4520.65
605.877	4342.44
610.551	2748.55
615.222	2949.4
619.891	4170.81
624.557	6966.63
629.22	11455.1
633.881	15616
638.539	23226.5
643.195	40924.2
647.848	45850.4
652.498	18938.9
657.145	7586.8
661.791	3767.04
666.433	2277.28
671.073	1437.02
675.71	1054.4
680.345	760.248
684.977	491.408
689.606	348.128
694.233	179.726
698.857	179.02
703.478	94.0952
708.097	45.0879
712.714	142.133
717.327	42.3721
721.938	8.50879
726.547	23.0449
731.153	73.8267
735.756	31.293
740.356	96.0347
744.954	14.1948
749.55	0.196289
754.142	93.9546
758.733	69.8086
763.32	110.952
767.905	104.388
772.487	164.945
777.067	318.933
781.644	384.545
786.218	611.419
790.79	812.414
795.359	1174.93
799.926	1517.86
804.49	1772.32
809.051	1798.4
813.61	1690.28
818.166	1401.19
822.72	1083.08
827.271	803.811
831.819	535.951
836.365	388.714
840.908	208.298
845.448	47.2891
849.986	168.269
854.521	38.1431
859.054	162.958
863.584	40.5342
868.111	8.97021
872.636	12.5176
877.158	12.4468
881.677	6.14648
886.194	153.522
890.709	1.37598
895.22	71.2095
899.729	41.3652
904.236	35.3042
908.74	87.0972
913.241	29.1724
917.739	33.6943
922.235	60.4062
926.729	1.62647
931.219	164.006
935.708	88.5649
940.193	192.329
944.676	318.315
949.156	332.541
953.634	352.018
958.109	598.757
962.582	804.771
967.051	918.083
971.519	1246.77
975.983	1591.07
980.445	2432.84
984.905	3521.24
989.362	5706.13
993.816	9565.02
998.267	15886.2
1002.72	25288.3
1007.16	35428.3
1011.61	38560.9
1016.05	30525.8
1020.49	20488.9
1024.92	14880.9
1029.36	13702.3
1033.79	17058.7
1038.21	22916.7
1042.64	28043.5
1047.06	30441.5
1051.48	29288.4
1055.9	30153.6
1060.32	33725.7
1064.73	28776.4
1069.14	16090.8
1073.55	8855.67
1077.95	5503.15
1082.35	3838.2
1086.75	2911.81
1091.15	2347.98
1095.54	2155.7
1099.93	2069.64
1104.32	2459.29
1108.71	3054.35
1113.09	3610.82
1117.47	3789.36
1121.85	3757
1126.23	3409.32
1130.6	2715.55
1134.97	2114.78
1139.34	1468.79
1143.7	836.68
1148.07	543.959
1152.43	312.688
1156.79	290.36
1161.14	246.036
1165.49	290.111
1169.84	166.568
1174.19	114.063
1178.54	158.972
1182.88	22.3408
1187.22	199.962
1191.55	199.796
1195.89	192.83
1200.22	200.045
1204.55	264.696
1208.87	206.04
1213.2	221.922
1217.52	132.724
1221.84	135.626
1226.15	121.754
1230.47	12.9922
1234.78	68.1099
1239.09	47.2227
1243.39	8.19238
1247.69	95.8765
1251.99	12.8975
1256.29	13.4336
1260.59	32.0879
1264.88	13.2602
1269.17	12.8984
1273.46	107.781
1277.74	79.3389
1282.02	144.743
1286.3	23.4311
1290.58	102.954
1294.86	160.496
1299.13	202.886
1303.39	156.987
1307.66	84.0161
1311.93	155.26
1316.19	160.325
1320.45	109.091
1324.7	214.625
1328.96	222.835
1333.21	189.614
1337.45	179.46
1341.7	139.568
1345.94	199.665
1350.18	310.618
1354.42	156.259
1358.66	171.593
1362.89	49.4092
1367.12	21.207
1371.35	145.699
1375.57	52.8965
1379.8	3.34912
1384.02	110.91
1388.23	127.424
1392.45	17.667
1396.66	100.017
1400.87	69.7363
1405.08	23.7949
1409.28	178.549
1413.48	78.5459
1417.68	23.7236
1421.88	30.4395
1426.07	161.673
1430.26	72.832
1434.45	35.3057
1438.64	55.4531
1442.82	145.826
1447	142.076
1451.18	174.001
1455.35	156.796
1459.53	140.385
1463.7	198.49
1467.87	116.123
1472.03	149.579
1476.19	193.37
1480.35	92.4062
1484.51	45.0322
1488.67	178.074
1492.82	47.2627
1496.97	106.259
1501.12	149.232
1505.26	102.572
1509.4	148.051
1513.54	104.241
1517.68	113.443
1521.81	53.5254
1525.94	204.549
1530.07	34.1934
1534.2	89.7461
1538.32	112.987
1542.44	158.052
1546.56	47.4785
1550.68	58.8672
1554.79	127.815
1558.9	116.633
1563.01	54.1572
1567.12	82.8672
1571.22	98.8516
1575.32	0.824219
