Measurement: Raman, 514 nm, ccw, Raman Data Processed
Mineral: Montebrasite
Rruff sample: R060890
Ideal chemistry: LiAlPO_4_(OH)
Locality: Mount Marie, Paris, Maine, USA
Source: Bob Jenkins
Description: Colorless massive
Measured chemistry: Li_1.00_Al_1.00_(P_1.00_O_4_)(OH)_0.63_F_0.37_)_Î£=1_ ; Li not measured but estimated by stoichiometry
Pin_id: M00747
Orientation: Laser parallel to (0 1 1). Fiducial mark perpendicular to laser is parallel to a [1 0 0]
Raman shift (cm-1)	intensity
90.678	0
95.631	379.228
100.581	400.971
105.529	258.818
110.475	1013.81
115.417	957.85
120.358	245.299
125.295	881.822
130.23	1481.08
135.163	1400.22
140.092	2156.76
145.019	2126.21
149.944	3388.15
154.866	7011.63
159.785	11775.2
164.702	15611.7
169.616	14487.5
174.528	10748.6
179.437	7272.47
184.343	4778.61
189.247	3212.8
194.148	1620.64
199.046	1571.88
203.942	496.116
208.835	225.902
213.726	199.141
218.614	409.762
223.5	339.955
228.382	34.3603
233.263	172.434
238.14	20.6494
243.015	136.548
247.888	225.454
252.758	1011.81
257.625	2780.24
262.49	5756.95
267.352	9387.01
272.211	11425
277.068	10039.6
281.922	8141.39
286.773	9586.3
291.622	17468.6
296.469	27751.2
301.312	34265.9
306.154	23668.6
310.992	12225.1
315.828	6809.1
320.661	3503.21
325.492	1855.43
330.32	1145.73
335.145	618.082
339.968	173.402
344.789	109.561
349.606	34.584
354.421	249.118
359.234	401.475
364.043	477.254
368.851	314.184
373.655	485.354
378.457	481.798
383.256	341.146
388.053	170.057
392.847	100.086
397.639	312.285
402.428	317.057
407.214	513.142
411.998	1141.73
416.779	3647.8
421.557	7374
426.333	9436
431.106	4595.98
435.877	2094.4
440.645	1616.71
445.41	1611.36
450.173	1830.2
454.933	2326.04
459.691	2733.87
464.446	4020.74
469.198	6301.61
473.948	9848.4
478.695	13129.5
483.439	14530.8
488.181	13697
492.92	11605.1
497.657	9217.46
502.391	6689.1
507.122	4402.62
511.851	2562.38
516.577	1539.01
521.301	985.376
526.022	440.35
530.74	363.006
535.456	79.0889
540.169	35.4522
544.879	31.8633
549.587	239.907
554.292	126.727
558.995	124.915
563.695	43.7236
568.392	63.333
573.087	168.667
577.779	326.5
582.469	494.297
587.156	808.035
591.84	1515.35
596.522	3434.12
601.201	4626.67
605.877	3501.52
610.551	2194.65
615.222	1969.6
619.891	2546.78
624.557	4029.77
629.22	5628.94
633.881	7092.7
638.539	11358.7
643.195	17623.9
647.848	16684.4
652.498	7506.1
657.145	3322.9
661.791	1887.68
666.433	1277.59
671.073	1020.69
675.71	657.71
680.345	544.389
684.977	433.276
689.606	203.447
694.233	375.147
698.857	193.332
703.478	100.847
708.097	53.419
712.714	213.966
717.327	101.885
721.938	16.2393
726.547	39.7871
731.153	12.0352
735.756	72.1777
740.356	68.7793
744.954	143.019
749.55	179.125
754.142	195.527
758.733	251.65
763.32	308.783
767.905	514.36
772.487	449.326
777.067	721.465
781.644	1184.78
786.218	1775.77
790.79	2887.31
795.359	4057.21
799.926	5121.98
804.49	5758.28
809.051	5640.47
813.61	4904.57
818.166	3978.01
822.72	3090.26
827.271	2257.99
831.819	1547.23
836.365	1048.86
840.908	609.663
845.448	402.559
849.986	269.025
854.521	326.969
859.054	239.557
863.584	89.1777
868.111	154.147
872.636	158.476
877.158	22.1045
881.677	92.0908
886.194	21.6504
890.709	60.9336
895.22	101.345
899.729	63.1924
904.236	38.4297
908.74	69.4092
913.241	22.4072
917.739	53.2998
922.235	11.1387
926.729	71.2432
931.219	112.087
935.708	41.125
940.193	147.55
944.676	54.2383
949.156	306.938
953.634	189.751
958.109	578.704
962.582	774.863
967.051	785.258
971.519	1031.92
975.983	1412.92
980.445	1837.41
984.905	2860.46
989.362	4465.13
993.816	7517.36
998.267	12484.2
1002.72	19132.5
1007.16	26217.5
1011.61	26482
1016.05	20217
1020.49	13376.8
1024.92	9946.38
1029.36	9735.2
1033.79	11955.6
1038.21	16178.2
1042.64	20011
1047.06	23428.5
1051.48	27177.3
1055.9	35597.2
1060.32	44625.8
1064.73	37779.8
1069.14	19959.6
1073.55	9521.07
1077.95	5311.47
1082.35	3325.94
1086.75	2938.18
1091.15	2265.21
1095.54	2626.01
1099.93	2992.59
1104.32	4439.96
1108.71	6348.12
1113.09	6838.74
1117.47	7314.51
1121.85	6690.99
1126.23	5573.27
1130.6	4418.49
1134.97	3449.62
1139.34	2147.36
1143.7	1541.76
1148.07	1018.95
1152.43	1108
1156.79	891.219
1161.14	895.549
1165.49	626.787
1169.84	720.008
1174.19	1048.95
1178.54	959.379
1182.88	1429.5
1187.22	2430.18
1191.55	2934.39
1195.89	3442.06
1200.22	3460.63
1204.55	3464.86
1208.87	2788.62
1213.2	2169.69
1217.52	1575.28
1221.84	986.873
1226.15	420.873
1230.47	3.86523
1234.78	59.6094
1239.09	141.297
1243.39	5.05469
1247.69	70.3008
1251.99	24.0566
1256.29	73.6465
1260.59	109.725
1264.88	5.49609
1269.17	79.5488
1273.46	50.2988
1277.74	161.527
1282.02	155.31
1286.3	113.967
1290.58	180.305
1294.86	304.853
1299.13	237.066
1303.39	176.027
1307.66	103.545
1311.93	252.81
1316.19	109.883
1320.45	343.705
1324.7	306.24
1328.96	404.381
1333.21	361.184
1337.45	224.705
1341.7	299.176
1345.94	163.062
1350.18	300.533
1354.42	249.654
1358.66	356.281
1362.89	145.9
1367.12	341.272
1371.35	530.394
1375.57	330.703
1379.8	152.982
1384.02	256.76
1388.23	80.9941
1392.45	234.496
1396.66	30.1543
1400.87	89.9981
1405.08	89.5332
1409.28	175.555
1413.48	173.574
1417.68	13.8301
1421.88	75.0644
1426.07	258.037
1430.26	184.359
1434.45	507.045
1438.64	556.856
1442.82	301.49
1447	243.285
1451.18	392.856
1455.35	268.346
1459.53	301.158
1463.7	235.857
1467.87	148.92
1472.03	254.42
1476.19	198.965
1480.35	274.879
1484.51	144.307
1488.67	158.871
1492.82	448.883
1496.97	603.867
1501.12	855.826
1505.26	1131.03
1509.4	1202.74
1513.54	738.92
1517.68	390.062
1521.81	671.406
1525.94	316.537
1530.07	276.828
1534.2	184.547
1538.32	173.113
1542.44	50.6973
1546.56	21.7422
1550.68	220.705
1554.79	200.809
1558.9	30.0254
1563.01	161.435
1567.12	174.865
1571.22	265.574
1575.32	141.803
