Measurement: Raman, 514 nm, ccw, Raman Data Processed
Mineral: Montebrasite
Rruff sample: R040062
Ideal chemistry: LiAlPO_4_(OH)
Locality: Hebron, Maine, USA
Source: University of Arizona Mineral Museum
Description: White massive
Measured chemistry: LiAl(PO_4_)((OH)_0.62_F_0.38_)
Pin_id: M00438
Orientation: Laser parallel to a* (1 0 0). Fiducial mark perpendicular to laser is parallel to b [0 1 0]
Raman shift (cm-1)	intensity
123.079	0
127.265	220.033
131.449	831.056
135.631	941.052
139.81	595.175
143.988	191.582
148.163	25.023
152.336	83.714
156.507	199.618
160.675	439.918
164.842	1075.1
169.006	1458.18
173.168	1421.06
177.328	1333.94
181.485	1126.96
185.641	915.813
189.794	587.749
193.945	395.853
198.094	105.074
202.241	35.186
206.385	216.029
210.528	257.224
214.668	288.966
218.806	401.242
222.942	344.028
227.076	367.286
231.207	130.968
235.337	95.035
239.464	39.438
243.589	4.232
247.712	60.161
251.833	83.488
255.951	25.852
260.068	182.157
264.182	560.415
268.294	1118.38
272.404	2045.89
276.512	2493.32
280.618	2160.75
284.721	2038.17
288.823	2743.18
292.922	5116.24
297.019	9945.12
301.114	12221.5
305.207	8948.97
309.298	6196.98
313.387	4374.97
317.473	2833.22
321.558	2211.6
325.64	1570
329.72	1138.4
333.798	756.824
337.874	545.273
341.948	353.746
346.019	322.576
350.089	270.752
354.156	218.975
358.222	329.622
362.285	499.611
366.346	552.458
370.405	761.557
374.462	864.997
378.516	879.95
382.569	835.234
386.62	844.177
390.668	792.536
394.714	716.223
398.759	485.4
402.801	498.737
406.841	494.038
410.879	365.834
414.915	282.196
418.949	266.229
422.98	783.594
427.01	1080.73
431.037	687.76
435.063	304.649
439.086	311.413
443.108	188.022
447.127	254.471
451.144	40.762
455.159	56.941
459.172	222.909
463.183	148.67
467.192	44.232
471.198	339.578
475.203	504.708
479.206	739.613
483.206	824.286
487.205	978.719
491.201	812.907
495.196	736.848
499.188	430.529
503.178	373.951
507.166	287.102
511.153	269.975
515.137	242.771
519.119	65.076
523.099	177.918
527.077	160.076
531.053	57.229
535.027	114.545
538.998	93.008
542.968	82.434
546.936	138.34
550.902	109.1
554.865	127.186
558.827	21.057
562.786	185.809
566.744	110.629
570.7	221.836
574.653	45.482
578.604	305.447
582.554	443.436
586.501	522.588
590.447	789.885
594.39	1287.36
598.331	2903.12
602.271	4718.23
606.208	3092.87
610.143	1885.69
614.077	1338.82
618.008	1287.55
621.937	1719.41
625.865	2750.1
629.79	4151.1
633.713	3591.7
637.634	2731.91
641.553	4151.7
645.471	6541.09
649.386	5030.08
653.299	2598.66
657.21	1346.83
661.12	964.6
665.027	631.623
668.932	618.277
672.835	503.838
676.737	245.697
680.636	459.236
684.533	258.502
688.428	305.164
692.322	92.328
696.213	230.852
700.102	101.465
703.99	214.887
707.875	43.234
711.758	239.908
715.64	221.061
719.519	368.844
723.397	2.461
727.272	33.557
731.146	43.094
735.017	365.709
738.887	137.867
742.755	55.885
746.62	273.312
750.484	120.428
754.346	177.447
758.206	346.846
762.063	243.465
765.919	119.051
769.773	274.682
773.625	264.326
777.475	509.002
781.323	483.789
785.169	918.25
789.013	1372.03
792.856	1845.52
796.696	2238.72
800.534	2891.64
804.371	3044.28
808.205	2796.66
812.037	2238.76
815.868	1640.61
819.697	1682.21
823.523	1193.56
827.348	854.477
831.171	454.832
834.992	235.145
838.811	184.652
842.628	203.58
846.443	261.34
850.256	159.717
854.067	32.373
857.876	144.277
861.684	76.939
865.489	291.627
869.293	204.158
873.095	75.766
876.894	353.301
880.692	325.719
884.488	3.445
888.282	247.365
892.074	242.904
895.864	116.844
899.652	74.176
903.439	8.945
907.223	64.15
911.006	213.164
914.786	199.75
918.565	3.164
922.342	154.436
926.117	62.002
929.89	359.643
933.661	107.305
937.43	184.895
941.198	132.422
944.963	49.904
948.727	197.348
952.488	344.773
956.248	342.178
960.006	659.57
963.762	1136.95
967.516	744.328
971.269	611.709
975.019	539.102
978.767	856.514
982.514	993.963
986.259	1311.47
990.002	1728.92
993.743	2464.89
997.482	4051.7
1001.22	5988.68
1004.95	8489.24
1008.69	10946.3
1012.42	10298.8
1016.15	7850.17
1019.88	5245.35
1023.6	3833.1
1027.33	3319.01
1031.05	3724.51
1034.77	4644.03
1038.49	6213.65
1042.21	8169.66
1045.92	8939.6
1049.63	9169.85
1053.35	9410.1
1057.05	11117.6
1060.76	11208.5
1064.47	7487.33
1068.17	4255.88
1071.87	2535.24
1075.57	1839.4
1079.27	1518.02
1082.97	1156.04
1086.66	1214.07
1090.36	862.586
1094.05	1121.48
1097.73	1501.5
1101.42	2081.75
1105.11	3222.17
1108.79	3862.76
1112.47	4073.55
1116.15	3374.53
1119.83	2875.76
1123.51	2657.27
1127.18	2129.62
1130.86	1472.61
1134.53	1256.11
1138.19	608.887
1141.86	331.773
1145.53	565.051
1149.19	298.551
1152.85	342.359
1156.51	156.547
1160.17	491.258
1163.83	236.598
1167.48	152.57
1171.13	410.816
1174.78	83.582
1178.43	95.633
1182.08	193.102
1185.73	342.68
1189.37	663.098
1193.01	724.48
1196.65	777.02
1200.29	340.887
1203.93	307.555
1207.56	343.5
1211.19	322.906
1214.83	237.617
1218.45	347.316
1222.08	618.629
1225.71	493.117
1229.33	156.297
1232.95	1.211
1236.57	340.766
1240.19	376.078
