Measurement: Raman, 514 nm, ccw, Raman Data Processed
Mineral: Monticellite
Rruff sample: R040115
Ideal chemistry: CaMgSiO_4_
Locality: Magnet Cove, Arkansas, USA
Source: University of Arizona Mineral Museum
Description: Brown blebs in matrix
Measured chemistry: Ca_0.99_(Mg_0.85_ Fe_0.12_Mn_0.03_)Si_1.00_O_4_
Pin_id: M00321
Orientation: Laser parallel to a* (1 0 0). Fiducial mark perpendicular to laser is parallel to -b [0 -1 0]
Raman shift (cm-1)	intensity
102.428	0
106.604	77.117
110.777	24.807
114.949	43.186
119.119	67.342
123.286	35.572
127.452	4.394
131.615	17.688
135.777	50.045
139.937	15.693
144.094	44.016
148.25	51.735
152.403	84.702
156.555	151.838
160.705	406.103
164.853	1031.52
168.998	1791.09
173.142	1146.67
177.284	368.07
181.424	101.139
185.562	28.914
189.698	65.463
193.831	52.866
197.963	85.17
202.093	133.391
206.221	226.569
210.347	186.717
214.472	189.852
218.594	195.954
222.714	177.116
226.832	191.818
230.948	238.552
235.063	328.839
239.175	478.76
243.286	758.225
247.394	1498.69
251.501	3988.1
255.605	6732.44
259.708	4302.7
263.808	1699.88
267.907	1065.09
272.004	1178.83
276.099	1040.79
280.192	614.918
284.283	396.323
288.372	380.62
292.459	466.207
296.544	870.245
300.627	2139.87
304.709	3092.86
308.788	1764.55
312.865	630.436
316.941	262.392
321.015	195.366
325.086	175.362
329.156	223.824
333.224	152.291
337.29	94.559
341.354	51.426
345.416	40.809
349.476	13.188
353.534	34.297
357.591	31.535
361.645	12.057
365.698	29.484
369.748	0.174
373.797	14.007
377.844	42.065
381.889	64.02
385.932	188.887
389.973	502.648
394.012	1047.21
398.049	1579.49
402.084	1565.57
406.118	1055.5
410.15	631.364
414.179	376.153
418.207	244.871
422.233	166.516
426.257	117.088
430.279	103.588
434.299	127.011
438.318	84.351
442.334	86.604
446.349	65.422
450.361	59.286
454.372	40.48
458.381	62.745
462.388	32.674
466.394	92.781
470.397	82.627
474.398	58.844
478.398	49.953
482.396	69.208
486.391	96.843
490.385	114.249
494.377	105.05
498.368	128.734
502.356	128.469
506.342	162.401
510.327	219.186
514.31	293.781
518.291	447.972
522.27	894.737
526.247	2264.25
530.222	4527
534.196	3711.08
538.167	1864.45
542.137	891.776
546.105	549.22
550.071	421.575
554.035	369.274
557.998	357.027
561.958	345.132
565.917	372.159
569.874	470.111
573.829	533.988
577.782	542.846
581.733	544.525
585.683	464.187
589.63	299.781
593.576	187.309
597.52	97.771
601.462	15.092
605.402	9.012
609.341	8.965
613.277	18.512
617.212	33.882
621.145	15.855
625.076	11.536
629.006	36.398
632.933	18.77
636.859	10.725
640.783	33.647
644.705	12.278
648.625	34.463
652.543	16.039
656.46	5.256
660.375	9.58
664.288	5.063
668.199	10.298
672.108	12.35
676.016	0.05
679.921	12.836
683.825	3.697
687.727	12.653
691.628	65.706
695.526	34.803
699.423	45.919
703.318	66.046
707.211	42.187
711.102	30.346
714.992	113.523
718.879	134.723
722.765	112.947
726.649	114.199
730.532	162.154
734.412	156.794
738.291	165.142
742.168	151.527
746.043	221.952
749.916	212.419
753.788	288.938
757.658	258.323
761.526	300.187
765.392	334.198
769.257	348.074
773.119	434.929
776.98	413.001
780.839	457.169
784.697	565.396
788.552	674.062
792.406	817.17
796.258	982.258
800.108	1431.7
803.957	2014.88
807.804	3484.75
811.649	7207.47
815.492	14420.1
819.333	15577
823.173	9619.89
827.011	6198.39
830.847	5142.27
834.681	5535.44
838.514	7989.22
842.345	17002.1
846.174	41264.3
850.001	61556.3
853.827	36633.4
857.651	16298.6
861.473	7974.97
865.293	4714.39
869.112	3274.92
872.928	2334.55
876.744	1810.29
880.557	1495.13
884.369	1218.08
888.178	1272.14
891.987	1580.3
895.793	2950.57
899.598	3589.94
903.401	1783.42
907.202	911.79
911.001	681.111
914.799	560.066
918.595	453.067
922.389	412.979
926.182	477.53
929.972	566.613
933.761	845.176
937.549	1495.9
941.334	3651.23
945.118	9837.36
948.9	9792.02
952.681	3781.22
956.459	1391.28
960.236	697.882
964.012	374.573
967.785	162.376
971.557	85.291
975.327	35.297
979.095	12.604
982.862	12.427
986.627	8.188
990.39	48.91
994.152	17.334
997.912	51.605
1001.67	70.928
1005.43	87.308
1009.18	70.74
1012.93	71.225
1016.68	122.761
1020.43	137.343
1024.18	117.969
1027.93	145.636
1031.67	103.341
1035.42	83.082
1039.16	147.856
1042.9	134.82
1046.63	94.498
1050.37	17.359
1054.11	44.246
1057.84	9.878
1061.57	6.973
1065.3	15.215
1069.03	40.735
1072.75	23.022
1076.47	1.02
1080.2	35.093
1083.92	61.627
1087.64	20.448
1091.36	33.889
1095.07	35.352
1098.79	7.056
1102.5	5.187
1106.21	19.541
1109.92	43.783
1113.62	103.02
1117.33	80.128
1121.04	94.136
1124.74	130.911
1128.44	96.039
1132.14	73.676
1135.83	63.732
1139.53	91.451
1143.22	79.93
1146.92	91.811
1150.61	195.873
1154.3	190.853
1157.98	135.638
1161.67	143.826
1165.35	114.572
1169.04	126.276
1172.72	99.844
1176.4	72.352
1180.07	56.802
1183.75	100.189
1187.42	74.515
1191.1	58.777
1194.77	84.008
1198.44	81.14
1202.1	211.215
1205.77	90.849
1209.43	107.727
1213.1	71.529
1216.76	75.793
1220.42	47.11
1224.07	4.834
1227.73	43.351
1231.38	19.866
1235.04	50.302
1238.69	2.231
1242.34	9.306
1245.99	23.838
1249.63	24.818
1253.28	3.354
1256.92	19.026
1260.56	10.367
1264.2	1.094
1267.84	9.591
1271.48	18.623
1275.11	15.999
1278.74	4.947
1282.38	36.073
1286.01	10.991
1289.63	21.946
1293.26	29.79
1296.89	29.568
1300.51	76.277
1304.13	41.918
1307.75	35.488
1311.37	31.987
1314.99	144.415
1318.6	89.775
1322.22	164.072
1325.83	60.311
1329.44	93.496
1333.05	52.621
1336.66	41.696
1340.26	79.72
1343.87	79.697
1347.47	54.629
1351.07	68.547
1354.67	66.444
1358.27	39.349
1361.86	38.544
1365.46	124.392
1369.05	84.29
1372.64	101.004
1376.23	45.699
1379.82	41.971
1383.41	55.344
1386.99	39.065
1390.57	54.655
1394.16	39.704
1397.74	36.643
1401.32	25.65
1404.89	26.457
1408.47	75.968
1412.04	86.838
1415.61	81.318
1419.18	68.994
1422.75	38.261
1426.32	88.553
1429.89	33.763
1433.45	44.842
1437.01	42.872
1440.58	98.833
1444.13	109.645
1447.69	72.368
1451.25	109.985
1454.81	88.363
1458.36	117.801
1461.91	139.592
1465.46	34.58
1469.01	111.817
1472.56	75.695
1476.1	143.207
1479.64	83.628
1483.19	111.103
1486.73	134.759
1490.27	140.572
1493.81	37.645
1497.34	73.008
1500.88	37.662
1504.41	15.696
1507.94	16.791
1511.47	94.365
1515	50.386
1518.53	22.183
1522.05	5.581
1525.57	25.77
