Measurement: Raman, 514 nm, ccw, Raman Data Processed
Mineral: Montebrasite
Rruff sample: R040060
Ideal chemistry: LiAlPO_4_(OH)
Locality: Oxford County, Maine, USA
Source: University of Arizona Mineral Museum
Description: White massive
Measured chemistry: LiAl(PO_4_)((OH)_0.79_F_0.21_)
Pin_id: L00218
Orientation: Laser parallel to -c* (0 0 -1). Fiducial mark perpendicular to laser is parallel to a [1 0 0]
Raman shift (cm-1)	intensity
109.998	0
114.182	1364.57
118.363	2491.67
122.543	786.739
126.72	761.44
130.896	2207.43
135.069	4096.51
139.24	3768.42
143.41	1568.46
147.577	482.65
151.742	29.132
155.905	242.461
160.066	550.477
164.225	1237.69
168.381	1814.39
172.536	1800.89
176.689	1312.54
180.839	1081.34
184.988	1299.12
189.134	1558.36
193.279	1880.72
197.421	1823.54
201.561	1286.36
205.7	471.221
209.836	32.01
213.97	7.427
218.102	103.737
222.232	263.358
226.36	301.329
230.486	289.112
234.61	202.807
238.732	26.296
242.852	147.319
246.969	142.991
251.085	169.678
255.199	172.457
259.31	50.452
263.42	102.029
267.528	649.452
271.633	1883.32
275.737	3283.82
279.838	3113.79
283.938	2324.49
288.035	2656.76
292.131	6023.8
296.224	13841.2
300.315	17048.5
304.405	11775.8
308.492	7542.78
312.578	5779.36
316.661	4315.3
320.742	3783.68
324.821	3070.59
328.899	1943.99
332.974	1134
337.047	491.714
341.119	363.886
345.188	223.061
349.255	59.903
353.32	10.138
357.384	68.49
361.445	185.104
365.504	196.407
369.561	196.776
373.617	332.249
377.67	482.276
381.721	628.286
385.77	723.467
389.818	802.546
393.863	917.617
397.906	1047.81
401.948	1040.7
405.987	1042
410.025	1137.14
414.06	1539.16
418.093	2077.69
422.125	5170.52
426.154	12076.5
430.182	10144.3
434.207	4132.06
438.231	1726.86
442.252	944.589
446.272	597.186
450.29	442.604
454.305	295.817
458.319	316.794
462.331	432.523
466.341	547.996
470.348	932.208
474.354	1639.16
478.358	2868.85
482.36	3853.28
486.36	4028.46
490.358	3783.39
494.354	3498.06
498.349	2936.48
502.341	2146.64
506.331	1402.57
510.319	783.339
514.306	387.729
518.29	140.761
522.273	75.989
526.253	37.768
530.232	64.032
534.208	91.733
538.183	12.923
542.156	63.892
546.127	238.719
550.096	282.543
554.063	281.53
558.028	208.515
561.991	165.531
565.952	171.634
569.911	345.068
573.869	377.711
577.824	607.862
581.778	644.923
585.729	847.535
589.679	1069.46
593.627	1801.28
597.573	3661.19
601.517	5843.67
605.459	4734.66
609.399	2636.04
613.337	1756.14
617.273	1793.4
621.208	2470.74
625.14	4217.65
629.071	6324.17
632.999	5800.31
636.926	5436.05
640.851	9011.41
644.774	18386.4
648.695	17280.9
652.614	8475.12
656.531	3638.9
660.447	1796.29
664.36	1154.27
668.272	743.866
672.182	427.129
676.089	345.561
679.995	271.322
683.899	233.99
687.802	126.783
691.702	29.987
695.6	16.077
699.497	4.303
703.391	27.368
707.284	39.649
711.175	83.276
715.064	10.423
718.951	20.449
722.837	60.542
726.72	1.08
730.601	65.967
734.481	21.006
738.359	67.483
742.235	97.543
746.109	69.355
749.981	105.899
753.851	145.799
757.72	131.287
761.587	60.745
765.451	201.393
769.314	209.703
773.175	301.562
777.034	430.016
780.892	597.524
784.747	834.195
788.601	1310.48
792.453	1936.39
796.303	3071.93
800.151	3517.1
803.997	3471.9
807.841	2916.36
811.684	2360.46
815.525	1824.22
819.363	1347.65
823.201	890.747
827.036	573.521
830.869	415.98
834.701	227.316
838.53	227.69
842.358	167.208
846.184	34.478
850.008	98.492
853.831	31.41
857.651	63.23
861.47	0.897
865.287	82.852
869.102	32.718
872.915	61.94
876.727	43.823
880.536	23.429
884.344	64.943
888.15	13.402
891.954	62.274
895.757	41.921
899.557	16.699
903.356	93.148
907.153	28.813
910.948	55.301
914.741	30.108
918.533	95.22
922.323	91.495
926.111	108.524
929.897	24.295
933.681	82.935
937.463	50.168
941.244	187.413
945.023	164.683
948.8	251.981
952.575	249.317
956.349	406.7
960.121	654.137
963.891	1561.64
967.659	1779.24
971.425	1176.93
975.19	1244.74
978.952	1582.65
982.713	1810.69
986.473	2318.86
990.23	3097.2
993.986	4275.87
997.739	6483.89
1001.49	9891.19
1005.24	15989
1008.99	24213.8
1012.74	29063
1016.48	23287.6
1020.23	15194.6
1023.97	10103.2
1027.71	7838.86
1031.44	7109.9
1035.18	8539.39
1038.91	11390.9
1042.65	16990.1
1046.38	21492.3
1050.11	19661.8
1053.84	19371.6
1057.56	24974.6
1061.28	27319.6
1065.01	18781.8
1068.73	10266.1
1072.44	5999.72
1076.16	3785.6
1079.88	2821.23
1083.59	2427.53
1087.3	1814.08
1091.01	1540.95
1094.72	1637.99
1098.42	1885.09
1102.13	2462.64
1105.83	4370.14
1109.53	5818.62
1113.23	5008.39
1116.93	3756.54
1120.63	2917.78
1124.32	2628.23
1128.01	1657.6
1131.7	1138.38
1135.39	786.521
1139.08	509.034
1142.77	438.475
1146.45	250.809
1150.13	347.748
1153.81	378.726
1157.49	198.947
1161.17	184.834
1164.84	275.892
1168.51	437.744
1172.18	530.322
1175.86	578.188
1179.52	942.053
1183.19	1354.19
1186.86	1992.2
1190.52	2172.12
1194.18	2236.66
1197.84	1783.56
1201.5	1548.72
1205.15	1121.83
1208.81	867.386
1212.46	558.205
1216.11	278.975
1219.76	251.952
1223.41	161.086
1227.05	251.501
1230.7	278.553
1234.34	238.107
1237.98	77.703
1241.62	156.531
1245.26	24.867
1248.89	83.363
1252.53	31.678
1256.16	30.15
1259.79	147.4
1263.42	145.83
1267.05	122.859
1270.67	59.207
1274.3	4.389
1277.92	120.895
1281.54	14.643
1285.16	20.869
1288.77	67.281
1292.39	15.078
1296	116.932
1299.61	51.596
1303.22	139.229
1306.83	29.447
1310.44	130.814
1314.05	18.363
1317.65	7.033
1321.25	55.148
1324.85	102.684
1328.45	159.689
1332.05	216.166
1335.64	2.084
1339.24	137.475
1342.83	27.617
1346.42	13.215
1350.01	49.252
1353.59	164.277
1357.18	97.916
1360.76	320.822
1364.34	243.473
1367.92	165.895
1371.5	108.822
1375.08	70.887
1378.65	53.49
1382.23	115.396
1385.8	166.893
1389.37	385.523
1392.94	222.529
1396.51	237.855
1400.07	382.191
1403.64	306.127
1407.2	223.043
1410.76	212.26
1414.32	32.074
1417.87	306.029
1421.43	202.725
1424.98	198.492
1428.54	74.189
1432.09	255.986
1435.63	432.193
1439.18	392.949
1442.73	399.586
1446.27	311.73
1449.82	248.617
1453.36	107.113
1456.89	251.578
1460.43	285.303
1463.97	374.562
1467.5	345.596
1471.04	389.607
1474.57	414.131
1478.1	280.803
1481.62	467.41
1485.15	515.217
1488.67	313.496
1492.2	273.811
1495.72	23.555
1499.24	151.672
1502.76	120.533
1506.27	248.83
1509.79	348.549
1513.3	222.986
