Measurement: Raman, 514 nm, ccw, Raman Data Processed
Mineral: Montebrasite
Rruff sample: R040062
Ideal chemistry: LiAlPO_4_(OH)
Locality: Hebron, Maine, USA
Source: University of Arizona Mineral Museum
Description: White massive
Measured chemistry: LiAl(PO_4_)((OH)_0.62_F_0.38_)
Pin_id: L00090
Orientation: Laser parallel to -b* (0 -1 0). Fiducial mark perpendicular to laser is parallel to c [0 0 1]
Raman shift (cm-1)	intensity
131.469	0
135.649	190.517
139.827	162.656
144.003	92.986
148.177	61.204
152.348	264.456
156.517	340.317
160.685	680.291
164.85	1113.13
169.012	1105.41
173.173	977.496
177.332	819.604
181.488	542.978
185.642	616.598
189.794	395.236
193.944	386.038
198.092	136.705
202.237	147.983
206.38	209.801
210.522	282.086
214.661	314.804
218.798	207.878
222.932	231.048
227.065	184.332
231.196	157.846
235.324	91.577
239.45	75.512
243.574	209.631
247.696	46.088
251.816	128.508
255.933	33.516
260.049	358.977
264.162	514.758
268.274	1001.66
272.383	1467.94
276.49	1594.35
280.595	1330.92
284.697	977.584
288.798	1284.3
292.896	2451.38
296.993	4468.77
301.087	4915.76
305.179	3271.39
309.269	2026.92
313.357	1548.61
317.443	934.73
321.527	671.033
325.608	577.469
329.688	353.975
333.765	230.547
337.84	157.195
341.913	153.914
345.984	150.686
350.053	237.508
354.12	123.973
358.185	120.443
362.248	207.549
366.308	219.76
370.367	196.938
374.423	209.328
378.478	122.111
382.53	313.783
386.58	295.461
390.628	215.473
394.674	223.51
398.718	283.908
402.76	16.225
406.799	387.172
410.837	81.543
414.873	244.172
418.906	302.551
422.938	922.734
426.967	1081.31
430.994	629.283
435.02	237.133
439.043	284.932
443.064	322.666
447.083	110.346
451.1	17.959
455.115	325.531
459.128	443.043
463.139	350.479
467.147	377.85
471.154	745.158
475.159	982.451
479.161	1659.67
483.162	1846.8
487.161	1843.84
491.157	1600.78
495.151	1447.64
499.144	1074.39
503.134	731.031
507.123	717.852
511.109	494.271
515.093	380.746
519.075	67.459
523.055	234.797
527.034	331.418
531.01	12.41
534.984	153.68
538.956	20.145
542.926	15.803
546.894	44.633
550.86	129.846
554.824	23.152
558.786	108.129
562.746	21.895
566.704	33.994
570.66	169.637
574.614	32.895
578.565	94.34
582.515	355.873
586.463	288.428
590.409	451.076
594.353	523.105
598.295	1524.89
602.235	2067.03
606.172	1358.18
610.108	808.797
614.042	534.221
617.974	554.973
621.904	916.047
625.832	1296.28
629.758	2246.46
633.681	1976.24
637.603	1605.8
641.523	2595.12
645.441	3914.22
649.357	2843.09
653.271	1531.73
657.183	760.148
661.093	648.336
665.001	356.285
668.907	344.016
672.811	291.518
676.713	68.457
680.613	155.232
684.511	266.537
688.407	140.914
692.302	103.25
696.194	142.934
700.084	10.242
703.972	251.43
707.859	54.051
711.743	156.123
715.626	82.484
719.506	328.734
723.384	10.479
727.261	133.021
731.136	98.9
735.008	363.008
738.879	355.307
742.748	86.227
746.614	188.93
750.479	150.133
754.342	211.205
758.203	372.088
762.062	232.811
765.919	36.607
769.774	78.244
773.627	58.412
777.479	498.455
781.328	428.334
785.175	478.08
789.021	707.691
792.864	757.186
796.706	1066.56
800.545	1165.81
804.383	1534.96
808.219	1204
812.053	822.938
815.885	461.775
819.715	960.576
823.543	639.23
827.369	307.633
831.193	204.326
835.016	152.273
838.836	190.389
842.654	217.738
846.471	255.305
850.286	47.34
854.099	37.477
857.909	154.848
861.718	231.133
865.525	537.684
869.331	434.887
873.134	90.996
876.935	344.977
880.735	533.738
884.532	243.805
888.328	473.355
892.122	443.477
895.913	48.109
899.703	190.949
903.491	59.883
907.278	139.254
911.062	347.922
914.844	407.418
918.625	277.578
922.404	311.219
926.18	170.008
929.955	409.328
933.728	428.777
937.499	288.145
941.269	297.773
945.036	87.457
948.801	187.215
952.565	517.031
956.327	196.918
960.087	416.863
963.845	36.879
967.601	86.957
971.355	467.121
975.107	177.391
978.858	547.777
982.607	798.289
986.353	548.945
990.098	799.625
993.841	1500.56
997.583	2426.85
1001.32	3434.51
1005.06	4652.75
1008.79	5974.28
1012.53	5523.62
1016.26	4213.16
1019.99	2889.53
1023.72	2349.63
1027.45	1962.73
1031.17	2185.55
1034.89	2367.79
1038.61	3071.22
1042.33	3602.96
1046.05	4185.74
1049.77	4360.05
1053.48	4754.56
1057.19	6259.12
1060.9	5823.87
1064.61	3570.72
1068.32	1930.67
1072.02	1484.33
1075.72	1127.77
1079.42	1231.21
1083.12	884.691
1086.82	821.426
1090.51	485.164
1094.21	588.383
1097.9	1141.66
1101.59	1534.43
1105.28	1896.98
1108.96	2319.75
1112.65	2362.05
1116.33	2015.45
1120.01	1581.09
1123.69	1507.37
1127.37	1393.96
1131.04	1030.77
1134.71	847.984
1138.39	445.508
1142.06	77.117
1145.72	699.801
1149.39	336.742
1153.05	283.965
1156.72	491.441
1160.38	819.105
1164.04	266.918
1167.69	65.375
1171.35	295.707
1175	183.504
1178.65	333.098
1182.31	503.203
1185.95	603.934
1189.6	1165.37
1193.24	1007.41
1196.89	999.961
1200.53	303.062
1204.17	253.363
1207.81	526.527
1211.44	662.34
1215.07	723.719
1218.71	670.824
1222.34	601.375
1225.97	579.148
1229.59	36.484
1233.22	33.633
1236.84	527.613
1240.46	582.512
1244.08	599.883
1247.7	404.844
1251.32	342.773
1254.93	450.672
1258.54	1.348
