Measurement: Raman, 514 nm, ccw, Raman Data Processed
Mineral: Monticellite
Rruff sample: R040115
Ideal chemistry: CaMgSiO_4_
Locality: Magnet Cove, Arkansas, USA
Source: University of Arizona Mineral Museum
Description: Brown blebs in matrix
Measured chemistry: Ca_0.99_(Mg_0.85_ Fe_0.12_Mn_0.03_)Si_1.00_O_4_
Pin_id: M00492
Orientation: Laser parallel to b* (0 1 0). Fiducial mark perpendicular to laser is parallel to -c [0 0 -1]
Raman shift (cm-1)	intensity
102.428	0
106.604	80.346
110.777	58.336
114.949	77.478
119.119	142.696
123.286	38.541
127.452	21.655
131.615	20.494
135.777	77.68
139.937	112.815
144.094	79.6
148.25	43.73
152.403	14.07
156.555	108.55
160.705	252.113
164.853	896.518
168.998	1817.13
173.142	1059.26
177.284	196.068
181.424	39.423
185.562	10.373
189.698	39.049
193.831	50.574
197.963	89.041
202.093	167.418
206.221	232.746
210.347	153.973
214.472	103.07
218.594	82.063
222.714	88.896
226.832	138.137
230.948	182.789
235.063	273.702
239.175	426.1
243.286	604.239
247.394	1235.98
251.501	3229.64
255.605	6898.18
259.708	3786.61
263.808	1239.91
267.907	831.428
272.004	1113.99
276.099	1024
280.192	474.959
284.283	295.547
288.372	266.993
292.459	365.531
296.544	690.93
300.627	1797.33
304.709	3104.31
308.788	1484.12
312.865	446.151
316.941	189.827
321.015	177.776
325.086	156.37
329.156	143.114
333.224	121.599
337.29	51.833
341.354	43.125
345.416	30.17
349.476	16.9
353.534	23.154
357.591	4.431
361.645	8.824
365.698	0.056
369.748	9.882
373.797	47.014
377.844	44.797
381.889	82.477
385.932	201.05
389.973	447.463
394.012	887.576
398.049	1492.41
402.084	1659
406.118	1390.45
410.15	986.793
414.179	619.05
418.207	383.219
422.233	207.298
426.257	139.289
430.279	176.191
434.299	56.991
438.318	110.677
442.334	76.249
446.349	62.532
450.361	56.375
454.372	53.031
458.381	56.925
462.388	14.999
466.394	80.693
470.397	64.265
474.398	71.758
478.398	55.188
482.396	83.947
486.391	87.179
490.385	119.124
494.377	147.942
498.368	95.797
502.356	123.552
506.342	172.09
510.327	177.508
514.31	268.379
518.291	418.722
522.27	791.771
526.247	2036.53
530.222	4267.83
534.196	3439.59
538.167	1532.85
542.137	754.679
546.105	447.021
550.071	353.265
554.035	338.413
557.998	345.653
561.958	386.951
565.917	355.504
569.874	393.304
573.829	496.022
577.782	477.659
581.733	418.435
585.683	354.699
589.63	267.105
593.576	143.188
597.52	109.373
601.462	15.308
605.402	26.411
609.341	26.896
613.277	25.952
617.212	8.041
621.145	2.686
625.076	46.367
629.006	13.717
632.933	31.654
636.859	41.683
640.783	60.9
644.705	44.995
648.625	13.754
652.543	4.468
656.46	3.656
660.375	37.956
664.288	52.73
668.199	1.57
672.108	37.175
676.016	12.946
679.921	48.796
683.825	37.03
687.727	7.352
691.628	1.344
695.526	55.332
699.423	72.622
703.318	44.586
707.211	22.561
711.102	8.449
714.992	106.552
718.879	56.572
722.765	108.614
726.649	88.681
730.532	84.775
734.412	84.9
738.291	223.057
742.168	150.25
746.043	194.741
749.916	201.775
753.788	284.132
757.658	219.304
761.526	285.692
765.392	307.138
769.257	359.491
773.119	355.899
776.98	428.889
780.839	478.836
784.697	486.686
788.552	548.753
792.406	698.899
796.258	921.354
800.108	1307.77
803.957	1941.32
807.804	3194.58
811.649	6681.02
815.492	13834.2
819.333	15680.6
823.173	9287.58
827.011	5763.34
830.847	4684.58
834.681	4919.91
838.514	6847.57
842.345	14348.2
846.174	35757.2
850.001	58351.1
853.827	33233.9
857.651	14312.8
861.473	7090.85
865.293	4280.79
869.112	2988.03
872.928	2030.37
876.744	1626.81
880.557	1363.35
884.369	1070.01
888.178	889.768
891.987	890.633
895.793	1092.6
899.598	1361.01
903.401	773.475
907.202	538.625
911.001	443.151
914.799	391.334
918.595	330.963
922.389	423.783
926.182	443.771
929.972	512.044
933.761	713.013
937.549	1257.24
941.334	3088.09
945.118	8869.92
948.9	9457.37
952.681	3435.47
956.459	1237.81
960.236	620.865
964.012	273.001
967.785	149.267
971.557	84.65
975.327	24.126
979.095	18.426
982.862	27.458
986.627	18.23
990.39	7.92
994.152	6.024
997.912	24.953
1001.67	31.002
1005.43	102.134
1009.18	92.348
1012.93	76.613
1016.68	52.93
1020.43	109.297
1024.18	171.708
1027.93	116.19
1031.67	174.906
1035.42	66.538
1039.16	118.101
1042.9	99.809
1046.63	117.439
1050.37	14.079
1054.11	55.715
1057.84	2.666
1061.57	4.956
1065.3	35.613
1069.03	22.725
1072.75	20.692
1076.47	18.127
1080.2	57.476
1083.92	49.144
1087.64	4.104
1091.36	8.303
1095.07	52.579
1098.79	48.204
1102.5	2.001
1106.21	26.673
1109.92	73.02
1113.62	82.45
1117.33	104.499
1121.04	148.543
1124.74	99.882
1128.44	76.418
1132.14	44.526
1135.83	20.036
1139.53	29.663
1143.22	17.58
1146.92	78.875
1150.61	111.751
1154.3	156.775
1157.98	139.404
1161.67	123.122
1165.35	69.825
1169.04	44.252
1172.72	142.621
1176.4	46.927
1180.07	29.166
1183.75	71.335
1187.42	48.568
1191.1	61.979
1194.77	132.314
1198.44	84.879
1202.1	196.415
1205.77	114.157
1209.43	131.843
1213.1	102.778
1216.76	63.242
1220.42	20.772
1224.07	30.482
1227.73	45.529
1231.38	57.907
1235.04	34.12
1238.69	20.187
1242.34	10.339
1245.99	3.281
1249.63	9.536
1253.28	22.314
1256.92	80.792
1260.56	60.487
1264.2	62.832
1267.84	23.023
1271.48	46.032
1275.11	18.913
1278.74	16.655
1282.38	10.635
1286.01	20.017
1289.63	13.55
1293.26	34.032
1296.89	22.423
1300.51	114.731
1304.13	55.949
1307.75	40.088
1311.37	82.152
1314.99	82.139
1318.6	218.054
1322.22	229.858
1325.83	122.263
1329.44	159.93
1333.05	43.527
1336.66	140.965
1340.26	93.444
1343.87	67.882
1347.47	68.278
1351.07	88.698
1354.67	127.035
1358.27	41.288
1361.86	81.724
1365.46	46.625
1369.05	61.804
1372.64	80.356
1376.23	74.888
1379.82	40.315
1383.41	114.056
1386.99	65.238
1390.57	73.74
1394.16	36.428
1397.74	6.981
1401.32	3.208
1404.89	152.136
1408.47	81.436
1412.04	134.178
1415.61	88.287
1419.18	144.866
1422.75	50.583
1426.32	36.373
1429.89	109.093
1433.45	43.989
1437.01	90.96
1440.58	175.398
1444.13	207.593
1447.69	191.618
1451.25	191.308
1454.81	287.972
1458.36	155.026
1461.91	142.508
1465.46	164.427
1469.01	277.365
1472.56	157.634
1476.1	171.18
1479.64	221.589
1483.19	221.099
1486.73	147.632
1490.27	151.232
1493.81	33.963
1497.34	154.984
1500.88	85.516
1504.41	34.326
1507.94	61.513
1511.47	62.615
1515	95.939
1518.53	63.179
1522.05	24.425
1525.57	39.396
