Measurement: Raman, 514 nm, ccw, Raman Data Processed
Mineral: Montebrasite
Rruff sample: R040060
Ideal chemistry: LiAlPO_4_(OH)
Locality: Oxford County, Maine, USA
Source: University of Arizona Mineral Museum
Description: White massive
Measured chemistry: LiAl(PO_4_)((OH)_0.79_F_0.21_)
Pin_id: L00218
Orientation: Laser parallel to -c* (0 0 -1). Fiducial mark perpendicular to laser is parallel to a [1 0 0]
Raman shift (cm-1)	intensity
105.812	0
109.998	38.761
114.182	1452.68
118.363	2605.97
122.543	968.057
126.72	1004.98
130.896	2441.36
135.069	4189.94
139.24	3848.89
143.41	1727.6
147.577	579.237
151.742	190.439
155.905	313.687
160.066	659.097
164.225	1425.42
168.381	2180.74
172.536	2223.14
176.689	1687.56
180.839	1425.99
184.988	1484.07
189.134	1709.1
193.279	1977.21
197.421	1874.88
201.561	1188.26
205.7	402.304
209.836	88.943
213.97	72.063
218.102	250.57
222.232	379.389
226.36	413.764
230.486	384.404
234.61	227.42
238.732	83.509
242.852	86.435
246.969	174.845
251.085	185.229
255.199	125.682
259.31	3.663
263.42	280.706
267.528	932.062
271.633	2551.76
275.737	4429.34
279.838	4190.5
283.938	2935.37
288.035	3144.2
292.131	6611.6
296.224	14796.2
300.315	18471
304.405	12465.8
308.492	7760.45
312.578	5954.74
316.661	4468.69
320.742	3782.34
324.821	3015.74
328.899	1888.92
332.974	925.878
337.047	486.61
341.119	239.501
345.188	102.438
349.255	24.301
353.32	23.982
357.384	28.531
361.445	64.706
365.504	116.359
369.561	185.268
373.617	247.659
377.67	420.855
381.721	508.211
385.77	708.151
389.818	888.636
393.863	970.902
397.906	1030.05
401.948	1086.57
405.987	1119.92
410.025	1224.98
414.06	1614.62
418.093	2164.39
422.125	5286.02
426.154	12583.4
430.182	10430.7
434.207	4228.04
438.231	1689.37
442.252	990.588
446.272	661.641
450.29	554.496
454.305	404.136
458.319	381.547
462.331	574.714
466.341	749.625
470.348	1202.28
474.354	1966.66
478.358	3397.79
482.36	4682.65
486.36	4797.24
490.358	4411.57
494.354	4005.62
498.349	3459.4
502.341	2542.9
506.331	1613.89
510.319	951.063
514.306	503.998
518.29	139.313
522.273	139.907
526.253	30.956
530.232	8.566
534.208	67.875
538.183	35.232
542.156	62.031
546.127	188.577
550.096	339.303
554.063	348.98
558.028	300.294
561.991	143.123
565.952	167.038
569.911	396.375
573.869	464.631
577.824	509.105
581.778	670.798
585.729	839.516
589.679	1168.79
593.627	1925.96
597.573	3826.76
601.517	6286.28
605.459	5004.61
609.399	3062.09
613.337	2048.97
617.273	1945.08
621.208	2690.22
625.14	4864.94
629.071	7079.24
632.999	6383.11
636.926	5666.57
640.851	9179.6
644.774	18232.2
648.695	17064.4
652.614	8246.13
656.531	3627.45
660.447	1958.33
664.36	1168.79
668.272	772.33
672.182	548.654
676.089	346.726
679.995	233.053
683.899	181.866
687.802	117.12
691.702	51.405
695.6	80.361
699.497	37.056
703.391	1.799
707.284	1.001
711.175	84.97
715.064	59.523
718.951	30.984
722.837	21.887
726.72	35.32
730.601	15.65
734.481	59.662
738.359	49.906
742.235	38.62
746.109	10.971
749.981	82.78
753.851	115.028
757.72	174.582
761.587	241.104
765.451	212.086
769.314	245.657
773.175	364.838
777.034	429.102
780.892	672.933
784.747	1076.36
788.601	1679.38
792.453	2562
796.303	3684.24
800.151	4386.09
803.997	4337.56
807.841	3558.67
811.684	2739.41
815.525	2179.79
819.363	1589.82
823.201	1029.51
827.036	708.865
830.869	547.802
834.701	355.378
838.53	171.899
842.358	188.012
846.184	81.891
850.008	136.669
853.831	2.165
857.651	26.23
861.47	70.594
865.287	46.632
869.102	8.773
872.915	41.03
876.727	26.031
880.536	18.172
884.344	14.295
888.15	15.147
891.954	34.293
895.757	5.56
899.557	88.521
903.356	22.546
907.153	41.577
910.948	60.103
914.741	47.448
918.533	23.879
922.323	122.209
926.111	1.014
929.897	44.505
933.681	87.999
937.463	211.503
941.244	225.027
945.023	98.581
948.8	282.171
952.575	155.805
956.349	409.494
960.121	633.248
963.891	1477.08
967.659	1690.99
971.425	1225.02
975.19	1189.2
978.952	1613.55
982.713	2038.06
986.473	2402.72
990.23	3247.48
993.986	4412.54
997.739	6686.74
1001.49	10301.8
1005.24	16401.4
1008.99	24524.1
1012.74	29325.8
1016.48	23409.3
1020.23	15269.4
1023.97	10284.2
1027.71	8090.78
1031.44	7615.35
1035.18	9024.01
1038.91	12234.1
1042.65	18301.1
1046.38	23089.4
1050.11	20837.8
1053.84	20324.3
1057.56	25264.7
1061.28	27585
1065.01	18965.2
1068.73	10772.2
1072.44	5993.66
1076.16	3936.74
1079.88	2900.05
1083.59	2343.61
1087.3	2137.47
1091.01	1871.54
1094.72	1725.82
1098.42	1940.3
1102.13	2965.03
1105.83	5200.08
1109.53	6975.91
1113.23	5881.84
1116.93	4377.55
1120.63	3537.97
1124.32	3098.83
1128.01	1950.09
1131.7	1348.26
1135.39	1046.15
1139.08	724.238
1142.77	569.481
1146.45	208.125
1150.13	260.535
1153.81	324.072
1157.49	216.047
1161.17	191.143
1164.84	391.881
1168.51	411.523
1172.18	525.062
1175.86	656.479
1179.52	896.561
1183.19	1365.49
1186.86	2271.37
1190.52	2504.61
1194.18	2391.45
1197.84	1840.17
1201.5	1650.33
1205.15	1174.71
1208.81	797.906
1212.46	566.221
1216.11	314.141
1219.76	241.918
1223.41	139.58
1227.05	217.465
1230.7	202.371
1234.34	232.41
1237.98	149.832
1241.62	126.469
1245.26	102.943
1248.89	60.758
1252.53	27.602
1256.16	44.342
1259.79	139.951
1263.42	275.914
1267.05	61.068
1270.67	134.998
1274.3	6.809
1277.92	56.18
1281.54	29.934
1285.16	128.426
1288.77	162.438
1292.39	2.693
1296	17.633
1299.61	131.479
1303.22	59.531
1306.83	161.547
1310.44	25.732
1314.05	32.822
1317.65	19.082
1321.25	35.256
1324.85	99.719
1328.45	53.76
1332.05	97.045
1335.64	49.75
1339.24	81.883
1342.83	113.48
1346.42	45.422
1350.01	65.096
1353.59	105.119
1357.18	224.674
1360.76	373.832
1364.34	202.629
1367.92	161.123
1371.5	70.652
1375.08	8.773
1378.65	155.752
1382.23	125.83
1385.8	155.238
1389.37	313.242
1392.94	361.244
1396.51	428.053
1400.07	396.27
1403.64	417.959
1407.2	267.652
1410.76	295.281
1414.32	14.715
1417.87	270.941
1421.43	162.35
1424.98	252.998
1428.54	228.166
1432.09	257.896
1435.63	364.98
1439.18	297.223
1442.73	375.539
1446.27	460.287
1449.82	226.939
1453.36	49.527
1456.89	199.426
1460.43	175.709
1463.97	371.928
1467.5	438.123
1471.04	423.957
1474.57	510.367
1478.1	320.98
1481.62	481.625
1485.15	330.365
1488.67	139.434
1492.2	210.107
1495.72	192.961
1499.24	98.322
1502.76	75.482
1506.27	196.139
1509.79	291.865
1513.3	285.314
1516.81	272.896
