Measurement: Raman, 514 nm, ccw, Raman Data Processed
Mineral: Montebrasite
Rruff sample: R040062
Ideal chemistry: LiAlPO_4_(OH)
Locality: Hebron, Maine, USA
Source: University of Arizona Mineral Museum
Description: White massive
Measured chemistry: LiAl(PO_4_)((OH)_0.62_F_0.38_)
Pin_id: M00438
Orientation: Laser parallel to a* (1 0 0). Fiducial mark perpendicular to laser is parallel to b [0 1 0]
Raman shift (cm-1)	intensity
123.079	0
127.265	769.963
131.449	2040.93
135.631	2278.4
139.81	1212.65
143.988	592.85
148.163	223.486
152.336	158.953
156.507	125.105
160.675	82.139
164.842	131.731
169.006	349.722
173.168	249.387
177.328	299.437
181.485	385.54
185.641	398.066
189.794	394.892
193.945	203.98
198.094	23.252
202.241	2.901
206.385	37.149
210.528	46.866
214.668	44.044
218.806	205.51
222.942	107.396
227.076	209.499
231.207	171.819
235.337	84.628
239.464	39.734
243.589	48.262
247.712	67.627
251.833	4.686
255.951	42.757
260.068	180.021
264.182	243.112
268.294	366.273
272.404	759.102
276.512	921.713
280.618	844.31
284.721	786.873
288.823	1418.55
292.922	2822.74
297.019	5939.32
301.114	7446.3
305.207	5133.27
309.298	3079.95
313.387	2126.44
317.473	1772.72
321.558	1624.82
325.64	1050.58
329.72	595.867
333.798	449.821
337.874	323.704
341.948	247.571
346.019	41.368
350.089	24.949
354.156	98.04
358.222	71.585
362.285	175.729
366.346	97.152
370.405	58.528
374.462	84.545
378.516	137.132
382.569	135.854
386.62	123.008
390.668	215.201
394.714	211.512
398.759	388.967
402.801	226.559
406.841	490.847
410.879	496.068
414.915	835.49
418.949	1828.34
422.98	5631.23
427.01	8883.57
431.037	4775.47
435.063	1697.23
439.086	858.88
443.108	570.419
447.127	431.828
451.144	263.098
455.159	244.216
459.172	445.132
463.183	395.867
467.192	376.404
471.198	646.713
475.203	906.779
479.206	1666.59
483.206	2086.16
487.205	2255.51
491.201	2044.59
495.196	1803.43
499.188	1422.02
503.178	840.352
507.166	628.195
511.153	465.357
515.137	221.775
519.119	105.67
523.099	354.73
527.077	141.652
531.053	1.225
535.027	76.312
538.998	26.395
542.968	102.008
546.936	132.039
550.902	80.381
554.865	56.172
558.827	52.016
562.786	84.117
566.744	190.004
570.7	192.281
574.653	108.289
578.604	185.16
582.554	502.518
586.501	438.469
590.447	502.564
594.39	594.873
598.331	1220.39
602.271	1410.37
606.208	1264.43
610.143	1124.82
614.077	965.938
618.008	1105.14
621.937	1740.36
625.865	2639.75
629.79	4168.43
633.713	4105.21
637.634	4421.6
641.553	8367.6
645.471	13493.2
649.386	9978.46
653.299	4633.3
657.21	2037.76
661.12	1381.84
665.027	955.531
668.932	539.041
672.835	452.1
676.737	283.744
680.636	346.457
684.533	199.486
688.428	161.424
692.322	143.84
696.213	135.783
700.102	69.57
703.99	205.635
707.875	43.766
711.758	171.896
715.64	49.912
719.519	95.895
723.397	28.525
727.272	93.123
731.146	59.436
735.017	245.156
738.887	139.596
742.755	3.555
746.62	177.416
750.484	210.932
754.346	74.027
758.206	35.459
762.063	89.064
765.919	11.377
769.773	114.77
773.625	73.896
777.475	131.119
781.323	101.924
785.169	392.141
789.013	422.08
792.856	381.754
796.696	281.168
800.534	530.332
804.371	859.244
808.205	707.912
812.037	446.348
815.868	234.551
819.697	492.529
823.523	380.283
827.348	207.82
831.171	34.867
834.992	8.082
838.811	62.809
842.628	112.408
846.443	237.383
850.256	82.264
854.067	14.865
857.876	23.316
861.684	243.533
865.489	253.031
869.293	320.111
873.095	283.408
876.894	389.008
880.692	385.016
884.488	339.469
888.282	226.643
892.074	426.43
895.864	196.18
899.652	330.496
903.439	204.703
907.223	184.6
911.006	205.18
914.786	111.436
918.565	64.645
922.342	99.211
926.117	11.852
929.89	232.152
933.661	95.758
937.43	250.35
941.198	155.877
944.963	121.379
948.727	276.865
952.488	302.375
956.248	127.91
960.006	453.48
963.762	699.094
967.516	764.758
971.269	600.479
975.019	526.068
978.767	801.676
982.514	1106.8
986.259	1281.01
990.002	1673.08
993.743	2818.32
997.482	4234.23
1001.22	6090.62
1004.95	9050.54
1008.69	11595.8
1012.42	11122.6
1016.15	8638.98
1019.88	5927.35
1023.6	4435.48
1027.33	3700.32
1031.05	4407.15
1034.77	5435.9
1038.49	7224.77
1042.21	9003.9
1045.92	9883.29
1049.63	9322.82
1053.35	8992.51
1057.05	10072.8
1060.76	9613.08
1064.47	6482.55
1068.17	3849.05
1071.87	2427.72
1075.57	1845.51
1079.27	1579.18
1082.97	1276.25
1086.66	1174.96
1090.36	761.754
1094.05	747.125
1097.73	756.945
1101.42	976.984
1105.11	1307.28
1108.79	1407.82
1112.47	1708.66
1116.15	1029.86
1119.83	1071.52
1123.51	923.66
1127.18	916.25
1130.86	719.223
1134.53	681.926
1138.19	384.234
1141.86	76.77
1145.53	449.516
1149.19	282.453
1152.85	265.559
1156.51	159.051
1160.17	206.387
1163.83	37.707
1167.48	233.027
1171.13	230.973
1174.78	94.398
1178.43	132.785
1182.08	330.574
1185.73	318.961
1189.37	608.008
1193.01	477.555
1196.65	722.891
1200.29	173.387
1203.93	139.141
1207.56	28.762
1211.19	449.547
1214.83	245.93
1218.45	365.168
1222.08	573.316
1225.71	370.414
1229.33	14.59
1232.95	40.012
1236.57	199.438
