Measurement: Raman, 514 nm, ccw, Raman Data Processed
Mineral: Montebrasite
Rruff sample: R040062
Ideal chemistry: LiAlPO_4_(OH)
Locality: Hebron, Maine, USA
Source: University of Arizona Mineral Museum
Description: White massive
Measured chemistry: LiAl(PO_4_)((OH)_0.62_F_0.38_)
Pin_id: M00438
Orientation: Laser parallel to a* (1 0 0). Fiducial mark perpendicular to laser is parallel to b [0 1 0]
Raman shift (cm-1)	intensity
121.683	0
125.87	579.729
130.055	2061.94
134.237	2809.25
138.417	1734.38
142.596	534.367
146.771	225.377
150.945	46.302
155.117	93.208
159.286	162.504
163.453	587.765
167.618	966.431
171.781	981.701
175.941	885.857
180.1	848.632
184.256	635.178
188.41	564.024
192.562	346.69
196.711	140.375
200.859	35.397
205.004	20.186
209.147	25.28
213.288	211.503
217.427	258.497
221.564	326.156
225.698	174.375
229.83	43.037
233.96	112.069
238.088	38.622
242.214	149.129
246.338	49.277
250.459	188.618
254.579	37.296
258.696	84.509
262.811	246.561
266.924	698.189
271.035	1508.82
275.143	1955.4
279.25	1889.62
283.354	1790.09
287.456	1998.85
291.556	3518.83
295.654	7461.65
299.75	11425.8
303.843	9690.3
307.935	6365.04
312.024	4709.81
316.111	3453.98
320.196	2898.49
324.279	2072.62
328.36	1486.45
332.439	879.836
336.516	723.121
340.59	426.323
344.662	289.405
348.733	241.753
352.801	132.76
356.867	204.781
360.931	287.654
364.992	340.265
369.052	460.436
373.11	505.547
377.165	660.007
381.218	667.174
385.27	663.672
389.319	548.714
393.366	440.735
397.411	477.229
401.454	405.609
405.495	346.944
409.533	515.004
413.57	382.481
417.604	524.062
421.637	1655.49
425.667	3886.7
429.695	3227.65
433.721	1368.48
437.745	759.223
441.767	559.859
445.787	210.383
449.805	310.776
453.821	241.053
457.834	141.17
461.846	261.084
465.856	370.787
469.863	550.25
473.868	859.467
477.872	1328.44
481.873	1837.15
485.872	1765.61
489.869	1703.82
493.864	1591.76
497.857	1309.45
501.848	952.544
505.837	624.027
509.824	390.914
513.809	377.543
517.792	184.182
521.772	50.792
525.751	62.391
529.728	14.996
533.702	8.681
537.675	66.957
541.645	23.307
545.613	131.338
549.58	146.828
553.544	46.719
557.507	560.805
561.467	57.756
565.425	165.238
569.381	99.895
573.335	242.973
577.288	390.75
581.238	293.92
585.186	425.453
589.132	588.545
593.076	911.525
597.018	2063.8
600.958	3744.79
604.896	3385.33
608.832	2173.75
612.766	1553.53
616.698	1481.22
620.628	2079.82
624.556	3246.35
628.482	5152.1
632.405	5827.44
636.327	4592.38
640.247	5156.91
644.165	8841.02
648.081	8724.72
651.995	4628
655.907	2360.86
659.817	1143.32
663.725	885.354
667.63	696.973
671.534	338.154
675.436	557.41
679.336	274.893
683.234	183.264
687.13	170.604
691.024	265.838
694.916	63.928
698.806	88.066
702.694	51.99
706.58	208.104
710.464	166.375
714.346	150.139
718.226	33.746
722.105	206.191
725.981	127.85
729.855	20.682
733.727	118.055
737.597	265.717
741.466	25.803
745.332	196.926
749.196	157.637
753.059	287.9
756.919	87.969
760.778	187.41
764.634	263.402
768.489	198.781
772.341	150.207
776.192	198.195
780.041	485.85
783.887	663.195
787.732	1091.71
791.575	1328.46
795.416	1685.16
799.255	1971.34
803.092	2197.23
806.927	2152.86
810.76	2108.22
814.591	1853.31
818.421	1468.15
822.248	952.744
826.073	646.914
829.897	510.947
833.718	323.887
837.538	176.227
841.356	267.748
845.171	210.178
848.985	161.092
852.797	191.801
856.607	60.346
860.415	130.734
864.221	65.561
868.025	73.771
871.828	201.719
875.628	109.24
879.426	27.764
883.223	74.441
887.018	6.215
890.81	124.162
894.601	142.914
898.39	272.936
902.177	281.248
905.962	0.553
909.745	59.318
913.526	309.352
917.306	10.959
921.083	140.156
924.859	150.934
928.632	50.891
932.404	52.594
936.174	55.715
939.942	35.934
943.708	12.42
947.472	269.229
951.235	400.125
954.995	322.584
958.754	494.303
962.51	976.061
966.265	837.865
970.018	409.725
973.769	451.652
977.518	603.664
981.265	945.768
985.011	1457.97
988.754	1939.93
992.496	2772.36
996.236	3944.44
999.974	5896.2
1003.71	8976.1
1007.44	12004.5
1011.18	13288.8
1014.91	10835.1
1018.63	7537.24
1022.36	5170.03
1026.09	4157.88
1029.81	4265.51
1033.53	5400.8
1037.25	6965.55
1040.97	9471.19
1044.68	10917.3
1048.4	11053.8
1052.11	10890.2
1055.82	11995.9
1059.53	13591
1063.23	10716
1066.94	6020.79
1070.64	3734.74
1074.34	2306.53
1078.04	1670.6
1081.74	1384.01
1085.43	1287.16
1089.12	1202.66
1092.82	996.596
1096.51	1124.85
1100.19	1621.32
1103.88	2288.07
1107.56	3085.09
1111.25	3502.42
1114.93	3320.07
1118.61	3218.37
1122.28	2577.58
1125.96	1787.17
1129.63	1626.65
1133.3	1005.98
1136.97	1195.6
1140.64	615.447
1144.31	295.559
1147.97	256.049
1151.63	407.057
1155.29	168.766
1158.95	28.762
1162.61	304.426
1166.26	178.334
1169.92	333.016
1173.57	338.535
1177.22	364.887
1180.87	252.098
1184.51	240.375
1188.15	229.91
1191.8	510.898
1195.44	572.883
1199.08	759.254
1202.71	558.184
1206.35	373.418
1209.98	292.762
1213.61	20.047
1217.24	46.648
1220.87	151.766
1224.5	177.793
1228.12	0
