Measurement: Raman, 514 nm, ccw, Raman Data Processed
Mineral: Montebrasite
Rruff sample: R040060
Ideal chemistry: LiAlPO_4_(OH)
Locality: Oxford County, Maine, USA
Source: University of Arizona Mineral Museum
Description: White massive
Measured chemistry: LiAl(PO_4_)((OH)_0.79_F_0.21_)
Pin_id: L00218
Orientation: Laser parallel to -c* (0 0 -1). Fiducial mark perpendicular to laser is parallel to a [1 0 0]
Raman shift (cm-1)	intensity
109.998	0
114.182	1426.7
118.363	2476.19
122.543	864.945
126.72	774.773
130.896	2333.67
135.069	4177.15
139.24	3733.34
143.41	1481.39
147.577	344.373
151.742	30.463
155.905	200.954
160.066	592.244
164.225	1322.68
168.381	2112.76
172.536	2182.05
176.689	1635.57
180.839	1434.91
184.988	1574.02
189.134	1653.85
193.279	1986.8
197.421	1956.1
201.561	1155.32
205.7	353.511
209.836	77.583
213.97	66.395
218.102	206.781
222.232	343.607
226.36	414.773
230.486	311.482
234.61	230.828
238.732	90.019
242.852	130.332
246.969	178.608
251.085	267.776
255.199	162.997
259.31	44.441
263.42	226.51
267.528	984.437
271.633	2538.96
275.737	4362.11
279.838	4179.41
283.938	2879.59
288.035	3083.4
292.131	6907.04
296.224	15231.1
300.315	18795.1
304.405	12819.1
308.492	8042.94
312.578	6146.34
316.661	4559.12
320.742	3831.36
324.821	3103.15
328.899	1992.47
332.974	1039.45
337.047	571.121
341.119	317.212
345.188	238.121
349.255	69.787
353.32	18.054
357.384	0.056
361.445	75.581
365.504	169.726
369.561	255.997
373.617	294.936
377.67	487.913
381.721	571.881
385.77	691.006
389.818	777.124
393.863	931.783
397.906	1051.48
401.948	1023.7
405.987	1062.15
410.025	1308.07
414.06	1500.42
418.093	2170.15
422.125	5527.85
426.154	12792.1
430.182	10416.4
434.207	4120.64
438.231	1632.81
442.252	938.931
446.272	608.875
450.29	505.614
454.305	376.115
458.319	379.362
462.331	503.344
466.341	707.047
470.348	1124.47
474.354	1993.6
478.358	3475.45
482.36	4787.01
486.36	4768.3
490.358	4459.3
494.354	4010.02
498.349	3430.45
502.341	2550.6
506.331	1620.17
510.319	873.634
514.306	470.448
518.29	206.584
522.273	51.392
526.253	22.571
530.232	53.004
534.208	29.71
538.183	37.947
542.156	20.066
546.127	127.344
550.096	338.607
554.063	253.507
558.028	205.003
561.991	206.711
565.952	107.111
569.911	342.362
573.869	326.591
577.824	608.835
581.778	683.446
585.729	834.657
589.679	1192.44
593.627	1940.51
597.573	3910.57
601.517	6416.75
605.459	5152.5
609.399	2977.72
613.337	2072.08
617.273	2105.51
621.208	2838.32
625.14	4820.3
629.071	7131.85
632.999	6672.99
636.926	5773.7
640.851	9303.99
644.774	18663.8
648.695	17443.3
652.614	8492.27
656.531	3680.83
660.447	1918.97
664.36	1276.67
668.272	773.96
672.182	560.907
676.089	337.491
679.995	272.346
683.899	313.68
687.802	144.638
691.702	53.302
695.6	53.601
699.497	88.525
703.391	10.22
707.284	22.514
711.175	25.188
715.064	135.022
718.951	76.167
722.837	61.68
726.72	19.698
730.601	38.651
734.481	23.147
738.359	75.263
742.235	13.511
746.109	141.664
749.981	227.229
753.851	251.124
757.72	236.781
761.587	140.618
765.451	295.484
769.314	278.361
773.175	229.761
777.034	560.72
780.892	691.261
784.747	1111.39
788.601	1651.11
792.453	2510.44
796.303	3719.36
800.151	4487.91
803.997	4316.08
807.841	3633.87
811.684	2761.3
815.525	2078.37
819.363	1675.09
823.201	1101.47
827.036	837.509
830.869	483.056
834.701	337.771
838.53	291.496
842.358	143.688
846.184	124.158
850.008	98.371
853.831	81.246
857.651	60.382
861.47	18.831
865.287	103.338
869.102	38.751
872.915	92.968
876.727	14.348
880.536	54.945
884.344	44.824
888.15	63.742
891.954	66.818
895.757	33.579
899.557	24.423
903.356	62.63
907.153	61.857
910.948	46.885
914.741	95.271
918.533	14.792
922.323	34.009
926.111	93.604
929.897	24.007
933.681	164.431
937.463	134.883
941.244	105.393
945.023	215.987
948.8	226.643
952.575	267.363
956.349	428.159
960.121	569.044
963.891	1390.03
967.659	1581.12
971.425	1292.32
975.19	1193.66
978.952	1665.14
982.713	2166.78
986.473	2508.63
990.23	3200.74
993.986	4603
997.739	6795.55
1001.49	10457
1005.24	16759.5
1008.99	25260.9
1012.74	29863.5
1016.48	23950.8
1020.23	15722.7
1023.97	10513.3
1027.71	8083.89
1031.44	7727.53
1035.18	9091.96
1038.91	12470.4
1042.65	18586.3
1046.38	23463.9
1050.11	21210.6
1053.84	20798.7
1057.56	26206.2
1061.28	28445.7
1065.01	19575
1068.73	10733
1072.44	6182.81
1076.16	4043.91
1079.88	3055.26
1083.59	2416.86
1087.3	2008.72
1091.01	1914.75
1094.72	1777.27
1098.42	1990.11
1102.13	2952.94
1105.83	5176.51
1109.53	6940.46
1113.23	6154.35
1116.93	4668.6
1120.63	3764
1124.32	3318.98
1128.01	1964.42
1131.7	1424.96
1135.39	1091.35
1139.08	756.621
1142.77	646.838
1146.45	369.234
1150.13	417.963
1153.81	270.594
1157.49	162.271
1161.17	222.506
1164.84	461.232
1168.51	374.23
1172.18	515.494
1175.86	690.881
1179.52	911.906
1183.19	1401.81
1186.86	2236.95
1190.52	2610.36
1194.18	2367.82
1197.84	2025.19
1201.5	1683.31
1205.15	1269.49
1208.81	984.85
1212.46	601.676
1216.11	342.238
1219.76	279.303
1223.41	285.615
1227.05	223.869
1230.7	160.713
1234.34	257.227
1237.98	52.777
1241.62	75.289
1245.26	111.283
1248.89	85.652
1252.53	69.615
1256.16	44.133
1259.79	108.396
1263.42	221.531
1267.05	64.197
1270.67	47.09
1274.3	11.1
1277.92	49.566
1281.54	140.576
1285.16	151.377
1288.77	68.326
1292.39	156.316
1296	53.67
1299.61	20.824
1303.22	32.605
1306.83	3.006
1310.44	72.092
1314.05	27.572
1317.65	14.043
1321.25	78.721
1324.85	170.709
1328.45	212.018
1332.05	142.719
1335.64	182.771
1339.24	132.271
1342.83	61.24
1346.42	70.309
1350.01	17.562
1353.59	74.92
1357.18	221.801
1360.76	208.307
1364.34	374.527
1367.92	240.529
1371.5	127.904
1375.08	42.551
1378.65	76.793
1382.23	65.92
1385.8	170.418
1389.37	355.838
1392.94	299.121
1396.51	460.502
1400.07	435.266
1403.64	368.471
1407.2	406.494
1410.76	204.717
1414.32	210.031
1417.87	246.979
1421.43	247.455
1424.98	301.537
1428.54	140.533
1432.09	224.205
1435.63	281.469
1439.18	399.898
1442.73	481.768
1446.27	413.254
1449.82	307.078
1453.36	53.801
1456.89	110.516
1460.43	171.758
1463.97	324.156
1467.5	255.725
1471.04	372.256
1474.57	435.451
1478.1	382.424
1481.62	466.486
1485.15	443.055
1488.67	281.883
1492.2	282.473
1495.72	134.988
1499.24	40.342
1502.76	29.865
1506.27	235.184
1509.79	298.721
1513.3	288.361
