Measurement: Raman, 514 nm, ccw, Raman Data Processed
Mineral: Montebrasite
Rruff sample: R040062
Ideal chemistry: LiAlPO_4_(OH)
Locality: Hebron, Maine, USA
Source: University of Arizona Mineral Museum
Description: White massive
Measured chemistry: LiAl(PO_4_)((OH)_0.62_F_0.38_)
Pin_id: L00072
Orientation: Laser parallel to (0 1 1). Fiducial mark perpendicular to laser is parallel to a [1 0 0]
Raman shift (cm-1)	intensity
116.123	0
120.311	168.791
124.497	348.495
128.681	726.869
132.862	1045.09
137.042	717.848
141.219	411.092
145.394	91.057
149.567	237.247
153.738	128.649
157.907	184.351
162.073	381.566
166.237	353.23
170.4	488.73
174.559	432.243
178.717	537.83
182.873	798.53
187.026	1132.54
191.178	966.976
195.327	579.231
199.474	260.734
203.618	37.67
207.761	105.68
211.902	186.561
216.04	438.905
220.176	281.237
224.31	263.441
228.442	282.805
232.572	266.741
236.7	178.099
240.825	42.055
244.948	60.935
249.07	28.569
253.189	58.268
257.306	371.616
261.42	40.068
265.533	516.52
269.643	1131.97
273.752	1716.83
277.858	1441.46
281.962	1220.32
286.064	1456.2
290.164	2592.91
294.262	6378.98
298.358	10865.2
302.451	8409.98
306.543	4464.2
310.632	3327.74
314.719	2960.69
318.804	2392.88
322.887	1454.55
326.968	705.061
331.047	364.458
335.124	343.439
339.198	17.933
343.271	30.189
347.341	147.474
351.409	63.382
355.475	49.687
359.539	23.642
363.601	62.408
367.661	49.795
371.719	106.069
375.775	147.916
379.828	132.401
383.88	160.294
387.929	275.577
391.977	263.938
396.022	247.4
400.065	420.12
404.106	269.392
408.146	435.102
412.182	476.105
416.217	895.289
420.25	2592.75
424.281	6459.68
428.31	4720.2
432.336	1361.07
436.361	611.776
440.383	302.317
444.404	292.664
448.422	172.68
452.438	292.342
456.453	141.699
460.465	350.754
464.475	589.488
468.483	877.852
472.489	1515.84
476.493	2473.46
480.495	3400.71
484.495	3717.6
488.493	3604.12
492.489	2930.3
496.482	2385.62
500.474	1806.57
504.464	1238.03
508.451	810.59
512.437	438.369
516.421	173.781
520.402	120.516
524.382	0.02
528.359	10.293
532.335	142.123
536.308	15.5
540.279	56.361
544.249	90.924
548.216	54.988
552.181	278.102
556.145	99.172
560.106	434.625
564.065	127.6
568.023	252.521
571.978	17.752
575.931	328.719
579.882	289.814
583.831	402.445
587.779	560.539
591.724	559.316
595.667	1111.9
599.608	1571.76
603.547	1510.22
607.485	1328.84
611.42	1180.65
615.353	1611.83
619.284	2141.7
623.213	3726.43
627.141	6481.01
631.066	7544.94
634.989	5688.48
638.91	7831.64
642.829	16104.4
646.747	17386.8
650.662	7998.77
654.575	3330.38
658.486	1911.65
662.396	1092.6
666.303	843.299
670.209	753.748
674.112	372.367
678.013	370.285
681.913	158.883
685.81	178.109
689.706	193.037
693.599	279.188
697.491	53.166
701.38	112.076
705.268	115.799
709.154	151.777
713.037	252.564
716.919	226.914
720.799	9.48
724.677	122.74
728.553	104.609
732.427	157.359
736.299	20.426
740.169	71.457
744.037	152.805
747.903	6.229
751.767	24.342
755.629	14.553
759.49	24.42
763.348	133.979
767.204	229.234
771.059	388.045
774.911	296.453
778.762	84.555
782.611	262.434
786.457	380.1
790.302	477.566
794.145	734.836
797.986	1071.92
801.825	1038.83
805.662	925.562
809.497	762.135
813.33	698.555
817.162	634.834
820.991	260.975
824.818	306.984
828.644	122.887
832.468	188.697
836.289	273.674
840.109	227.74
843.927	57.951
847.743	56.131
851.557	66.996
855.369	100.787
859.179	242.527
862.988	155.145
866.794	49.078
870.599	268.416
874.401	536.271
878.202	530.445
882.001	420.336
885.798	474.623
889.593	284.287
893.386	440.229
897.177	566.938
900.966	579.395
904.754	642.521
908.539	335.928
912.323	101.369
916.105	325.516
919.885	246.479
923.663	96.936
927.439	89.312
931.213	66.51
934.985	324.145
938.756	211.975
942.525	310.014
946.291	368.262
950.056	576.732
953.819	365.432
957.58	384.363
961.339	313.543
965.097	622.979
968.852	912.68
972.606	872.746
976.358	1163.11
980.108	1423.77
983.856	1844.74
987.602	3184.61
991.346	4663.82
995.089	7285.52
998.829	10619.2
1002.57	16516.7
1006.3	22679.6
1010.04	25540.7
1013.77	20913.3
1017.5	13370.5
1021.23	8576.31
1024.96	5996.69
1028.69	4842.12
1032.41	4827.97
1036.13	5884.32
1039.85	7171.38
1043.57	8748.98
1047.29	8847.11
1051	7955.66
1054.72	8244.67
1058.43	8754.14
1062.14	7524.06
1065.84	4484.4
1069.55	3068.87
1073.25	1689.83
1076.95	1210.97
1080.66	991.895
1084.35	893.027
1088.05	994.553
1091.74	686.459
1095.44	938.748
1099.13	741.4
1102.82	874.434
1106.51	1667.9
1110.19	1481.93
1113.87	1536.58
1117.56	1688.51
1121.24	2044.8
1124.91	1171.63
1128.59	638.414
1132.27	282.947
1135.94	227.102
1139.61	571.934
1143.28	517.297
1146.95	403.398
1150.61	220.055
1154.28	23.242
1157.94	54.035
1161.6	28.051
1165.26	210.484
1168.91	139.633
1172.57	389.391
1176.22	350.004
1179.87	471.281
1183.52	443.285
1187.17	846.043
1190.81	409.562
1194.46	603.871
1198.1	918.84
1201.74	1024.28
1205.38	1010.46
1209.02	577.801
1212.65	737.578
1216.29	704.395
1219.92	627.25
1223.55	709.398
1227.17	681.836
1230.8	646.621
1234.42	441.375
1238.05	355.762
1241.67	379.371
1245.29	242.996
1248.91	308.438
1252.52	394
1256.13	665
1259.75	951.969
1263.36	809.82
1266.97	552.426
1270.57	574.484
1274.18	1.051
