Measurement: Raman, 514 nm, ccw, Raman Data Processed
Mineral: Montebrasite
Rruff sample: R060890
Ideal chemistry: LiAlPO_4_(OH)
Locality: Mount Marie, Paris, Maine, USA
Source: Bob Jenkins
Description: Colorless massive
Measured chemistry: Li_1.00_Al_1.00_(P_1.00_O_4_)(OH)_0.63_F_0.37_)_Î£=1_ ; Li not measured but estimated by stoichiometry
Pin_id: M01084
Orientation: Laser parallel to -a* (-1 0 0). Fiducial mark perpendicular to laser is parallel to b [0 1 0]
Raman shift (cm-1)	intensity
90.678	0
95.631	312.453
100.581	246.826
105.529	309.24
110.475	435.795
115.417	1237.81
120.358	2143.81
125.295	3725.77
130.23	5135.55
135.163	3375.45
140.092	1376.56
145.019	512.842
149.944	437.82
154.866	604.566
159.785	964.768
164.702	1154.87
169.616	1027.75
174.528	810.422
179.437	927.158
184.343	692.393
189.247	844.131
194.148	720.016
199.046	541.619
203.942	219.66
208.835	117.959
213.726	38.5078
218.614	137.701
223.5	45.9199
228.382	6.90625
233.263	82.8965
238.14	82.8438
243.015	16.8555
247.888	140.519
252.758	377.231
257.625	456.531
262.49	556.029
267.352	968.424
272.211	1285.9
277.068	1461.05
281.922	2086.46
286.773	3353.48
291.622	6342.34
296.469	10776.3
301.312	15243.7
306.154	12675.6
310.992	8391.35
315.828	5767.78
320.661	4389.67
325.492	3316.21
330.32	2117.47
335.145	1599.46
339.968	1308.22
344.789	999.754
349.606	1223.24
354.421	968.705
359.234	1066.14
364.043	1058.59
368.851	1226.73
373.655	1155.52
378.457	1005.9
383.256	688.42
388.053	611.449
392.847	287.432
397.639	602.688
402.428	382.08
407.214	555.271
411.998	714.123
416.779	2264.76
421.557	5128.85
426.333	8882.31
431.106	3659.17
435.877	1171.59
440.645	602.932
445.41	284.172
450.173	279.426
454.933	15.3418
459.691	202.723
464.446	199.639
469.198	384.537
473.948	686.35
478.695	1004.01
483.439	1232.56
488.181	1372.94
492.92	1120.19
497.657	974.684
502.391	558.412
507.122	422.496
511.851	342.912
516.577	8.57227
521.301	158.957
526.022	94.5488
530.74	16.3574
535.456	9.05078
540.169	44.5312
544.879	6.99609
549.587	3.88281
554.292	145.022
558.995	31.4316
563.695	166.125
568.392	46.6094
573.087	73.5547
577.779	185.977
582.469	380.252
587.156	629.662
591.84	1423.91
596.522	2496.48
601.201	3430.12
605.877	3071.32
610.551	1891.81
615.222	1932.43
619.891	2494.85
624.557	4241.59
629.22	5814.39
633.881	6996.85
638.539	8038.43
643.195	11497
647.848	12373.1
652.498	5805.92
657.145	2708.97
661.791	1501.2
666.433	756.441
671.073	520.541
675.71	454.68
680.345	430.941
684.977	148.4
689.606	259.613
694.233	295.49
698.857	58.3164
703.478	205.955
708.097	164.557
712.714	84.1367
717.327	10.627
721.938	30.1895
726.547	204.184
731.153	191.315
735.756	75.1269
740.356	128.416
744.954	7.82617
749.55	129.15
754.142	159.613
758.733	142.596
763.32	255.076
767.905	43.1562
772.487	246.805
777.067	273.002
781.644	340.769
786.218	888.955
790.79	1003.86
795.359	1193.96
799.926	1301.35
804.49	1795.61
809.051	1687.82
813.61	1795.7
818.166	1457.23
822.72	1561.06
827.271	1235.76
831.819	692.246
836.365	466.566
840.908	467.223
845.448	466.703
849.986	406.713
854.521	635.033
859.054	548.049
863.584	394.346
868.111	709.203
872.636	362.898
877.158	143.582
881.677	98.6582
886.194	312.459
890.709	98.7832
895.22	96.8047
899.729	77.4609
904.236	118.805
908.74	358.023
913.241	135.074
917.739	248.859
922.235	12.7422
926.729	16.6094
931.219	157.914
935.708	97.8633
940.193	135.762
944.676	6.20703
949.156	248
953.634	38.3867
958.109	408.965
962.582	236.812
967.051	675.176
971.519	418.785
975.983	709.758
980.445	1072.29
984.905	1703.3
989.362	2699.79
993.816	4620.75
998.267	8061.2
1002.72	13155.2
1007.16	17106.6
1011.61	18306.2
1016.05	14415.2
1020.49	9629.59
1024.92	6738.33
1029.36	5894.23
1033.79	6508.82
1038.21	8151.6
1042.64	9495.7
1047.06	10444.9
1051.48	11432.8
1055.9	13768.8
1060.32	17116.7
1064.73	15516.8
1069.14	8935.67
1073.55	4454.39
1077.95	2931.03
1082.35	1881.47
1086.75	1521
1091.15	1145.77
1095.54	917.91
1099.93	740.176
1104.32	723.668
1108.71	824.394
1113.09	787.332
1117.47	1157.48
1121.85	1053.84
1126.23	1009.42
1130.6	825.188
1134.97	653.144
1139.34	438.277
1143.7	178.582
1148.07	192.035
1152.43	237.832
1156.79	34.1875
1161.14	6.81641
1165.49	128.906
1169.84	154.934
1174.19	92.6523
1178.54	79.5664
1182.88	91.1133
1187.22	13.9062
1191.55	355.066
1195.89	232.078
1200.22	649.144
1204.55	705.086
1208.87	24.6055
1213.2	391.008
1217.52	95.4531
1221.84	333.027
1226.15	153.445
1230.47	186.598
1234.78	192.875
1239.09	268.277
1243.39	513.793
1247.69	300.426
1251.99	316.051
1256.29	159.906
1260.59	395.871
1264.88	262.051
1269.17	764.731
1273.46	497.172
1277.74	727.394
1282.02	449.082
1286.3	434.477
1290.58	355.629
1294.86	841.019
1299.13	272.484
1303.39	463.465
1307.66	660.727
1311.93	712.754
1316.19	391.231
1320.45	819.019
1324.7	799.902
1328.96	592.977
1333.21	274.168
1337.45	152.273
1341.7	227.676
1345.94	484.231
1350.18	303.949
1354.42	655.723
1358.66	79.7812
1362.89	289.016
1367.12	103.375
1371.35	278.531
1375.57	494.82
1379.8	486.231
1384.02	278.512
1388.23	313.41
1392.45	232.707
1396.66	215.68
1400.87	44.8516
1405.08	172.168
1409.28	164.496
1413.48	3.00781
1417.68	475.801
1421.88	70.7227
1426.07	320.609
1430.26	254.961
1434.45	489.496
1438.64	1020.54
1442.82	1305.21
1447	1500.54
1451.18	1743.34
1455.35	1618.07
1459.53	1518.91
1463.7	1000.97
1467.87	1042.73
1472.03	522.125
1476.19	306.871
1480.35	1087.88
1484.51	608.285
1488.67	566.32
1492.82	208.348
1496.97	216.293
1501.12	129.367
1505.26	281.496
1509.4	436.832
1513.54	138.84
1517.68	585.754
1521.81	367.856
1525.94	375.125
1530.07	477.508
1534.2	495.875
1538.32	690.832
1542.44	135.191
1546.56	480.023
1550.68	138.398
1554.79	431.945
1558.9	60.2461
1563.01	28.2344
1567.12	96.1875
1571.22	139.336
1575.32	33.7891
