Measurement: Raman, 514 nm, ccw, Raman Data Processed
Mineral: Montebrasite
Rruff sample: R060890
Ideal chemistry: LiAlPO_4_(OH)
Locality: Mount Marie, Paris, Maine, USA
Source: Bob Jenkins
Description: Colorless massive
Measured chemistry: Li_1.00_Al_1.00_(P_1.00_O_4_)(OH)_0.63_F_0.37_)_Î£=1_ ; Li not measured but estimated by stoichiometry
Pin_id: M01307
Orientation: Laser parallel to -c* (0 0 -1). Fiducial mark perpendicular to laser is parallel to a [1 0 0]
Raman shift (cm-1)	intensity
90.678	0
95.631	230.887
100.581	255.754
105.529	786.018
110.475	1329.11
115.417	2540.08
120.358	3200.35
125.295	5182.01
130.23	7364.35
135.163	5063.81
140.092	2274.32
145.019	1372.28
149.944	1181.34
154.866	1558.4
159.785	1842.69
164.702	1911.54
169.616	1462.94
174.528	902.131
179.437	735.94
184.343	751.248
189.247	914.629
194.148	1155.74
199.046	1308.34
203.942	731.976
208.835	330.308
213.726	223.363
218.614	144.195
223.5	115.157
228.382	145.8
233.263	163.808
238.14	85.4658
243.015	61.8789
247.888	4.41406
252.758	107.177
257.625	438.082
262.49	907.751
267.352	1624.92
272.211	2142.43
277.068	2158.87
281.922	1854.02
286.773	2871.13
291.622	5336.41
296.469	10682
301.312	17458.9
306.154	12714.8
310.992	6991.21
315.828	4096.17
320.661	3048.55
325.492	2435.05
330.32	1948.67
335.145	1386.38
339.968	837.238
344.789	720.08
349.606	652.061
354.421	528.782
359.234	628.617
364.043	384.566
368.851	597.628
373.655	553.106
378.457	355.984
383.256	382.11
388.053	356.481
392.847	241.59
397.639	333.438
402.428	366.983
407.214	410.899
411.998	724.986
416.779	1750.37
421.557	4153.54
426.333	6023.8
431.106	2415.18
435.877	970.925
440.645	535.852
445.41	547.93
450.173	586.259
454.933	837.811
459.691	1398.68
464.446	1782.04
469.198	2280.8
473.948	2944.97
478.695	4391.56
483.439	5057.52
488.181	4282.85
492.92	3253.54
497.657	2428.62
502.391	1542.06
507.122	1139.85
511.851	482.223
516.577	320.56
521.301	128.023
526.022	73.6377
530.74	47.2344
535.456	110.369
540.169	41.2393
544.879	118.921
549.587	123.383
554.292	116.878
558.995	57.6123
563.695	92.708
568.392	68.0244
573.087	141.596
577.779	49.29
582.469	189.348
587.156	444.647
591.84	598.612
596.522	1502.69
601.201	2194.39
605.877	2054.95
610.551	1858.24
615.222	1921.39
619.891	2595.31
624.557	3771.82
629.22	6118.92
633.881	9585.18
638.539	16604.3
643.195	35480.5
647.848	42228.8
652.498	17488.2
657.145	6865.48
661.791	3387.73
666.433	1855.87
671.073	1246.77
675.71	912.628
680.345	659.484
684.977	395.808
689.606	345.218
694.233	165.321
698.857	41.0703
703.478	139.47
708.097	49.8682
712.714	34.125
717.327	31.7744
721.938	118.25
726.547	35.6592
731.153	141.66
735.756	78.7588
740.356	18.0557
744.954	149.965
749.55	25.1611
754.142	10.2168
758.733	137.422
763.32	97.915
767.905	122.897
772.487	248.472
777.067	230.24
781.644	375.235
786.218	399.265
790.79	627.35
795.359	757.813
799.926	906.895
804.49	1682.62
809.051	1204.48
813.61	1063.69
818.166	1008.27
822.72	699.561
827.271	474.539
831.819	466.084
836.365	330.805
840.908	325.773
845.448	225.943
849.986	227.279
854.521	59.0078
859.054	91.9668
863.584	145.019
868.111	238.644
872.636	129.543
877.158	72.9492
881.677	7.80078
886.194	88.6797
890.709	24.3184
895.22	78.793
899.729	24.6348
904.236	97.9492
908.74	24.2852
913.241	2.17383
917.739	6.64258
922.235	82.7832
926.729	21.8223
931.219	184.297
935.708	127.703
940.193	6.08789
944.676	144.447
949.156	234.797
953.634	179.174
958.109	329.592
962.582	416.07
967.051	599.623
971.519	748.285
975.983	993.117
980.445	1410.09
984.905	2068.49
989.362	3020.23
993.816	4875.58
998.267	8298.67
1002.72	12861.3
1007.16	18803.2
1011.61	21472.5
1016.05	17733.8
1020.49	12556.9
1024.92	9416.51
1029.36	9100.16
1033.79	11520.4
1038.21	15790.9
1042.64	19274.8
1047.06	21023.7
1051.48	20591.9
1055.9	22128.5
1060.32	26319.8
1064.73	23949.8
1069.14	13508
1073.55	6769.5
1077.95	4214.02
1082.35	2893.19
1086.75	2075.15
1091.15	1519.58
1095.54	1391.55
1099.93	1309.95
1104.32	1449.8
1108.71	2001.03
1113.09	2537.74
1117.47	2881.52
1121.85	2952.63
1126.23	2545.22
1130.6	2106.48
1134.97	1950.62
1139.34	1494.53
1143.7	923.891
1148.07	689.033
1152.43	566.947
1156.79	439.137
1161.14	672.586
1165.49	618.262
1169.84	636.488
1174.19	650.631
1178.54	651.959
1182.88	967.848
1187.22	1033.51
1191.55	1457
1195.89	1498.92
1200.22	1309.39
1204.55	1023.59
1208.87	915.666
1213.2	846.867
1217.52	443.209
1221.84	203.945
1226.15	117.717
1230.47	34.6348
1234.78	101.301
1239.09	46.2422
1243.39	84.1445
1247.69	18.4883
1251.99	155.533
1256.29	133.746
1260.59	137.992
1264.88	92.3027
1269.17	95.1797
1273.46	115.83
1277.74	69.3184
1282.02	121.244
1286.3	143.301
1290.58	130.41
1294.86	45.2793
1299.13	95.4394
1303.39	291.881
1307.66	104.697
1311.93	110.805
1316.19	228.928
1320.45	176.711
1324.7	99.3867
1328.96	226.326
1333.21	224.785
1337.45	259.918
1341.7	235.441
1345.94	249.588
1350.18	217.941
1354.42	229.762
1358.66	240.254
1362.89	247.244
1367.12	308.693
1371.35	98.2148
1375.57	318.15
1379.8	183.012
1384.02	284.193
1388.23	270.547
1392.45	30.9766
1396.66	251.969
1400.87	49.8594
1405.08	238.422
1409.28	101.029
1413.48	55.082
1417.68	249.861
1421.88	86.9844
1426.07	88.5215
1430.26	218.82
1434.45	120.117
1438.64	210.701
1442.82	0.876953
1447	79.8828
1451.18	84.5059
1455.35	143.775
1459.53	206.598
1463.7	143.195
1467.87	174.568
1472.03	332.096
1476.19	187.334
1480.35	266.394
1484.51	210.268
1488.67	115.394
1492.82	280.334
1496.97	268.414
1501.12	181.242
1505.26	269.75
1509.4	94.5996
1513.54	234.732
1517.68	187.644
1521.81	253.012
1525.94	154.334
1530.07	288.844
1534.2	303.445
1538.32	206.107
1542.44	225.988
1546.56	187.606
1550.68	148.428
1554.79	367.215
1558.9	101.811
1563.01	326.594
1567.12	214.279
1571.22	55.6211
1575.32	20.2734
