Measurement: Raman, 514 nm, ccw, Raman Data Processed
Mineral: Montebrasite
Rruff sample: R040062
Ideal chemistry: LiAlPO_4_(OH)
Locality: Hebron, Maine, USA
Source: University of Arizona Mineral Museum
Description: White massive
Measured chemistry: LiAl(PO_4_)((OH)_0.62_F_0.38_)
Pin_id: L00144
Orientation: Laser parallel to (1 1 0). Fiducial mark perpendicular to laser is parallel to -c [0 0 -1]
Raman shift (cm-1)	intensity
111.932	0
116.123	206.824
120.311	223.97
124.497	1050.96
128.681	2987.93
132.862	4788.21
137.042	3015.16
141.219	1039.57
145.394	269.37
149.567	181.432
153.738	22.085
157.907	40.677
162.073	224.981
166.237	306.611
170.4	320.274
174.559	154.563
178.717	497.322
182.873	722.504
187.026	960.312
191.178	1041.84
195.327	863.35
199.474	294.986
203.618	17.094
207.761	10.308
211.902	27.3
216.04	146.023
220.176	10.444
224.31	243.154
228.442	246.938
232.572	228.396
236.7	175.952
240.825	112.151
244.948	4.047
249.07	41.697
253.189	79.251
257.306	26.691
261.42	175.82
265.533	518.051
269.643	1039.63
273.752	1521.1
277.858	1582.25
281.962	1496.35
286.064	2052.62
290.164	4159.78
294.262	10407.3
298.358	18844.9
302.451	15132.3
306.543	7669.46
310.632	4856.33
314.719	3752.91
318.804	3129.19
322.887	2064.63
326.968	1049.36
331.047	593.33
335.124	487.196
339.198	310.979
343.271	134.592
347.341	217.774
351.409	0.229
355.475	22.577
359.539	54.325
363.601	29.398
367.661	111.881
371.719	153.767
375.775	168.515
379.828	236.823
383.88	319.653
387.929	314.725
391.977	412.31
396.022	495.851
400.065	738.141
404.106	830.846
408.146	1119.57
412.182	1587.31
416.217	3284.98
420.25	9673.96
424.281	26354.4
428.31	22254.7
432.336	6705.06
436.361	2505.32
440.383	1165.43
444.404	875.408
448.422	565.252
452.438	384.892
456.453	304.312
460.465	413.565
464.475	442.675
468.483	821.532
472.489	1310.1
476.493	1948.38
480.495	2986.37
484.495	3334.06
488.493	3351.47
492.489	3238.6
496.482	2685.44
500.474	2112
504.464	1518.16
508.451	932.351
512.437	424.086
516.421	248.61
520.402	66.209
524.382	114.032
528.359	4.518
532.335	128.111
536.308	148.113
540.279	67.832
544.249	24.615
548.216	50.036
552.181	134.883
556.145	263.261
560.106	275.513
564.065	133.68
568.023	163.249
571.978	187.31
575.931	361.836
579.882	401.401
583.831	541.108
587.779	566.826
591.724	731.781
595.667	1142.24
599.608	1801.94
603.547	1827.66
607.485	1310.06
611.42	1230.05
615.353	1385.1
619.284	1780.3
623.213	2659.08
627.141	4373.89
631.066	5728.17
634.989	6532.01
638.91	12435.4
642.829	27778.4
646.747	31761
650.662	15203.2
654.575	6204.92
658.486	3346.25
662.396	1937.17
666.303	1317.7
670.209	1077.86
674.112	777.455
678.013	665.02
681.913	513.826
685.81	359.727
689.706	349.805
693.599	273.945
697.491	98.49
701.38	118.113
705.268	118.484
709.154	13.59
713.037	207.805
716.919	251.311
720.799	76.115
724.677	125.701
728.553	178.1
732.427	170.32
736.299	27.748
740.169	83.342
744.037	36.18
747.903	63.658
751.767	123.125
755.629	222.234
759.49	150.879
763.348	139.059
767.204	116.855
771.059	214.234
774.911	241.111
778.762	287.502
782.611	183.602
786.457	349.457
790.302	425.076
794.145	810.473
797.986	1165.65
801.825	1150.62
805.662	905.391
809.497	929.967
813.33	794.361
817.162	738.578
820.991	342.629
824.818	156.521
828.644	120.262
832.468	173.873
836.289	187.408
840.109	10.988
843.927	3.842
847.743	13.625
851.557	94.055
855.369	95.314
859.179	185.602
862.988	26.742
866.794	162.625
870.599	534.957
874.401	702.295
878.202	794.588
882.001	634.271
885.798	683.027
889.593	551.879
893.386	909.391
897.177	941.625
900.966	863.416
904.754	955.209
908.539	477.576
912.323	385.4
916.105	251.562
919.885	222.367
923.663	128.334
927.439	213.445
931.213	54.695
934.985	209.648
938.756	124.918
942.525	90.4
946.291	256.062
950.056	481.924
953.819	437.979
957.58	544.236
961.339	340.699
965.097	697.342
968.852	964.16
972.606	1021.18
976.358	1448.4
980.108	1675.84
983.856	2023.51
987.602	3101.25
991.346	4799.02
995.089	7056.02
998.829	10744.3
1002.57	16984.7
1006.3	24201.9
1010.04	28189.9
1013.77	24517
1017.5	16789.6
1021.23	11311.1
1024.96	8746.78
1028.69	8098.48
1032.41	9390.66
1036.13	12713.3
1039.85	16276.4
1043.57	20400.1
1047.29	20134.3
1051	18319
1054.72	18164.2
1058.43	19619.6
1062.14	16195.5
1065.84	9479.35
1069.55	5555.44
1073.25	3981.54
1076.95	2488.09
1080.66	1985.05
1084.35	1662.64
1088.05	1692.52
1091.74	1189.71
1095.44	1078.2
1099.13	1056.31
1102.82	1143.85
1106.51	1593.11
1110.19	1499.74
1113.87	1315.03
1117.56	1342.45
1121.24	1700.41
1124.91	1028.94
1128.59	598.084
1132.27	317.824
1135.94	178.271
1139.61	289.08
1143.28	430.295
1146.95	271.77
1150.61	273.793
1154.28	136.352
1157.94	59.416
1161.6	67.031
1165.26	23.295
1168.91	30.965
1172.57	315.729
1176.22	260.918
1179.87	406.605
1183.52	532.859
1187.17	1219.89
1190.81	427.859
1194.46	446.748
1198.1	406.549
1201.74	887.291
1205.38	834.352
1209.02	623.525
1212.65	495.051
1216.29	385.727
1219.92	442.424
1223.55	358.676
1227.17	303.891
1230.8	557.092
1234.42	421.939
1238.05	251.834
1241.67	342.607
1245.29	244.979
1248.91	83.338
1252.52	186.539
1256.13	3.6
