Measurement: Raman, 514 nm, ccw, Raman Data Processed
Mineral: Montebrasite
Rruff sample: R060890
Ideal chemistry: LiAlPO_4_(OH)
Locality: Mount Marie, Paris, Maine, USA
Source: Bob Jenkins
Description: Colorless massive
Measured chemistry: Li_1.00_Al_1.00_(P_1.00_O_4_)(OH)_0.63_F_0.37_)_Î£=1_ ; Li not measured but estimated by stoichiometry
Pin_id: M01307
Orientation: Laser parallel to -c* (0 0 -1). Fiducial mark perpendicular to laser is parallel to a [1 0 0]
Raman shift (cm-1)	intensity
90.678	0
95.631	60.4355
100.581	6.79688
105.529	582.96
110.475	1028.95
115.417	1798.96
120.358	2572.38
125.295	3891.36
130.23	5818.31
135.163	4368.35
140.092	2021.98
145.019	882.069
149.944	991.721
154.866	1332.38
159.785	1657.13
164.702	1608.04
169.616	1557.85
174.528	1061.04
179.437	909.097
184.343	885.35
189.247	1032.42
194.148	1118.98
199.046	950.793
203.942	612.541
208.835	213.847
213.726	187.66
218.614	171.033
223.5	51.0078
228.382	106.533
233.263	67.1709
238.14	65.6572
243.015	210.899
247.888	90.7061
252.758	12.3613
257.625	426.089
262.49	783.355
267.352	1216.74
272.211	1638.35
277.068	1582.97
281.922	1564.28
286.773	2139.42
291.622	4107.59
296.469	7531.93
301.312	12637.5
306.154	9543.36
310.992	5465.01
315.828	3283.07
320.661	2274.91
325.492	1876.59
330.32	1401.21
335.145	995.765
339.968	720.237
344.789	625.624
349.606	541.926
354.421	417.579
359.234	452.471
364.043	424.592
368.851	421.204
373.655	464.102
378.457	147.184
383.256	193.594
388.053	308.047
392.847	174.615
397.639	431.873
402.428	29.877
407.214	298.543
411.998	619.519
416.779	1437.46
421.557	3350.07
426.333	4935.81
431.106	2141.19
435.877	865.519
440.645	601.027
445.41	450.762
450.173	636.668
454.933	722.615
459.691	1182.86
464.446	1547.32
469.198	1819.91
473.948	2476.63
478.695	3404.49
483.439	4007.48
488.181	3322.64
492.92	2609.93
497.657	1840.38
502.391	1575.98
507.122	783.758
511.851	507.891
516.577	184.557
521.301	156.588
526.022	47.6016
530.74	116.408
535.456	58.7422
540.169	55.3555
544.879	126.176
549.587	48.0215
554.292	72.8574
558.995	52.7617
563.695	227.688
568.392	254.754
573.087	228.225
577.779	174.434
582.469	311.236
587.156	529.039
591.84	768.352
596.522	1315.32
601.201	2275.9
605.877	1959.77
610.551	1478.87
615.222	1289.54
619.891	1802.24
624.557	2942.31
629.22	4691.63
633.881	6750.06
638.539	11202.3
643.195	23042.4
647.848	29114.5
652.498	12122.6
657.145	4660.59
661.791	2512.43
666.433	1301.87
671.073	870.754
675.71	733.457
680.345	521.877
684.977	357.568
689.606	199.787
694.233	269.994
698.857	182.789
703.478	255.004
708.097	14.2559
712.714	146.685
717.327	64.0469
721.938	151.402
726.547	26.6504
731.153	377.295
735.756	192.26
740.356	44.4453
744.954	114.143
749.55	210.385
754.142	100.301
758.733	193.5
763.32	97.6914
767.905	154.838
772.487	77.2519
777.067	261.32
781.644	365.365
786.218	531.266
790.79	490.846
795.359	439.469
799.926	927.547
804.49	1094.23
809.051	1203.44
813.61	953.203
818.166	711.494
822.72	759.322
827.271	546.752
831.819	442.764
836.365	166.301
840.908	204.369
845.448	270.973
849.986	209.328
854.521	120.695
859.054	28.293
863.584	125.424
868.111	221.037
872.636	204.664
877.158	9.76953
881.677	31.5801
886.194	72.5801
890.709	137.91
895.22	185.457
899.729	97.1602
904.236	19.1855
908.74	185.129
913.241	137.815
917.739	245.006
922.235	8.36914
926.729	20.4922
931.219	13.5156
935.708	80.9922
940.193	79.959
944.676	347.312
949.156	311.053
953.634	402.758
958.109	453.08
962.582	742.879
967.051	761.816
971.519	749.383
975.983	630.981
980.445	998.586
984.905	1273.82
989.362	2332.36
993.816	3562.09
998.267	5513.4
1002.72	9128.3
1007.16	13457.4
1011.61	15254.3
1016.05	12487.9
1020.49	8913.06
1024.92	6576.51
1029.36	6395.33
1033.79	8178.88
1038.21	11015.4
1042.64	13550.3
1047.06	14734.8
1051.48	14696.1
1055.9	16425
1060.32	19360
1064.73	17994.7
1069.14	10333.8
1073.55	5248.64
1077.95	2775.85
1082.35	2138.4
1086.75	1709.31
1091.15	1056.58
1095.54	1061.2
1099.93	886.172
1104.32	1101.5
1108.71	1595.69
1113.09	1976.85
1117.47	2386.95
1121.85	2293.34
1126.23	2050.62
1130.6	1768.77
1134.97	1624.33
1139.34	922.861
1143.7	544.307
1148.07	503.537
1152.43	299.666
1156.79	385.744
1161.14	40.1738
1165.49	342.068
1169.84	481.504
1174.19	401.455
1178.54	631.531
1182.88	697.209
1187.22	641.902
1191.55	905.131
1195.89	1078.89
1200.22	989.615
1204.55	901.418
1208.87	505.252
1213.2	417.363
1217.52	385.231
1221.84	101.098
1226.15	191.119
1230.47	89.9688
1234.78	43.709
1239.09	32.5957
1243.39	148.816
1247.69	26.3008
1251.99	77.0059
1256.29	113.334
1260.59	188.871
1264.88	149.369
1269.17	247.801
1273.46	295.234
1277.74	25.0195
1282.02	117.559
1286.3	26.3066
1290.58	72.668
1294.86	33.6016
1299.13	91.0234
1303.39	176.389
1307.66	137.111
1311.93	238.787
1316.19	245.201
1320.45	224.318
1324.7	187.207
1328.96	228.787
1333.21	493.062
1337.45	308.039
1341.7	435.772
1345.94	351.619
1350.18	254.514
1354.42	190.01
1358.66	313.156
1362.89	314.889
1367.12	62.7109
1371.35	151.639
1375.57	182.522
1379.8	366.627
1384.02	277.832
1388.23	31.0273
1392.45	283.525
1396.66	143.74
1400.87	229.059
1405.08	206.078
1409.28	239.656
1413.48	117.527
1417.68	120.68
1421.88	319.965
1426.07	185.879
1430.26	350.184
1434.45	70.4531
1438.64	539.387
1442.82	329.606
1447	204.152
1451.18	291.336
1455.35	315.176
1459.53	556.312
1463.7	28.5703
1467.87	270.238
1472.03	256.473
1476.19	461.441
1480.35	380.852
1484.51	309.996
1488.67	178.969
1492.82	431.992
1496.97	376.137
1501.12	183.801
1505.26	215.469
1509.4	141.836
1513.54	354.406
1517.68	357.711
1521.81	236.484
1525.94	319.367
1530.07	72.1719
1534.2	385.133
1538.32	102.07
1542.44	238.934
1546.56	174.578
1550.68	425.152
1554.79	224.84
1558.9	147.469
1563.01	200.09
1567.12	100.621
1571.22	232.723
1575.32	103.356
