Measurement: Raman, 514 nm, ccw, Raman Data Processed
Mineral: Montebrasite
Rruff sample: R060890
Ideal chemistry: LiAlPO_4_(OH)
Locality: Mount Marie, Paris, Maine, USA
Source: Bob Jenkins
Description: Colorless massive
Measured chemistry: Li_1.00_Al_1.00_(P_1.00_O_4_)(OH)_0.63_F_0.37_)_Î£=1_ ; Li not measured but estimated by stoichiometry
Pin_id: M00747
Orientation: Laser parallel to (0 1 1). Fiducial mark perpendicular to laser is parallel to a [1 0 0]
Raman shift (cm-1)	intensity
90.678	0
95.631	461.644
100.581	22.7441
105.529	330.762
110.475	660.535
115.417	603.285
120.358	578.648
125.295	1227.24
130.23	1686.49
135.163	1876.84
140.092	1436.95
145.019	895.654
149.944	852.338
154.866	969.875
159.785	719.689
164.702	902.761
169.616	1716.15
174.528	2346.39
179.437	2977.42
184.343	3213.06
189.247	3636.37
194.148	3520.86
199.046	2588.28
203.942	1292.31
208.835	469.837
213.726	68.2295
218.614	138.872
223.5	14.7197
228.382	11.6895
233.263	5.34766
238.14	211.44
243.015	38.5342
247.888	77.4727
252.758	57.3428
257.625	24.083
262.49	159.152
267.352	293.728
272.211	370.542
277.068	640.093
281.922	1280.92
286.773	2725.13
291.622	7280.94
296.469	14852.9
301.312	22268
306.154	17563.8
310.992	11391.6
315.828	8375.62
320.661	4782.4
325.492	2590.16
330.32	1688.89
335.145	1344.68
339.968	1096.54
344.789	1013.45
349.606	1069.4
354.421	1086.39
359.234	1005.84
364.043	1095.17
368.851	1164.92
373.655	1153.33
378.457	1161.15
383.256	882.557
388.053	847.356
392.847	713.6
397.639	442.207
402.428	489.132
407.214	464.069
411.998	979.866
416.779	2586.77
421.557	5143.87
426.333	7000.08
431.106	2872.39
435.877	812.627
440.645	179.9
445.41	4.90234
450.173	12.0879
454.933	74.3252
459.691	71.5049
464.446	41.502
469.198	265.505
473.948	541.945
478.695	1033.67
483.439	1262.89
488.181	1431.11
492.92	1051.91
497.657	730.974
502.391	501.397
507.122	282.229
511.851	97.4131
516.577	15.8584
521.301	121.578
526.022	53.5059
530.74	20.3291
535.456	160.426
540.169	49.2363
544.879	235.483
549.587	316.789
554.292	331.487
558.995	202.624
563.695	355.737
568.392	466.484
573.087	426.779
577.779	505.115
582.469	816.97
587.156	1145.49
591.84	1614.92
596.522	2852.17
601.201	3699.08
605.877	3090.59
610.551	2123.9
615.222	1986.64
619.891	2739.2
624.557	4264.33
629.22	6533.82
633.881	7929.66
638.539	9851.9
643.195	15719.7
647.848	15875.9
652.498	6773.41
657.145	3005.63
661.791	1550.75
666.433	974.219
671.073	534.657
675.71	459.779
680.345	403.861
684.977	188.009
689.606	47.2695
694.233	186.253
698.857	1.17188
703.478	100.821
708.097	149.362
712.714	66.8594
717.327	68.9717
721.938	39.2998
726.547	54.8232
731.153	1.3418
735.756	41.8906
740.356	91.7998
744.954	41.8398
749.55	111.559
754.142	27.6104
758.733	9.62598
763.32	152.745
767.905	162.644
772.487	82.6025
777.067	133.257
781.644	393.891
786.218	558.741
790.79	744.748
795.359	1050.24
799.926	1373.21
804.49	1361.7
809.051	1532.74
813.61	1351.35
818.166	1006.46
822.72	953.355
827.271	621.143
831.819	461.695
836.365	182.358
840.908	255.011
845.448	147.635
849.986	136.954
854.521	69.5449
859.054	13.6016
863.584	41.4033
868.111	60.9258
872.636	36.6094
877.158	45.7139
881.677	40.8301
886.194	9.9668
890.709	145.181
895.22	90.7256
899.729	109.978
904.236	49.5
908.74	35.6025
913.241	88.5762
917.739	14.1885
922.235	59.7266
926.729	213.66
931.219	137.06
935.708	140.495
940.193	265.981
944.676	255.533
949.156	334.168
953.634	506.898
958.109	873.758
962.582	1155.78
967.051	1551.04
971.519	1579.81
975.983	2011.68
980.445	2890.13
984.905	4324.02
989.362	6454.65
993.816	11380.5
998.267	19071.2
1002.72	30052.8
1007.16	42493.7
1011.61	44825.5
1016.05	34775.9
1020.49	21327.7
1024.92	12908.5
1029.36	8241.84
1033.79	6162.12
1038.21	5546.87
1042.64	5930.72
1047.06	7215.03
1051.48	10469.5
1055.9	16843.3
1060.32	24047.9
1064.73	21445.2
1069.14	10963
1073.55	5117.09
1077.95	2573.63
1082.35	1847.58
1086.75	1770.94
1091.15	746.712
1095.54	400.891
1099.93	458.709
1104.32	529.844
1108.71	698.994
1113.09	773.711
1117.47	814.188
1121.85	724.492
1126.23	585.297
1130.6	312.012
1134.97	439.815
1139.34	172.541
1143.7	57.0957
1148.07	227.158
1152.43	138.621
1156.79	350.387
1161.14	208.31
1165.49	174.465
1169.84	69.8125
1174.19	62.416
1178.54	33.6367
1182.88	182.568
1187.22	242.647
1191.55	274.869
1195.89	171.19
1200.22	288.606
1204.55	261.098
1208.87	79.6621
1213.2	77.3047
1217.52	159.998
1221.84	135.789
1226.15	2.64453
1230.47	158.676
1234.78	18.4219
1239.09	72.3359
1243.39	108.791
1247.69	52.4668
1251.99	97.1289
1256.29	99.8535
1260.59	32.5684
1264.88	63.041
1269.17	125.228
1273.46	203.992
1277.74	142.025
1282.02	81.0566
1286.3	106.219
1290.58	196.947
1294.86	173.697
1299.13	300.965
1303.39	210.44
1307.66	266.152
1311.93	304.662
1316.19	257.992
1320.45	161.137
1324.7	381.106
1328.96	274.053
1333.21	256.613
1337.45	189.986
1341.7	337.152
1345.94	290.67
1350.18	194.467
1354.42	242.027
1358.66	259.363
1362.89	363.082
1367.12	142.059
1371.35	174.381
1375.57	160.018
1379.8	208.969
1384.02	285.535
1388.23	252.264
1392.45	118.357
1396.66	186.678
1400.87	91.6367
1405.08	10.6113
1409.28	173.6
1413.48	183.777
1417.68	2.60547
1421.88	82.3691
1426.07	272.69
1430.26	261.897
1434.45	119.596
1438.64	352.94
1442.82	294.498
1447	281.684
1451.18	426.633
1455.35	424.922
1459.53	201.746
1463.7	147.027
1467.87	134.84
1472.03	235.059
1476.19	79.4434
1480.35	127.789
1484.51	250.789
1488.67	303.275
1492.82	297.131
1496.97	494.053
1501.12	365.342
1505.26	481.498
1509.4	658.58
1513.54	557.481
1517.68	375.844
1521.81	432.352
1525.94	395.826
1530.07	178.279
1534.2	175.648
1538.32	145.852
1542.44	97.75
1546.56	117.457
1550.68	53.252
1554.79	223.119
1558.9	70.6465
1563.01	121.828
1567.12	140.027
1571.22	116.644
1575.32	116.441
