Measurement: Raman, 514 nm, ccw, Raman Data Processed
Mineral: Montebrasite
Rruff sample: R040062
Ideal chemistry: LiAlPO_4_(OH)
Locality: Hebron, Maine, USA
Source: University of Arizona Mineral Museum
Description: White massive
Measured chemistry: LiAl(PO_4_)((OH)_0.62_F_0.38_)
Pin_id: L00408
Orientation: Laser parallel to c* (0 0 1). Fiducial mark perpendicular to laser is parallel to a [1 0 0]
Raman shift (cm-1)	intensity
111.932	0
116.123	187.404
120.311	229.397
124.497	863.761
128.681	2096.99
132.862	3072.64
137.042	2170.94
141.219	680.671
145.394	90.823
149.567	14.258
153.738	7.307
157.907	102.533
162.073	308.655
166.237	196.811
170.4	150.671
174.559	68.136
178.717	381.678
182.873	766.129
187.026	1140.8
191.178	1365.31
195.327	1219.46
199.474	607.627
203.618	44.116
207.761	180.125
211.902	61.188
216.04	143.795
220.176	196.76
224.31	232.6
228.442	310.222
232.572	303.677
236.7	176.57
240.825	173.936
244.948	84.791
249.07	9.467
253.189	20.969
257.306	37.475
261.42	290.305
265.533	697.242
269.643	1418.19
273.752	2188.98
277.858	2230.78
281.962	1877.16
286.064	2234.73
290.164	4092.55
294.262	9590.3
298.358	19697.7
302.451	18064.8
306.543	9411.35
310.632	5507.53
314.719	4402.15
318.804	3777.51
322.887	2451.95
326.968	1235.82
331.047	668.528
335.124	491.13
339.198	323.611
343.271	118.929
347.341	167.953
351.409	22.44
355.475	40.873
359.539	97.395
363.601	47.338
367.661	29.361
371.719	71.452
375.775	102.262
379.828	202.97
383.88	267.423
387.929	310.743
391.977	513.337
396.022	484.541
400.065	725.66
404.106	916.311
408.146	1186.51
412.182	1752.79
416.217	3220.13
420.25	8902.9
424.281	25960.9
428.31	25558.9
432.336	8086.86
436.361	2904.74
440.383	1422.46
444.404	899.957
448.422	657.229
452.438	554.263
456.453	341.063
460.465	587.557
464.475	673.749
468.483	1079.7
472.489	1665.35
476.493	2960.69
480.495	4125.72
484.495	4840.43
488.493	4714.83
492.489	4378.92
496.482	3632.7
500.474	2946.17
504.464	1919.42
508.451	1118.85
512.437	675.263
516.421	366.361
520.402	165.878
524.382	39.316
528.359	35.188
532.335	37.396
536.308	38.126
540.279	50.989
544.249	2.427
548.216	5.287
552.181	188.384
556.145	190.689
560.106	232.859
564.065	168.764
568.023	296.75
571.978	186.896
575.931	324.752
579.882	417.312
583.831	461.284
587.779	553.255
591.724	731.569
595.667	990.658
599.608	1586.28
603.547	1775.73
607.485	1205.6
611.42	1195.37
615.353	1469.01
619.284	1831.81
623.213	2586.7
627.141	4103.78
631.066	5914.84
634.989	7765.49
638.91	14825.7
642.829	35315.6
646.747	44465
650.662	22194
654.575	9172.58
658.486	4730.77
662.396	2688.57
666.303	1835.99
670.209	1333.08
674.112	869.925
678.013	616.258
681.913	469.464
685.81	518.465
689.706	328.466
693.599	333.735
697.491	176.876
701.38	219.881
705.268	180.758
709.154	73.025
713.037	214.146
716.919	104.431
720.799	126.186
724.677	33.213
728.553	32.65
732.427	191.78
736.299	18.909
740.169	79.703
744.037	7.822
747.903	55.333
751.767	52.332
755.629	48.983
759.49	105.251
763.348	31.092
767.204	176.53
771.059	121.598
774.911	166.465
778.762	69.029
782.611	115.6
786.457	409.481
790.302	653.158
794.145	986.635
797.986	1259.92
801.825	1333.03
805.662	1355.96
809.497	1108.74
813.33	1001.36
817.162	873.842
820.991	326.189
824.818	318.412
828.644	290.521
832.468	102.532
836.289	64.467
840.109	26.377
843.927	71.741
847.743	130.416
851.557	69.563
855.369	70.468
859.179	109.248
862.988	95.498
866.794	124.728
870.599	432.176
874.401	845.014
878.202	946.135
882.001	825.184
885.798	887.932
889.593	668.635
893.386	917.873
897.177	1372
900.966	1283.29
904.754	1011.76
908.539	563.438
912.323	329.227
916.105	267.787
919.885	165.193
923.663	77.824
927.439	81.162
931.213	43.438
934.985	190.779
938.756	155.303
942.525	210.076
946.291	315.117
950.056	380.422
953.819	245.996
957.58	361.855
961.339	398.004
965.097	714.453
968.852	1001.21
972.606	1098.36
976.358	1365.83
980.108	1863.65
983.856	2381.8
987.602	3740.28
991.346	5739.06
995.089	8625.72
998.829	13010.4
1002.57	20537.5
1006.3	29177.4
1010.04	34858.8
1013.77	30780.3
1017.5	20995.7
1021.23	14047.5
1024.96	10739.8
1028.69	9762.63
1032.41	11576
1036.13	15390
1039.85	20124.5
1043.57	24259.6
1047.29	23405.2
1051	20451.4
1054.72	19018.1
1058.43	19585.3
1062.14	16383
1065.84	9861.17
1069.55	5999.62
1073.25	3858.39
1076.95	2757.43
1080.66	1826.48
1084.35	1642.34
1088.05	1522.93
1091.74	1185.52
1095.44	937.104
1099.13	769.207
1102.82	791.844
1106.51	1065.08
1110.19	1038.83
1113.87	1122.82
1117.56	1133.1
1121.24	908.381
1124.91	704.447
1128.59	339.926
1132.27	265.627
1135.94	179.039
1139.61	171.484
1143.28	314.67
1146.95	178.502
1150.61	242.941
1154.28	71.914
1157.94	26.051
1161.6	119.471
1165.26	197.809
1168.91	155.779
1172.57	394.443
1176.22	413.795
1179.87	653.863
1183.52	654.564
1187.17	1065.81
1190.81	1200.9
1194.46	910.318
1198.1	823.576
1201.74	1027.21
1205.38	681.459
1209.02	446.521
1212.65	316.072
1216.29	366.77
1219.92	267.273
1223.55	163.582
1227.17	271.311
1230.8	299.969
1234.42	279.549
1238.05	100.049
1241.67	131.473
1245.29	193.924
1248.91	150.883
1252.52	132.766
1256.13	381.311
1259.75	493.07
1263.36	517.383
1266.97	424.547
1270.57	415.213
1274.18	54.496
1277.78	0
