Measurement: Raman, 514 nm, ccw, Raman Data Processed
Mineral: Montebrasite
Rruff sample: R040062
Ideal chemistry: LiAlPO_4_(OH)
Locality: Hebron, Maine, USA
Source: University of Arizona Mineral Museum
Description: White massive
Measured chemistry: LiAl(PO_4_)((OH)_0.62_F_0.38_)
Pin_id: L00144
Orientation: Laser parallel to (1 1 0). Fiducial mark perpendicular to laser is parallel to -c [0 0 -1]
Raman shift (cm-1)	intensity
113.329	0
117.519	135.715
121.706	180.836
125.892	791.296
130.075	2088.16
134.256	2304.11
138.435	1339.58
142.611	389.22
146.786	135.502
150.958	59.501
155.128	189.096
159.296	844.335
163.462	1816.55
167.625	2766.66
171.786	2595.24
175.946	2156.34
180.103	1811.98
184.258	1558.78
188.41	1226.58
192.561	661.821
196.709	327.639
200.856	193.905
205	350.916
209.142	368.803
213.281	567.355
217.419	716.465
221.554	616.035
225.688	365.988
229.819	146.255
233.948	96.683
238.075	82.687
242.2	111.56
246.322	89.686
250.443	96.915
254.561	103.521
258.677	210.175
262.791	923.24
266.903	2174.95
271.013	4126.21
275.121	5397.47
279.226	4427.66
283.33	3808.95
287.431	4572.47
291.53	8417.95
295.627	17966.3
299.722	23422.1
303.815	15848.3
307.906	10674
311.995	8009.64
316.081	5104.98
320.166	3720.11
324.248	2735.01
328.328	2029.72
332.406	1414.26
336.482	908.66
340.556	762.863
344.628	636.089
348.697	447.682
352.765	400.865
356.83	564.109
360.894	509.094
364.955	752.081
369.014	1141.52
373.071	1263.96
377.126	1378.07
381.179	1331.82
385.23	1279.58
389.279	1226.83
393.325	1051.16
397.37	959.552
401.413	849.984
405.453	868.211
409.491	747.277
413.528	594.656
417.562	619.893
421.594	1519.4
425.624	3040.35
429.652	1741.16
433.678	761.854
437.702	532.395
441.724	452.781
445.743	293.002
449.761	233.008
453.777	222.762
457.79	172.221
461.802	161.34
465.811	310.172
469.819	848.711
473.824	996.959
477.827	1514.91
481.829	1962.56
485.828	1579.91
489.825	1526.96
493.82	1313.69
497.813	1040.12
501.804	626.223
505.793	482.018
509.78	227.51
513.765	162.686
517.748	207.496
521.729	61.934
525.708	56.115
529.685	109.898
533.659	14.342
537.632	38.209
541.603	154.443
545.571	147.24
549.538	191.945
553.503	35.773
557.465	57.803
561.426	34.391
565.385	125.115
569.341	233.621
573.296	354.666
577.248	535.268
581.199	367.443
585.147	538.861
589.094	1096.68
593.038	1845.72
596.981	4784.5
600.922	8180.97
604.86	5696.06
608.797	2991.49
612.731	2155.18
616.664	2105.86
620.594	2739.02
624.523	4551.89
628.449	7404.55
632.374	6726.76
636.296	4788.53
640.217	6589.85
644.135	12000.7
648.052	10171.2
651.967	4491.16
655.879	2390.72
659.79	1279.83
663.698	1188.5
667.605	726.43
671.51	571.992
675.413	677.535
679.313	359.828
683.212	414.484
687.109	282.857
691.004	335.73
694.897	32.545
698.788	71
702.677	53.33
706.564	145.658
710.449	100.467
714.332	44.1
718.213	26.701
722.092	232.172
725.969	180.572
729.844	213.639
733.718	156.57
737.589	18.32
741.458	90.365
745.326	96.83
749.191	233.631
753.055	310.035
756.916	306.676
760.776	239.662
764.634	365.049
768.489	436.84
772.343	361.996
776.195	476.531
780.045	1004.52
783.893	1478.5
787.739	2212.21
791.583	3145.65
795.425	4168.83
799.266	5111.77
803.104	5464.47
806.94	5046.94
810.775	4339.19
814.608	3681.22
818.438	2833.05
822.267	1714.68
826.094	1366.14
829.919	947.443
833.742	618.395
837.563	419.523
841.382	269.709
845.199	149.389
849.014	215.717
852.828	282.246
856.639	31.781
860.449	40.477
864.257	55.639
868.062	27.641
871.866	381.592
875.668	35.551
879.468	104.125
883.267	36.164
887.063	18.375
890.857	93.344
894.65	205.469
898.44	403.943
902.229	332.734
906.016	29.006
909.801	200.947
913.584	291.691
917.365	12.006
921.144	182.562
924.922	233.373
928.697	85.664
932.471	285.342
936.242	96.463
940.012	287.754
943.78	139.234
947.546	380.898
951.311	192.734
955.073	224.742
958.834	236.926
962.592	569.244
966.349	511.695
970.104	394.285
973.857	677.021
977.608	879.92
981.357	1272.98
985.105	2316.23
988.85	2769.68
992.594	4243.33
996.336	5847.22
1000.08	9107.36
1003.81	14324.3
1007.55	18956.1
1011.28	19854
1015.02	15113.3
1018.75	10099.2
1022.48	7075.12
1026.2	6031.19
1029.93	6173.8
1033.65	8420.18
1037.37	11318.1
1041.09	15416.6
1044.81	17445.5
1048.53	17014.9
1052.24	16914.8
1055.95	19254.4
1059.66	21215.1
1063.37	14728.7
1067.08	7669.72
1070.79	4574.15
1074.49	2935.37
1078.19	2114.99
1081.89	1886.06
1085.59	1782.01
1089.28	1785.92
1092.98	2303.9
1096.67	2368.57
1100.36	3252.73
1104.05	5256.63
1107.73	7379.12
1111.42	7539.91
1115.1	6751.16
1118.78	6012.89
1122.46	4855.1
1126.14	3327.82
1129.82	2681.32
1133.49	2205.69
1137.16	1680.66
1140.83	1016.01
1144.5	411.887
1148.17	238.352
1151.83	405.328
1155.5	132.812
1159.16	59.051
1162.82	439.957
1166.47	289.684
1170.13	410.043
1173.79	250.699
1177.44	271.77
1181.09	233.43
1184.74	436.121
1188.38	389.965
1192.03	805.031
1195.67	731.332
1199.31	888.949
1202.95	807.992
1206.59	464.449
1210.23	281.047
1213.86	116.988
1217.5	266.316
1221.13	366.641
1224.76	337.637
1228.38	368.703
1232.01	722.523
1235.63	33.426
1239.26	176.125
1242.88	319.375
1246.49	100.344
1250.11	0.82
