Measurement: Raman, 514 nm, ccw, Raman Data Processed
Mineral: Montebrasite
Rruff sample: R040060
Ideal chemistry: LiAlPO_4_(OH)
Locality: Oxford County, Maine, USA
Source: University of Arizona Mineral Museum
Description: White massive
Measured chemistry: LiAl(PO_4_)((OH)_0.79_F_0.21_)
Pin_id: L00548
Orientation: Laser parallel to b* (0 1 0). Fiducial mark perpendicular to laser is parallel to -c [0 0 -1]
Raman shift (cm-1)	intensity
125.328	0
129.504	350.11
133.678	838.524
137.85	1193.82
142.02	684.082
146.188	142.024
150.354	29.377
154.517	11.831
158.679	93.179
162.839	168.012
166.996	361.477
171.152	290.173
175.305	296.167
179.456	188.943
183.605	159.485
187.752	338.984
191.898	371.697
196.041	541.827
200.182	520.189
204.321	235.192
208.457	61.826
212.592	84.211
216.725	83.607
220.856	128.06
224.984	259.462
229.111	160.787
233.236	132.836
237.358	139.827
241.479	3.286
245.597	94.122
249.713	66.094
253.828	8.26
257.94	109.787
262.05	50.226
266.159	109.355
270.265	308.78
274.369	747.892
278.471	916.574
282.572	594.961
286.67	693.089
290.766	1461.19
294.86	3350.55
298.952	4201.51
303.042	2663.22
307.13	1565.86
311.216	1227.23
315.3	918.327
319.382	968.983
323.462	858.666
327.54	559.188
331.616	279.517
335.69	99.563
339.762	99.423
343.832	20.904
347.9	108.701
351.965	10.959
356.029	30.791
360.091	11.481
364.151	18.552
368.209	53.995
372.265	10.185
376.319	99.773
380.371	35.865
384.421	85.413
388.469	243.927
392.515	252.949
396.559	272.621
400.601	253.565
404.641	302.027
408.679	363.299
412.715	497.444
416.749	561.375
420.781	1322.81
424.811	3681.5
428.839	4295.55
432.866	1759.2
436.89	662.604
440.912	305.788
444.932	358.742
448.951	281.449
452.967	233.917
456.981	176.124
460.994	148.031
465.004	139.623
469.013	150.869
473.019	221.764
477.024	692.312
481.026	1112.52
485.027	1042.37
489.026	961.871
493.023	871.009
497.017	639.604
501.01	457.657
505.001	402.57
508.99	179.822
512.977	28.476
516.962	205.744
520.945	96.621
524.927	19.503
528.906	5.227
532.883	51.739
536.858	19.373
540.832	155.695
544.803	180.65
548.773	26.699
552.741	56.771
556.706	42.41
560.67	203.99
564.632	178.207
568.592	287.053
572.55	20.799
576.506	335.672
580.46	393.686
584.412	446.557
588.363	478.113
592.311	638.199
596.258	848.727
600.202	1099.99
604.145	979.016
608.086	718.363
612.024	476.398
615.961	523.574
619.896	590.824
623.829	965.969
627.761	1500.51
631.69	1494.7
635.617	1348.38
639.543	2241.35
643.466	4723.84
647.388	5405.84
651.308	2577.34
655.226	1128.35
659.142	628.863
663.056	328.895
666.968	357.787
670.879	225.355
674.787	203.104
678.694	60.02
682.598	105.037
686.501	140.646
690.402	211.5
694.301	132.561
698.198	211.523
702.093	60.297
705.987	103.395
709.878	36.576
713.768	238.572
717.656	99.947
721.542	150.432
725.426	195.684
729.308	18.406
733.188	283.059
737.067	23.689
740.943	94.189
744.818	284.209
748.691	169.4
752.562	48.812
756.431	205.912
760.298	242.727
764.163	128.99
768.027	175.018
771.888	199.957
775.748	273.494
779.606	104.674
783.462	277.344
787.317	489.488
791.169	571.16
795.019	872.68
798.868	963.32
802.715	923.5
806.56	713.225
810.403	542.5
814.245	541.328
818.084	449.543
821.922	427.127
825.758	333.256
829.592	287.936
833.424	412.164
837.254	195.58
841.082	88.902
844.909	169.201
848.734	99.166
852.557	42.117
856.378	302.602
860.197	133.434
864.015	8.316
867.831	28.822
871.645	170.936
875.457	320.236
879.267	14.219
883.075	60.828
886.882	138.414
890.687	1.096
894.49	126
898.291	153.723
902.09	250.812
905.888	166.469
909.683	2.152
913.477	108.602
917.269	183.352
921.06	148.85
924.848	214.416
928.635	199.033
932.42	163.717
936.203	169.07
939.984	165.174
943.764	390.949
947.541	276.711
951.317	492.268
955.091	277.621
958.864	522.781
962.634	1987.77
966.403	3202.6
970.17	1217.3
973.935	641.844
977.698	675.705
981.46	478.594
985.22	581.266
988.978	983.107
992.734	1308.88
996.488	1591.53
1000.24	2056.7
1003.99	3168.14
1007.74	5477.42
1011.49	7049.93
1015.23	5922.07
1018.98	3816.99
1022.72	2390.06
1026.46	1752.78
1030.2	1696.73
1033.93	2224.21
1037.67	2975.11
1041.4	4848.6
1045.13	6608.33
1048.86	5740.94
1052.59	4882.29
1056.32	5905.93
1060.04	6019.05
1063.77	4041.72
1067.49	2484.76
1071.2	1477.66
1074.92	1000.41
1078.64	723.039
1082.35	635.633
1086.06	588.148
1089.78	530.684
1093.48	423.605
1097.19	567.031
1100.89	530.402
1104.6	763.957
1108.3	1318.25
1112	1023.38
1115.7	688.934
1119.39	805.438
1123.09	1152.4
1126.78	639.902
1130.47	248.105
1134.16	267.199
1137.85	52.648
1141.54	368.781
1145.22	391.703
1148.9	346.277
1152.58	462.82
1156.26	251.84
1159.94	229.219
1163.62	16.648
1167.29	60.57
1170.96	295.238
1174.63	482.672
