Measurement: Raman, 514 nm, ccw, Raman Data Processed
Mineral: Montebrasite
Rruff sample: R060890
Ideal chemistry: LiAlPO_4_(OH)
Locality: Mount Marie, Paris, Maine, USA
Source: Bob Jenkins
Description: Colorless massive
Measured chemistry: Li_1.00_Al_1.00_(P_1.00_O_4_)(OH)_0.63_F_0.37_)_Î£=1_ ; Li not measured but estimated by stoichiometry
Pin_id: M00747
Orientation: Laser parallel to (0 1 1). Fiducial mark perpendicular to laser is parallel to a [1 0 0]
Raman shift (cm-1)	intensity
90.678	0
95.631	956.387
100.581	929.094
105.529	44.2969
110.475	2205.77
115.417	975.926
120.358	1225.87
125.295	959.812
130.23	2554.38
135.163	1730.14
140.092	1712.57
145.019	1487.31
149.944	943.244
154.866	2221.38
159.785	3102.29
164.702	4214.62
169.616	4718.76
174.528	3896.09
179.437	3684.7
184.343	3120.83
189.247	2742.79
194.148	2279.94
199.046	2755.2
203.942	518.106
208.835	578.621
213.726	64.3828
218.614	839.129
223.5	704.598
228.382	118.406
233.263	299.764
238.14	177.127
243.015	807.916
247.888	36.7246
252.758	405.412
257.625	268.658
262.49	968.686
267.352	2316.76
272.211	2862.31
277.068	2700.34
281.922	2146.69
286.773	3461.7
291.622	7612.4
296.469	13309.6
301.312	17699.8
306.154	13340.6
310.992	7581.35
315.828	5255.49
320.661	2993.88
325.492	1591.19
330.32	949.289
335.145	847.133
339.968	552.688
344.789	434.949
349.606	341.834
354.421	400.736
359.234	326.916
364.043	509.76
368.851	856.463
373.655	624.545
378.457	567.658
383.256	140.59
388.053	302.682
392.847	217.363
397.639	305.414
402.428	336.167
407.214	317.293
411.998	886.383
416.779	2114.89
421.557	4851.47
426.333	6700.38
431.106	3484.03
435.877	1386.68
440.645	737.783
445.41	458.021
450.173	850.507
454.933	1035.63
459.691	1226.5
464.446	1271.2
469.198	1593.48
473.948	2599.88
478.695	3501.48
483.439	4088.83
488.181	3734.87
492.92	3269.94
497.657	2382.16
502.391	1960.14
507.122	1149.08
511.851	769.183
516.577	371.525
521.301	283.419
526.022	221.102
530.74	153.659
535.456	14.1787
540.169	7.67969
544.879	279.387
549.587	138.119
554.292	182.076
558.995	126.661
563.695	140.776
568.392	202.54
573.087	318.514
577.779	368.028
582.469	669.111
587.156	1053.94
591.84	1963.18
596.522	4164.96
601.201	6200.64
605.877	5812.29
610.551	2833.37
615.222	2588.76
619.891	3265.87
624.557	5136.43
629.22	7200.47
633.881	7804.65
638.539	8810.67
643.195	12738.1
647.848	12277.7
652.498	5432.43
657.145	2306.73
661.791	1314.08
666.433	820.29
671.073	446.047
675.71	317.228
680.345	355.91
684.977	220.239
689.606	289.618
694.233	60.581
698.857	65.5664
703.478	33.4277
708.097	191.913
712.714	38.0859
717.327	139.259
721.938	79.4609
726.547	108.939
731.153	55.9043
735.756	44.46
740.356	97.6738
744.954	102.41
749.55	38.5703
754.142	97.9219
758.733	65.2891
763.32	82.168
767.905	220.017
772.487	324.08
777.067	456.856
781.644	464.214
786.218	861.067
790.79	1473.67
795.359	1979.41
799.926	2684.47
804.49	2808.78
809.051	2851.2
813.61	2551.56
818.166	2130.68
822.72	1744.58
827.271	1265.69
831.819	702.402
836.365	574.803
840.908	358.69
845.448	107.223
849.986	26.502
854.521	165.102
859.054	261.945
863.584	192.293
868.111	138.551
872.636	124.65
877.158	163.633
881.677	40.7012
886.194	35.1328
890.709	37.1738
895.22	20.3164
899.729	3.21094
904.236	28.3984
908.74	23.7441
913.241	107.932
917.739	198.117
922.235	34.8379
926.729	105.904
931.219	254.533
935.708	39.7637
940.193	222.791
944.676	313.682
949.156	79.4844
953.634	276.254
958.109	296.019
962.582	457.815
967.051	610.734
971.519	836.926
975.983	1142.15
980.445	1782.48
984.905	2555.18
989.362	4349.02
993.816	7610.02
998.267	12657.2
1002.72	19880.5
1007.16	27581.7
1011.61	28994.3
1016.05	22147.1
1020.49	13838.8
1024.92	8752.76
1029.36	6896.47
1033.79	6537.36
1038.21	7951.39
1042.64	9476.83
1047.06	12544.9
1051.48	14642.8
1055.9	21848
1060.32	29714.9
1064.73	25941
1069.14	13466.5
1073.55	6198.08
1077.95	3425.83
1082.35	2085.18
1086.75	1632.94
1091.15	1119.11
1095.54	1074.68
1099.93	1501.16
1104.32	2165.54
1108.71	3007.32
1113.09	3442.55
1117.47	3268.3
1121.85	3077.58
1126.23	2546.96
1130.6	2111.08
1134.97	1353.06
1139.34	900.648
1143.7	729.949
1148.07	419.744
1152.43	435.328
1156.79	316.4
1161.14	332.318
1165.49	389.848
1169.84	226.647
1174.19	121.785
1178.54	301.147
1182.88	512.863
1187.22	874.852
1191.55	1227.03
1195.89	999.416
1200.22	1272.9
1204.55	1011.46
1208.87	1005.09
1213.2	465.875
1217.52	333.57
1221.84	372.228
1226.15	20
1230.47	283.648
1234.78	58.2031
1239.09	69.2598
1243.39	88.9336
1247.69	38.6992
1251.99	142.432
1256.29	1.91211
1260.59	36.5039
1264.88	2.28125
1269.17	40.3633
1273.46	58.2988
1277.74	45.3516
1282.02	179.342
1286.3	20.7422
1290.58	163.565
1294.86	278.344
1299.13	459.791
1303.39	435.053
1307.66	171.115
1311.93	304.023
1316.19	239.717
1320.45	349.191
1324.7	412.478
1328.96	295.49
1333.21	360.25
1337.45	283.768
1341.7	367.031
1345.94	442.031
1350.18	236.141
1354.42	233.188
1358.66	290.586
1362.89	313.754
1367.12	284.08
1371.35	185.478
1375.57	162.541
1379.8	146.707
1384.02	225.606
1388.23	34.6191
1392.45	99.3047
1396.66	58.6074
1400.87	62.5801
1405.08	8.47656
1409.28	51.8223
1413.48	80.5039
1417.68	85.5742
1421.88	137.812
1426.07	151.603
1430.26	402.596
1434.45	348.381
1438.64	805.18
1442.82	658.914
1447	753.697
1451.18	743.084
1455.35	826.727
1459.53	376.846
1463.7	443.625
1467.87	420.932
1472.03	205.846
1476.19	156.893
1480.35	318.824
1484.51	56.1562
1488.67	224.6
1492.82	179.908
1496.97	203.662
1501.12	53.377
1505.26	260.176
1509.4	351.81
1513.54	197.359
1517.68	298.016
1521.81	186.856
1525.94	211.984
1530.07	239.803
1534.2	74.1348
1538.32	6.67773
1542.44	275.801
1546.56	93.9668
1550.68	365.898
1554.79	331.418
1558.9	182.68
1563.01	168.137
1567.12	286.166
1571.22	275.648
1575.32	71.5508
