Measurement: Raman, 514 nm, ccw, Raman Data Processed
Mineral: Montebrasite
Rruff sample: R040062
Ideal chemistry: LiAlPO_4_(OH)
Locality: Hebron, Maine, USA
Source: University of Arizona Mineral Museum
Description: White massive
Measured chemistry: LiAl(PO_4_)((OH)_0.62_F_0.38_)
Pin_id: L00144
Orientation: Laser parallel to (1 1 0). Fiducial mark perpendicular to laser is parallel to -c [0 0 -1]
Raman shift (cm-1)	intensity
113.329	0
117.519	223.053
121.706	150.185
125.892	1261.92
130.075	3415.75
134.256	3805.37
138.435	1845
142.611	573.897
146.786	148.89
150.958	17.676
155.128	165.911
159.296	430.841
163.462	1349.57
167.625	1699.5
171.786	1597.39
175.946	1296.81
180.103	1049.19
184.258	1169.48
188.41	1086.22
192.561	670.015
196.709	380.264
200.856	228.644
205	134.661
209.142	291.749
213.281	370.164
217.419	398.206
221.554	397.15
225.688	356.363
229.819	225.724
233.948	166.331
238.075	5.687
242.2	135.26
246.322	16.075
250.443	216.273
254.561	46.434
258.677	63.19
262.791	591.471
266.903	1557.46
271.013	2842.31
275.121	3667.08
279.226	2784.89
283.33	2681.82
287.431	3381.24
291.53	6510.34
295.627	14109.2
299.722	18707.4
303.815	12845.1
307.906	8502.24
311.995	6558.73
316.081	4713.15
320.166	3827.83
324.248	2791.57
328.328	1874.46
332.406	1266.83
336.482	878.728
340.556	649.908
344.628	479.24
348.697	365.911
352.765	292.088
356.83	499.655
360.894	538.344
364.955	618.048
369.014	756.741
373.071	965.772
377.126	1113.9
381.179	1108.14
385.23	1019.43
389.279	997.873
393.325	813.41
397.37	892.103
401.413	667.698
405.453	674.799
409.491	852.134
413.528	747.337
417.562	1043.42
421.594	3493.69
425.624	7167.48
429.652	3801.57
433.678	1385.6
437.702	799.496
441.724	513.235
445.743	276.707
449.761	299.85
453.777	322.63
457.79	339.709
461.802	337.111
465.811	578.813
469.819	850.158
473.824	1371.15
477.827	2011.8
481.829	2692.11
485.828	2472.08
489.825	2241.72
493.82	1811.04
497.813	1600.02
501.804	1128.68
505.793	827.031
509.78	414.834
513.765	201.89
517.748	149.254
521.729	33.457
525.708	25.41
529.685	17.938
533.659	9.723
537.632	49.705
541.603	49.248
545.571	140.547
549.538	266.605
553.503	52.627
557.465	143.332
561.426	67.383
565.385	75.512
569.341	160.918
573.296	414.504
577.248	485.109
581.199	439.752
585.147	721.525
589.094	991.629
593.038	1626.19
596.981	3769.41
600.922	5669.38
604.86	4504.09
608.797	2544.39
612.731	1904.53
616.664	2174.59
620.594	3013.95
624.523	5152.77
628.449	8841.22
632.374	8209.29
636.296	5986.97
640.217	7774.26
644.135	14051.2
648.052	11377.7
651.967	4933.77
655.879	2519.5
659.79	1454.84
663.698	921.143
667.605	674.361
671.51	437.322
675.413	598.785
679.313	255.773
683.212	343.734
687.109	136.621
691.004	383.031
694.897	12.305
698.788	6.037
702.677	83.721
706.564	90.797
710.449	63.58
714.332	155.648
718.213	70.742
722.092	5.623
725.969	79.887
729.844	68.688
733.718	95.539
737.589	20.336
741.458	5.68
745.326	78.412
749.191	112.057
753.055	265.393
756.916	48.344
760.776	100.877
764.634	263.068
768.489	274.945
772.343	296.672
776.195	317.93
780.045	705.568
783.893	1076.24
787.739	1637.03
791.583	2227.15
795.425	3117
799.266	3566.58
803.104	3715.91
806.94	3695
810.775	3203.85
814.608	2582.46
818.438	1950.84
822.267	1349.01
826.094	976.967
829.919	864.639
833.742	401.662
837.563	188.229
841.382	203.682
845.199	289.553
849.014	79.564
852.828	190.738
856.639	43.887
860.449	104.428
864.257	37.229
868.062	118.588
871.866	369.033
875.668	123.975
879.468	79.582
883.267	95.73
887.063	65.766
890.857	164.84
894.65	342.629
898.44	393.533
902.229	306.922
906.016	131.781
909.801	35.951
913.584	269.902
917.365	45.75
921.144	121.391
924.922	146.867
928.697	177.221
932.471	18.812
936.242	25.037
940.012	181.273
943.78	77.697
947.546	294.234
951.311	316.186
955.073	217.684
958.834	214.6
962.592	621.658
966.349	338.834
970.104	496.104
973.857	753.469
977.608	1120.95
981.357	1228.54
985.105	2236.26
988.85	3004.13
992.594	4402.17
996.336	6130.39
1000.08	9607.17
1003.81	14845.3
1007.55	20183.7
1011.28	20896.7
1015.02	15827.6
1018.75	10566.2
1022.48	7256.6
1026.2	5987.27
1029.93	6135.05
1033.65	7856.5
1037.37	10488.3
1041.09	14000.6
1044.81	15983.1
1048.53	15666.1
1052.24	15359.4
1055.95	17772.9
1059.66	19806.8
1063.37	13751.1
1067.08	7075.46
1070.79	4420.18
1074.49	2715.09
1078.19	2053.86
1081.89	1719.71
1085.59	1583.97
1089.28	1431.69
1092.98	1368.52
1096.67	1736.78
1100.36	2474.33
1104.05	3941.6
1107.73	5200.26
1111.42	5447.15
1115.1	5121.55
1118.78	4606.16
1122.46	3861.16
1126.14	2866.56
1129.82	1882.39
1133.49	1498.93
1137.16	1106.35
1140.83	804.445
1144.5	363.025
1148.17	112.197
1151.83	261.832
1155.5	251.928
1159.16	167.521
1162.82	73.482
1166.47	74.943
1170.13	14.311
1173.79	69.426
1177.44	142.082
1181.09	237.934
1184.74	208.514
1188.38	552.551
1192.03	537.521
1195.67	513.486
1199.31	730.455
1202.95	728.418
1206.59	397.414
1210.23	125.488
1213.86	124.74
1217.5	225.23
1221.13	296.873
1224.76	89.84
1228.38	174.164
1232.01	609.787
1235.63	79.035
1239.26	252.463
1242.88	199.793
1246.49	253.822
1250.11	25.582
1253.73	58.842
1257.34	0
