Measurement: Raman, 514 nm, ccw, Raman Data Processed
Mineral: Montebrasite
Rruff sample: R060890
Ideal chemistry: LiAlPO_4_(OH)
Locality: Mount Marie, Paris, Maine, USA
Source: Bob Jenkins
Description: Colorless massive
Measured chemistry: Li_1.00_Al_1.00_(P_1.00_O_4_)(OH)_0.63_F_0.37_)_Î£=1_ ; Li not measured but estimated by stoichiometry
Pin_id: M01307
Orientation: Laser parallel to -c* (0 0 -1). Fiducial mark perpendicular to laser is parallel to a [1 0 0]
Raman shift (cm-1)	intensity
90.678	0
95.631	467.501
100.581	89.6123
105.529	976.454
110.475	1138.89
115.417	1611.74
120.358	1351.14
125.295	2359.69
130.23	3693.86
135.163	3201.06
140.092	1684.8
145.019	741.33
149.944	714.306
154.866	1478.36
159.785	2462.94
164.702	4505.6
169.616	5122.67
174.528	4251.88
179.437	2859.45
184.343	2367.66
189.247	1868.74
194.148	1537.4
199.046	1358.41
203.942	822.482
208.835	403.153
213.726	456.381
218.614	403.212
223.5	264.691
228.382	98.8076
233.263	122.536
238.14	194.878
243.015	44.4258
247.888	164.001
252.758	134.647
257.625	351.216
262.49	1186.29
267.352	2292.27
272.211	3230.72
277.068	3287.31
281.922	2746.77
286.773	3260.08
291.622	5394.42
296.469	10273
301.312	16739.8
306.154	13301.8
310.992	7427.54
315.828	4427.55
320.661	2652.32
325.492	1999.99
330.32	1449.63
335.145	904.234
339.968	610.027
344.789	539.281
349.606	542.711
354.421	419.781
359.234	587.621
364.043	748.475
368.851	852.611
373.655	852.789
378.457	716.828
383.256	482.652
388.053	400.195
392.847	175.066
397.639	73.2949
402.428	152.309
407.214	108.549
411.998	284.816
416.779	1026.92
421.557	2771
426.333	5381.46
431.106	2606.35
435.877	900.184
440.645	445.83
445.41	400.654
450.173	595.025
454.933	698.25
459.691	1211.52
464.446	1296.89
469.198	1473.34
473.948	2206.87
478.695	2914.51
483.439	3625.23
488.181	3307.05
492.92	3048.35
497.657	2558.67
502.391	1684.08
507.122	1114.3
511.851	843.641
516.577	335.148
521.301	147.092
526.022	127.92
530.74	56.7598
535.456	165.449
540.169	32.5469
544.879	83.5918
549.587	81.6973
554.292	163.955
558.995	122.953
563.695	77.9082
568.392	249.906
573.087	307.56
577.779	409.502
582.469	578.002
587.156	735.236
591.84	2059.45
596.522	2950.52
601.201	5857.8
605.877	5277.83
610.551	2379.81
615.222	1556.37
619.891	1581.41
624.557	2707.33
629.22	2742.9
633.881	3880.64
638.539	4478.19
643.195	7949.75
647.848	9838.23
652.498	4468.65
657.145	1855.04
661.791	984.346
666.433	647.791
671.073	464.133
675.71	300.117
680.345	212.977
684.977	178.846
689.606	216.246
694.233	73.8203
698.857	0.640625
703.478	101.139
708.097	29.1855
712.714	2.08789
717.327	115.603
721.938	34.0996
726.547	104.039
731.153	58.8906
735.756	127.318
740.356	171.715
744.954	230.596
749.55	203.408
754.142	75.9219
758.733	106.699
763.32	135.199
767.905	274.228
772.487	273.307
777.067	409.041
781.644	428.723
786.218	603.643
790.79	904.205
795.359	1635.55
799.926	1829.97
804.49	2440.45
809.051	2304.55
813.61	2330.69
818.166	1978.51
822.72	1769.01
827.271	1122.45
831.819	794.168
836.365	733.133
840.908	270.699
845.448	435.008
849.986	227.207
854.521	143.193
859.054	232.934
863.584	30.0273
868.111	0.693359
872.636	185.375
877.158	31.7754
881.677	132.879
886.194	111.328
890.709	49.9141
895.22	155.926
899.729	188.285
904.236	8.80273
908.74	25.291
913.241	23.0684
917.739	16.7852
922.235	91.3398
926.729	129.377
931.219	56.4453
935.708	183.041
940.193	160.666
944.676	126.178
949.156	162.576
953.634	117.873
958.109	358.09
962.582	458.258
967.051	597.506
971.519	427.963
975.983	418.644
980.445	682.547
984.905	1154.58
989.362	1619.92
993.816	2731.1
998.267	4352.72
1002.72	7199.62
1007.16	10267.8
1011.61	11239
1016.05	9257.76
1020.49	6421.09
1024.92	4871.58
1029.36	4745.97
1033.79	6259.01
1038.21	8628.27
1042.64	10569
1047.06	12410
1051.48	13409.2
1055.9	16229.5
1060.32	21904.6
1064.73	21462.8
1069.14	12092.8
1073.55	5572.43
1077.95	2967.24
1082.35	1924.87
1086.75	1502.77
1091.15	1231.93
1095.54	1310.5
1099.93	1554.33
1104.32	2130.12
1108.71	3197.56
1113.09	3638.96
1117.47	4290.58
1121.85	4524.49
1126.23	4310.91
1130.6	3944.89
1134.97	2882.68
1139.34	1813.7
1143.7	1186.15
1148.07	761.844
1152.43	661.184
1156.79	501.717
1161.14	321.139
1165.49	400.56
1169.84	423.379
1174.19	376.58
1178.54	449.168
1182.88	462.039
1187.22	571.445
1191.55	752.637
1195.89	958.555
1200.22	744.721
1204.55	798.309
1208.87	463.891
1213.2	695.156
1217.52	267.258
1221.84	81.3984
1226.15	28.5605
1230.47	56.3926
1234.78	9.39453
1239.09	45.6035
1243.39	90.791
1247.69	411.127
1251.99	60.6523
1256.29	56.1191
1260.59	68.332
1264.88	60.7129
1269.17	6.24609
1273.46	8.73047
1277.74	53.5957
1282.02	331.463
1286.3	131.887
1290.58	361.059
1294.86	1435.06
1299.13	842.824
1303.39	345.326
1307.66	344.543
1311.93	96.457
1316.19	260.053
1320.45	129.301
1324.7	164.441
1328.96	231.684
1333.21	162.893
1337.45	184.797
1341.7	240.369
1345.94	227.631
1350.18	401.576
1354.42	364.695
1358.66	311.596
1362.89	246.781
1367.12	353.832
1371.35	283.553
1375.57	121.492
1379.8	89.1074
1384.02	270.609
1388.23	339.732
1392.45	10.084
1396.66	61.0879
1400.87	130.353
1405.08	9.88477
1409.28	156.106
1413.48	173.25
1417.68	629.816
1421.88	386.68
1426.07	389.242
1430.26	731.883
1434.45	1316.34
1438.64	1950.31
1442.82	1412.47
1447	1080.94
1451.18	963.16
1455.35	1069.21
1459.53	1058.05
1463.7	1195.7
1467.87	823.731
1472.03	278.926
1476.19	589.543
1480.35	576.828
1484.51	183.551
1488.67	410.269
1492.82	234.164
1496.97	188.086
1501.12	230.609
1505.26	106.859
1509.4	77.0039
1513.54	218.266
1517.68	378.676
1521.81	218.969
1525.94	101.176
1530.07	184.734
1534.2	291.109
1538.32	58.7305
1542.44	82.918
1546.56	296.254
1550.68	202.75
1554.79	150.402
1558.9	193.059
1563.01	110.09
1567.12	117.344
1571.22	122.309
1575.32	281.734
