Measurement: Raman, 514 nm, ccw, Raman Data Processed
Mineral: Montebrasite
Rruff sample: R040062
Ideal chemistry: LiAlPO_4_(OH)
Locality: Hebron, Maine, USA
Source: University of Arizona Mineral Museum
Description: White massive
Measured chemistry: LiAl(PO_4_)((OH)_0.62_F_0.38_)
Pin_id: L00408
Orientation: Laser parallel to c* (0 0 1). Fiducial mark perpendicular to laser is parallel to a [1 0 0]
Raman shift (cm-1)	intensity
111.932	0
116.123	138.091
120.311	209.099
124.497	742.768
128.681	2074.84
132.862	3249.63
137.042	1976
141.219	659.325
145.394	155.698
149.567	190.05
153.738	126.12
157.907	281.747
162.073	477.404
166.237	281.311
170.4	279.229
174.559	146.085
178.717	489.342
182.873	861.086
187.026	1399.5
191.178	1672.44
195.327	1455.26
199.474	828.158
203.618	128.485
207.761	96.739
211.902	167.599
216.04	50.811
220.176	99.398
224.31	202.993
228.442	287.543
232.572	275.338
236.7	188.555
240.825	177.655
244.948	7.447
249.07	8.945
253.189	16.969
257.306	14.901
261.42	127.316
265.533	629.423
269.643	1441.02
273.752	2042.89
277.858	2104.07
281.962	1769.13
286.064	2236.18
290.164	3994.02
294.262	9312.14
298.358	19330.3
302.451	17728.3
306.543	9215.92
310.632	5643.17
314.719	4410.09
318.804	4016.68
322.887	2582.98
326.968	1378.01
331.047	781.71
335.124	615.343
339.198	348.894
343.271	182.321
347.341	155.475
351.409	78.057
355.475	50.463
359.539	46.928
363.601	6.186
367.661	5.482
371.719	52.314
375.775	81.299
379.828	156.01
383.88	319.845
387.929	222.558
391.977	396.677
396.022	499.389
400.065	724.352
404.106	898.621
408.146	1101.61
412.182	1581.06
416.217	3215.07
420.25	8674.06
424.281	25973.8
428.31	25693.5
432.336	8113.15
436.361	2632.74
440.383	1312.41
444.404	811.985
448.422	521.394
452.438	450.547
456.453	379.413
460.465	457.994
464.475	566.28
468.483	954.271
472.489	1601.95
476.493	2709.31
480.495	4046.36
484.495	4613.09
488.493	4449.51
492.489	4125.62
496.482	3471.45
500.474	2756.97
504.464	1892.17
508.451	1076.75
512.437	559.238
516.421	387.705
520.402	133.13
524.382	108.323
528.359	20.006
532.335	29.005
536.308	70.169
540.279	52.251
544.249	105.699
548.216	0.672
552.181	116.84
556.145	119.443
560.106	276.278
564.065	111.571
568.023	157.902
571.978	295.735
575.931	356.613
579.882	374.381
583.831	439.756
587.779	549.507
591.724	741.32
595.667	1099.66
599.608	1749.19
603.547	2003.21
607.485	1433.03
611.42	1449.31
615.353	1485.28
619.284	1860.16
623.213	2675.72
627.141	4269.28
631.066	6122.41
634.989	7675.12
638.91	14857.4
642.829	34539.3
646.747	43220.7
650.662	21441.7
654.575	8952.3
658.486	4532.48
662.396	2552.25
666.303	1791.6
670.209	1250.57
674.112	819.194
678.013	546.5
681.913	510.901
685.81	363.665
689.706	330.921
693.599	197.028
697.491	102.55
701.38	194.042
705.268	189.713
709.154	143.175
713.037	186.002
716.919	136.288
720.799	45.052
724.677	64.44
728.553	3.723
732.427	68.034
736.299	68.915
740.169	60.752
744.037	11.013
747.903	51.812
751.767	103.294
755.629	4.465
759.49	18.262
763.348	28.577
767.204	325.114
771.059	221.375
774.911	177.355
778.762	113.055
782.611	158.506
786.457	523.736
790.302	558.756
794.145	1123.57
797.986	1508.19
801.825	1532.63
805.662	1486.89
809.497	1380.99
813.33	1054.94
817.162	988.738
820.991	552.408
824.818	325.953
828.644	419.387
832.468	242.723
836.289	106.004
840.109	10.74
843.927	112.502
847.743	4.811
851.557	193.326
855.369	48.629
859.179	119.771
862.988	16.469
866.794	228.176
870.599	454.951
874.401	896.969
878.202	919.182
882.001	673.477
885.798	835.936
889.593	640.613
893.386	981.205
897.177	1256.56
900.966	1190.94
904.754	1103.83
908.539	562.318
912.323	317.898
916.105	281.316
919.885	295.959
923.663	70.129
927.439	155.172
931.213	9.336
934.985	215.309
938.756	181.535
942.525	338.016
946.291	364.773
950.056	411.818
953.819	249.145
957.58	316.771
961.339	454.703
965.097	732.955
968.852	1001.54
972.606	1060.55
976.358	1359.92
980.108	1759.64
983.856	2289.71
987.602	3700.08
991.346	5540.56
995.089	8474.19
998.829	12507.5
1002.57	19966.9
1006.3	28687.2
1010.04	34161.2
1013.77	30325.5
1017.5	20879.3
1021.23	13993.9
1024.96	10739.7
1028.69	9974.6
1032.41	11670
1036.13	15576.1
1039.85	20142.7
1043.57	24130
1047.29	23347.9
1051	20716.3
1054.72	19665.5
1058.43	20515.2
1062.14	17105.6
1065.84	10416.4
1069.55	6157.26
1073.25	3988.41
1076.95	2959.79
1080.66	2111.59
1084.35	1614.25
1088.05	1318.89
1091.74	1200.26
1095.44	925.193
1099.13	819.43
1102.82	844.217
1106.51	1359.64
1110.19	1305.72
1113.87	1262.46
1117.56	1276.46
1121.24	1034.96
1124.91	793.947
1128.59	501.482
1132.27	146.709
1135.94	91.404
1139.61	246.707
1143.28	412.871
1146.95	279.656
1150.61	236.984
1154.28	74.988
1157.94	56.207
1161.6	256.684
1165.26	343.562
1168.91	364.516
1172.57	446.16
1176.22	548.523
1179.87	691.645
1183.52	815.506
1187.17	1320.1
1190.81	925.426
1194.46	1061.5
1198.1	1118.12
1201.74	1175.18
1205.38	923.133
1209.02	566.576
1212.65	332.867
1216.29	507.295
1219.92	396.121
1223.55	339.266
1227.17	338.76
1230.8	358.881
1234.42	209.496
1238.05	220.459
1241.67	291.576
1245.29	95.672
1248.91	306.252
1252.52	259.678
1256.13	579.771
1259.75	505.773
1263.36	499.932
1266.97	658.004
1270.57	433.053
1274.18	0
