Measurement: Raman, 514 nm, ccw, Raman Data Processed
Mineral: Montebrasite
Rruff sample: R040060
Ideal chemistry: LiAlPO_4_(OH)
Locality: Oxford County, Maine, USA
Source: University of Arizona Mineral Museum
Description: White massive
Measured chemistry: LiAl(PO_4_)((OH)_0.79_F_0.21_)
Pin_id: L00066
Orientation: Laser parallel to (0 -1 -1). Fiducial mark perpendicular to laser is parallel to a [1 0 0]
Raman shift (cm-1)	intensity
137.85	0
140.63	140.648
143.41	64.217
146.188	40.742
148.965	17.772
151.742	19.932
154.517	79.493
157.292	40.515
160.066	182.714
162.839	665.893
165.611	419.946
168.381	394.682
171.152	400.014
173.921	425.88
176.689	532.226
179.456	319.004
182.222	356.174
184.988	393.668
187.752	421.465
190.516	299.985
193.279	378.271
196.041	456.765
198.801	265.478
201.561	284.456
204.321	193.646
207.079	143.032
209.836	122.611
212.592	52.372
215.348	42.299
218.102	172.382
220.856	142.636
223.608	93.014
226.36	113.367
229.111	203.665
231.861	193.991
234.61	134.368
237.358	124.805
240.105	14.698
242.852	2.875
245.597	117.72
248.342	88.542
251.085	109.297
253.828	120.25
256.57	71.562
259.31	152.882
262.05	195.532
264.79	297.171
267.528	228.973
270.265	520.841
273.001	402.759
275.737	734.741
278.471	686.916
281.205	619.117
283.938	441.359
286.67	453.629
289.401	505.916
292.131	908.222
294.86	1530.54
297.588	2343.13
300.315	2496.16
303.042	2069.21
305.767	1581.73
308.492	1032.41
311.216	1022.68
313.939	851.125
316.661	721.559
319.382	752.576
322.102	633.551
324.821	374.965
327.54	306.469
330.257	278.055
332.974	309.715
335.69	171.443
338.405	223.236
341.119	15.084
343.832	76.988
346.544	41.062
349.255	10.941
351.965	173.092
354.675	95.803
357.384	8.104
360.091	30.77
362.798	102.979
365.504	172.277
368.209	175.049
370.913	5.959
373.617	97.078
376.319	30.672
379.021	203.357
381.721	102.445
384.421	96.555
387.12	89.631
389.818	119.727
392.515	152.805
395.211	146.395
397.906	169.846
400.601	163.174
403.294	95.797
405.987	109.652
408.679	133.152
411.37	56.58
414.06	266.154
416.749	59.246
419.437	282.746
422.125	736.07
424.811	1459.29
427.497	1567.95
430.182	1335.52
432.866	898.35
435.549	481.168
438.231	313.99
440.912	236.812
443.593	189.617
446.272	222.4
448.951	95.195
451.628	38
454.305	50.781
456.981	83.533
459.657	136.258
462.331	248.949
465.004	71.609
467.677	164.23
470.348	256.832
473.019	259.453
475.689	242.064
478.358	554.658
481.026	607.227
483.694	729.758
486.36	592.254
489.026	536.482
491.691	537.131
494.354	639.508
497.017	321.842
499.68	384.129
502.341	366.365
505.001	268.553
507.661	169.881
510.319	92.125
512.977	54.982
515.634	158.344
518.29	101.617
520.945	144.385
523.6	159.719
526.253	87.107
528.906	238.928
531.558	91.93
534.208	5.695
536.858	113.074
539.508	83.746
542.156	2.525
544.803	109.678
547.45	213.645
550.096	125.535
552.741	7.689
555.385	29.176
558.028	220.359
560.67	165.535
563.312	14.438
565.952	55.141
568.592	117.107
571.231	71.467
573.869	289.475
576.506	120.23
579.142	70.68
581.778	102.18
584.412	87.924
587.046	209.586
589.679	322.992
592.311	402.945
594.942	382.867
597.573	716.611
600.202	786.289
602.831	946.227
605.459	825.613
608.086	782.963
610.712	622.137
613.337	371.232
615.961	296.736
618.585	418.648
621.208	578.311
623.829	526.293
626.45	784.992
629.071	926.938
631.69	814.844
634.308	802.115
636.926	799.258
639.543	1036.26
642.159	1533.14
644.774	2639.87
647.388	2586.47
650.002	1802.94
652.614	1029.28
655.226	725.477
657.837	411.535
660.447	337.451
663.056	284.799
665.664	228.867
668.272	184.234
670.879	49.734
673.484	44.924
676.089	230.32
678.694	90.361
681.297	125.893
683.899	304.24
686.501	54.49
689.102	103.256
691.702	43.42
694.301	191.02
696.899	229.117
699.497	164.789
702.093	7.627
704.689	170.828
707.284	260.057
709.878	132.617
712.472	131.916
715.064	20.906
717.656	132.365
720.247	273.326
722.837	54.34
725.426	95.586
728.014	60.355
730.601	241.33
733.188	272.244
735.774	212.107
738.359	47.4
740.943	92.854
743.526	5.365
746.109	195.314
748.691	135.387
751.271	14.961
753.851	114.863
756.431	54.34
759.009	73.928
761.587	86.971
764.163	121.779
766.739	70.57
769.314	129.238
771.888	97.459
774.462	15.529
777.034	263.658
779.606	301.426
782.177	259.164
784.747	117.98
787.317	335.246
789.885	282.934
792.453	249.941
795.019	396.82
797.585	653.572
800.151	580.197
802.715	677.688
805.279	694.066
807.841	450.32
810.403	396.451
812.964	412.463
815.525	348.357
818.084	334.129
820.643	309.641
823.201	274.836
825.758	188.547
828.314	52.232
830.869	120.762
833.424	90.783
835.977	2.299
838.53	67.955
841.082	55.367
843.634	118.924
846.184	17.158
848.734	80.195
851.283	47.754
853.831	295.113
856.378	185.406
858.925	41.123
861.47	12.049
864.015	63.822
866.559	236.535
869.102	147.402
871.645	128.018
874.186	106.668
876.727	65.01
879.267	176.873
881.806	38.523
884.344	11.361
886.882	253.549
889.419	185.551
891.954	80.551
894.49	37.301
897.024	30.348
899.557	222.258
902.09	313.93
904.622	2.211
907.153	43.488
909.683	4.984
912.213	236.402
914.741	60.52
917.269	11.965
919.796	3.254
922.323	264.992
924.848	176.074
927.373	226.535
929.897	78.867
932.42	290.914
934.942	342.141
937.463	349.449
939.984	18.336
942.504	273.852
945.023	166.02
947.541	108.18
950.059	120.324
952.575	37.539
955.091	134.562
957.606	186.656
960.121	368.75
962.634	650.836
965.147	1022.91
967.659	1035
970.17	567.086
972.68	449.172
975.19	361.266
977.698	472.875
980.206	834.207
982.713	666.004
985.22	422.711
987.725	473.727
990.23	1001.86
992.734	882.711
995.237	833.883
997.739	885.781
1000.24	1363.02
1002.74	1917.66
1005.24	2400.21
1007.74	3043.38
1010.24	3514.88
1012.74	3936.55
1015.23	3520.79
1017.73	2757.79
1020.23	2135.71
1022.72	1668.96
1025.21	1453.02
1027.71	1067.63
1030.2	1273.93
1032.69	1397.3
1035.18	1460.83
1037.67	1615.7
1040.16	2030.98
1042.65	2844.93
1045.13	3157.52
1047.62	3161.8
1050.11	3016.96
1052.59	2991.33
1055.08	2975.58
1057.56	3701.41
1060.04	3925.72
1062.53	3510.28
1065.01	2735.25
1067.49	1950.23
1069.97	1386.33
1072.44	1001.06
1074.92	726.098
1077.4	741.066
1079.88	525.523
1082.35	440.168
1084.83	554.828
1087.3	668.305
1089.78	412.766
1092.25	427.355
1094.72	532.645
1097.19	547.508
1099.66	552.73
1102.13	456.086
1104.6	651.395
1107.07	1126.98
1109.53	1042.49
1112	816.594
1114.47	892.391
1116.93	718.184
1119.39	714.586
1121.86	578.973
1124.32	975.766
1126.78	592.418
1129.24	250.012
1131.7	125.625
1134.16	102.996
1136.62	450.969
1139.08	247.66
1141.54	267.414
1143.99	24.195
1146.45	147.824
1148.9	75.625
1151.36	158.539
1153.81	103.203
1156.26	267.34
1158.71	393.488
1161.17	42.305
