Measurement: Raman, 514 nm, ccw, Raman Data Processed
Mineral: Montebrasite
Rruff sample: R040062
Ideal chemistry: LiAlPO_4_(OH)
Locality: Hebron, Maine, USA
Source: University of Arizona Mineral Museum
Description: White massive
Measured chemistry: LiAl(PO_4_)((OH)_0.62_F_0.38_)
Pin_id: L00490
Orientation: Laser parallel to (1 0 1). Fiducial mark perpendicular to laser is parallel to b [0 1 0]
Raman shift (cm-1)	intensity
114.726	0
118.915	124.76
123.102	1056.09
127.286	2807.87
131.469	4759.84
135.649	3808.99
139.827	1546.7
144.003	627.239
148.177	299.558
152.348	418.487
156.517	299.008
160.685	491.361
164.85	697.624
169.012	825.107
173.173	833.56
177.332	1124.05
181.488	1412.65
185.642	1910.52
189.794	2190.22
193.944	2185.25
198.092	1640.5
202.237	826.371
206.38	283.246
210.522	8.932
214.661	70.305
218.798	18.881
222.932	58.459
227.065	58.249
231.196	48.108
235.324	14.263
239.45	72.219
243.574	18.26
247.696	20.957
251.816	70.4
255.933	9.671
260.049	79.488
264.162	208.581
268.274	516.615
272.383	904.041
276.49	981.403
280.595	1301.02
284.697	1584.86
288.798	3101.48
292.896	7408.81
296.993	15136.3
301.087	16174.2
305.179	10131.5
309.269	6608.84
313.357	5454.66
317.443	4619.8
321.527	3604.3
325.608	2398.26
329.688	1421.33
333.765	953.202
337.84	744.332
341.913	624.98
345.984	444.562
350.053	472.956
354.12	341.196
358.185	380.979
362.248	390.787
366.308	411.805
370.367	583.049
374.423	614.312
378.478	514.817
382.53	679.721
386.58	581.199
390.628	692.256
394.674	669.005
398.718	695.581
402.76	586.828
406.799	761.512
410.837	969.159
414.873	1859.64
418.906	4855.69
422.938	15102.9
426.967	17828.8
430.994	6985.61
435.02	2382.4
439.043	1189.13
443.064	745.742
447.083	362.204
451.1	328.455
455.115	354.447
459.128	300.173
463.139	295.591
467.147	100.682
471.154	445.434
475.159	709.874
479.161	834.009
483.162	1267.84
487.161	1591.37
491.157	1664.61
495.151	1477.56
499.144	1212.97
503.134	892.644
507.123	714.779
511.109	386.658
515.093	128.281
519.075	30.388
523.055	150.59
527.034	71.773
531.01	34.428
534.984	24.875
538.956	134.479
542.926	76.843
546.894	142.743
550.86	165.609
554.824	65.354
558.786	82.238
562.746	147.977
566.704	122.939
570.66	349.607
574.614	333.076
578.565	393.027
582.515	567.143
586.463	622.951
590.409	965.311
594.353	1586.42
598.295	3286.15
602.235	4305.04
606.172	2405.83
610.108	1609.76
614.042	1206.92
617.974	1392.4
621.904	2184.56
625.832	3845.79
629.758	5437.57
633.681	4659.16
637.603	5280.4
641.523	10661.3
645.441	15451.8
649.357	9191.97
653.271	4041.8
657.183	1991.27
661.093	1270.41
665.001	769.201
668.907	617.656
672.811	494.652
676.713	366.838
680.613	275.844
684.511	199.287
688.407	161.998
692.302	89.037
696.194	147.062
700.084	32.334
703.972	118.252
707.859	87.936
711.743	156.197
715.626	47.912
719.506	108.053
723.384	101.836
727.261	50.121
731.136	68.365
735.008	382.793
738.879	153.549
742.748	43.904
746.614	23.744
750.479	36.811
754.342	112.242
758.203	261.004
762.062	229.4
765.919	42.471
769.774	24.633
773.627	142.957
777.479	460.381
781.328	397.754
785.175	814.877
789.021	1151.85
792.864	1358.69
796.706	1975.4
800.545	2171.98
804.383	2368.45
808.219	1994.82
812.053	1671.09
815.885	1157.28
819.715	1243.38
823.543	939.422
827.369	405.404
831.193	381.373
835.016	247.184
838.836	112.232
842.654	55.516
846.471	110.131
850.286	64.449
854.099	92.092
857.909	8.203
861.718	241.736
865.525	465.182
869.331	291.891
873.134	41.07
876.935	441.424
880.735	472.344
884.532	292.119
888.328	398.73
892.122	463.42
895.913	361.201
899.703	442.314
903.491	241.518
907.278	269.348
911.062	268.291
914.844	286.16
918.625	215.344
922.404	208.4
926.18	148.012
929.955	237.674
933.728	267.729
937.499	38.016
941.269	58.539
945.036	169.342
948.801	330.4
952.565	321.717
956.327	303.303
960.087	585.166
963.845	417.318
967.601	659.771
971.355	1012.56
975.107	925.631
978.858	1448.96
982.607	1732.58
986.353	2126.49
990.098	3362.91
993.841	5397.41
997.583	8285.55
1001.32	13254.3
1005.06	19197.3
1008.79	23740.4
1012.53	22083.5
1016.26	16172.4
1019.99	11170.2
1023.72	8118.72
1027.45	6897.1
1031.17	7485.84
1034.89	9005.03
1038.61	11964.8
1042.33	14734.9
1046.05	15765.6
1049.77	15446.8
1053.48	17088.5
1057.19	21930.6
1060.9	21193
1064.61	13195.7
1068.32	7058.41
1072.02	4281.32
1075.72	2934.19
1079.42	2207.42
1083.12	1720.9
1086.82	1164.81
1090.51	861.379
1094.21	755.943
1097.9	1110.94
1101.59	1126.45
1105.28	1002.46
1108.96	1008.92
1112.65	986.178
1116.33	664.965
1120.01	903
1123.69	688.23
1127.37	684.092
1131.04	510.52
1134.71	287.486
1138.39	24.998
1142.06	97.135
1145.72	241.193
1149.39	219.854
1153.05	339.104
1156.72	248.936
1160.38	439.328
1164.04	0.268
1167.69	18.221
1171.35	206.096
1175	166.684
1178.65	310.102
1182.31	564.127
1185.95	528.83
1189.6	894.188
1193.24	780.08
1196.89	676.934
1200.53	339.52
1204.17	390.328
1207.81	345.326
1211.44	610.424
1215.07	438.262
1218.71	240.658
1222.34	555.27
1225.97	389.586
1229.59	103.215
1233.22	95.738
1236.84	408.445
1240.46	506.582
1244.08	502.496
1247.7	623.625
1251.32	336.836
1254.93	340.07
1258.54	220.828
1262.15	2.838
