Measurement: Raman, 514 nm, ccw, Raman Data Processed
Mineral: Montebrasite
Rruff sample: R040060
Ideal chemistry: LiAlPO_4_(OH)
Locality: Oxford County, Maine, USA
Source: University of Arizona Mineral Museum
Description: White massive
Measured chemistry: LiAl(PO_4_)((OH)_0.79_F_0.21_)
Pin_id: L00066
Orientation: Laser parallel to (0 -1 -1). Fiducial mark perpendicular to laser is parallel to a [1 0 0]
Raman shift (cm-1)	intensity
136.46	0
139.24	312
142.02	254.916
144.799	175.226
147.577	142.821
150.354	25.939
153.13	48.11
155.905	134.4
158.679	212.529
161.452	512.193
164.225	453.137
166.996	445.176
169.767	598.17
172.536	612.016
175.305	586.625
178.073	571.928
180.839	567.848
183.605	534.291
186.37	631.178
189.134	598.465
191.898	536.115
194.66	674.188
197.421	482.604
200.182	421.352
202.941	250.43
205.7	259.818
208.457	179.502
211.214	119.461
213.97	149.682
216.725	180.162
219.479	240.916
222.232	181.824
224.984	252.734
227.736	323.592
230.486	184.492
233.236	175.48
235.984	226.566
238.732	167.752
241.479	269.047
244.224	80.449
246.969	182
249.713	115.781
252.457	107.547
255.199	9.523
257.94	61.852
260.681	114.496
263.42	57.338
266.159	230.438
268.896	443.619
271.633	656.887
274.369	860.23
277.104	783.66
279.838	727.186
282.572	720.83
285.304	564.539
288.035	568.305
290.766	872.125
293.495	1406
296.224	2241.06
298.952	2906.1
301.679	2729.92
304.405	1883.49
307.13	1385.69
309.854	1137.18
312.578	1056.97
315.3	856.217
318.021	798.266
320.742	760.664
323.462	713.229
326.181	555.943
328.899	408.799
331.616	401.781
334.332	244.881
337.047	58.092
339.762	161.402
342.475	144.809
345.188	228.301
347.9	241.881
350.61	85.537
353.32	29.279
356.029	165.979
358.738	119.879
361.445	163.924
364.151	28.029
366.857	142.816
369.561	177.781
372.265	207.965
374.968	298.279
377.67	209.834
380.371	136.336
383.071	105.783
385.77	112.264
388.469	337.037
391.166	199.762
393.863	74.605
396.559	279.914
399.254	74.752
401.948	190.391
404.641	305.709
407.333	380.588
410.025	285.588
412.715	151.078
415.405	257.217
418.093	382.785
420.781	639.984
423.468	1146.22
426.154	2051.55
428.839	2086.68
431.524	1381.81
434.207	677.066
436.89	432.205
439.572	327.385
442.252	342.582
444.932	87.836
447.611	153.119
450.29	88.408
452.967	183.678
455.644	278.947
458.319	35.803
460.994	79.762
463.668	154.996
466.341	140.217
469.013	185.43
471.684	550.643
474.354	325.869
477.024	581.105
479.692	616.346
482.36	861.57
485.027	816.777
487.693	871.967
490.358	737.137
493.023	452.283
495.686	567.4
498.349	592.494
501.01	497.553
503.671	352.584
506.331	217.58
508.99	142.592
511.648	228.564
514.306	55.223
516.962	91.158
519.618	66.883
522.273	270.164
524.927	3.607
527.58	6.629
530.232	89.818
532.883	73.625
535.534	181.424
538.183	56.574
540.832	67.992
543.48	23.154
546.127	204.404
548.773	120.969
551.418	165.127
554.063	32.238
556.706	167.223
559.349	11.318
561.991	45.604
564.632	209.539
567.272	115.438
569.911	90.379
572.55	4.658
575.187	98.057
577.824	168.35
580.46	243.484
583.095	152.734
585.729	245.941
588.363	339.203
590.995	142.547
593.627	466.066
596.258	491.523
598.888	629.24
601.517	998.08
604.145	1083.42
606.772	680.377
609.399	671.252
612.024	473.545
614.649	357.607
617.273	481.879
619.896	314.338
622.519	416.006
625.14	657.188
627.761	808.383
630.38	1079.36
632.999	1060.09
635.617	850.875
638.235	1081.34
640.851	1361.69
643.466	2311.9
646.081	3201.98
648.695	2521.93
651.308	1711.76
653.92	1091.45
656.531	601.006
659.142	390.432
661.752	379.721
664.36	228.875
666.968	79.449
669.575	88.977
672.182	45.492
674.787	155.121
677.392	223.496
679.995	42.785
682.598	194.789
685.2	71.344
687.802	102.055
690.402	406.387
693.002	175.695
695.6	106.434
698.198	197.516
700.795	102.414
703.391	159.426
705.987	24.543
708.581	151.277
711.175	237.004
713.768	304.852
716.36	130.309
718.951	145.336
721.542	31.441
724.131	146.305
726.72	301.105
729.308	214.887
731.895	60.957
734.481	23.078
737.067	44.84
739.651	418.25
742.235	131.914
744.818	105.578
747.4	228.953
749.981	212.352
752.562	24.492
755.141	148.414
757.72	41.109
760.298	26.438
762.875	255.762
765.451	197.867
768.027	9.789
770.601	121.523
773.175	173.078
775.748	244.145
778.32	125.371
780.892	186.461
783.462	237.402
786.032	338.207
788.601	188.875
791.169	249.406
793.736	319.805
796.303	400.074
798.868	490.211
801.433	660.406
803.997	710.281
806.56	540.031
809.122	599.656
811.684	669.16
814.245	678.539
816.804	257.797
819.363	506.887
821.922	165.152
824.479	243.059
827.036	40.051
829.592	247.887
832.147	64.242
834.701	12.777
837.254	230.574
839.807	114.508
842.358	8.637
844.909	128.164
847.459	134.715
850.008	161.121
852.557	77.754
855.105	23.945
857.651	92.199
860.197	132.664
862.743	208.77
865.287	27.426
867.831	57.957
870.373	143.426
872.915	0.859
875.457	53.734
877.997	188.566
880.536	183.551
883.075	338.297
885.613	156.965
888.15	120.609
890.687	40.238
893.222	85.648
895.757	170.246
898.291	185.059
900.824	60.27
903.356	414.539
905.888	512.281
908.418	56.328
910.948	243.922
913.477	182.449
916.005	447.238
918.533	271.895
921.06	214.16
923.585	248.492
926.111	149.758
928.635	503.848
931.158	377.773
933.681	182.32
936.203	207.137
938.724	741.809
941.244	446.402
943.764	441.176
946.282	85.949
948.8	440.719
951.317	495.496
953.833	480.277
956.349	295.074
958.864	69.895
961.377	424.738
963.891	799.625
966.403	1104.55
968.914	669.527
971.425	574.57
973.935	767.973
976.444	622.691
978.952	526.586
981.46	611.719
983.967	973.387
986.473	1112.84
988.978	895.152
991.482	973.453
993.986	1307.94
996.488	1324.9
998.99	1448.51
1001.49	1634.73
1003.99	2360.98
1006.49	3198.43
1008.99	3901.93
1011.49	4473.56
1013.99	4387.12
1016.48	3930.62
1018.98	2814.73
1021.47	2158.95
1023.97	1892.98
1026.46	1617.38
1028.95	1561.71
1031.44	1296.24
1033.93	1511
1036.42	1755.83
1038.91	2010.75
1041.4	2825.81
1043.89	3260.91
1046.38	3826.05
1048.86	3591.22
1051.35	3246.41
1053.84	3251.34
1056.32	3666.57
1058.8	4351.82
1061.28	4447.1
1063.77	3162.42
1066.25	2407.8
1068.73	1733.24
1071.2	1208.99
1073.68	885.309
1076.16	701.754
1078.64	618.242
1081.11	955.008
1083.59	652.156
1086.06	499.863
1088.54	357.949
1091.01	686.348
1093.48	385.07
1095.95	264.129
1098.42	433.547
1100.89	553.367
1103.36	873.633
1105.83	804.426
1108.3	865.809
1110.77	1177.88
1113.23	1050.69
1115.7	434.332
1118.16	488.906
1120.63	684.496
1123.09	1371.21
1125.55	529.219
1128.01	158.734
1130.47	220.027
1132.93	203.418
1135.39	49.312
1137.85	8.246
1140.31	410.977
1142.77	270.367
1145.22	254.117
1147.68	219.051
1150.13	295.492
