Measurement: Raman, 514 nm, ccw, Raman Data Processed
Mineral: Monticellite
Rruff sample: R040115
Ideal chemistry: CaMgSiO_4_
Locality: Magnet Cove, Arkansas, USA
Source: University of Arizona Mineral Museum
Description: Brown blebs in matrix
Measured chemistry: Ca_0.99_(Mg_0.85_ Fe_0.12_Mn_0.03_)Si_1.00_O_4_
Pin_id: M00451
Orientation: Laser parallel to c* (0 0 1). Fiducial mark perpendicular to laser is parallel to -a [-1 0 0]
Raman shift (cm-1)	intensity
105.212	0
109.387	58.19
113.559	70.665
117.729	124.42
121.897	152.818
126.063	199.477
130.228	327.158
134.39	448.027
138.55	1134.99
142.709	1705.26
146.865	1779.37
151.019	802.124
155.171	456.595
159.322	538.175
163.47	838.993
167.617	1204.55
171.761	1435.53
175.904	782.83
180.044	180.384
184.183	42.983
188.319	44.595
192.454	26.135
196.586	50.78
200.717	108.729
204.846	46.008
208.972	37.227
213.097	86.974
217.22	90.525
221.341	8.801
225.46	51.126
229.577	69.462
233.692	53.589
237.805	67.139
241.916	78.539
246.025	132.729
250.132	324.214
254.237	591.776
258.34	807.632
262.442	490.38
266.541	390.013
270.639	374.518
274.734	454.872
278.828	351.083
282.919	154.458
287.009	17.965
291.097	101.18
295.183	38.126
299.266	165.129
303.348	252.112
307.428	188.56
311.507	112.535
315.583	69.999
319.657	2.435
323.729	60.795
327.8	79.485
331.868	86.173
335.935	98.687
339.999	50.551
344.062	69.826
348.123	14.802
352.182	14.526
356.239	30.632
360.294	41.729
364.347	152.034
368.398	44.135
372.448	120.11
376.495	144.946
380.54	284.694
384.584	384.251
388.626	637.819
392.666	1199.23
396.704	1897.49
400.74	2568.55
404.774	2487.13
408.806	1705.94
412.836	995.714
416.865	566.236
420.891	290.706
424.916	117.085
428.939	160.287
432.959	46.571
436.978	57.279
440.996	28.384
445.011	40.522
449.024	10.788
453.036	4.86
457.045	0.759
461.053	3.974
465.059	3.417
469.063	83.917
473.065	146.24
477.065	24.847
481.063	12.571
485.06	78.223
489.054	36.204
493.047	75.013
497.038	46.375
501.027	128.38
505.014	120.429
508.999	13.111
512.982	57.743
516.964	151.95
520.944	211.518
524.921	454.186
528.897	1104.87
532.871	1705.83
536.844	1151.67
540.814	495.363
544.783	387.859
548.749	229.152
552.714	142.655
556.677	176.444
560.638	225.023
564.597	233.494
568.555	195.662
572.511	174.619
576.464	186.116
580.416	151.401
584.366	164.736
588.315	82.866
592.261	216.858
596.206	27.246
600.148	91.91
604.089	52.568
608.028	212.529
611.965	140.965
615.901	26.638
619.834	103.142
623.766	67.776
627.696	138.639
631.624	26.477
635.551	4.66
639.475	180.866
643.398	137.429
647.318	50.971
651.237	6.024
655.155	66.372
659.07	67.151
662.984	36.087
666.895	88.196
670.805	44.38
674.713	34.001
678.62	13.938
682.524	79.319
686.427	149.494
690.328	74.427
694.227	81.427
698.124	20.997
702.02	16.399
705.913	40.304
709.805	140.783
713.695	92.684
717.584	134.719
721.47	194.684
725.355	126.546
729.238	265.247
733.119	217.934
736.998	89.439
740.876	251.929
744.752	126.056
748.626	163.55
752.498	184.955
756.368	341.914
760.237	398.537
764.104	272.453
767.969	367.607
771.832	423.979
775.693	611.061
779.553	580.183
783.411	796.717
787.267	969.494
791.122	1174.34
794.974	1517.4
798.825	2158.69
802.674	3696.3
806.522	6369.39
810.367	12994.3
814.211	28565.3
818.053	42326.5
821.893	29968.8
825.732	14669.1
829.568	7420.69
833.403	4379.72
837.236	2972.18
841.068	2706.36
844.898	4007.72
848.726	7028.28
852.552	6629.19
856.376	3320.88
860.199	1844.28
864.02	1318.28
867.839	899.394
871.656	691.643
875.472	570.965
879.286	475.495
883.098	507.14
886.909	420.41
890.717	664.283
894.524	868.275
898.33	1539.39
902.133	1079.63
905.935	611.007
909.735	377.525
913.533	160.176
917.33	340.962
921.124	247.877
924.918	191.923
928.709	271.13
932.499	260.54
936.286	257.13
940.073	695.876
943.857	1626.82
947.64	2658.37
951.421	1414.83
955.2	523.278
958.978	288.884
962.753	60.878
966.527	94.76
970.3	138.797
974.071	124.872
977.84	113.078
981.607	187.468
985.372	275.91
989.136	7.527
992.898	21.302
996.659	60.647
1000.42	167.086
1004.17	125.2
1007.93	434.713
1011.68	424.489
1015.43	301.62
1019.18	284.038
1022.93	332.765
1026.68	279.331
1030.42	173.23
1034.17	110.964
1037.91	310.733
1041.65	244.112
1045.39	363.811
1049.12	255.012
1052.86	163.253
1056.59	220.527
1060.33	176.833
1064.06	132.168
1067.78	78.528
1071.51	8.912
1075.23	4.331
1078.96	157.215
1082.68	76.826
1086.4	151.362
1090.12	30.186
1093.83	29.782
1097.55	173.326
1101.26	113.285
1104.97	114.679
1108.68	30.466
1112.39	166.664
1116.1	153.706
1119.8	88.973
1123.5	70.009
1127.2	172.056
1130.9	85.203
1134.6	62.942
1138.3	127.345
1141.99	76.443
1145.69	91.037
1149.38	65.026
1153.07	8.518
1156.76	23.668
1160.44	85.259
1164.13	98.344
1167.81	203.922
1171.49	70.312
1175.17	13.576
1178.85	163.875
1182.52	75.209
1186.2	221.4
1189.87	255.924
1193.54	297.545
1197.21	303.375
1200.88	190.127
1204.55	234.799
1208.21	229.395
1211.88	141.912
1215.54	331.354
1219.2	98.77
1222.86	22.105
1226.51	224.32
1230.17	48.389
1233.82	91.395
1237.47	184.291
1241.12	67.061
1244.77	136.326
1248.42	43.729
1252.06	157.221
1255.71	201.465
1259.35	221.24
1262.99	123.768
1266.63	239.779
1270.26	7.777
1273.9	97.678
1277.53	44.531
1281.16	182.266
1284.8	70.912
1288.42	119.568
1292.05	83.957
1295.68	143.15
1299.3	133.434
1302.92	87.662
1306.55	65.273
1310.16	92.369
1313.78	230.82
1317.4	360.258
1321.01	61.57
1324.62	37.168
1328.24	190.641
1331.85	4.875
1335.45	118.559
1339.06	212.607
1342.66	231.779
1346.27	192.969
1349.87	362.186
1353.47	380.449
1357.07	479.777
1360.66	508.127
1364.26	153.508
1367.85	283.398
1371.44	358.824
1375.04	321.992
1378.62	288.896
1382.21	323.34
1385.8	403.428
1389.38	306.367
1392.96	255.471
1396.54	345.99
1400.12	345.07
1403.7	485.344
1407.28	222.135
1410.85	472.633
1414.42	449.701
1417.99	304.957
1421.56	461.184
1425.13	366.469
1428.7	505.182
1432.26	400.59
1435.83	394.818
1439.39	718.033
1442.95	544.219
1446.51	593.145
1450.06	533.139
1453.62	733.068
1457.17	653.113
1460.73	517.205
1464.28	358.398
1467.83	409.021
1471.37	242.756
1474.92	268.443
1478.46	399.887
1482.01	338.396
1485.55	490.424
1489.09	321.17
1492.63	359.855
1496.16	354.779
1499.7	148.291
1503.23	209.961
1506.76	295.037
1510.29	175.355
1513.82	289.775
1517.35	9.244
1520.88	180.195
1524.4	0
