Measurement: Raman, 514 nm, ccw, Raman Data Processed
Mineral: Montebrasite
Rruff sample: R040060
Ideal chemistry: LiAlPO_4_(OH)
Locality: Oxford County, Maine, USA
Source: University of Arizona Mineral Museum
Description: White massive
Measured chemistry: LiAl(PO_4_)((OH)_0.79_F_0.21_)
Pin_id: L00171
Orientation: Laser parallel to (-1 -1 0). Fiducial mark perpendicular to laser is parallel to c [0 0 1]
Raman shift (cm-1)	intensity
122.543	0
126.72	270.277
130.896	1335.93
135.069	2649.93
139.24	2107.18
143.41	810.483
147.577	242.344
151.742	37.489
155.905	250.903
160.066	495.625
164.225	835.749
168.381	997.078
172.536	1000.85
176.689	672.892
180.839	594.748
184.988	867.155
189.134	1395.04
193.279	1656.78
197.421	1687.39
201.561	1088.18
205.7	449.06
209.836	100.083
213.97	8.453
218.102	133.485
222.232	125.841
226.36	168.539
230.486	201.501
234.61	244.955
238.732	15.969
242.852	110.298
246.969	35.638
251.085	50.089
255.199	136.404
259.31	42.6
263.42	71.246
267.528	574.942
271.633	1227.8
275.737	2059.65
279.838	1831.39
283.938	1313.08
288.035	1914.43
292.131	4497.74
296.224	9933.14
300.315	11129.7
304.405	6966.42
308.492	4353.18
312.578	3459.97
316.661	2776.72
320.742	2583.34
324.821	1959.67
328.899	1275.71
332.974	551.473
337.047	336.982
341.119	192.303
345.188	247.441
349.255	87.799
353.32	24.326
357.384	18.863
361.445	32.447
365.504	107.396
369.561	129.027
373.617	116.16
377.67	142.299
381.721	248.178
385.77	267.912
389.818	341.273
393.863	263.457
397.906	557.512
401.948	524.092
405.987	548.961
410.025	661.721
414.06	1059.31
418.093	1618.32
422.125	5017.6
426.154	11497.8
430.182	7778.63
434.207	2859.38
438.231	1060.07
442.252	650.67
446.272	501.162
450.29	321.51
454.305	181.701
458.319	261.688
462.331	361.445
466.341	490.953
470.348	660.199
474.354	1299.18
478.358	2137.9
482.36	2676.34
486.36	2514.5
490.358	2422.38
494.354	2119.98
498.349	1777.3
502.341	1244.34
506.331	560.885
510.319	489.176
514.306	120.975
518.29	94.6
522.273	154.908
526.253	18.74
530.232	125.395
534.208	149.744
538.183	88.025
542.156	59.51
546.127	74.912
550.096	320.221
554.063	53.07
558.028	13.635
561.991	153.908
565.952	141.324
569.911	196.814
573.869	221.398
577.824	276.791
581.778	291.354
585.729	385.189
589.679	682.281
593.627	1190.24
597.573	2278.48
601.517	3310.23
605.459	2431.31
609.399	1440.88
613.337	979.594
617.273	1287.21
621.208	1774.83
625.14	2851.57
629.071	4097.77
632.999	3803.57
636.926	4258.96
640.851	8393.95
644.774	16418.5
648.695	13532.7
652.614	5946.47
656.531	2829.83
660.447	1422.79
664.36	935.34
668.272	607.527
672.182	428.816
676.089	399.324
679.995	349.445
683.899	246.43
687.802	399.471
691.702	13.039
695.6	51.178
699.497	231.609
703.391	44.58
707.284	134.854
711.175	193.562
715.064	113.41
718.951	7.459
722.837	28.365
726.72	39.549
730.601	285.477
734.481	37.572
738.359	63.334
742.235	20.539
746.109	48.162
749.981	43.947
753.851	157.211
757.72	49.895
761.587	180.086
765.451	269.914
769.314	229.723
773.175	78.863
777.034	397.674
780.892	386.17
784.747	504.365
788.601	902.271
792.453	1349.89
796.303	1897.24
800.151	2214.32
803.997	2081.15
807.841	1837.72
811.684	1484.04
815.525	1080.13
819.363	1055.98
823.201	551.623
827.036	367.053
830.869	402.285
834.701	156.803
838.53	120.51
842.358	63.508
846.184	174.074
850.008	70.896
853.831	93.363
857.651	3.41
861.47	64.188
865.287	80.754
869.102	61.008
872.915	105.406
876.727	49.609
880.536	22.703
884.344	105.652
888.15	33.922
891.954	53.629
895.757	96.016
899.557	160.398
903.356	200.48
907.153	66.016
910.948	205.316
914.741	207.188
918.533	299.395
922.323	111.656
926.111	144.332
929.897	67.477
933.681	50.938
937.463	284.812
941.244	218.836
945.023	73.016
948.8	377.359
952.575	1.887
956.349	306.594
960.121	481.48
963.891	1286.56
967.659	951.844
971.425	787.344
975.19	833.074
978.952	1039.02
982.713	1455.21
986.473	1951.6
990.23	2458.37
993.986	3144.39
997.739	4462.19
1001.49	7109.66
1005.24	11550.2
1008.99	17306.9
1012.74	19470.7
1016.48	14827.1
1020.23	9364.03
1023.97	6255.34
1027.71	4775.48
1031.44	4705.43
1035.18	6091.98
1038.91	8604.76
1042.65	12828.9
1046.38	15183.9
1050.11	13429.2
1053.84	13174.5
1057.56	16338.5
1061.28	17013
1065.01	10909.9
1068.73	5687.06
1072.44	3424.18
1076.16	2021.93
1079.88	1539.97
1083.59	1288.25
1087.3	1056.74
1091.01	1095.52
1094.72	1184.41
1098.42	1214.19
1102.13	1204.5
1105.83	2254.5
1109.53	2934.58
1113.23	2675.02
1116.93	1876
1120.63	1498.64
1124.32	1449.27
1128.01	531.16
1131.7	305.133
1135.39	421.004
1139.08	319.242
1142.77	318.203
1146.45	96.324
1150.13	6.594
1153.81	150.883
1157.49	5.297
1161.17	132.465
1164.84	397.945
1168.51	456.305
1172.18	465.738
1175.86	578.16
1179.52	671.406
1183.19	1109.13
1186.86	1552.02
1190.52	1979.86
1194.18	2020.17
1197.84	1702.81
1201.5	1416.19
1205.15	842.562
1208.81	654.562
1212.46	625.109
1216.11	277.348
1219.76	501.348
1223.41	654.918
1227.05	494.453
1230.7	623.09
1234.34	791.715
1237.98	378.633
1241.62	173.898
1245.26	99.133
1248.89	222.977
1252.53	487.152
1256.16	422.785
1259.79	575.91
1263.42	761.293
1267.05	413.418
1270.67	356.336
1274.3	116.59
1277.92	216.52
1281.54	154.238
1285.16	159.602
1288.77	364.176
1292.39	217.422
1296	69.586
1299.61	141.367
1303.22	21.602
1306.83	259.137
1310.44	171.012
1314.05	276.578
1317.65	292.66
1321.25	107.605
1324.85	511.355
1328.45	363.844
1332.05	275.066
1335.64	34.793
1339.24	224.34
1342.83	72.633
1346.42	210.086
1350.01	316.699
1353.59	812.492
1357.18	447.691
1360.76	562.102
1364.34	457.156
1367.92	220.867
1371.5	186.559
1375.08	178.688
1378.65	150.754
1382.23	412.273
1385.8	601.375
1389.37	940.273
1392.94	787.434
1396.51	1172.09
1400.07	753.121
1403.64	563.398
1407.2	568.895
1410.76	143.668
1414.32	397.609
1417.87	534.789
1421.43	706.848
1424.98	690.602
1428.54	568.188
1432.09	892.078
1435.63	886.219
1439.18	877.551
1442.73	767.242
1446.27	756.438
1449.82	600.32
1453.36	217.992
1456.89	765.633
1460.43	944.277
1463.97	977.234
1467.5	1028.83
1471.04	1082.67
1474.57	934.238
1478.1	720.09
1481.62	954.477
1485.15	641.277
1488.67	575.953
1492.2	532.891
1495.72	193.637
1499.24	428.484
1502.76	466.516
1506.27	929.582
1509.79	938.742
1513.3	815.262
1516.81	674.062
1520.32	0
