Measurement: Raman, 514 nm, ccw, Raman Data Processed
Mineral: Montebrasite
Rruff sample: R040060
Ideal chemistry: LiAlPO_4_(OH)
Locality: Oxford County, Maine, USA
Source: University of Arizona Mineral Museum
Description: White massive
Measured chemistry: LiAl(PO_4_)((OH)_0.79_F_0.21_)
Pin_id: L00548
Orientation: Laser parallel to b* (0 1 0). Fiducial mark perpendicular to laser is parallel to -c [0 0 -1]
Raman shift (cm-1)	intensity
125.328	0
129.504	170.855
133.678	856.348
137.85	1098.12
142.02	658.792
146.188	150.449
150.354	65.308
154.517	91.751
158.679	174.558
162.839	286.942
166.996	465.71
171.152	589.468
175.305	426.716
179.456	293.667
183.605	289.484
187.752	380.977
191.898	467.888
196.041	645.434
200.182	398.058
204.321	220.221
208.457	151.948
212.592	83.445
216.725	44.903
220.856	116.294
224.984	87.543
229.111	108.665
233.236	161.092
237.358	50.784
241.479	81.766
245.597	20.539
249.713	8.577
253.828	23.006
257.94	35.415
262.05	54.884
266.159	174.069
270.265	503.159
274.369	1161.68
278.471	1189.78
282.572	677.566
286.67	825.077
290.766	1553.82
294.86	3633.36
298.952	4665.09
303.042	3056.19
307.13	1846.96
311.216	1367.63
315.3	987.694
319.382	876.899
323.462	756.693
327.54	556.276
331.616	275.643
335.69	194.741
339.762	93.602
343.832	162.245
347.9	80.667
351.965	30.544
356.029	50.404
360.091	17.199
364.151	13.855
368.209	35.355
372.265	102.35
376.319	60.866
380.371	85.91
384.421	107.442
388.469	214.996
392.515	242.558
396.559	250.541
400.601	237.574
404.641	254.514
408.679	424.672
412.715	438.564
416.749	480.33
420.781	1020.49
424.811	3141.79
428.839	3493.95
432.866	1496.1
436.89	457.987
440.912	319.624
444.932	270.999
448.951	212.109
452.967	252.943
456.981	123.484
460.994	223.686
465.004	203.552
469.013	173.058
473.019	542.199
477.024	990.976
481.026	1189.38
485.027	1317.42
489.026	1065.08
493.023	1072.35
497.017	849
501.01	604.767
505.001	410.741
508.99	252.482
512.977	121.462
516.962	1.846
520.945	169.809
524.927	7.773
528.906	7.016
532.883	152.137
536.858	71.252
540.832	102.635
544.803	155.551
548.773	20.65
552.741	94.371
556.706	197.586
560.67	80.322
564.632	132.18
568.592	136.516
572.55	3.627
576.506	84.285
580.46	376.752
584.412	365.775
588.363	498.076
592.311	736.766
596.258	974.691
600.202	1502.19
604.145	1299.02
608.086	725.586
612.024	591.496
615.961	455.842
619.896	541.057
623.829	1133.38
627.761	1585.39
631.69	1256.98
635.617	1157.65
639.543	1967.82
643.466	4157.51
647.388	4616.69
651.308	2265.36
655.226	1083.51
659.142	391.15
663.056	448.301
666.968	284.92
670.879	260.074
674.787	93.498
678.694	66.998
682.598	118.215
686.501	60.193
690.402	96.443
694.301	155.098
698.198	35.434
702.093	7.67
705.987	154.592
709.878	85.439
713.768	179.209
717.656	174.672
721.542	17.4
725.426	108.84
729.308	188.803
733.188	76.256
737.067	144.105
740.943	71.152
744.818	231.648
748.691	199.062
752.562	73.709
756.431	118.697
760.298	112.176
764.163	107.908
768.027	152.533
771.888	304.807
775.748	345.252
779.606	276.451
783.462	236.393
787.317	445.385
791.169	663.926
795.019	985.623
798.868	1312.79
802.715	1199.75
806.56	825.963
810.403	561.705
814.245	546.975
818.084	391.307
821.922	293.801
825.758	116.227
829.592	346.5
833.424	156.756
837.254	96.83
841.082	150.951
844.909	99.512
848.734	135.695
852.557	300.645
856.378	96.344
860.197	133.08
864.015	158.566
867.831	95.371
871.645	109.695
875.457	52.104
879.267	46.164
883.075	164.555
886.882	177.73
890.687	29.061
894.49	47.65
898.291	12.545
902.09	254.666
905.888	66.316
909.683	128.352
913.477	50.053
917.269	70.457
921.06	100.852
924.848	182.477
928.635	281.381
932.42	182.289
936.203	113.113
939.984	134.92
943.764	246.467
947.541	207.73
951.317	438.744
955.091	319.527
958.864	650.094
962.634	2020.46
966.403	3470.65
970.17	1210.66
973.935	660.16
977.698	798.918
981.46	627.701
985.22	603.646
988.978	810.188
992.734	1352.49
996.488	1541.79
1000.24	2058.04
1003.99	3344.73
1007.74	5512.91
1011.49	7258.72
1015.23	6086.07
1018.98	3714.59
1022.72	2411.88
1026.46	1857.98
1030.2	1784.41
1033.93	2339.56
1037.67	2931.69
1041.4	4826.37
1045.13	6482.03
1048.86	5715.06
1052.59	5179.17
1056.32	6515.52
1060.04	7072.47
1063.77	4735.41
1067.49	2702.91
1071.2	1590.57
1074.92	1168.04
1078.64	735.367
1082.35	752.633
1086.06	689.82
1089.78	497.039
1093.48	524.531
1097.19	542.086
1100.89	659.996
1104.6	1098.32
1108.3	1767.29
1112	1506.89
1115.7	827.129
1119.39	807.898
1123.09	689.438
1126.78	521.512
1130.47	354.285
1134.16	117.941
1137.85	77.312
1141.54	288.75
1145.22	456.32
1148.9	485.625
1152.58	167.004
1156.26	341.008
1159.94	155.254
1163.62	21.148
1167.29	192.422
1170.96	327.098
1174.63	422.648
