Measurement: Raman, 514 nm, ccw, Raman Data Processed
Mineral: Montebrasite
Rruff sample: R040062
Ideal chemistry: LiAlPO_4_(OH)
Locality: Hebron, Maine, USA
Source: University of Arizona Mineral Museum
Description: White massive
Measured chemistry: LiAl(PO_4_)((OH)_0.62_F_0.38_)
Pin_id: L00408
Orientation: Laser parallel to c* (0 0 1). Fiducial mark perpendicular to laser is parallel to a [1 0 0]
Raman shift (cm-1)	intensity
111.932	0
116.123	0.921
120.311	191.611
124.497	604.077
128.681	1867.93
132.862	3279.72
137.042	2347.81
141.219	953.326
145.394	475.539
149.567	537.123
153.738	689.29
157.907	1011.87
162.073	1542.53
166.237	1818.3
170.4	1658.39
174.559	1254.96
178.717	1135.82
182.873	1430.65
187.026	1605.87
191.178	1866.26
195.327	1859.05
199.474	1447.5
203.618	887.041
207.761	467.904
211.902	224.827
216.04	3.369
220.176	11.807
224.31	11.222
228.442	30.289
232.572	58.925
236.7	50.686
240.825	107.5
244.948	102.992
249.07	43.205
253.189	21.166
257.306	1.184
261.42	19.192
265.533	101.711
269.643	398.009
273.752	587.428
277.858	803.081
281.962	964.038
286.064	1778.93
290.164	3445.19
294.262	8631.56
298.358	18087
302.451	18221.7
306.543	11585.7
310.632	8959.16
314.719	6451.81
318.804	4243.72
322.887	3225.01
326.968	2345.77
331.047	1835.94
335.124	1395.17
339.198	1153.31
343.271	959.838
347.341	895.062
351.409	749.801
355.475	776.297
359.539	722.061
363.601	728.242
367.661	825.684
371.719	873.959
375.775	990.711
379.828	948.159
383.88	920.937
387.929	894.181
391.977	827.07
396.022	744.739
400.065	718.009
404.106	561.043
408.146	546.9
412.182	451.861
416.217	662.028
420.25	1702.98
424.281	5003.59
428.31	5354.73
432.336	1818.49
436.361	692.179
440.383	435.82
444.404	249.323
448.422	132.62
452.438	115.667
456.453	149.595
460.465	211.228
464.475	303.658
468.483	385.819
472.489	697.715
476.493	1049.35
480.495	1350.72
484.495	1371.85
488.493	1102.72
492.489	843.351
496.482	563.74
500.474	513.899
504.464	363.843
508.451	263.587
512.437	153.134
516.421	132.456
520.402	31.535
524.382	50.362
528.359	80.8
532.335	77.769
536.308	143.142
540.279	65.33
544.249	9.873
548.216	54
552.181	143.673
556.145	192.508
560.106	270.399
564.065	170.366
568.023	244.853
571.978	162.162
575.931	392.554
579.882	449.157
583.831	727.994
587.779	891.077
591.724	1557.58
595.667	3248.14
599.608	7006.32
603.547	7533.24
607.485	3950.59
611.42	2103.4
615.353	1420.66
619.284	1448.16
623.213	1811.44
627.141	2614.33
631.066	3526.81
634.989	3738.98
638.91	5940.82
642.829	13232.4
646.747	17043.6
650.662	8774.45
654.575	3695.03
658.486	1935.29
662.396	1145.24
666.303	974.878
670.209	663.684
674.112	400.44
678.013	387.103
681.913	344.814
685.81	214.24
689.706	154.908
693.599	172.173
697.491	101.474
701.38	225.465
705.268	135.076
709.154	68.525
713.037	221.388
716.919	155.462
720.799	21.281
724.677	21.865
728.553	165.041
732.427	177.812
736.299	50.146
740.169	58.115
744.037	72.919
747.903	103.544
751.767	153.846
755.629	83.773
759.49	13.352
763.348	72.593
767.204	85.961
771.059	244.389
774.911	182.626
778.762	90.906
782.611	178.609
786.457	416.012
790.302	573.216
794.145	870.23
797.986	1237.06
801.825	1273.72
805.662	1190.21
809.497	1046.54
813.33	822.719
817.162	768.756
820.991	434.656
824.818	400.434
828.644	256.117
832.468	201.715
836.289	227.223
840.109	27.826
843.927	16.934
847.743	48.818
851.557	5.059
855.369	123.404
859.179	30.939
862.988	145.49
866.794	116.424
870.599	199.938
874.401	436.77
878.202	276.592
882.001	213.387
885.798	304.783
889.593	288.691
893.386	385.557
897.177	640.326
900.966	625.209
904.754	685.854
908.539	98.17
912.323	80.182
916.105	64.314
919.885	110.592
923.663	12.514
927.439	25.389
931.213	9.133
934.985	227.668
938.756	54.684
942.525	221.945
946.291	139.488
950.056	407.268
953.819	375.287
957.58	273.561
961.339	442.102
965.097	610.918
968.852	830.012
972.606	809.443
976.358	1099.18
980.108	1469.21
983.856	1809.54
987.602	2939.03
991.346	4498.4
995.089	6780.55
998.829	10408.1
1002.57	17036.4
1006.3	24648.4
1010.04	29966.7
1013.77	27219.5
1017.5	18803.5
1021.23	11957.1
1024.96	8182.21
1028.69	6256.67
1032.41	5601.59
1036.13	6417.03
1039.85	7313.04
1043.57	9249.62
1047.29	11146.8
1051	14814.3
1054.72	22602.4
1058.43	33240.8
1062.14	31589.8
1065.84	17809.1
1069.55	8914.38
1073.25	4914.61
1076.95	2824.87
1080.66	1885.81
1084.35	1358.4
1088.05	1380.71
1091.74	1000.11
1095.44	1053.31
1099.13	1267.07
1102.82	1741.44
1106.51	2546.46
1110.19	2772.09
1113.87	2627.74
1117.56	2487.5
1121.24	2120.7
1124.91	1491.8
1128.59	958.672
1132.27	582.463
1135.94	415.119
1139.61	378.477
1143.28	372.668
1146.95	567.607
1150.61	163.211
1154.28	70.533
1157.94	36.404
1161.6	45.986
1165.26	222.291
1168.91	401.229
1172.57	590.859
1176.22	611.307
1179.87	772.465
1183.52	1064.2
1187.17	1326.35
1190.81	1445.3
1194.46	1122.43
1198.1	1026.23
1201.74	1130.46
1205.38	915.418
1209.02	509.244
1212.65	155.211
1216.29	269.357
1219.92	165.908
1223.55	282.611
1227.17	93.443
1230.8	205.514
1234.42	188.938
1238.05	33.879
1241.67	210.568
1245.29	260.34
1248.91	154.047
1252.52	275.822
1256.13	463.883
1259.75	488.051
1263.36	461.27
1266.97	411.531
1270.57	375.961
1274.18	0
