Measurement: Raman, 514 nm, ccw, Raman Data Processed
Mineral: Muscovite
Rruff sample: R050188
Ideal chemistry: KAl_2_(Si_3_Al)O_10_(OH)_2_
Locality: Sapinero, near Blue Mesa Reservoir, Gunnison County, Colorado, USA
Source: Dave Bunk Minerals
Description: Black pseudohexagonal crystal, polytype 2M1, associated with quartz
Measured chemistry: (K_0.91_Na_0.09_)(Al_0.86_Fe^3+^_0.06_Fe^2+^_0.04_Mg_0.03_Ti_0.01_)_2_(Si_0.78_Al_0.22_)_4_O_10_(OH)_2_
Pin_id: L00384
Orientation: Laser parallel to b* (0 1 0). Fiducial mark perpendicular to laser is parallel to c [0 0 1]
Raman shift (cm-1)	intensity
119.119	0
123.286	74.012
127.452	74.353
131.615	100.529
135.777	62.866
139.937	0.812
144.094	16.811
148.25	248.396
152.403	346.605
156.555	535.159
160.705	743.167
164.853	1303.92
168.998	2128.76
173.142	3839.75
177.284	6914.14
181.424	11966.7
185.562	18030.3
189.698	22146.9
193.831	22383.2
197.963	17830.4
202.093	12662.1
206.221	9851.15
210.347	8726.04
214.472	7980.94
218.594	6690.15
222.714	5125.13
226.832	4396.33
230.948	4175.12
235.063	4828.35
239.175	6393.68
243.286	9239.26
247.394	14760
251.501	24764.1
255.605	40849.3
259.708	51902.6
263.808	42569.2
267.907	25969
272.004	14931.9
276.099	8590.92
280.192	5276.11
284.283	3579.51
288.372	2422.85
292.459	1750.26
296.544	1207.22
300.627	939.87
304.709	650.046
308.788	567.961
312.865	349.502
316.941	178.58
321.015	4.875
325.086	91.924
329.156	183.633
333.224	41.873
337.29	44.464
341.354	14.687
345.416	174.758
349.476	401.806
353.534	720.364
357.591	901.271
361.645	1096.83
365.698	1302.49
369.748	1422.27
373.797	1466.15
377.844	1520.15
381.889	1728.27
385.932	2296.46
389.973	2325.35
394.012	2850.18
398.049	3643.07
402.084	4516.63
406.118	5434.74
410.15	5682.72
414.179	5326.82
418.207	4684
422.233	3914.2
426.257	3193.43
430.279	2671.83
434.299	2035.99
438.318	1405.32
442.334	1052.69
446.349	764.079
450.361	509.552
454.372	402.134
458.381	314.842
462.388	256.674
466.394	235.618
470.397	210.628
474.398	249.695
478.398	222.811
482.396	167.875
486.391	132.751
490.385	35.106
494.377	58.46
498.368	187.235
502.356	112.764
506.342	84.309
510.327	75.374
514.31	14.266
518.291	117.887
522.27	247.521
526.247	307.208
530.222	396.968
534.196	420.821
538.167	346.88
542.137	223.109
546.105	93.43
550.071	39.857
554.035	35.382
557.998	6.947
561.958	19.521
565.917	99.155
569.874	141.83
573.829	23.491
577.782	186.154
581.733	294.831
585.683	404.515
589.63	540.208
593.576	677.907
597.52	878.621
601.462	1138.34
605.402	1167.07
609.341	1438.79
613.277	1629.52
617.212	1970.24
621.145	2288.74
625.076	2630.67
629.006	2941.38
632.933	3157.08
636.859	3190.77
640.783	3132.45
644.705	3081.14
648.625	3054.88
652.543	2855.41
656.46	2938.11
660.375	2946.36
664.288	2900.12
668.199	3111.9
672.108	3584.09
676.016	4297.23
679.921	5340.6
683.825	7119.29
687.727	9411.73
691.628	13096.5
695.526	18316.3
699.423	22239.3
703.318	20681.5
707.211	15154.1
711.102	9744.97
714.992	6313.35
718.879	4560.52
722.765	3722.88
726.649	3334.45
730.532	3460.85
734.412	3683.36
738.291	4433.15
742.168	5167.58
746.043	5911.29
749.916	5861.72
753.788	5270.16
757.658	4473.59
761.526	3529.01
765.392	2625.44
769.257	1887.86
773.119	1473.28
776.98	1196.7
780.839	991.122
784.697	911.539
788.552	842.955
792.406	912.369
796.258	818.781
800.108	663.191
803.957	519.602
807.804	450.124
811.649	258.891
815.492	276.998
819.333	132.41
823.173	119.052
827.011	146.772
830.847	176.488
834.681	22.167
838.514	23.252
842.345	16.831
846.174	11.678
850.001	76.896
853.827	13.439
857.651	37.118
861.473	16.087
865.293	22.155
869.112	3.297
872.928	7.492
876.744	11.318
880.557	41.811
884.369	31.58
888.178	0.35
891.987	80.145
895.793	1.956
899.598	120.735
903.401	9.503
907.202	120.206
911.001	87.897
914.799	71.577
918.595	83.275
922.389	158.017
926.182	192.777
929.972	175.524
933.761	179.253
937.549	181.961
941.334	213.65
945.118	227.335
948.9	270.002
952.681	383.644
956.459	362.259
960.236	320.849
964.012	298.406
967.785	409.926
971.557	545.405
975.327	483.84
979.095	545.229
982.862	641.513
986.627	781.693
990.39	917.905
994.152	1029.37
997.912	1089.45
1001.67	1335.06
1005.43	1380.57
1009.18	1462.65
1012.93	1628.89
1016.68	1784.2
1020.43	1974.93
1024.18	2285.52
1027.93	2416.01
1031.67	2529.47
1035.42	2692.93
1039.16	3212.5
1042.9	4032.07
1046.63	5103.14
1050.37	6332.47
1054.11	7239.53
1057.84	8039.6
1061.57	8053.76
1065.3	7990.67
1069.03	7549.36
1072.75	7039.34
1076.47	6286.23
1080.2	5721.56
1083.92	5108.79
1087.64	4479.69
1091.36	3808.25
1095.07	3099.78
1098.79	2515.03
1102.5	1968.31
1106.21	1640.12
1109.92	1319.27
1113.62	1025.81
1117.33	841.281
1121.04	708.473
1124.74	654.914
1128.44	488.332
1132.14	421.815
1135.83	240.261
1139.53	188.067
1143.22	136.025
1146.92	126.961
1150.61	147.086
1154.3	76.368
1157.98	84.462
1161.67	62.784
1165.35	68.872
1169.04	82.868
1172.72	28.042
1176.4	43.937
1180.07	47.584
1183.75	89.987
1187.42	12.066
1191.1	0.252
1194.77	14.341
1198.44	28.394
1202.1	36.476
1205.77	12.362
1209.43	9.83
1213.1	31.86
1216.76	26.596
1220.42	59.746
1224.07	5.011
1227.73	44.144
1231.38	22.23
1235.04	31.25
1238.69	74.169
1242.34	4.016
1245.99	68.719
1249.63	5.385
1253.28	16.979
1256.92	86.493
1260.56	63.908
1264.2	99.235
1267.84	71.489
1271.48	39.667
1275.11	9.756
1278.74	1.767
1282.38	20.67
1286.01	50.479
1289.63	62.182
1293.26	81.819
1296.89	57.389
1300.51	152.857
1304.13	109.971
1307.75	89.262
1311.37	17.475
1314.99	4.285
1318.6	87.697
1322.22	96.513
1325.83	31.812
1329.44	1.618
1333.05	117.192
1336.66	71.231
1340.26	36.791
1343.87	15.19
1347.47	45.766
1351.07	61.135
1354.67	103.64
1358.27	100.17
1361.86	150.724
1365.46	131.341
1369.05	148.666
1372.64	94.643
1376.23	74.203
1379.82	80.807
1383.41	95.477
1386.99	73.326
1390.57	91.706
1394.16	92.261
1397.74	96.854
1401.32	83.027
1404.89	51.731
1408.47	77.688
1412.04	72.405
1415.61	125.987
1419.18	139.138
1422.75	164.805
1426.32	140.199
1429.89	173.125
1433.45	127.016
1437.01	257.69
1440.58	233.544
1444.13	278.563
1447.69	281.739
1451.25	233.876
1454.81	282.042
1458.36	277.273
1461.91	280.514
1465.46	293.944
1469.01	199.537
1472.56	245.269
1476.1	135.306
1479.64	190.855
1483.19	174.675
1486.73	78.795
1490.27	165.281
1493.81	192.241
1497.34	111.801
1500.88	31.111
1504.41	81.298
1507.94	77.614
1511.47	42.464
1515	116.84
1518.53	0.952
1522.05	15.941
