Measurement: Raman, 514 nm, ccw, Raman Data Processed
Mineral: Muscovite
Rruff sample: R050188
Ideal chemistry: KAl_2_(Si_3_Al)O_10_(OH)_2_
Locality: Sapinero, near Blue Mesa Reservoir, Gunnison County, Colorado, USA
Source: Dave Bunk Minerals
Description: Black pseudohexagonal crystal, polytype 2M1, associated with quartz
Measured chemistry: (K_0.91_Na_0.09_)(Al_0.86_Fe^3+^_0.06_Fe^2+^_0.04_Mg_0.03_Ti_0.01_)_2_(Si_0.78_Al_0.22_)_4_O_10_(OH)_2_
Pin_id: L00088
Orientation: Laser parallel to c* (0 0 1). Fiducial mark perpendicular to laser is parallel to -a [-1 0 0]
Raman shift (cm-1)	intensity
96.858	0
101.036	302.937
105.212	26.14
109.387	74.968
113.559	155.193
117.729	808.175
121.897	527.983
126.063	267.693
130.228	186.516
134.39	477.448
138.55	818.438
142.709	1390.49
146.865	1915.65
151.019	2338.35
155.171	2830.21
159.322	3226.21
163.47	3532.27
167.617	3513.16
171.761	2908.81
175.904	2678.94
180.044	2750.25
184.183	3349.77
188.319	4255.16
192.454	4768.77
196.586	4758.78
200.717	4448.26
204.846	3883.23
208.972	3638.68
213.097	3048.62
217.22	2943.36
221.341	2215.18
225.46	1169.79
229.577	431.984
233.692	276.036
237.805	532.958
241.916	1233.23
246.025	2958.38
250.132	6408.27
254.237	12242.8
258.34	18810.1
262.442	21473.6
266.541	16997.7
270.639	10366.6
274.734	6121.33
278.828	3690.08
282.919	2135.88
287.009	1353.53
291.097	879.885
295.183	693.827
299.266	596.257
303.348	782.091
307.428	734.261
311.507	658.712
315.583	565.399
319.657	544.282
323.729	330.441
327.8	125.828
331.868	0.234
335.935	82.157
339.999	208.396
344.062	47.677
348.123	146.051
352.182	466.643
356.239	881.933
360.294	1268.09
364.347	1768.06
368.398	2455.82
372.448	3042.68
376.495	3549.5
380.54	3719.06
384.584	4336.02
388.626	5309.86
392.666	6098.18
396.704	7790.49
400.74	9561.08
404.774	11237.3
408.806	12265.1
412.836	12334.6
416.865	11216.6
420.891	9656.28
424.916	7881.57
428.939	6663.6
432.959	5191.38
436.978	4209.91
440.996	3172.16
445.011	2442.74
449.024	1870.7
453.036	1395.94
457.045	1158.81
461.053	904.302
465.059	846.398
469.063	762.091
473.065	683.279
477.065	609.229
481.063	401.659
485.06	334.649
489.054	310.177
493.047	81.165
497.038	57.883
501.027	15.298
505.014	173.043
508.999	38.93
512.982	64.206
516.964	120.946
520.944	116.051
524.921	14.333
528.897	79.446
532.871	83.472
536.844	46.811
540.814	121.536
544.783	195.712
548.749	315.372
552.714	328.555
556.677	429.285
560.638	688.583
564.597	633.452
568.555	665.897
572.511	829.925
576.464	780.54
580.416	977.745
584.366	1069.55
588.315	1218.95
592.261	1420.96
596.206	1744.58
600.148	1878.81
604.089	2135.66
608.028	2543.13
611.965	2797.23
615.901	3110.96
619.834	3441.33
623.766	3827.35
627.696	3855.03
631.624	4194.36
635.551	4342.37
639.475	4076.95
643.398	4003.89
647.318	3829.57
651.237	3602.19
655.155	3468.22
659.07	3228.33
662.984	3069.48
666.895	2893.75
670.805	2915.25
674.713	3167.24
678.62	3586.69
682.524	4410.09
686.427	6051.66
690.328	8556.44
694.227	11904.2
698.124	16226.1
702.02	17269.9
705.913	14310.1
709.805	9585.01
713.695	6371.82
717.584	4206.6
721.47	3130.37
725.355	2468.14
729.238	2139.9
733.119	2530.69
736.998	2942.5
740.876	3710.34
744.752	4255.23
748.626	4368.18
752.498	4648.19
756.368	3993.27
760.237	3276.43
764.104	2564.11
767.969	1944.05
771.832	1243.52
775.693	814.113
779.553	664.83
783.411	440.679
787.267	473.669
791.122	463.808
794.974	349.103
798.825	336.564
802.674	170.208
806.522	117.072
810.367	25.245
814.211	103.196
818.053	32.194
821.893	7.815
825.732	39.315
829.568	21.865
833.403	20.485
837.236	30.742
841.068	118.719
844.898	48.564
848.726	64.19
852.552	16.881
856.376	77.084
860.199	112.22
864.02	186.738
867.839	331.623
871.656	412.627
875.472	518.408
879.286	542.319
883.098	571.572
886.909	793.198
890.717	908.169
894.524	1265.49
898.33	1618.1
902.133	1984.16
905.935	2301.49
909.735	2610.18
913.533	2470.2
917.33	2155.51
921.124	1868.15
924.918	1525.06
928.709	1099.21
932.499	908.6
936.286	857.208
940.073	747.031
943.857	890.065
947.64	1060.3
951.421	1158.73
955.2	1117.36
958.978	1123.17
962.753	840.165
966.527	628.294
970.3	562.334
974.071	539.211
977.84	473.866
981.607	482.24
985.372	361.744
989.136	451.184
992.898	491.83
996.659	547.917
1000.42	525.946
1004.17	783.182
1007.93	773.811
1011.68	798.543
1015.43	898.554
1019.18	1023.97
1022.93	1049.95
1026.68	1019.41
1030.42	1037.25
1034.17	840.842
1037.91	738.542
1041.65	808.587
1045.39	932.474
1049.12	1005.37
1052.86	1278.23
1056.59	1498.44
1060.33	1823.89
1064.06	2039.03
1067.78	2102.8
1071.51	2151.55
1075.23	2393.79
1078.96	2491.23
1082.68	2458.91
1086.4	2287.82
1090.12	2232.54
1093.83	2078.96
1097.55	1946.98
1101.26	2173.8
1104.97	2187.49
1108.68	2292.04
1112.39	2436.45
1116.1	2296.76
1119.8	2218.01
1123.5	2310.15
1127.2	1562.12
1130.9	1211.92
1134.6	841.596
1138.3	563.197
1141.99	337.71
1145.69	175.13
1149.38	106.44
1153.07	57.586
1156.76	61.555
1160.44	33.18
1164.13	26.68
1167.81	78.875
1171.49	0.038
1175.17	42.463
1178.85	63.434
1182.52	33.908
1186.2	20.885
1189.87	19.282
1193.54	27.288
1197.21	9.708
1200.88	43.269
1204.55	87.885
1208.21	34.219
1211.88	40.933
1215.54	21.751
1219.2	88.092
1222.86	33.619
1226.51	146.835
1230.17	168.784
1233.82	191.464
1237.47	135.971
1241.12	292.126
1244.77	257.324
1248.42	279.959
1252.06	403.008
1255.71	355.283
1259.35	464.108
1262.99	492.657
1266.63	465.923
1270.26	546.902
1273.9	523.596
1277.53	584.009
1281.16	588.146
1284.8	603.145
1288.42	700.619
1292.05	881.968
1295.68	1042.96
1299.3	1384.11
1302.92	1565.89
1306.55	1471.94
1310.16	1269.85
1313.78	1087.27
1317.4	879.834
1321.01	706.101
1324.62	580.19
1328.24	469.556
1331.85	272.636
1335.45	266.511
1339.06	201.802
1342.66	213.548
1346.27	221.061
1349.87	117.237
1353.47	199.665
1357.07	125.689
1360.66	132.167
1364.26	203.575
1367.85	197.388
1371.44	156.15
1375.04	131.534
1378.62	32.439
1382.21	137.675
1385.8	103.136
1389.38	45.228
1392.96	22.854
1396.54	19.943
1400.12	111.833
1403.7	110.18
1407.28	319.784
1410.85	211.568
1414.42	260.792
1417.99	406.254
1421.56	670.159
1425.13	556.89
1428.7	854.249
1432.26	1333.05
1435.83	1950.23
1439.39	2599.02
1442.95	2689.24
1446.51	2444.78
1450.06	2159.31
1453.62	2067.61
1457.17	1883.42
1460.73	1688.67
1464.28	1356.07
1467.83	1175.77
1471.37	790.903
1474.92	589.517
1478.46	451.607
1482.01	330.126
1485.55	265.003
1489.09	261.288
1492.63	46.44
1496.16	75.808
1499.7	120.284
1503.23	4.097
1506.76	94.726
1510.29	340.836
1513.82	60.783
1517.35	126.574
1520.88	10.15
