Measurement: Raman, 514 nm, ccw, Raman Data Processed
Mineral: Muscovite
Rruff sample: R050188
Ideal chemistry: KAl_2_(Si_3_Al)O_10_(OH)_2_
Locality: Sapinero, near Blue Mesa Reservoir, Gunnison County, Colorado, USA
Source: Dave Bunk Minerals
Description: Black pseudohexagonal crystal, polytype 2M1, associated with quartz
Measured chemistry: (K_0.91_Na_0.09_)(Al_0.86_Fe^3+^_0.06_Fe^2+^_0.04_Mg_0.03_Ti_0.01_)_2_(Si_0.78_Al_0.22_)_4_O_10_(OH)_2_
Pin_id: L00510
Orientation: Laser parallel to a* (1 0 0). Fiducial mark perpendicular to laser is parallel to -b [0 -1 0]
Raman shift (cm-1)	intensity
116.339	0
120.508	44.979
124.675	62.318
128.84	34.367
133.003	42.362
137.164	24.743
141.323	38.454
145.48	158.159
149.635	295.975
153.788	419.261
157.939	634.733
162.088	1072.89
166.235	1693.09
170.38	2817.29
174.523	4993.53
178.664	8497.17
182.803	13636.9
186.94	19361.5
191.076	22021
195.209	21256.4
199.34	16671.4
203.47	12497.7
207.597	10078
211.722	8829.17
215.846	7841.7
219.967	6543.62
224.087	5371.46
228.204	4733.23
232.32	4792.15
236.434	5580.68
240.545	7602.69
244.655	10958.9
248.763	17549.4
252.869	29714.1
256.973	44130
261.075	48236.2
265.175	38245.7
269.273	24185.3
273.369	14045.1
277.463	8873.06
281.556	5394.22
285.646	3439.45
289.734	2324.99
293.821	1673.69
297.905	1314.14
301.988	992.04
306.069	776.46
310.147	553.508
314.224	338.102
318.299	172.174
322.372	62.672
326.443	44.448
330.512	131.214
334.579	140.667
338.645	32.69
342.708	104.347
346.769	285.143
350.829	511.572
354.887	842.879
358.942	1026.01
362.996	1199.49
367.048	1313.1
371.098	1455.84
375.146	1592.7
379.192	1728.7
383.236	1819.83
387.279	1987.98
391.319	2433.88
395.358	2967.19
399.394	3749.82
403.429	4644.01
407.462	5272.6
411.493	5707.82
415.522	5332.1
419.549	4526.45
423.575	3812.85
427.598	3201.31
431.619	2524.82
435.639	2003.37
439.657	1582.97
443.673	1113.62
447.687	793.121
451.699	530.228
455.709	428.226
459.717	359.36
463.724	284.642
467.728	353.014
471.731	252.462
475.732	224.977
479.731	184.704
483.728	131.18
487.723	80.859
491.716	18.619
495.708	65.374
499.697	102.249
503.685	97.65
507.671	80.61
511.655	57.027
515.637	100.308
519.617	154.629
523.596	264.977
527.572	332.373
531.547	465.862
535.52	422.536
539.491	297.406
543.46	249.479
547.427	130.736
551.393	36.56
555.356	9.616
559.318	4.83
563.278	17.75
567.236	89.322
571.192	123.901
575.147	109.499
579.099	182.115
583.05	255.746
586.999	406.391
590.946	614.048
594.891	747.713
598.834	899.383
602.776	1107.06
606.715	1240.84
610.653	1476.41
614.589	1727.47
618.523	1999.76
622.456	2217.42
626.386	2676.07
630.315	2870.71
634.242	3082.34
638.167	3350.95
642.09	3316.55
646.012	3156.14
649.931	3067.25
653.849	3089.41
657.765	3037.67
661.679	3086.46
665.592	3258.5
669.502	3573.54
673.411	4048.89
677.318	4927.89
681.223	6150.27
685.126	8052.76
689.028	10734.3
692.927	14975.7
696.825	20051.4
700.721	22972
704.616	19451.3
708.508	14147
712.399	9155.55
716.288	6234.52
720.175	4693.35
724.06	3872.21
727.944	3649.53
731.825	3708.93
735.705	4162.27
739.584	4797.41
743.46	5399.65
747.334	5790.57
751.207	5662.35
755.078	5187.09
758.947	4373.75
762.815	3299.38
766.68	2503.96
770.544	1939.51
774.406	1434.02
778.267	1223.49
782.125	1113.92
785.982	1011.31
789.837	1013.66
793.69	942.972
797.542	831.241
801.391	710.468
805.239	627.667
809.085	460.952
812.93	295.47
816.772	255.231
820.613	201.235
824.452	183.399
828.29	159.606
832.125	85.767
835.959	15.131
839.791	27.161
843.621	69.439
847.45	48.141
851.277	49.247
855.102	48.78
858.925	55.671
862.746	18.863
866.566	32.247
870.384	6.867
874.2	42.38
878.015	19.57
881.828	24.691
885.639	16.756
889.448	65.759
893.256	49.71
897.061	71.614
900.865	66.48
904.668	73.301
908.468	89.072
912.267	88.787
916.064	88.469
919.86	142.107
923.653	153.7
927.445	152.26
931.236	195.778
935.024	163.262
938.811	235.71
942.596	236.118
946.379	275.17
950.161	295.788
953.94	319.065
957.719	370.289
961.495	396.739
965.27	455.59
969.043	547.676
972.814	564.708
976.583	648.671
980.351	766.563
984.117	897.386
987.882	917.283
991.644	1029.72
995.405	1082.21
999.165	1237.73
1002.92	1340.5
1006.68	1429.6
1010.43	1693.37
1014.18	1786.47
1017.93	1938.37
1021.68	2138.54
1025.43	2242.16
1029.18	2408.16
1032.92	2568.77
1036.66	2925.75
1040.4	3520.52
1044.14	4383.81
1047.88	5412.56
1051.62	6555.37
1055.35	7347.2
1059.08	7928.63
1062.81	8212.37
1066.54	7969.46
1070.27	7410.29
1073.99	7006.74
1077.72	6396.84
1081.44	5777.42
1085.16	5195.79
1088.88	4528.61
1092.59	3820.83
1096.31	3180.25
1100.02	2444.16
1103.73	1988.39
1107.44	1565.92
1111.15	1218.91
1114.86	998.727
1118.57	813.045
1122.27	754.02
1125.97	567.872
1129.67	454.747
1133.37	342.863
1137.07	272.506
1140.76	209.363
1144.45	175.267
1148.15	158.32
1151.84	72.587
1155.53	37.94
1159.21	21.296
1162.9	30.651
1166.58	14.07
1170.26	11.696
1173.94	2.126
1177.62	31.511
1181.3	1.162
1184.97	13.553
1188.65	1.186
1192.32	9.121
1195.99	7.852
1199.66	5.154
1203.33	0.853
1206.99	20.013
1210.65	6.852
1214.32	8.391
1217.98	10.699
1221.64	18.917
1225.29	16.466
1228.95	26.052
1232.6	3.328
1236.26	22.631
1239.91	2.872
1243.56	5.054
1247.2	1.158
1250.85	7.198
1254.49	34.162
1258.13	2.927
1261.78	4.918
1265.41	18.698
1269.05	15.44
1272.69	27.028
1276.32	25.609
1279.95	35.139
1283.59	22.62
1287.21	26.047
1290.84	5.576
1294.47	31.731
1298.09	2.024
1301.72	49.154
1305.34	32.274
1308.96	33.338
1312.58	28.33
1316.19	61.196
1319.81	58.886
1323.42	9.712
1327.03	73.762
1330.64	50.288
1334.25	35.178
1337.86	39.572
1341.46	65.318
1345.07	33.459
1348.67	75.212
1352.27	57.49
1355.87	91.261
1359.46	119.143
1363.06	93.571
1366.65	51.964
1370.25	53.182
1373.84	111.064
1377.43	94.546
1381.02	76.769
1384.6	79.277
1388.18	83.365
1391.77	62.174
1395.35	94.105
1398.93	97.538
1402.51	48.353
1406.08	55.812
1409.66	51.236
1413.23	41.285
1416.8	47.219
1420.37	70.832
1423.94	64.923
1427.51	35.863
1431.08	29.948
1434.64	74.18
1438.2	68.454
1441.76	73.246
1445.32	54.958
1448.88	44.202
1452.43	72.48
1455.99	54.814
1459.54	67.172
1463.09	60.616
1466.64	67.073
1470.19	40.61
1473.74	22.312
1477.28	28.065
1480.83	53.909
1484.37	21.838
1487.91	29.871
1491.45	61.037
1494.98	71.359
1498.52	26.87
1502.05	40.597
1505.59	24.07
1509.12	17.594
1512.65	38.229
1516.17	60.05
1519.7	19.586
1523.23	4.77
