Measurement: Raman, 514 nm, ccw, Raman Data Processed
Mineral: Muscovite
Rruff sample: R050188
Ideal chemistry: KAl_2_(Si_3_Al)O_10_(OH)_2_
Locality: Sapinero, near Blue Mesa Reservoir, Gunnison County, Colorado, USA
Source: Dave Bunk Minerals
Description: Black pseudohexagonal crystal, polytype 2M1, associated with quartz
Measured chemistry: (K_0.91_Na_0.09_)(Al_0.86_Fe^3+^_0.06_Fe^2+^_0.04_Mg_0.03_Ti_0.01_)_2_(Si_0.78_Al_0.22_)_4_O_10_(OH)_2_
Pin_id: L00088
Orientation: Laser parallel to c* (0 0 1). Fiducial mark perpendicular to laser is parallel to -a [-1 0 0]
Raman shift (cm-1)	intensity
135.777	0
139.937	52.319
144.094	24.911
148.25	52.244
152.403	24.699
156.555	11.027
160.705	87.108
164.853	313.649
168.998	597.667
173.142	1060.47
177.284	2131.56
181.424	3763.48
185.562	5524.06
189.698	6946.37
193.831	7198.68
197.963	6239.93
202.093	4626.06
206.221	3412.2
210.347	2720.99
214.472	2324.02
218.594	2107.8
222.714	1650.64
226.832	1617.43
230.948	1644.32
235.063	1960.46
239.175	2767.69
243.286	4224.94
247.394	6764.72
251.501	11510.9
255.605	17964.5
259.708	22648.5
263.808	20422
267.907	13894
272.004	8159.21
276.099	4664.61
280.192	2803.95
284.283	1898.19
288.372	1319.34
292.459	979.373
296.544	696.293
300.627	531.687
304.709	414.101
308.788	307.876
312.865	216.216
316.941	139.2
321.015	94.156
325.086	22.655
329.156	79.657
333.224	2.233
337.29	7.436
341.354	37.593
345.416	91.127
349.476	201.507
353.534	287.079
357.591	472.753
361.645	587.831
365.698	733.878
369.748	886.668
373.797	1024.89
377.844	1051.22
381.889	1103.57
385.932	1116.93
389.973	1183.7
394.012	1382.51
398.049	1689.59
402.084	2094.57
406.118	2359.93
410.15	2444.7
414.179	2369.45
418.207	2059.04
422.233	1760.52
426.257	1435.7
430.279	1112.75
434.299	932.665
438.318	744.431
442.334	515.05
446.349	415.519
450.361	280.696
454.372	230.006
458.381	165.024
462.388	114.896
466.394	104.675
470.397	98.361
474.398	125.954
478.398	88.438
482.396	54.805
486.391	53.032
490.385	18.195
494.377	18.503
498.368	14.875
502.356	17.255
506.342	19.346
510.327	9.192
514.31	25.995
518.291	2.453
522.27	35.303
526.247	14.179
530.222	4.041
534.196	0.996
538.167	21.661
542.137	8.993
546.105	43.004
550.071	11.617
554.035	15.891
557.998	4.856
561.958	39.479
565.917	23.816
569.874	64.878
573.829	61.766
577.782	79.488
581.733	160.047
585.683	165.448
589.63	220.695
593.576	238.789
597.52	307.734
601.462	423.532
605.402	448.185
609.341	508.696
613.277	619.068
617.212	739.304
621.145	993.406
625.076	1120.38
629.006	1185.22
632.933	1207.98
636.859	1143
640.783	1230.86
644.705	1242.62
648.625	1247.01
652.543	1166.37
656.46	1183.56
660.375	1149.69
664.288	1183.47
668.199	1297.82
672.108	1452.6
676.016	1806.65
679.921	2294.4
683.825	3065.08
687.727	4267.17
691.628	6009.38
695.526	8292.83
699.423	10052.6
703.318	9603.63
707.211	7412.55
711.102	4852.3
714.992	3051.01
718.879	2112.37
722.765	1723.56
726.649	1469.25
730.532	1558.38
734.412	1640.67
738.291	1923.95
742.168	2106.38
746.043	2387.85
749.916	2236.36
753.788	1964.91
757.658	1664.51
761.526	1339.16
765.392	918.874
769.257	586.644
773.119	407.479
776.98	297.472
780.839	255.166
784.697	166.248
788.552	172.052
792.406	163.907
796.258	185.198
800.108	104.995
803.957	54.48
807.804	92.115
811.649	10.062
815.492	29.092
819.333	35.014
823.173	52.233
827.011	35.606
830.847	12.13
834.681	5.819
838.514	20.645
842.345	23.653
846.174	48.816
850.001	26.182
853.827	27.746
857.651	148.551
861.473	215.627
865.293	180.92
869.112	160.444
872.928	174.16
876.744	91.128
880.557	144.277
884.369	60.62
888.178	89.136
891.987	90.794
895.793	65.627
899.598	54.636
903.401	58.793
907.202	42.098
911.001	50.572
914.799	45.221
918.595	29.047
922.389	33.203
926.182	29.061
929.972	7.247
933.761	31.466
937.549	49.109
941.334	6.69
945.118	5.825
948.9	45.436
952.681	76.143
956.459	63.948
960.236	43.852
964.012	50.591
967.785	102.56
971.557	130.951
975.327	150.059
979.095	174.425
982.862	180.877
986.627	264.743
990.39	361.356
994.152	408.809
997.912	529.855
1001.67	857.124
1005.43	704.116
1009.18	711.614
1012.93	809.586
1016.68	948.4
1020.43	991.005
1024.18	1023.94
1027.93	1101.51
1031.67	1107.21
1035.42	1185.11
1039.16	1315.34
1042.9	1596.02
1046.63	1912.39
1050.37	2420.14
1054.11	2777.1
1057.84	3101.18
1061.57	3243.92
1065.3	3202.71
1069.03	3027.74
1072.75	2868.19
1076.47	2737.2
1080.2	2568.36
1083.92	2332.92
1087.64	1969.35
1091.36	1748.37
1095.07	1438.01
1098.79	1103.11
1102.5	888.77
1106.21	745.812
1109.92	576.818
1113.62	457.786
1117.33	449.73
1121.04	428.674
1124.74	369.581
1128.44	294.439
1132.14	293.247
1135.83	141.007
1139.53	96.716
1143.22	10.353
1146.92	44.915
1150.61	0.596
1154.3	18.791
1157.98	35.027
1161.67	4.855
1165.35	8.111
1169.04	22.972
1172.72	14.255
1176.4	72.341
1180.07	20.781
1183.75	13.985
1187.42	16.093
1191.1	27.947
1194.77	23.193
1198.44	61.389
1202.1	68.846
1205.77	1.827
1209.43	24.683
1213.1	14.246
1216.76	35.041
1220.42	29.76
1224.07	78.398
1227.73	73.963
1231.38	107.479
1235.04	132.959
1238.69	165.395
1242.34	154.77
1245.99	89.071
1249.63	152.302
1253.28	142.455
1256.92	173.53
1260.56	236.526
1264.2	273.443
1267.84	333.279
1271.48	298.035
1275.11	303.711
1278.74	336.311
1282.38	332.834
1286.01	371.285
1289.63	361.781
1293.26	431.901
1296.89	616.854
1300.51	641.651
1304.13	696.305
1307.75	721.365
1311.37	651.351
1314.99	517.245
1318.6	480.746
1322.22	393.095
1325.83	288.352
1329.44	216.957
1333.05	172.381
1336.66	109.388
1340.26	105.538
1343.87	98.405
1347.47	93.637
1351.07	55.677
1354.67	107.742
1358.27	101.334
1361.86	79.66
1365.46	115.535
1369.05	159.119
1372.64	140.488
1376.23	81.501
1379.82	101.912
1383.41	87.177
1386.99	66.565
1390.57	108.917
1394.16	34.168
1397.74	73.318
1401.32	77.368
1404.89	44.318
1408.47	124.179
1412.04	80.981
1415.61	180.801
1419.18	252.713
1422.75	273.664
1426.32	285.764
1429.89	449.12
1433.45	757.665
1437.01	1040.48
1440.58	1251.52
1444.13	1257.94
1447.69	1256.45
1451.25	1170.99
1454.81	1143.5
1458.36	1078.04
1461.91	991.716
1465.46	746.564
1469.01	596.644
1472.56	519.012
1476.1	380.711
1479.64	276.769
1483.19	239.192
1486.73	165.976
1490.27	136.152
1493.81	89.839
1497.34	84.167
1500.88	16.742
1504.41	29.248
1507.94	71.083
1511.47	40.856
1515	71.483
1518.53	72.401
1522.05	2.045
1525.57	0
