Measurement: Raman, 514 nm, ccw, Raman Data Processed
Mineral: Muscovite
Rruff sample: R050188
Ideal chemistry: KAl_2_(Si_3_Al)O_10_(OH)_2_
Locality: Sapinero, near Blue Mesa Reservoir, Gunnison County, Colorado, USA
Source: Dave Bunk Minerals
Description: Black pseudohexagonal crystal, polytype 2M1, associated with quartz
Measured chemistry: (K_0.91_Na_0.09_)(Al_0.86_Fe^3+^_0.06_Fe^2+^_0.04_Mg_0.03_Ti_0.01_)_2_(Si_0.78_Al_0.22_)_4_O_10_(OH)_2_
Pin_id: L00510
Orientation: Laser parallel to a* (1 0 0). Fiducial mark perpendicular to laser is parallel to -b [0 -1 0]
Raman shift (cm-1)	intensity
112.168	0
116.339	532.601
120.508	525.4
124.675	191.915
128.84	118.513
133.003	254.267
137.164	1001.5
141.323	1824.19
145.48	2560.07
149.635	3464.63
153.788	4238.76
157.939	5023.53
162.088	5752.17
166.235	5783.6
170.38	5032.9
174.523	4361.15
178.664	4264.94
182.803	4859.39
186.94	6289.46
191.076	7443.12
195.209	7915.9
199.34	7026.03
203.47	5866.19
207.597	5597.64
211.722	5046.93
215.846	4989.19
219.967	3943.48
224.087	2307.31
228.204	795.244
232.32	197.357
236.434	364.487
240.545	1473.01
244.655	3730.71
248.763	8135.5
252.869	17477.2
256.973	29866.8
261.075	37192.3
265.175	33284.7
269.273	22378.9
273.369	13607.9
277.463	8010.31
281.556	4699.07
285.646	2777.8
289.734	1865.28
293.821	1344.64
297.905	1289.9
301.988	1318.91
306.069	1282.39
310.147	1343.13
314.224	1227.45
318.299	946.647
322.372	699.16
326.443	375.92
330.512	62.418
334.579	242.107
338.645	197.595
342.708	53.682
346.769	183.792
350.829	752.459
354.887	1296.61
358.942	2169.35
362.996	2958.25
367.048	3839.61
371.098	4818.39
375.146	5675.45
379.192	6663.13
383.236	7442.65
387.279	8459.92
391.319	10171.6
395.358	12386.1
399.394	15167.3
403.429	18219.3
407.462	20546
411.493	21704.4
415.522	20560.5
419.549	17718.2
423.575	14628.7
427.598	12014.8
431.619	9775.59
435.639	7711.07
439.657	6151.25
443.673	4603.36
447.687	3482.39
451.699	2535.31
455.709	1866.12
459.717	1545.8
463.724	1427.26
467.728	1268.48
471.731	1135.42
475.732	823.07
479.731	746.412
483.728	625.428
487.723	323.104
491.716	150.419
495.708	22.239
499.697	138.953
503.685	221.667
507.671	280.375
511.655	232.548
515.637	136.896
519.617	95.149
523.596	28.079
527.572	25.934
531.547	184.47
535.52	359.036
539.491	344.75
543.46	614.565
547.427	647.365
551.393	872.907
555.356	1025.08
559.318	1132.86
563.278	1391.26
567.236	1345.29
571.192	1443.93
575.147	1471.21
579.099	1457.11
583.05	1605.65
586.999	1857.84
590.946	2288.66
594.891	2577.14
598.834	3040.26
602.776	3508.04
606.715	4071.48
610.653	4516.58
614.589	5088.34
618.523	5924.75
622.456	6305.84
626.386	6922.59
630.315	7005.02
634.242	7362.12
638.167	7269.74
642.09	7234.39
646.012	6792.49
649.931	6457.48
653.849	6351.59
657.765	6086.28
661.679	5666.79
665.592	5481.85
669.502	5355.45
673.411	5715.62
677.318	6463.87
681.223	7743.48
685.126	10245.8
689.028	13717
692.927	19912.6
696.825	27246.5
700.721	31901.6
704.616	28214
708.508	21020.4
712.399	13772
716.288	9451.49
720.175	7110.93
724.06	5588.34
727.944	5141.71
731.825	5135.06
735.705	5752.4
739.584	6859.73
743.46	7827.07
747.334	8565.43
751.207	8740.8
755.078	8474.21
758.947	7440.66
762.815	5911.15
766.68	4579.69
770.544	3605.3
774.406	2885.97
778.267	2345.72
782.125	2126.54
785.982	1877.45
789.837	1766.46
793.69	1605.56
797.542	1402.24
801.391	1201.1
805.239	912.55
809.085	659.282
812.93	368.551
816.772	243.621
820.613	234.135
824.452	194.213
828.29	130.123
832.125	83.152
835.959	134.161
839.791	168.534
843.621	281.459
847.45	257.407
851.277	219.334
855.102	125.055
858.925	4.767
862.746	45.633
866.566	214.703
870.384	291.005
874.2	485.591
878.015	602.482
881.828	772.698
885.639	1012.23
889.448	1355.49
893.256	1769.24
897.061	2388.75
900.865	3258.55
904.668	3908.62
908.468	4268.23
912.267	4401.46
916.064	4148.18
919.86	3616.08
923.653	2782.21
927.445	2355.52
931.236	1963.01
935.024	1727.67
938.811	1695.5
942.596	1778.48
946.379	1947.61
950.161	2253.89
953.94	2378.31
957.719	2376.87
961.495	2220.56
965.27	1871.37
969.043	1652.29
972.814	1540.3
976.583	1559.39
980.351	1515.54
984.117	1585.75
987.882	1455.91
991.644	1431.04
995.405	1363.59
999.165	1413.52
1002.92	1375.96
1006.68	1491.2
1010.43	1630.69
1014.18	1789.14
1017.93	1835.1
1021.68	1865.32
1025.43	1796.39
1029.18	1536.34
1032.92	1342.29
1036.66	1079.2
1040.4	1016.87
1044.14	1098.21
1047.88	1391.3
1051.62	1700.32
1055.35	1978.06
1059.08	2276.72
1062.81	2619.91
1066.54	2773.53
1070.27	2910.66
1073.99	3072.52
1077.72	3000.76
1081.44	2992.27
1085.16	3000.04
1088.88	2873.22
1092.59	2947.94
1096.31	2978.12
1100.02	3135.36
1103.73	3411.61
1107.44	3608.59
1111.15	3879.19
1114.86	3828.65
1118.57	3622.09
1122.27	3450.21
1125.97	2823.32
1129.67	2131.48
1133.37	1658.41
1137.07	1192.99
1140.76	772.48
1144.45	452.522
1148.15	240.603
1151.84	77.908
1155.53	12.294
1159.21	12.444
1162.9	18.473
1166.58	27.814
1170.26	66.539
1173.94	46.005
1177.62	43.837
1181.3	22.364
1184.97	31.697
1188.65	73.436
1192.32	22.941
1195.99	53.121
1199.66	0.067
1203.33	0.809
1206.99	8.105
1210.65	13.053
1214.32	2.628
1217.98	18.814
1221.64	36.591
1225.29	45.009
1228.95	19.086
1232.6	42.813
1236.26	61.3
1239.91	67.377
1243.56	87.123
1247.2	90.562
1250.85	85.67
1254.49	131.454
1258.13	94.981
1261.78	110.095
1265.41	127.91
1269.05	88.355
1272.69	102.445
1276.32	80.213
1279.95	127.661
1283.59	126.76
1287.21	112.495
1290.84	141.025
1294.47	122.118
1298.09	185.886
1301.72	169.896
1305.34	143.164
1308.96	152.35
1312.58	123.001
1316.19	180.306
1319.81	151.239
1323.42	139.165
1327.03	148.564
1330.64	147.684
1334.25	122.616
1337.86	137.028
1341.46	120.384
1345.07	138.809
1348.67	138.129
1352.27	134.886
1355.87	121.899
1359.46	115.35
1363.06	111.915
1366.65	119.156
1370.25	93.461
1373.84	140.249
1377.43	119.507
1381.02	104.355
1384.6	120.704
1388.18	111.257
1391.77	123.827
1395.35	105.081
1398.93	110.478
1402.51	102.811
1406.08	85.263
1409.66	95.814
1413.23	137.816
1416.8	49.298
1420.37	38.6
1423.94	67.282
1427.51	60.979
1431.08	21.55
1434.64	75.015
1438.2	81.113
1441.76	70.267
1445.32	74.432
1448.88	46.673
1452.43	19.854
1455.99	32.762
1459.54	86.707
1463.09	25.582
1466.64	31.351
1470.19	45.357
1473.74	13.602
1477.28	11.305
1480.83	17.06
1484.37	45.318
1487.91	5.303
1491.45	38.747
1494.98	94.368
1498.52	68.465
1502.05	7.857
1505.59	59.748
1509.12	49.946
1512.65	12.869
1516.17	29.345
1519.7	1.893
1523.23	11.002
