Measurement: Raman, 514 nm, ccw, Raman Data Processed
Mineral: Muscovite
Rruff sample: R050188
Ideal chemistry: KAl_2_(Si_3_Al)O_10_(OH)_2_
Locality: Sapinero, near Blue Mesa Reservoir, Gunnison County, Colorado, USA
Source: Dave Bunk Minerals
Description: Black pseudohexagonal crystal, polytype 2M1, associated with quartz
Measured chemistry: (K_0.91_Na_0.09_)(Al_0.86_Fe^3+^_0.06_Fe^2+^_0.04_Mg_0.03_Ti_0.01_)_2_(Si_0.78_Al_0.22_)_4_O_10_(OH)_2_
Pin_id: L00384
Orientation: Laser parallel to b* (0 1 0). Fiducial mark perpendicular to laser is parallel to c [0 0 1]
Raman shift (cm-1)	intensity
135.777	0
139.937	20.861
144.094	18.13
148.25	65.372
152.403	247.618
156.555	477.759
160.705	869.089
164.853	1358.69
168.998	1923.09
173.142	2817
177.284	5995.28
181.424	7913.32
185.562	11573.9
189.698	14204.3
193.831	14499
197.963	12199
202.093	8969.06
206.221	7199.05
210.347	6136.79
214.472	5477.14
218.594	4511.96
222.714	3115.32
226.832	2304.36
230.948	2107.32
235.063	2516.92
239.175	4010.01
243.286	6648
247.394	11830.8
251.501	20868.2
255.605	34056.7
259.708	42765.2
263.808	37303.8
267.907	24128.4
272.004	13752
276.099	7631.52
280.192	4467.91
284.283	2808.2
288.372	1846.35
292.459	1254.37
296.544	878.248
300.627	649.035
304.709	534.456
308.788	425.788
312.865	456.214
316.941	315.994
321.015	123.9
325.086	18.248
329.156	97.34
333.224	188.708
337.29	222.318
341.354	115.843
345.416	68.361
349.476	368.515
353.534	812.154
357.591	1247.2
361.645	1585.13
365.698	2112.93
369.748	2707.68
373.797	3094.36
377.844	3375.96
381.889	3562.47
385.932	3680.91
389.973	4090.41
394.012	4801.8
398.049	5958.08
402.084	6970.85
406.118	8098.24
410.15	8052.5
414.179	7512.6
418.207	6375.55
422.233	5278.33
426.257	4333.94
430.279	3278.39
434.299	2571.66
438.318	1833.76
442.334	1226.68
446.349	865.43
450.361	588.151
454.372	369.394
458.381	171.609
462.388	119.666
466.394	93.693
470.397	207.664
474.398	156.401
478.398	123.336
482.396	55.924
486.391	30.874
490.385	31.254
494.377	57.16
498.368	138.233
502.356	198.322
506.342	74.818
510.327	109.731
514.31	44.025
518.291	15.136
522.27	147.447
526.247	394.55
530.222	379.568
534.196	255.561
538.167	363.812
542.137	235.247
546.105	195.816
550.071	110.56
554.035	141.325
557.998	163.961
561.958	186.423
565.917	228.713
569.874	264.832
573.829	279.781
577.782	417.562
581.733	438.177
585.683	478.626
589.63	643.913
593.576	726.038
597.52	1064
601.462	1235.81
605.402	1546.46
609.341	1847.99
613.277	2167.32
617.212	2586.52
621.145	2890.44
625.076	3207.72
629.006	3708.49
632.933	3817.07
636.859	3692.6
640.783	3811.78
644.705	3477.64
648.625	3245.74
652.543	3495.51
656.46	2931.93
660.375	2842.25
664.288	2851.11
668.199	3024.23
672.108	3375.28
676.016	4149.41
679.921	5444.47
683.825	7251.14
687.727	10120.1
691.628	14330.3
695.526	20159.3
699.423	24120.5
703.318	22850.4
707.211	17056.7
711.102	11191.2
714.992	7334
718.879	5208.37
722.765	4351.63
726.649	3664.84
730.532	3854.99
734.412	4196.09
738.291	4848.15
742.168	5427.17
746.043	6083.15
749.916	5869.11
753.788	5343.03
757.658	4641.93
761.526	3688.8
765.392	2715.65
769.257	1939.49
773.119	1458.32
776.98	1187.13
780.839	960.945
784.697	848.76
788.552	803.572
792.406	886.396
796.258	818.249
800.108	710.194
803.957	594.296
807.804	500.723
811.649	329.602
815.492	297.002
819.333	323.748
823.173	386.807
827.011	482.154
830.847	315.636
834.681	89.153
838.514	21.39
842.345	27.189
846.174	187.518
850.001	131.79
853.827	130.771
857.651	134.565
861.473	51.816
865.293	4.608
869.112	58.381
872.928	143.475
876.744	179.553
880.557	277.005
884.369	296.526
888.178	429.143
891.987	535.869
895.793	688.727
899.598	828.51
903.401	1074.75
907.202	1288.88
911.001	1356.09
914.799	1365.38
918.595	1136.7
922.389	1067.09
926.182	846.549
929.972	793.038
933.761	710.533
937.549	643.037
941.334	848.551
945.118	796.087
948.9	1085.64
952.681	1143.22
956.459	1231.82
960.236	1027.43
964.012	1043.01
967.785	937.572
971.557	1040.88
975.327	1155.59
979.095	1193.04
982.862	1367.43
986.627	1427.77
990.39	1655.45
994.152	1668.92
997.912	1767.44
1001.67	2024.66
1005.43	2109.32
1009.18	2266.91
1012.93	2485.87
1016.68	2688.73
1020.43	2846.95
1024.18	2979.5
1027.93	2960.51
1031.67	2937.55
1035.42	3026.8
1039.16	3152.53
1042.9	3770.03
1046.63	4669.53
1050.37	5732.6
1054.11	6460.66
1057.84	7284.64
1061.57	7332.71
1065.3	7236.09
1069.03	7074.05
1072.75	6682.62
1076.47	6049.91
1080.2	5599.2
1083.92	4987.85
1087.64	4467.45
1091.36	4018.71
1095.07	3430.61
1098.79	3188.12
1102.5	2678.83
1106.21	2577.13
1109.92	2452.82
1113.62	2245.52
1117.33	2106.81
1121.04	1890.06
1124.74	1858.93
1128.44	1307.07
1132.14	1096.64
1135.83	758.026
1139.53	546.377
1143.22	325.454
1146.92	267.93
1150.61	144.637
1154.3	134.957
1157.98	62.977
1161.67	21.535
1165.35	18.053
1169.04	74.613
1172.72	16.375
1176.4	47.975
1180.07	12.099
1183.75	35.5
1187.42	42.981
1191.1	99.122
1194.77	81.505
1198.44	3.518
1202.1	25.65
1205.77	3.8
1209.43	57.093
1213.1	31.73
1216.76	39.79
1220.42	42.383
1224.07	23.246
1227.73	33.896
1231.38	65.441
1235.04	59.754
1238.69	42.883
1242.34	77.697
1245.99	12.728
1249.63	11.563
1253.28	51.635
1256.92	61.504
1260.56	83.295
1264.2	55.752
1267.84	81.007
1271.48	32.056
1275.11	118.895
1278.74	105.534
1282.38	98.96
1286.01	148.185
1289.63	100.211
1293.26	71.04
1296.89	78.668
1300.51	109.962
1304.13	116.094
1307.75	174.061
1311.37	257.771
1314.99	55.881
1318.6	64.604
1322.22	140.223
1325.83	133.307
1329.44	69.565
1333.05	117.156
1336.66	59.768
1340.26	95.823
1343.87	34.951
1347.47	49.619
1351.07	95.449
1354.67	40.348
1358.27	91.995
1361.86	89.677
1365.46	73.095
1369.05	147.893
1372.64	169.789
1376.23	117.201
1379.82	80.321
1383.41	64.72
1386.99	85.986
1390.57	58.231
1394.16	151.674
1397.74	112.078
1401.32	76.409
1404.89	91.257
1408.47	61.631
1412.04	140.241
1415.61	82.362
1419.18	105.081
1422.75	163.908
1426.32	147.073
1429.89	129.315
1433.45	294.542
1437.01	373.47
1440.58	314.745
1444.13	310.082
1447.69	430.833
1451.25	313.514
1454.81	234.009
1458.36	366.708
1461.91	199.646
1465.46	245.608
1469.01	151.326
1472.56	154.469
1476.1	121.82
1479.64	128.47
1483.19	93.426
1486.73	62.639
1490.27	49.042
1493.81	59.819
1497.34	39.918
1500.88	23.739
1504.41	17.615
1507.94	69.35
1511.47	84.746
1515	90.201
1518.53	12.588
1522.05	25.5
1525.57	11.215
