Measurement: Raman, 514 nm, ccw, Raman Data Processed
Mineral: Muscovite
Rruff sample: R050188
Ideal chemistry: KAl_2_(Si_3_Al)O_10_(OH)_2_
Locality: Sapinero, near Blue Mesa Reservoir, Gunnison County, Colorado, USA
Source: Dave Bunk Minerals
Description: Black pseudohexagonal crystal, polytype 2M1, associated with quartz
Measured chemistry: (K_0.91_Na_0.09_)(Al_0.86_Fe^3+^_0.06_Fe^2+^_0.04_Mg_0.03_Ti_0.01_)_2_(Si_0.78_Al_0.22_)_4_O_10_(OH)_2_
Pin_id: L00510
Orientation: Laser parallel to a* (1 0 0). Fiducial mark perpendicular to laser is parallel to -b [0 -1 0]
Raman shift (cm-1)	intensity
135.777	0
139.937	83.833
144.094	12.182
148.25	124.42
152.403	297.755
156.555	504.776
160.705	1006.3
164.853	1491.09
168.998	1969.28
173.142	3206
177.284	5525.89
181.424	9536.84
185.562	14340.5
189.698	17493.3
193.831	18153.2
197.963	15337.4
202.093	11565.7
206.221	8991.18
210.347	7423.26
214.472	6518.03
218.594	5450.63
222.714	3951.69
226.832	3059.89
230.948	2758.83
235.063	3393.34
239.175	4843.99
243.286	7855.12
247.394	13285.6
251.501	22734.6
255.605	36711.9
259.708	46443.3
263.808	41486.8
267.907	27840.3
272.004	16287.6
276.099	9183.68
280.192	5286.41
284.283	3308.84
288.372	2161.96
292.459	1434.79
296.544	896.308
300.627	688.002
304.709	551.251
308.788	456.608
312.865	278.461
316.941	194.389
321.015	43.748
325.086	148.504
329.156	306.858
333.224	260.934
337.29	239.662
341.354	74.588
345.416	135.846
349.476	509.552
353.534	960.907
357.591	1449.27
361.645	1990.16
365.698	2719.4
369.748	3296.27
373.797	3674.78
377.844	3922.96
381.889	3914.82
385.932	4059.59
389.973	4314.01
394.012	5053.17
398.049	6200.32
402.084	7408.05
406.118	8610.69
410.15	9113.06
414.179	8775.17
418.207	7945.08
422.233	6717.79
426.257	5636.29
430.279	4548.57
434.299	3828.64
438.318	2801.5
442.334	2100.15
446.349	1505.6
450.361	1144.83
454.372	879.865
458.381	623.698
462.388	599.346
466.394	545.89
470.397	560.3
474.398	544.503
478.398	450.539
482.396	363.092
486.391	267.667
490.385	154.888
494.377	18.178
498.368	158.43
502.356	159.357
506.342	172.656
510.327	72.065
514.31	66.251
518.291	121.99
522.27	242.972
526.247	319.893
530.222	414.847
534.196	427.985
538.167	420.409
542.137	270.049
546.105	147.83
550.071	99.66
554.035	129.459
557.998	150.084
561.958	84.561
565.917	119.902
569.874	190.119
573.829	218.211
577.782	235.183
581.733	332.038
585.683	412.776
589.63	632.399
593.576	809.911
597.52	1104.31
601.462	1350.61
605.402	1672.8
609.341	2032.89
613.277	2307.88
617.212	2807.77
621.145	3185.56
625.076	3604.26
629.006	4199.87
632.933	4604.39
636.859	4524.81
640.783	4618.14
644.705	4347.73
648.625	4269.8
652.543	4167.89
656.46	4111.11
660.375	3975.09
664.288	3918.09
668.199	4043.67
672.108	4452.32
676.016	5178.29
679.921	6268.49
683.825	8333.12
687.727	11139
691.628	15700.4
695.526	21806.1
699.423	25945.9
703.318	25004
707.211	19148.3
711.102	12750
714.992	8253.31
718.879	5811.69
722.765	4746.43
726.649	4131.07
730.532	4260.71
734.412	4416.3
738.291	5282.85
742.168	6194.35
746.043	6953.81
749.916	7015.23
753.788	6378.62
757.658	5681.96
761.526	4540.27
765.392	3501.55
769.257	2553.8
773.119	2003.01
776.98	1599.19
780.839	1374.34
784.697	1280.46
788.552	1184.56
792.406	1163.63
796.258	1155.67
800.108	922.688
803.957	769.707
807.804	564.772
811.649	388.089
815.492	253.756
819.333	183.823
823.173	150.225
827.011	102.798
830.847	26.405
834.681	86.127
838.514	96.166
842.345	172.84
846.174	124.521
850.001	143.191
853.827	106.756
857.651	29.046
861.473	79.89
865.293	171.052
869.112	140.885
872.928	202.889
876.744	254.457
880.557	278.273
884.369	405.102
888.178	410.95
891.987	556.794
895.793	681.63
899.598	863.485
903.401	1039.37
907.202	1190.25
911.001	1220.09
914.799	1252.92
918.595	1119.75
922.389	956.503
926.182	865.199
929.972	805.87
933.761	715.522
937.549	776.116
941.334	737.676
945.118	794.19
948.9	895.65
952.681	1074.05
956.459	1126.4
960.236	1080.67
964.012	1155.89
967.785	1269.06
971.557	1393.16
975.327	1595.18
979.095	1791
982.862	1894.12
986.627	2006.69
990.39	2157.09
994.152	2107.01
997.912	2276.3
1001.67	2433.93
1005.43	2512.94
1009.18	2764.07
1012.93	3051.09
1016.68	3174.19
1020.43	3220.63
1024.18	3309
1027.93	3311.49
1031.67	3292.5
1035.42	3360.55
1039.16	3725.39
1042.9	4399.94
1046.63	5400.56
1050.37	6606.7
1054.11	7663.72
1057.84	8466.76
1061.57	8585.07
1065.3	8660.86
1069.03	8381.3
1072.75	7945.52
1076.47	7406.35
1080.2	6911.83
1083.92	6210.89
1087.64	5585.15
1091.36	4877.18
1095.07	4172.58
1098.79	3584.13
1102.5	3037.74
1106.21	2709.85
1109.92	2324.87
1113.62	2097.07
1117.33	1917.36
1121.04	1664.71
1124.74	1576.9
1128.44	1111.53
1132.14	845.044
1135.83	668.931
1139.53	499.31
1143.22	282.297
1146.92	232.825
1150.61	159.837
1154.3	81.709
1157.98	34.466
1161.67	40.703
1165.35	7.876
1169.04	17.627
1172.72	24.651
1176.4	12.301
1180.07	17.417
1183.75	2.641
1187.42	21.946
1191.1	1.364
1194.77	69.637
1198.44	26.944
1202.1	4.19
1205.77	10.24
1209.43	20.906
1213.1	19.686
1216.76	531.094
1220.42	7.385
1224.07	13.461
1227.73	2.445
1231.38	42.208
1235.04	9.791
1238.69	0.813
1242.34	15.402
1245.99	7.459
1249.63	28.397
1253.28	47.137
1256.92	8.742
1260.56	23.106
1264.2	51.285
1267.84	63.289
1271.48	9.76
1275.11	14.888
1278.74	40.442
1282.38	20.753
1286.01	61.898
1289.63	40.879
1293.26	90.694
1296.89	59.348
1300.51	149.838
1304.13	56.098
1307.75	79.005
1311.37	171.486
1314.99	88.604
1318.6	85.754
1322.22	103.254
1325.83	86.731
1329.44	103.209
1333.05	83.744
1336.66	61.827
1340.26	93.088
1343.87	82.56
1347.47	74.372
1351.07	101.283
1354.67	122.004
1358.27	101.468
1361.86	98.954
1365.46	162.267
1369.05	169.755
1372.64	80.273
1376.23	131.666
1379.82	82.628
1383.41	122.1
1386.99	118.057
1390.57	122.992
1394.16	72.816
1397.74	65.4
1401.32	71.85
1404.89	98.546
1408.47	56.233
1412.04	24.503
1415.61	79.4
1419.18	81.484
1422.75	71.401
1426.32	121.469
1429.89	126.964
1433.45	148.791
1437.01	127.705
1440.58	125.923
1444.13	140.249
1447.69	119.513
1451.25	80.689
1454.81	125.881
1458.36	99.107
1461.91	117.226
1465.46	114.465
1469.01	18.979
1472.56	59.391
1476.1	77.065
1479.64	70.175
1483.19	44.552
1486.73	73.115
1490.27	23.871
1493.81	100.892
1497.34	60.269
1500.88	42.409
1504.41	35.669
1507.94	15.893
1511.47	139.453
1515	63.481
1518.53	40.52
1522.05	72.618
1525.57	68.303
