Measurement: Raman, 514 nm, ccw, Raman Data Processed
Mineral: Muscovite
Rruff sample: R050188
Ideal chemistry: KAl_2_(Si_3_Al)O_10_(OH)_2_
Locality: Sapinero, near Blue Mesa Reservoir, Gunnison County, Colorado, USA
Source: Dave Bunk Minerals
Description: Black pseudohexagonal crystal, polytype 2M1, associated with quartz
Measured chemistry: (K_0.91_Na_0.09_)(Al_0.86_Fe^3+^_0.06_Fe^2+^_0.04_Mg_0.03_Ti_0.01_)_2_(Si_0.78_Al_0.22_)_4_O_10_(OH)_2_
Pin_id: L00384
Orientation: Laser parallel to b* (0 1 0). Fiducial mark perpendicular to laser is parallel to c [0 0 1]
Raman shift (cm-1)	intensity
124.675	0
128.84	0.642
133.003	20.409
137.164	233.64
141.323	655.99
145.48	968.988
149.635	1424.08
153.788	2056.62
157.939	3195.28
162.088	3233.68
166.235	3323.86
170.38	2848.96
174.523	2382.36
178.664	1922.69
182.803	2105
186.94	2590.04
191.076	3109.14
195.209	3613.53
199.34	3502.62
203.47	3229.92
207.597	3643.96
211.722	3149.94
215.846	3209.84
219.967	2738.24
224.087	1559.59
228.204	647.842
232.32	375.055
236.434	735.297
240.545	1995.51
244.655	4262.04
248.763	8993.01
252.869	17887.7
256.973	29657.2
261.075	35808.3
265.175	31965.1
269.273	21783.6
273.369	12849.7
277.463	7425.46
281.556	4176.81
285.646	2910.74
289.734	1515.95
293.821	858.988
297.905	548.744
301.988	430.258
306.069	380.134
310.147	431.364
314.224	204.779
318.299	120.432
322.372	74.859
326.443	67.313
330.512	14.728
334.579	105.37
338.645	46.184
342.708	374.091
346.769	472.675
350.829	903.795
354.887	1530.23
358.942	2071.26
362.996	2656.42
367.048	3574.89
371.098	4229
375.146	4860.21
379.192	5584.24
383.236	6044.11
387.279	6568.8
391.319	7189.25
395.358	8479.36
399.394	9961.38
403.429	11371.5
407.462	12046.4
411.493	12081.8
415.522	10966.8
419.549	9095.3
423.575	7218.3
427.598	5904.81
431.619	4566.84
435.639	3562.38
439.657	2814.42
443.673	1883.97
447.687	1320.02
451.699	812.606
455.709	570.958
459.717	487.077
463.724	400.892
467.728	410.354
471.731	289.425
475.732	169.046
479.731	228.155
483.728	14.353
487.723	95.462
491.716	113.277
495.708	213.693
499.697	139.418
503.685	147.706
507.671	145.927
511.655	114.078
515.637	53.99
519.617	32.612
523.596	103.182
527.572	200.965
531.547	496.145
535.52	623.012
539.491	669.654
543.46	666.059
547.427	746.256
551.393	854.876
555.356	988.969
559.318	995.915
563.278	1097.76
567.236	1233.13
571.192	1270.16
575.147	1337.7
579.099	1262.75
583.05	1417.62
586.999	1469.39
590.946	1777.01
594.891	1895.17
598.834	2131.88
602.776	2486.14
606.715	2896.97
610.653	3292.38
614.589	3793.36
618.523	4542.93
622.456	5115.1
626.386	5827.86
630.315	5398.42
634.242	5143.46
638.167	5161.22
642.09	4980.72
646.012	4639.69
649.931	4155.28
653.849	3763.72
657.765	3085.79
661.679	2881.96
665.592	2803.52
669.502	2745.49
673.411	3265.91
677.318	3951.19
681.223	5105.69
685.126	7438.94
689.028	10300.8
692.927	15599.4
696.825	21618.9
700.721	25388.5
704.616	22937.2
708.508	17436.5
712.399	11371.8
716.288	7663.08
720.175	5793.42
724.06	4434.82
727.944	3921.28
731.825	3732.82
735.705	3843.45
739.584	4277.19
743.46	4628.04
747.334	4795.01
751.207	4526.13
755.078	4411.4
758.947	3423.83
762.815	2389.44
766.68	1690.23
770.544	1217.22
774.406	857.412
778.267	457.824
782.125	483.461
785.982	271.341
789.837	287.488
793.69	202.928
797.542	204.765
801.391	207.154
805.239	139.33
809.085	38.364
812.93	48.67
816.772	208.202
820.613	583.1
824.452	847.97
828.29	669.728
832.125	549.19
835.959	205.162
839.791	32.454
843.621	108.914
847.45	216.598
851.277	250.625
855.102	42.989
858.925	220.883
862.746	263.346
866.566	191.328
870.384	170.846
874.2	131.864
878.015	123.292
881.828	293.149
885.639	404.436
889.448	822.16
893.256	1086.29
897.061	1526.87
900.865	2123.96
904.668	2620.51
908.468	3018.47
912.267	2978.89
916.064	2757.75
919.86	2263
923.653	1651.58
927.445	1324.5
931.236	1029.74
935.024	831.302
938.811	888.158
942.596	1049.3
946.379	945.725
950.161	1399.42
953.94	1568.38
957.719	1494.6
961.495	1318.59
965.27	1089.4
969.043	856.293
972.814	597.379
976.583	632.646
980.351	579.08
984.117	718.667
987.882	585.395
991.644	595.15
995.405	708.069
999.165	1042.57
1002.92	1474.2
1006.68	1018.46
1010.43	979.451
1014.18	1086.44
1017.93	1194.66
1021.68	1363.88
1025.43	1388.99
1029.18	1029.5
1032.92	852.24
1036.66	676.68
1040.4	592.367
1044.14	633.766
1047.88	890.705
1051.62	986.985
1055.35	1230.01
1059.08	1501.65
1062.81	1652.13
1066.54	1762.63
1070.27	1855.27
1073.99	1946.21
1077.72	2018.34
1081.44	2169.68
1085.16	2212.49
1088.88	2151.18
1092.59	2091.36
1096.31	2248.38
1100.02	2465.26
1103.73	2794.98
1107.44	2861.55
1111.15	3334.97
1114.86	3373.28
1118.57	3244.42
1122.27	3143.37
1125.97	2675.13
1129.67	1926.68
1133.37	1565.02
1137.07	1156.14
1140.76	617.043
1144.45	352.877
1148.15	153.799
1151.84	15.184
1155.53	70.236
1159.21	110.88
1162.9	35.304
1166.58	47.557
1170.26	7.933
1173.94	15.288
1177.62	25.006
1181.3	11.858
1184.97	51.206
1188.65	118.092
1192.32	4.315
1195.99	24.482
1199.66	28.046
1203.33	50.629
1206.99	0.232
1210.65	13.835
1214.32	51.38
1217.98	72.233
1221.64	81.748
1225.29	91.781
1228.95	186.482
1232.6	189.884
1236.26	372.958
1239.91	301.739
1243.56	347.222
1247.2	394.408
1250.85	319.293
1254.49	402.875
1258.13	285.229
1261.78	284.268
1265.41	452.1
1269.05	566.553
1272.69	585.544
1276.32	561.222
1279.95	515.588
1283.59	410.657
1287.21	319.431
1290.84	317.907
1294.47	495.087
1298.09	399.441
1301.72	503.99
1305.34	451.776
1308.96	624.552
1312.58	559.51
1316.19	648.638
1319.81	444.339
1323.42	462.845
1327.03	434.635
1330.64	253.871
1334.25	128.368
1337.86	126.556
1341.46	118.69
1345.07	129.771
1348.67	166.15
1352.27	219.781
1355.87	587.741
1359.46	164.805
1363.06	84.996
1366.65	143.233
1370.25	172.622
1373.84	85.17
1377.43	217.394
1381.02	226.646
1384.6	209.027
1388.18	194.856
1391.77	221.206
1395.35	181.072
1398.93	53.446
1402.51	93.33
1406.08	77.72
1409.66	108.611
1413.23	110.016
1416.8	48.466
1420.37	81.587
1423.94	107.231
1427.51	134.047
1431.08	312.896
1434.64	338.676
1438.2	664.433
1441.76	805.374
1445.32	1080.27
1448.88	1220.1
1452.43	1469.06
1455.99	1589.04
1459.54	1524.01
1463.09	1185.86
1466.64	964.899
1470.19	774.652
1473.74	600.677
1477.28	540.192
1480.83	413.26
1484.37	573.938
1487.91	409.18
1491.45	214.983
1494.98	233.519
1498.52	112.075
1502.05	113.86
1505.59	25.984
1509.12	88.849
1512.65	50.902
1516.17	45.309
1519.7	2.761
1523.23	17.263
