Measurement: Raman, 514 nm, ccw, Raman Data Processed
Mineral: Muscovite
Rruff sample: R050188
Ideal chemistry: KAl_2_(Si_3_Al)O_10_(OH)_2_
Locality: Sapinero, near Blue Mesa Reservoir, Gunnison County, Colorado, USA
Source: Dave Bunk Minerals
Description: Black pseudohexagonal crystal, polytype 2M1, associated with quartz
Measured chemistry: (K_0.91_Na_0.09_)(Al_0.86_Fe^3+^_0.06_Fe^2+^_0.04_Mg_0.03_Ti_0.01_)_2_(Si_0.78_Al_0.22_)_4_O_10_(OH)_2_
Pin_id: L00088
Orientation: Laser parallel to c* (0 0 1). Fiducial mark perpendicular to laser is parallel to -a [-1 0 0]
Raman shift (cm-1)	intensity
131.615	0
135.777	58.491
139.937	131.162
144.094	25.453
148.25	106.171
152.403	174.621
156.555	285.866
160.705	578.473
164.853	882.261
168.998	1098.95
173.142	1522.4
177.284	2556.78
181.424	4303.76
185.562	6697.79
189.698	8467.92
193.831	9178.29
197.963	8047.2
202.093	6128.95
206.221	5071.54
210.347	3717.93
214.472	3042.05
218.594	2544.74
222.714	1940.3
226.832	1485.23
230.948	1446.8
235.063	1751.86
239.175	2621.2
243.286	4468.67
247.394	7742.01
251.501	13427.9
255.605	22071.3
259.708	29447.4
263.808	27721.6
267.907	19064.2
272.004	11378.7
276.099	6228.95
280.192	3694.74
284.283	2239.07
288.372	1520.93
292.459	1026.33
296.544	702.179
300.627	596.186
304.709	402.843
308.788	370.489
312.865	407.42
316.941	181.253
321.015	87.729
325.086	37.565
329.156	67.133
333.224	111.301
337.29	143.677
341.354	88.074
345.416	35.817
349.476	251.61
353.534	620.464
357.591	884.958
361.645	1111.29
365.698	1628.24
369.748	2114.02
373.797	2377.41
377.844	2549.33
381.889	2634.33
385.932	2745.55
389.973	2995.41
394.012	3434.68
398.049	4217.79
402.084	4819.54
406.118	5610.69
410.15	5960.38
414.179	5685.19
418.207	5085.34
422.233	4294.35
426.257	3564.66
430.279	3236.43
434.299	2472.82
438.318	1788.84
442.334	1341.48
446.349	1003.75
450.361	723.651
454.372	515.657
458.381	423.348
462.388	463.166
466.394	375.649
470.397	350.8
474.398	375.576
478.398	304.943
482.396	297.789
486.391	325.372
490.385	215.017
494.377	123.068
498.368	94.958
502.356	12.631
506.342	61.6
510.327	35.386
514.31	0.407
518.291	138.01
522.27	46.847
526.247	56.099
530.222	59.849
534.196	11.073
538.167	24.266
542.137	9.711
546.105	52.885
550.071	12.891
554.035	39.49
557.998	82.12
561.958	44.754
565.917	151.822
569.874	133.99
573.829	83.758
577.782	180.137
581.733	301.934
585.683	336.836
589.63	443.183
593.576	541.204
597.52	708.903
601.462	985.288
605.402	1048.36
609.341	1174.13
613.277	1306.6
617.212	1675.78
621.145	2012.67
625.076	2295.27
629.006	2597.5
632.933	2625.07
636.859	2442.58
640.783	2602.81
644.705	2453.8
648.625	2413.68
652.543	2283.84
656.46	2381.75
660.375	2382.54
664.288	2238.12
668.199	2319.36
672.108	2542.26
676.016	2953.72
679.921	3624.41
683.825	4696.07
687.727	6492.21
691.628	9286.08
695.526	13249.2
699.423	16053.8
703.318	15940.5
707.211	12267.1
711.102	7887.92
714.992	5139.18
718.879	3466.84
722.765	2734.17
726.649	2329.13
730.532	2372.45
734.412	2452.82
738.291	3034.88
742.168	3409.94
746.043	4068.19
749.916	3943.46
753.788	3513.77
757.658	3007.12
761.526	2406.52
765.392	1646.98
769.257	1104.5
773.119	732.089
776.98	642.758
780.839	440.513
784.697	319.358
788.552	484.045
792.406	410.327
796.258	393.559
800.108	173.876
803.957	160.327
807.804	145.94
811.649	12.699
815.492	12.534
819.333	80.571
823.173	65.647
827.011	20.626
830.847	17.587
834.681	36.961
838.514	44.403
842.345	137.228
846.174	61.026
850.001	10.02
853.827	118.355
857.651	99.328
861.473	284.646
865.293	375.506
869.112	358.747
872.928	427.297
876.744	445.242
880.557	506.456
884.369	375.976
888.178	411.759
891.987	515.811
895.793	633.097
899.598	827.688
903.401	914.672
907.202	877.787
911.001	883.336
914.799	885.156
918.595	732.218
922.389	667.494
926.182	549.959
929.972	372.673
933.761	258.592
937.549	288.679
941.334	334.934
945.118	312.343
948.9	433.901
952.681	598.606
956.459	706.458
960.236	504.447
964.012	410.3
967.785	529.166
971.557	496.193
975.327	615.482
979.095	665.275
982.862	663.94
986.627	851.513
990.39	1053.42
994.152	996.383
997.912	1214.12
1001.67	1714.66
1005.43	1532.41
1009.18	1524.2
1012.93	1800.4
1016.68	1846.15
1020.43	1995.8
1024.18	2134.43
1027.93	2136.08
1031.67	2120.88
1035.42	2128.08
1039.16	2260.94
1042.9	2591.79
1046.63	3049.01
1050.37	3850.94
1054.11	4457.84
1057.84	4941.48
1061.57	5165.31
1065.3	5372.8
1069.03	5278.81
1072.75	4924.55
1076.47	4871.19
1080.2	4706.86
1083.92	4174.33
1087.64	3677.57
1091.36	3254.79
1095.07	2673.9
1098.79	2399.86
1102.5	2043.71
1106.21	1772.45
1109.92	1598.06
1113.62	1621.56
1117.33	1508.01
1121.04	1334.41
1124.74	1263.79
1128.44	964.072
1132.14	712.221
1135.83	460.222
1139.53	368.158
1143.22	89.015
1146.92	106.724
1150.61	6.714
1154.3	25.511
1157.98	22.276
1161.67	5.694
1165.35	5.807
1169.04	19.604
1172.72	65.953
1176.4	153.975
1180.07	73.598
1183.75	17.159
1187.42	14.704
1191.1	7.228
1194.77	105.56
1198.44	74.069
1202.1	93.673
1205.77	67.047
1209.43	90.669
1213.1	15.167
1216.76	130.737
1220.42	105.084
1224.07	95.804
1227.73	114.895
1231.38	118.392
1235.04	318.689
1238.69	329.787
1242.34	313.691
1245.99	203.394
1249.63	317.889
1253.28	317.179
1256.92	393.26
1260.56	478.128
1264.2	509.783
1267.84	542.22
1271.48	576.438
1275.11	697.44
1278.74	682.232
1282.38	731.817
1286.01	818.203
1289.63	938.32
1293.26	1101.98
1296.89	1314.18
1300.51	1602.15
1304.13	1749.21
1307.75	1625.52
1311.37	1545.65
1314.99	1201.23
1318.6	970.43
1322.22	858.271
1325.83	644.073
1329.44	526.665
1333.05	396.093
1336.66	248.43
1340.26	182.578
1343.87	158.203
1347.47	254.251
1351.07	181.382
1354.67	245.714
1358.27	247.998
1361.86	173.039
1365.46	336.746
1369.05	277.243
1372.64	390.725
1376.23	257.424
1379.82	151.219
1383.41	154.199
1386.99	160.457
1390.57	151.649
1394.16	135.555
1397.74	171.171
1401.32	164.5
1404.89	250.542
1408.47	183.296
1412.04	285.773
1415.61	592.372
1419.18	720.183
1422.75	686.112
1426.32	929.462
1429.89	1258.1
1433.45	1927.01
1437.01	3008.6
1440.58	3370.99
1444.13	3508
1447.69	3190.06
1451.25	2905.57
1454.81	2758.13
1458.36	2713.84
1461.91	2419.82
1465.46	1950.17
1469.01	1526.04
1472.56	1283.59
1476.1	896.896
1479.64	743.044
1483.19	528.089
1486.73	399.011
1490.27	367.914
1493.81	326.022
1497.34	225.642
1500.88	83.923
1504.41	56.663
1507.94	38.881
1511.47	113.511
1515	139.612
1518.53	94.626
1522.05	135.128
1525.57	0
