Measurement: Raman, 514 nm, ccw, Raman Data Processed
Mineral: Natrolite
Rruff sample: R040112
Ideal chemistry: Na_2_(Si_3_Al_2_)O_10_2H_2_O
Locality: Ice River Alkaline Complex, Moose Creek Valley, Yoho National Park, British Columbia, Canada
Source: National Museums of Canada
Description: Colorless pseudohexagonal prism
Measured chemistry: Na_2.00_(Si_3.00_Al_2.00_)O_10_Â·2H_2_O
Pin_id: L00277
Orientation: Laser parallel to -a* (-1 0 0). Fiducial mark perpendicular to laser is parallel to b [0 1 0]
Raman shift (cm-1)	intensity
92.678	0
96.858	23.146
101.036	173.716
105.212	1349.82
109.387	3142.76
113.559	1232.66
117.729	2914.09
121.897	8261.67
126.063	14664.7
130.228	5553.71
134.39	6917.91
138.55	8255.23
142.709	11610.3
146.865	13701.8
151.019	5331.18
155.171	6388.94
159.322	16125.1
163.47	26969
167.617	15099.3
171.761	5849.12
175.904	2676.97
180.044	1588.8
184.183	1129.88
188.319	549.46
192.454	349.823
196.586	630.055
200.717	1429.72
204.846	3637.34
208.972	4921.44
213.097	2161.93
217.22	1583.81
221.341	2481.84
225.46	1187.7
229.577	22.756
233.692	255.627
237.805	14.55
241.916	874.499
246.025	367.604
250.132	71.15
254.237	197.774
258.34	270.796
262.442	148.813
266.541	69.189
270.639	654.301
274.734	2110.18
278.828	2067.42
282.919	645.359
287.009	163.53
291.097	231.654
295.183	389.512
299.266	436.876
303.348	863.428
307.428	2229.08
311.507	833.857
315.583	147.782
319.657	280.789
323.729	822.952
327.8	714.091
331.868	373.506
335.935	301.983
339.999	288.13
344.062	641.404
348.123	863.412
352.182	1164.84
356.239	2385.85
360.294	3936.31
364.347	2466.14
368.398	805.307
372.448	213.631
376.495	68.917
380.54	27.189
384.584	51.965
388.626	64.578
392.666	92.416
396.704	87.266
400.74	80.632
404.774	357.541
408.806	1052.76
412.836	1836.64
416.865	1796.01
420.891	1292.68
424.916	883.948
428.939	1373.1
432.959	2124.44
436.978	5045.85
440.996	14835.6
445.011	14894.7
449.024	5353.16
453.036	2251.01
457.045	1368.02
461.053	1345.66
465.059	1301.52
469.063	1456.65
473.065	1821.12
477.065	3329.39
481.063	4969.57
485.06	5765.07
489.054	4606.88
493.047	3436.55
497.038	2881.05
501.027	2806.55
505.014	2675.26
508.999	3144.74
512.982	4167.42
516.964	5221.78
520.944	6102.05
524.921	7924.69
528.897	16711
532.871	36490.1
536.844	33931
540.814	14470.4
544.783	6325.52
548.749	3529.58
552.714	2033.55
556.677	1302.4
560.638	806.209
564.597	457.85
568.555	569.303
572.511	450.869
576.464	342.43
580.416	54.252
584.366	1246.35
588.315	338.533
592.261	120.951
596.206	232.6
600.148	204.277
604.089	535.178
608.028	349.434
611.965	171.904
615.901	25.398
619.834	233.521
623.766	400.408
627.696	964.449
631.624	233.957
635.551	56.609
639.475	126.037
643.398	362.521
647.318	473.764
651.237	122.447
655.155	261.055
659.07	139.592
662.984	198.027
666.895	46.326
670.805	155.744
674.713	35.773
678.62	28.689
682.524	218.205
686.427	264.953
690.328	371.678
694.227	568.646
698.124	1116.07
702.02	1484.12
705.913	1402.83
709.805	1041.95
713.695	961.578
717.584	1421.64
721.47	1811.93
725.355	2212.27
729.238	2202.65
733.119	1242.81
736.998	781.674
740.876	371.125
744.752	161.051
748.626	4.822
752.498	54.953
756.368	114.477
760.237	73.953
764.104	63.754
767.969	74.029
771.832	164.811
775.693	75.012
779.553	114.926
783.411	154.916
787.267	75.061
791.122	5.621
794.974	85.75
798.825	271.455
802.674	231.625
806.522	71.682
810.367	142.074
814.211	262.555
818.053	412.824
821.893	302.496
825.732	418.801
829.568	310.678
833.403	709.281
837.236	176.941
841.068	558.301
844.898	630.316
848.726	632.664
852.552	565.318
856.376	388.252
860.199	721.414
864.02	754.809
867.839	748.545
871.656	682.588
875.472	146.867
879.286	281.424
883.098	166.295
886.909	451.383
890.717	416.693
894.524	362.219
898.33	413.777
902.133	951.248
905.935	612.334
909.735	425.752
913.533	858.4
917.33	674.391
921.124	339.309
924.918	358.654
928.709	273.383
932.499	547.266
936.286	671.064
940.073	786.617
943.857	514.414
947.64	559.955
951.421	564.553
955.2	671.207
958.978	770.459
962.753	959.867
966.527	1069.41
970.3	989.102
974.071	1549.06
977.84	2419.22
981.607	1697.11
985.372	1462.18
989.136	1260.45
992.898	1143.11
996.659	1489.56
1000.42	1901.8
1004.17	2952.21
1007.93	2610.23
1011.68	2594.58
1015.43	1970.16
1019.18	1883.12
1022.93	1852.16
1026.68	2318.35
1030.42	2856.39
1034.17	5622.61
1037.91	12709.7
1041.65	16134.4
1045.39	7230.4
1049.12	3451.72
1052.86	2428.84
1056.59	1636.65
1060.33	1611.94
1064.06	1528.1
1067.78	1072.96
1071.51	1338.14
1075.23	1313.08
1078.96	1734.35
1082.68	2418.14
1086.4	2111.74
1090.12	1714.66
1093.83	1037.11
1097.55	599.146
1101.26	680.82
1104.97	713.602
1108.68	514.461
1112.39	484.156
1116.1	323.34
1119.8	84.088
1123.5	690.803
1127.2	319.453
1130.9	258.525
1134.6	527.717
1138.3	56.867
1141.99	455.949
1145.69	144.924
1149.38	96.107
1153.07	57.461
1156.76	21.066
1160.44	30.277
1164.13	318.271
1167.81	236.832
1171.49	215.514
1175.17	54.359
1178.85	43.23
1182.52	42.369
1186.2	271.945
1189.87	192.068
1193.54	362.881
1197.21	354.389
1200.88	347.314
1204.55	471.598
1208.21	245.209
1211.88	443.619
1215.54	392.729
1219.2	253.861
1222.86	602.91
1226.51	528.223
1230.17	468.598
1233.82	635.855
1237.47	551.754
1241.12	696.408
1244.77	402.527
1248.42	354.006
1252.06	547.914
1255.71	652.982
1259.35	245.949
1262.99	482.678
1266.63	235.156
1270.26	25.383
