Measurement: Raman, 514 nm, ccw, Raman Data Processed
Mineral: Natrolite
Rruff sample: R060561
Ideal chemistry: Na_2_(Si_3_Al_2_)O_10_2H_2_O
Locality: California, USA
Source: Gemological Institute of America
Description: White fragment
Measured chemistry: Na_2.00_(Si_3.00_Al_2.00_)O_10_Â·2H_2_O
Pin_id: L00669
Orientation: Laser parallel to c* (0 0 1). Fiducial mark perpendicular to laser is parallel to a [1 0 0]
Raman shift (cm-1)	intensity
82.292	0
87.236	190.991
92.178	357.741
97.118	27.0607
102.055	31.668
106.989	359.149
111.921	1671.7
116.851	3509.43
121.778	7990.52
126.703	7182.23
131.625	6313.86
136.545	8037.47
141.462	9804.78
146.377	13085.9
151.29	12843.3
156.2	20788.4
161.107	32470.7
166.012	37057.4
170.915	21263.4
175.815	13393.4
180.713	10018.5
185.608	9693.88
190.5	8521.76
195.391	7510.43
200.278	8546.22
205.164	10079.8
210.046	10942
214.927	7739.85
219.805	5838.25
224.68	4364.22
229.553	3556.07
234.423	3393.13
239.291	3762.77
244.157	3851.41
249.019	2796.93
253.88	2281
258.738	2364.96
263.593	2528.23
268.446	2837.7
273.297	3237.43
278.145	2862.18
282.991	2073.26
287.834	1880.99
292.674	1840.72
297.512	1923.81
302.348	2408.13
307.181	3552.61
312.012	1865.26
316.84	1175.1
321.665	1071.12
326.488	1154.12
331.309	1360.26
336.127	1027.84
340.943	815.623
345.756	859.265
350.567	1438.81
355.375	2626.26
360.18	3376.45
364.983	2141.43
369.784	487.278
374.582	193.731
379.378	154.885
384.171	152.79
388.961	187.195
393.75	92.3584
398.535	299.338
403.318	20.3965
408.099	196.904
412.877	427.821
417.652	484.335
422.425	1002.39
427.196	2722.91
431.964	6172.85
436.729	10526.2
441.492	15699.8
446.253	20767.6
451.01	15190.4
455.766	5177.84
460.519	1676.52
465.269	615.296
470.017	595.266
474.762	799.417
479.505	1400.84
484.245	2628.53
488.983	4595.88
493.718	6552.3
498.451	6347.37
503.181	4717.32
507.909	3987.19
512.634	4262.22
517.356	5491.86
522.077	10173.1
526.794	22273.2
531.509	38826.9
536.221	35405
540.931	14419.4
545.639	6056.42
550.344	3113.01
555.046	1801.03
559.746	1122.5
564.443	742.686
569.138	453.174
573.83	461.365
578.52	158.198
583.207	229.641
587.891	216.629
592.573	101.024
597.253	46.7022
601.93	186.414
606.604	158.14
611.276	80.4893
615.945	76.5478
620.612	70.084
625.276	80.9629
629.938	47.8555
634.597	21.6357
639.254	116.843
643.908	2.69727
648.559	65.7129
653.208	58.5527
657.855	180.626
662.499	162.225
667.14	173.855
671.779	189.498
676.415	263.229
681.049	356.644
685.68	734.346
690.308	1052.92
694.934	1355.18
699.558	2073.25
704.179	2394.39
708.797	2223.15
713.413	2026.8
718.026	2596.93
722.637	2991.58
727.245	3438.46
731.85	2315.97
736.453	1383.67
741.054	704.711
745.652	516.285
750.247	248.92
754.84	279.621
759.43	10.6699
764.017	98.1621
768.602	197.615
773.185	226.512
777.765	187.217
782.342	114.769
786.917	11.834
791.489	198.779
796.059	43.375
800.626	193.863
805.191	128.236
809.753	316.412
814.312	269.109
818.869	273.432
823.423	299.397
827.975	26.3926
832.524	140.353
837.07	210.699
841.614	263.469
846.156	276.678
850.695	252.332
855.231	144.44
859.765	127.984
864.296	216.992
868.824	196.551
873.35	305.709
877.874	274.6
882.395	50.1582
886.913	141.883
891.428	228.336
895.942	322.406
900.452	129.678
904.96	52.6445
909.465	93.3613
913.968	33.1035
918.468	198.961
922.966	60.6875
927.461	40.3223
931.953	126.631
936.443	116.217
940.931	66.2148
945.415	122.377
949.897	15.3223
954.377	281.158
958.854	636.217
963.328	1480.92
967.8	2373.07
972.269	1976.58
976.736	578.197
981.2	482.615
985.661	535.551
990.12	1381.1
994.576	1110.75
999.03	1127.96
1003.48	1094.93
1007.93	1229.71
1012.38	1961.85
1016.82	3448.84
1021.26	9488.19
1025.7	16290.4
1030.13	9328.63
1034.57	3719.32
1039	2402.79
1043.42	2666.4
1047.85	3836.91
1052.27	3910.3
1056.69	2733.57
1061.11	2887.83
1065.53	2950.59
1069.94	3506.73
1074.35	2878.57
1078.75	2111.94
1083.16	1959.14
1087.56	2253.96
1091.96	2447.85
1096.36	1475.86
1100.75	914.092
1105.14	557.424
1109.53	282.231
1113.92	247.492
1118.3	270.094
1122.68	167.787
1127.06	276.1
1131.44	196.988
1135.81	129.955
1140.18	53.0059
1144.55	44.8809
1148.91	9.74219
1153.28	23.5508
1157.64	72.5273
1161.99	79.3262
1166.35	97.6992
1170.7	2.16992
1175.05	67.5
1179.4	1.75781
1183.74	63.959
1188.09	166.859
1192.42	118.127
1196.76	63.4277
1201.1	224.656
1205.43	288.361
1209.76	211.127
1214.08	62.2148
1218.41	135.084
1222.73	225.773
1227.05	265.168
1231.36	120.158
1235.68	102.107
1239.99	7.89258
1244.3	240.461
1248.6	278.961
1252.9	252.414
1257.2	277.787
1261.5	55.0098
1265.8	229.182
1270.09	175.307
1274.38	227.701
1278.67	180.385
1282.95	163.201
1287.23	193.053
1291.51	303.574
1295.79	54.1797
1300.06	114.611
1304.34	80.1797
1308.61	184.385
1312.87	9.33203
1317.13	187.693
1321.4	387.728
1325.65	618.394
1329.91	200.551
1334.16	5.01367
1338.41	296.957
1342.66	140.627
1346.91	168.871
1351.15	10.502
1355.39	120.539
1359.63	243.9
1363.87	228.754
1368.1	23.5293
1372.33	182.678
1376.56	312.633
1380.78	150.523
1385	89.8731
1389.22	333.711
1393.44	212.002
1397.65	271.799
1401.86	345.611
1406.07	172.58
1410.28	12.4746
1414.48	98.5527
1418.68	132.654
1422.88	190.893
1427.08	304.168
1431.27	178.135
1435.46	169.732
1439.65	312.264
1443.84	172.377
1448.02	145.494
1452.2	395.293
1456.38	211.201
1460.55	223.869
1464.72	222.123
1468.89	189.344
1473.06	195.477
1477.22	159.916
1481.39	332.402
1485.55	196.082
1489.7	198.789
1493.86	152.178
1498.01	262.881
1502.16	181.856
1506.3	122.519
1510.44	170.103
1514.59	280.51
1518.72	92.082
1522.86	108.603
1526.99	228.244
1531.12	102.197
1535.25	350.498
1539.38	239.357
1543.5	293.24
1547.62	340.197
1551.74	133.447
1555.85	412.873
1559.96	145.91
1564.07	19.5352
1568.18	137.394
1572.28	1.11523
1576.38	269.539
