Measurement: Raman, 514 nm, ccw, Raman Data Processed
Mineral: Natrolite
Rruff sample: R040102
Ideal chemistry: Na_2_(Si_3_Al_2_)O_10_2H_2_O
Locality: Ross' Quarry, Northland, New Zealand
Source: University of Arizona Mineral Museum
Description: Mass of colorless acicular crystals
Measured chemistry: (Na_0.92_Ca_0.02_)_2_(Si_3.03_Al_1.99_)O_10_Â·2H_2_O
Pin_id: M00475
Orientation: Laser parallel to -a* (-1 0 0). Fiducial mark perpendicular to laser is parallel to b [0 1 0]
Raman shift (cm-1)	intensity
88.907	0
93.072	172.861
97.236	283.938
101.397	522.169
105.557	691.501
109.715	1269
113.871	1382.99
118.025	2269.93
122.178	2509.03
126.329	2571.13
130.478	1926.7
134.625	2781.26
138.77	5062
142.914	7569.34
147.056	6517.43
151.196	3662.46
155.334	3892.51
159.471	6585.11
163.606	9717.35
167.739	7417.03
171.87	3936.9
175.999	2535.21
180.127	1797.43
184.253	1335.37
188.377	1158.03
192.5	1131.28
196.62	1436.5
200.739	1416.11
204.856	1574.16
208.972	1670
213.085	972.594
217.197	524.895
221.307	260.656
225.416	88.817
229.522	32.398
233.627	32.052
237.73	535.024
241.832	851.109
245.931	412.664
250.029	123.905
254.125	236.034
258.22	176.689
262.312	188.571
266.403	145.444
270.492	69.127
274.58	23.006
278.665	31.367
282.749	33.594
286.831	169.834
290.912	240.32
294.99	372.015
299.067	735.723
303.143	1744.25
307.216	2724.66
311.288	1485.07
315.358	531.576
319.426	307.25
323.493	351.896
327.558	433.309
331.621	645.075
335.682	842.564
339.742	1079.04
343.8	1293.1
347.856	1497.66
351.911	1716.4
355.964	1990.73
360.015	2383.8
364.064	1935.61
368.112	992.159
372.158	461.392
376.202	154.35
380.245	113.017
384.285	91.913
388.324	97.798
392.362	148.341
396.398	192.675
400.432	357.881
404.464	622.568
408.494	1134.97
412.523	1951.87
416.55	2390.82
420.576	1828.96
424.6	1477.02
428.622	1646.42
432.642	2514.22
436.661	4915.34
440.678	8988.31
444.693	9502.03
448.707	5610.21
452.718	2980.06
456.729	1631.77
460.737	1107.53
464.744	952.106
468.749	842.583
472.753	900.747
476.754	935.763
480.754	1066.55
484.753	1515.33
488.75	1618.41
492.745	1839.2
496.738	2126.44
500.73	2463.98
504.72	3188.35
508.708	3838.68
512.694	4745.65
516.679	5777.49
520.663	7298.27
524.644	10569
528.624	19369.7
532.603	33450.3
536.579	30618.6
540.554	14655
544.527	6770.16
548.499	3605.3
552.469	2291.25
556.437	1541.73
560.404	1101.41
564.369	946.443
568.332	600.19
572.293	533.015
576.253	519.298
580.212	258.301
584.168	282.974
588.123	154.244
592.077	168.139
596.028	220.749
599.978	249.035
603.927	148.724
607.873	63.711
611.818	87.438
615.762	68.752
619.704	10.541
623.644	9.736
627.582	52.806
631.519	108.605
635.454	57.067
639.388	0.881
643.32	54.117
647.25	1.783
651.178	16.411
655.105	31.017
659.031	39.179
662.954	13.227
666.876	7.664
670.797	83.974
674.716	164.34
678.633	155.682
682.548	304.219
686.462	484.161
690.374	610.964
694.285	807.465
698.194	1021.11
702.101	1274.38
706.007	1370.7
709.911	1285.05
713.814	962.57
717.715	754.132
721.614	729.635
725.512	716.691
729.408	744.412
733.302	431.079
737.195	243.057
741.086	108.31
744.975	2.419
748.863	53.67
752.75	21.799
756.634	26.92
760.518	7.944
764.399	40.709
768.279	11.06
772.157	73.773
776.034	69.614
779.909	12.848
783.782	58.849
787.654	6.22
791.524	77.312
795.393	117.03
799.26	150.201
803.125	3.37
806.989	26.005
810.851	141.443
814.712	148.417
818.571	100.484
822.429	44.81
826.284	27.967
830.139	211.03
833.991	67.877
837.842	73.565
841.692	77.092
845.54	9.362
849.386	57.403
853.231	132.277
857.074	142.994
860.915	222.558
864.755	145.968
868.594	69.227
872.43	132.34
876.266	150.297
880.099	178.091
883.931	210.733
887.762	7.764
891.591	41.542
895.418	62.23
899.244	83.239
903.068	61.309
906.89	36.873
910.711	116.97
914.531	417.371
918.349	12.019
922.165	10
925.98	64.795
929.793	72.524
933.604	27.717
937.414	128.087
941.223	57.662
945.03	123.804
948.835	89.803
952.639	137.855
956.441	128.484
960.242	155.912
964.041	192.231
967.838	391.536
971.634	432.488
975.429	517.214
979.222	703.021
983.013	433.144
986.803	393.037
990.591	375.856
994.377	445.14
998.163	564.884
1001.95	675.02
1005.73	753.74
1009.51	886.664
1013.29	755.606
1017.07	750.375
1020.84	894.437
1024.62	943.431
1028.39	1172.09
1032.16	1411.33
1035.93	2173.3
1039.7	3648.64
1043.46	4352.56
1047.23	2610.33
1050.99	1363.94
1054.75	987.507
1058.51	760.984
1062.27	679.535
1066.03	677.874
1069.79	684.657
1073.54	775.081
1077.29	851.439
1081.04	907.336
1084.79	1032.65
1088.54	964.078
1092.29	897.743
1096.03	810.785
1099.78	669.705
1103.52	745.363
1107.26	833.492
1111	714.636
1114.74	639.207
1118.47	521.827
1122.21	420.463
1125.94	483.322
1129.67	476.783
1133.4	474.347
1137.13	318.969
1140.86	296.378
1144.58	203.043
1148.31	115.168
1152.03	190.697
1155.75	202.275
1159.47	158.872
1163.18	185.368
1166.9	158.685
1170.62	27.22
1174.33	51.733
1178.04	30.103
1181.75	41.774
1185.46	27.654
1189.17	47.628
1192.87	94.948
1196.58	74.885
1200.28	8.873
1203.98	42.85
1207.68	23.584
1211.38	54.153
1215.08	53.488
1218.77	6.693
1222.46	97.929
1226.16	114.797
1229.85	139.376
1233.54	137.674
1237.22	105.208
1240.91	27.69
1244.6	65.997
1248.28	114.086
1251.96	174.032
1255.64	189.913
1259.32	165.599
1263	180.288
1266.67	75.728
1270.35	78.999
1274.02	64.042
1277.69	97.913
1281.36	89.636
1285.03	120.283
1288.7	262.691
1292.36	184.898
1296.03	19.776
1299.69	172.422
1303.35	119.84
1307.01	11.934
1310.67	82.734
1314.32	129.428
1317.98	69.791
1321.63	212.862
1325.29	248.623
1328.94	148.568
1332.59	184.184
1336.23	31.75
1339.88	29.167
1343.52	119.894
1347.17	135.943
1350.81	232.189
1354.45	278.121
1358.09	198.694
1361.73	235.259
1365.36	253.73
1369	170.663
1372.63	116.557
1376.26	44.791
1379.89	17.501
1383.52	0.059
1387.15	128.058
1390.78	181.923
1394.4	311.703
1398.02	328.917
1401.64	283.425
1405.26	169.294
1408.88	153.308
1412.5	128.861
1416.12	110.755
1419.73	125.127
1423.34	214.966
1426.95	280.723
1430.56	218.942
1434.17	293.721
1437.78	327.302
1441.38	321.836
1444.99	237.206
1448.59	241.173
1452.19	209.592
1455.79	278.058
1459.39	115.953
1462.99	242.557
1466.59	307.812
1470.18	413.68
1473.77	460.999
1477.36	478.919
1480.95	367.91
1484.54	361.582
1488.13	260.098
1491.71	203.251
1495.3	120.948
1498.88	56.572
1502.46	77.84
1506.04	92.961
1509.62	153.243
1513.2	230.774
1516.77	460.806
1520.35	293.633
1523.92	368.789
1527.49	338.36
1531.06	229.267
