Measurement: Raman, 514 nm, ccw, Raman Data Processed
Mineral: Natrolite
Rruff sample: R040112
Ideal chemistry: Na_2_(Si_3_Al_2_)O_10_2H_2_O
Locality: Ice River Alkaline Complex, Moose Creek Valley, Yoho National Park, British Columbia, Canada
Source: National Museums of Canada
Description: Colorless pseudohexagonal prism
Measured chemistry: Na_2.00_(Si_3.00_Al_2.00_)O_10_Â·2H_2_O
Pin_id: L00214
Orientation: Laser parallel to -b* (0 -1 0). Fiducial mark perpendicular to laser is parallel to c [0 0 1]
Raman shift (cm-1)	intensity
52.937	0
57.132	78.12
61.325	153.491
65.515	129.551
69.704	197.798
73.891	121.804
78.076	29.468
82.26	87.792
86.441	67.035
90.62	138.805
94.797	449.057
98.973	1029.15
103.146	2408.96
107.318	7396.39
111.487	25854.8
115.655	18114.8
119.821	39996.2
123.984	22408.7
128.146	6560.1
132.306	6354.4
136.464	12093.7
140.62	18476.8
144.774	11602.8
148.927	4671.44
153.077	5231.7
157.226	11686.1
161.372	17079.3
165.517	10062.4
169.659	4595.38
173.8	2908.38
177.939	3612.38
182.076	5862.43
186.211	3683.51
190.344	2552.65
194.475	3637.85
198.605	5213.11
202.732	9830.44
206.858	12013.8
210.981	7367.34
215.103	6572.96
219.223	4648.76
223.341	2192.32
227.457	1308
231.571	1643.32
235.684	4699.8
239.794	9204.86
243.902	3929.91
248.009	1094.35
252.114	445.897
256.217	470.021
260.318	785.245
264.417	1732.84
268.514	3680.74
272.609	3092.92
276.703	1311.34
280.794	814.969
284.884	1346.8
288.972	1407.81
293.058	1003.99
297.142	1691.33
301.224	5523.81
305.304	11352.3
309.383	4643.9
313.46	1201.46
317.534	521.054
321.607	704.697
325.678	1977.39
329.747	4528.14
333.815	2793.94
337.88	1028.8
341.944	650.713
346.005	504.684
350.065	724.709
354.123	1683.79
358.179	2783.92
362.234	1833.11
366.286	647.35
370.337	46.64
374.386	178.103
378.432	266.318
382.478	212.891
386.521	209.784
390.562	207.726
394.602	90.483
398.639	174.374
402.675	451.307
406.709	1101.4
410.742	2138.73
414.772	2159.33
418.8	1781.09
422.827	1859.95
426.852	2896.9
430.875	5860.93
434.896	15733.1
438.916	40684.3
442.933	35065.7
446.949	12007.3
450.963	4678.07
454.975	2231.07
458.985	1178.32
462.994	785.832
467	662.61
471.005	495.694
475.008	471.06
479.009	561.787
483.009	694.665
487.006	833.507
491.002	1038.45
494.996	1474.48
498.988	2136.58
502.978	2988.74
506.967	4301.96
510.953	5821.25
514.938	7080.59
518.921	8029.99
522.903	9574.44
526.882	16799
530.86	33233.5
534.836	29064.5
538.81	13131.4
542.782	5936.65
546.753	3195.91
550.721	1982.63
554.688	1260.53
558.653	925.118
562.617	661.572
566.578	561.178
570.538	623.935
574.496	564.834
578.452	291.881
582.407	262.073
586.359	364.405
590.31	874.943
594.259	1409.62
598.206	1432.28
602.152	707.656
606.096	367.938
610.038	267.393
613.978	250.886
617.916	143.565
621.853	96.067
625.788	78.442
629.721	71.01
633.652	57.656
637.582	10.162
641.51	51.196
645.436	150.587
649.36	186.903
653.282	180.824
657.203	227.589
661.122	216.234
665.039	289.901
668.955	355.561
672.869	425.435
676.781	532.073
680.691	755.644
684.599	1014.29
688.506	1399.98
692.411	1984.86
696.314	2766.97
700.216	3788.84
704.115	3853.3
708.013	2820.01
711.91	1941.06
715.804	1511.26
719.697	1623.38
723.588	1944.45
727.477	1892.45
731.365	1141.38
735.25	509.09
739.134	232.451
743.017	112.443
746.897	62.712
750.776	11.317
754.653	41.524
758.529	41.151
762.402	55.758
766.274	19.363
770.144	28.323
774.013	64.749
777.88	72.857
781.745	56.495
785.608	6.694
789.47	56.376
793.329	17.826
797.188	11.246
801.044	11.887
804.899	49.258
808.752	87.257
812.603	128.116
816.452	83.837
820.3	107.42
824.146	75.865
827.991	108.167
831.834	160.326
835.675	95.348
839.514	102.229
843.352	74.97
847.187	125.565
851.022	147.015
854.854	173.31
858.685	107.44
862.514	116.402
866.341	153.192
870.167	155.807
873.991	175.248
877.813	135.516
881.634	110.61
885.453	23.534
889.27	36.266
893.086	75.814
896.9	54.186
900.712	52.297
904.522	51.169
908.331	12.001
912.138	41.924
915.944	90.975
919.747	102.05
923.549	46.208
927.35	31.428
931.148	39.576
934.945	99.364
938.741	156.028
942.534	235.337
946.326	327.629
950.117	544.677
953.905	961.194
957.692	2162.97
961.478	5201.11
965.261	7331.24
969.043	3839.36
972.823	1907.51
976.602	1181.49
980.379	758.393
984.154	595.406
987.928	562.433
991.7	739.406
995.47	1423.16
999.239	1627.12
1003.01	750.114
1006.77	657.928
1010.53	573.705
1014.3	518.675
1018.06	470.635
1021.82	544.644
1025.57	706.628
1029.33	1073.62
1033.08	2203.65
1036.83	5623.95
1040.59	6911.48
1044.33	3136.22
1048.08	1437.26
1051.83	944.709
1055.57	705.414
1059.31	638.3
1063.05	618.223
1066.79	688.728
1070.53	831.367
1074.27	1123.13
1078	1639.45
1081.73	2137.42
1085.46	1895.98
1089.19	1350.77
1092.92	960.05
1096.64	626.608
1100.37	433.03
1104.09	301.404
1107.81	251.776
1111.53	216.807
1115.25	203.283
1118.97	208.081
1122.68	145.875
1126.39	120.997
1130.1	73.904
1133.81	53.356
1137.52	94.891
1141.23	95.361
1144.93	116.382
1148.64	137.323
1152.34	44.029
1156.04	43.402
1159.74	35.359
1163.43	53.729
1167.13	44.831
1170.82	68.738
1174.51	67.794
1178.2	60.866
1181.89	70.166
1185.58	5.334
1189.26	0.047
1192.95	15.334
1196.63	10.922
1200.31	50.573
1203.99	57.074
1207.67	76.658
1211.34	0.928
1215.02	0.115
1218.69	0.119
1222.36	13.153
1226.03	36.831
1229.7	51.847
1233.36	79.73
1237.03	71.245
1240.69	60.253
1244.35	2.891
1248.01	17.411
1251.67	32.13
1255.33	5.69
1258.98	68.621
1262.64	49.899
1266.29	76.072
1269.94	49.115
1273.59	54.058
1277.23	6.075
1280.88	22.346
1284.53	27.738
1288.17	9.795
1291.81	34.224
1295.45	92.328
1299.09	64.275
1302.72	72.101
1306.36	39.12
1309.99	12.44
1313.62	37.044
1317.25	0.271
1320.88	29.535
1324.51	28.69
1328.13	89.683
1331.75	87.555
1335.38	82.339
1339	36.981
1342.62	54.152
1346.23	16.453
1349.85	11.189
1353.46	2.96
1357.08	44
1360.69	87.481
1364.3	86.312
1367.9	83.808
1371.51	89.53
1375.12	79.791
1378.72	25.391
1382.32	45.893
1385.92	40.479
1389.52	75.213
1393.12	90.57
1396.71	101.898
1400.31	97.968
1403.9	92.889
1407.49	128.787
1411.08	108.94
1414.67	96.514
1418.25	83.247
1421.84	78.763
1425.42	69.341
1429	38.452
1432.58	92.967
1436.16	89.182
1439.74	74.63
1443.32	126.299
1446.89	103.814
1450.46	120.503
1454.03	89.747
1457.6	60.545
1461.17	115.168
1464.74	83.286
1468.3	43.141
1471.87	36.111
1475.43	50.832
1478.99	45.331
1482.55	91.934
1486.1	122.581
1489.66	74.374
1493.21	59.197
1496.77	27.067
1500.32	0.856
1503.87	1.587
1507.41	2.441
1510.96	19.976
1514.51	32.863
1518.05	48.581
1521.59	51.284
1525.13	61.677
