Measurement: Raman, 514 nm, ccw, Raman Data Processed
Mineral: Natrolite
Rruff sample: R040112
Ideal chemistry: Na_2_(Si_3_Al_2_)O_10_2H_2_O
Locality: Ice River Alkaline Complex, Moose Creek Valley, Yoho National Park, British Columbia, Canada
Source: National Museums of Canada
Description: Colorless pseudohexagonal prism
Measured chemistry: Na_2.00_(Si_3.00_Al_2.00_)O_10_Â·2H_2_O
Pin_id: L00109
Orientation: Laser parallel to -c* (0 0 -1). Fiducial mark perpendicular to laser is parallel to a [1 0 0]
Raman shift (cm-1)	intensity
102.712	0
106.902	2068.82
111.09	951.516
115.277	459.491
119.461	1043.85
123.643	41.463
127.823	122.158
132.001	838.733
136.176	3371.48
140.35	10713.1
144.521	22062.2
148.691	20147.2
152.858	8956.37
157.024	5868.62
161.187	10618.3
165.348	14737
169.507	8075.57
173.664	3449.31
177.819	1451.49
181.971	1059.5
186.122	934.251
190.271	804.484
194.417	1766.81
198.562	3719.53
202.704	7786.98
206.844	15576.4
210.983	13706
215.119	5712.57
219.253	2151.97
223.385	1074.14
227.515	929.668
231.643	1099.78
235.769	2986.19
239.893	9533.73
244.014	8695.72
248.134	2431.82
252.252	711.191
256.367	573.278
260.481	954.814
264.592	1702.39
268.702	3827.39
272.809	4586.06
276.915	1787.77
281.018	281.166
285.119	142.368
289.218	513.138
293.316	752.211
297.411	1498.07
301.504	5324.64
305.595	14012.8
309.684	8382.28
313.771	1886.16
317.856	366.298
321.939	221.63
326.02	119.091
330.099	296.142
334.176	107.513
338.251	111.687
342.323	25.456
346.394	126.969
350.463	799.349
354.53	1589.62
358.594	2073.8
362.657	1634.9
366.718	845.915
370.777	445.854
374.833	23.651
378.888	267.21
382.941	4.441
386.992	250.985
391.04	54.958
395.087	97.249
399.132	140.339
403.174	521.778
407.215	566.665
411.254	656.81
415.29	1391.63
419.325	2647.37
423.358	4296.14
427.389	8509.93
431.417	19451.8
435.444	33913.7
439.469	27905.8
443.492	19247.9
447.512	19580
451.531	15492.4
455.548	6754.9
459.563	2725.53
463.576	1289.22
467.587	1132.31
471.596	973.665
475.603	548.456
479.608	286.185
483.611	583.389
487.612	888.128
491.611	882.427
495.608	673.295
499.603	953.44
503.596	1493.27
507.587	1840.69
511.577	2149.38
515.564	3451.04
519.549	6292.66
523.533	9075.27
527.514	13177.8
531.493	25610.3
535.471	26093.8
539.447	12646.9
543.42	5839.31
547.392	2937.43
551.362	1797.6
555.329	1487.33
559.295	1449.25
563.259	884.151
567.221	374.686
571.181	374.266
575.139	627.917
579.095	621.643
583.049	217.438
587.002	147.288
590.952	471.32
594.9	1113.25
598.847	1552.57
602.792	1564.99
606.734	1116.41
610.675	909.48
614.614	707.587
618.55	326.103
622.485	60.5
626.418	59.072
630.349	477.418
634.279	571.655
638.206	165.796
642.131	76.062
646.055	142.094
649.976	579.246
653.896	567.18
657.814	244.034
661.729	220.508
665.643	671.628
669.555	1101.13
673.465	1085.35
677.373	612.66
681.28	629.639
685.184	1050.81
689.087	1863.71
692.987	2423.95
696.886	2858.52
700.783	4019.96
704.677	5755.62
708.57	5460.56
712.462	3515.59
716.351	2164.85
720.238	1635.99
724.124	2123.03
728.007	2706.16
731.889	2085.14
735.769	946.145
739.647	242.425
743.523	270.402
747.397	621.074
751.269	653.036
755.139	251.59
759.008	138.697
762.875	143.681
766.739	330.655
770.602	531.951
774.463	311.983
778.323	65.656
782.18	121.377
786.035	269.819
789.889	599.028
793.741	425.49
797.591	113.298
801.439	141.759
805.285	89.961
809.129	530.4
812.971	737.538
816.812	467.675
820.651	21.701
824.488	29.384
828.323	377.36
832.156	713
835.987	724.516
839.817	264.951
843.644	31.311
847.47	67.611
851.294	570.833
855.116	818.99
858.936	651.104
862.755	248.14
866.571	62.105
870.386	332.995
874.199	749.794
878.01	828.492
881.82	480.099
885.627	63.577
889.433	32.029
893.236	288.237
897.038	702.49
900.838	752.574
904.637	405.759
908.433	20.569
912.228	50.088
916.021	220.043
919.812	631.582
923.601	692.213
927.388	420.368
931.174	28.283
934.958	31.216
938.739	305.838
942.52	738.089
946.298	829.404
950.074	766.766
953.849	582.56
957.622	915.179
961.393	2269.58
965.162	6111.37
968.93	9257.9
972.696	5685.35
976.459	1942.13
980.222	767.138
983.982	558.927
987.74	1060.08
991.497	1925.29
995.252	3559.12
999.005	2630.54
1002.76	868.817
1006.51	333.429
1010.25	434.314
1014	953.309
1017.74	1488.3
1021.49	1922.14
1025.23	3738.52
1028.96	3058.37
1032.7	1254.5
1036.44	1096.46
1040.17	1252.26
1043.9	1277.05
1047.63	915.319
1051.36	592.506
1055.09	772.717
1058.81	1436.79
1062.54	2773.43
1066.26	4034.45
1069.97	3728.82
1073.69	2506.86
1077.41	1449.1
1081.12	822.458
1084.84	1102.27
1088.55	1749.56
1092.25	2245.16
1095.96	1868.09
1099.67	1144.36
1103.37	586.908
1107.07	327.668
1110.77	469.604
1114.47	869.74
1118.16	1396.12
1121.86	1629.81
1125.55	1174.89
1129.24	571.291
1132.93	138.775
1136.62	35.445
1140.31	353.113
1143.99	852.038
1147.67	1015.79
1151.35	941.285
1155.03	569.563
1158.71	216.684
1162.39	13.244
1166.06	152.938
1169.73	471.4
1173.4	921.389
1177.07	1030.49
1180.74	906.709
1184.4	525.506
1188.07	198.846
1191.73	49.389
1195.39	276.516
1199.05	741.312
1202.7	1056.68
1206.36	1069.46
1210.01	0
