Measurement: Raman, 514 nm, ccw, Raman Data Processed
Mineral: Natrolite
Rruff sample: R060561
Ideal chemistry: Na_2_(Si_3_Al_2_)O_10_2H_2_O
Locality: California, USA
Source: Gemological Institute of America
Description: White fragment
Measured chemistry: Na_2.00_(Si_3.00_Al_2.00_)O_10_Â·2H_2_O
Pin_id: L00681
Orientation: Laser parallel to a* (1 0 0). Fiducial mark perpendicular to laser is parallel to -b [0 -1 0]
Raman shift (cm-1)	intensity
89.708	0
94.648	275.348
99.587	26.7255
104.522	154.032
109.456	851.149
114.387	2253.08
119.315	3588.83
124.241	4860.37
129.164	5830.07
134.085	10470.6
139.004	17188.4
143.92	26632.5
148.834	24952.6
153.745	17785.8
158.654	19403
163.56	26539.5
168.464	21833.9
173.365	13032.5
178.264	9572.62
183.16	8129.38
188.054	8800.5
192.946	9012.31
197.835	12736
202.721	18220.5
207.605	23887.9
212.487	19023
217.366	9406.71
222.243	5575.1
227.117	4470.11
231.988	6141.67
236.857	9393.39
241.724	14655.7
246.588	9217.39
251.45	3768.86
256.309	2907.85
261.166	3936.31
266.02	5235.59
270.872	6936.86
275.721	5286.48
280.568	2441.95
285.412	1843.83
290.254	2208.8
295.094	3855.6
299.93	8485.98
304.765	14226.8
309.597	13450.7
314.426	3713.63
319.253	1138.39
324.077	922.89
328.899	727.095
333.718	679.949
338.535	685.611
343.35	622.09
348.162	1128.9
352.971	1982.69
357.778	2855.44
362.582	2813.98
367.384	1152.99
372.183	147.37
376.98	155.283
381.775	297.422
386.566	373.833
391.356	428.628
396.143	189.762
400.927	39.4004
405.709	456.81
410.488	1106.69
415.265	2234.94
420.039	4491.45
424.811	10534.1
429.58	21620
434.347	35706.8
439.111	39288.6
443.873	35752.3
448.632	32120.8
453.388	14849.2
458.143	4599.27
462.894	1794.04
467.643	797.451
472.39	305.478
477.134	323.362
481.875	465.194
486.614	656.899
491.351	1422.09
496.085	1704.15
500.816	2028.04
505.545	2820.66
510.272	4331.99
514.995	6448.48
519.717	10567.6
524.436	17798.9
529.152	30297.8
533.866	40625.6
538.577	24211.7
543.285	9307.15
547.992	4308.64
552.695	2335.98
557.396	1468.09
562.095	713.906
566.791	546.387
571.484	414.868
576.175	430.137
580.863	330.309
585.549	559.948
590.233	1032.01
594.913	1903.44
599.592	2210.2
604.267	1778.26
608.94	804.7
613.611	395.644
618.279	74.0781
622.945	23.0078
627.608	169.152
632.268	45.5772
636.926	110.349
641.581	3.6416
646.234	20.3506
650.884	1.07617
655.532	557.654
660.177	533.271
664.82	607.972
669.46	715.63
674.097	911.417
678.732	984.513
683.364	1466.17
687.994	2186.82
692.622	3204.49
697.246	4953.64
701.868	6898.26
706.488	7215.32
711.105	4956.86
715.72	3616.74
720.332	3293.02
724.941	3422.65
729.548	3035.67
734.152	1875.95
738.754	959.551
743.353	586.449
747.949	298.918
752.544	275.916
757.135	350.281
761.724	330.389
766.31	114.598
770.894	135.018
775.475	50.209
780.054	65.9785
784.63	114.818
789.203	12.9141
793.774	194.137
798.343	101.812
802.909	279.449
807.472	166.06
812.033	195.914
816.591	236.957
821.146	223.309
825.699	297.941
830.25	256.904
834.798	346.236
839.343	437.949
843.885	244.057
848.426	306.568
852.963	269.498
857.498	204.856
862.031	272.658
866.56	338.92
871.088	342.656
875.612	294.885
880.134	169.623
884.654	261.982
889.171	15.1738
893.685	125.766
898.197	119.137
902.706	31.8047
907.213	41.9902
911.717	122.426
916.218	2.10938
920.717	76.4062
925.214	31.6016
929.707	15.3848
934.199	14.0078
938.687	175.137
943.173	330.08
947.657	571.475
952.137	962.146
956.616	2266.11
961.091	4891.88
965.564	8345.99
970.035	9454.07
974.503	4517.13
978.968	1630.23
983.431	1092.34
987.891	1435.56
992.349	2392.78
996.804	3473.19
1001.26	2300.63
1005.71	1034.22
1010.15	793.959
1014.6	798.83
1019.04	1659.61
1023.48	3997.58
1027.92	4516.16
1032.35	2340.89
1036.78	1579.27
1041.21	1751.07
1045.64	2154.36
1050.06	3071
1054.48	2894.49
1058.9	2270.35
1063.32	2250.55
1067.73	2749.89
1072.14	3257.2
1076.55	2622.71
1080.96	2501.47
1085.36	2871.47
1089.76	3042.71
1094.16	2587.03
1098.55	1532.72
1102.95	805.615
1107.34	477.662
1111.72	408.162
1116.11	534.51
1120.49	677.019
1124.87	537.713
1129.25	623.609
1133.62	325.641
1137.99	216.703
1142.36	203.568
1146.73	194.324
1151.1	193.041
1155.46	438.602
1159.82	112.051
1164.17	114.156
1168.53	46.1992
1172.88	40.6836
1177.22	54.4199
1181.57	19.666
1185.91	9.53516
1190.26	64.2227
1194.59	12.9785
1198.93	103.842
1203.26	228.705
1207.59	143.426
1211.92	38.1973
1216.24	218.549
1220.57	6.7207
1224.89	41.3633
1229.2	305.99
1233.52	267.644
1237.83	70.2148
1242.14	79.6406
1246.45	158.938
1250.75	217.023
1255.05	89.0352
1259.35	131.863
1263.65	169.707
1267.94	28.6348
1272.23	201.969
1276.52	171.463
1280.81	161.74
1285.09	86.4277
1289.37	19.3789
1293.65	231.238
1297.93	52.2168
1302.2	165.125
1306.47	285.543
1310.74	155.139
1315	158.273
1319.27	353.764
1323.53	194.488
1327.78	279.873
1332.04	246.102
1336.29	25.2949
1340.54	225.385
1344.79	116.197
1349.03	230.096
1353.27	797.578
1357.51	15.8965
1361.75	166.383
1365.98	204.519
1370.21	288.303
1374.44	343.342
1378.67	178.611
1382.89	292.494
1387.11	123.299
1391.33	190.07
1395.55	127.408
1399.76	243.113
1403.97	295.494
1408.18	295.9
1412.38	55.3594
1416.58	255.412
1420.78	141.025
1424.98	46.748
1429.17	149.6
1433.37	95.5977
1437.56	319.828
1441.74	355.916
1445.93	292.943
1450.11	253.195
1454.29	270.879
1458.46	295.607
1462.64	95.0762
1466.81	335.588
1470.98	278.648
1475.14	163.799
1479.31	65.3359
1483.47	319.389
1487.62	206.277
1491.78	315.633
1495.93	256.336
1500.08	201.188
1504.23	363.1
1508.37	52.0195
1512.52	71.8047
1516.65	261.566
1520.79	197.904
1524.93	236.051
1529.06	263.141
1533.19	81.0059
1537.31	253.348
1541.44	55.748
1545.56	238.406
1549.68	166.01
1553.79	303.029
1557.91	227.394
1562.02	206.547
1566.12	97.9375
1570.23	68.7148
