Measurement: Raman, 514 nm, ccw, Raman Data Processed
Mineral: Natrolite
Rruff sample: R040102
Ideal chemistry: Na_2_(Si_3_Al_2_)O_10_2H_2_O
Locality: Ross' Quarry, Northland, New Zealand
Source: University of Arizona Mineral Museum
Description: Mass of colorless acicular crystals
Measured chemistry: (Na_0.92_Ca_0.02_)_2_(Si_3.03_Al_1.99_)O_10_Â·2H_2_O
Pin_id: S00341
Orientation: Laser parallel to -c* (0 0 -1). Fiducial mark perpendicular to laser is parallel to a [1 0 0]
Raman shift (cm-1)	intensity
127.452	0
131.615	261.793
135.777	653.784
139.937	2090.34
144.094	3165.03
148.25	2970.41
152.403	2444.89
156.555	3759.8
160.705	6337.93
164.853	6787.02
168.998	4851.12
173.142	2565.2
177.284	1486.15
181.424	1176.69
185.562	1054.03
189.698	485.776
193.831	759.614
197.963	1208.27
202.093	2211.37
206.221	2823.2
210.347	2264.18
214.472	1095.8
218.594	427.116
222.714	153.079
226.832	73.771
230.948	82.196
235.063	558.29
239.175	1578.89
243.286	987.906
247.394	206.791
251.501	154.9
255.605	140.782
259.708	46.015
263.808	208.487
267.907	488.958
272.004	522.347
276.099	254.283
280.192	24.729
284.283	154.057
288.372	94.091
292.459	36.574
296.544	232.889
300.627	883.645
304.709	1746.22
308.788	1069.89
312.865	253.982
316.941	108.143
321.015	27.959
325.086	4.618
329.156	128.044
333.224	200.082
337.29	191.381
341.354	28.017
345.416	271.858
349.476	521.122
353.534	709.648
357.591	696.225
361.645	711.725
365.698	456.731
369.748	180.82
373.797	53.201
377.844	115.018
381.889	6.383
385.932	72.859
389.973	23.385
394.012	14.729
398.049	173.285
402.084	220.768
406.118	438.513
410.15	536.284
414.179	442.977
418.207	653.639
422.233	965.682
426.257	1869.61
430.279	3724.17
434.299	5628.86
438.318	6531.92
442.334	6730.39
446.349	7093.13
450.361	5728.02
454.372	2914.36
458.381	1636.61
462.388	960.184
466.394	750.096
470.397	841.475
474.398	714.49
478.398	861.471
482.396	1005.99
486.391	1164.12
490.385	1356.83
494.377	1274.74
498.368	1422.4
502.356	1442.71
506.342	1276.25
510.327	1374.22
514.31	1660.42
518.291	2048.3
522.27	3043.69
526.247	5988.34
530.222	10851.3
534.196	10739.4
538.167	6408.58
542.137	3015.76
546.105	1593.98
550.071	1172.41
554.035	672.971
557.998	690.08
561.958	437.867
565.917	297.115
569.874	187.926
573.829	438.441
577.782	299.057
581.733	219.912
585.683	271.35
589.63	202.59
593.576	343.449
597.52	404.377
601.462	445.121
605.402	404.891
609.341	325.703
613.277	269.533
617.212	178.959
621.145	18.432
625.076	140.473
629.006	148.809
632.933	103.057
636.859	104.82
640.783	71.221
644.705	16.869
648.625	98.539
652.543	74.756
656.46	189.529
660.375	62.672
664.288	211.121
668.199	302.643
672.108	16.51
676.016	250.766
679.921	309.188
683.825	376.979
687.727	410.389
691.628	582.332
695.526	811.566
699.423	1155.83
703.318	1498.33
707.211	1099.13
711.102	1210.97
714.992	992.035
718.879	683.379
722.765	1105.3
726.649	943.771
730.532	767.809
734.412	376.857
738.291	381.271
742.168	120.914
746.043	138.957
749.916	124.553
753.788	244.328
757.658	412.344
761.526	401.133
765.392	131.9
769.257	357.855
773.119	342.439
776.98	154.666
780.839	72.15
784.697	359.402
788.552	104.561
792.406	35.051
796.258	189.943
800.108	140.016
803.957	164.945
807.804	224.219
811.649	253.602
815.492	267.963
819.333	84.152
823.173	174.641
827.011	63.043
830.847	11.223
834.681	80.398
838.514	79.432
842.345	287.955
846.174	63.547
850.001	35.412
853.827	172.35
857.651	289.846
861.473	127.107
865.293	184.162
869.112	160.988
872.928	167.586
876.744	213.902
880.557	60.014
884.369	295.65
888.178	69.09
891.987	25.652
895.793	138.533
899.598	201.971
903.401	355.043
907.202	198.057
911.001	29.432
914.799	393.436
918.595	244.273
922.389	230.953
926.182	183.078
929.972	173.119
933.761	359.572
937.549	116.432
941.334	286.416
945.118	386.5
948.9	621.092
952.681	520.277
956.459	755.738
960.236	836.402
964.012	1608.5
967.785	1927.18
971.557	1182.51
975.327	623.484
979.095	305.363
982.862	425.66
986.627	345.695
990.39	300.945
994.152	913.18
997.912	714.543
1001.67	832.152
1005.43	472.859
1009.18	673.961
1012.93	471.023
1016.68	860.184
1020.43	1427.46
1024.18	2619.49
1027.93	2639.37
1031.67	1587.49
1035.42	1178.46
1039.16	1056.61
1042.9	1095.94
1046.63	1336.02
1050.37	1417.59
1054.11	1206.67
1057.84	855.48
1061.57	1023.91
1065.3	1664.05
1069.03	1339.84
1072.75	1478.23
1076.47	1086.35
1080.2	854.137
1083.92	862.418
1087.64	1147.04
1091.36	994.938
1095.07	703.094
1098.79	550.125
1102.5	487.816
1106.21	446.719
1109.92	304.531
1113.62	270.266
1117.33	477.578
1121.04	64.012
1124.74	260.762
1128.44	326.398
1132.14	236.078
1135.83	156.781
1139.53	357.488
1143.22	543.047
1146.92	125.656
1150.61	446.949
1154.3	55.117
1157.98	383.824
1161.67	153.578
1165.35	369.988
1169.04	213.031
1172.72	312.617
1176.4	373.52
1180.07	445.75
1183.75	326.223
1187.42	356.039
1191.1	408.688
1194.77	167.531
1198.44	44.484
1202.1	479.191
1205.77	315.188
1209.43	548.004
1213.1	842.219
1216.76	815.5
1220.42	793.746
1224.07	822.195
1227.73	807.199
1231.38	695.457
1235.04	507.664
1238.69	522.656
1242.34	805.109
1245.99	735.781
1249.63	1087.5
1253.28	777.027
1256.92	796.609
1260.56	673.855
1264.2	742.656
1267.84	428.32
1271.48	681.41
1275.11	742.473
1278.74	462.969
1282.38	538.242
1286.01	594.859
1289.63	20.715
1293.26	2.48
1296.89	240.312
1300.51	114.816
1304.13	232.133
1307.75	603.738
1311.37	609.223
1314.99	181.449
1318.6	274.531
1322.22	66.816
1325.83	242.367
1329.44	233.605
1333.05	17.363
1336.66	228.414
1340.26	152.852
1343.87	631.027
1347.47	683.805
1351.07	664.668
1354.67	415.941
1358.27	153.152
1361.86	336.004
1365.46	94.215
1369.05	14.574
1372.64	295.09
1376.23	383.598
1379.82	816.332
1383.41	1184.39
1386.99	977.648
1390.57	691.605
1394.16	804.613
1397.74	323.438
1401.32	603.57
1404.89	431.676
1408.47	651.746
1412.04	748.125
1415.61	828.719
1419.18	698.664
1422.75	763.289
1426.32	758.051
1429.89	628.043
1433.45	571.473
1437.01	304.562
1440.58	316.273
1444.13	457.766
1447.69	776.324
1451.25	1179.25
1454.81	1573.12
1458.36	1561.57
1461.91	1446.07
1465.46	1073.48
1469.01	1101.19
1472.56	668.395
1476.1	702.578
1479.64	94.055
1483.19	496.289
1486.73	812.57
1490.27	480.469
1493.81	919.422
1497.34	1222.4
1500.88	848.453
1504.41	953.859
1507.94	418.121
1511.47	446.875
1515	258.812
1518.53	1.156
