Measurement: Raman, 514 nm, ccw, Raman Data Processed
Mineral: Natrolite
Rruff sample: R040112
Ideal chemistry: Na_2_(Si_3_Al_2_)O_10_2H_2_O
Locality: Ice River Alkaline Complex, Moose Creek Valley, Yoho National Park, British Columbia, Canada
Source: National Museums of Canada
Description: Colorless pseudohexagonal prism
Measured chemistry: Na_2.00_(Si_3.00_Al_2.00_)O_10_Â·2H_2_O
Pin_id: L00109
Orientation: Laser parallel to -c* (0 0 -1). Fiducial mark perpendicular to laser is parallel to a [1 0 0]
Raman shift (cm-1)	intensity
116.672	0
120.855	307.233
125.036	70.054
129.216	815.191
133.393	818.007
137.568	1994.62
141.741	5850.72
145.911	9500.32
150.08	6813.8
154.247	5679.61
158.411	12172.3
162.574	26985
166.734	26637.8
170.893	14617.1
175.049	9644.96
179.203	5529.98
183.355	5382.8
187.505	5982.46
191.653	3705.81
195.799	2449.25
199.943	2846.61
204.084	6001.79
208.224	10023.2
212.362	6109.28
216.497	2155.49
220.631	957.574
224.762	538.763
228.891	9.04
233.018	298.419
237.144	1708.5
241.267	3859.01
245.388	1628.44
249.507	374.288
253.624	304.464
257.739	79.679
261.852	100.107
265.962	920.455
270.071	1614.89
274.178	890.344
278.283	75.003
282.385	253.104
286.486	310.252
290.584	112.211
294.681	106.103
298.775	986.925
302.868	2876.58
306.958	4551.63
311.047	1578.76
315.133	578.74
319.217	175.332
323.299	438.779
327.38	201.068
331.458	203.499
335.534	286.097
339.608	152.38
343.681	79.92
347.751	494.234
351.819	764.271
355.885	1135.2
359.949	2195.22
364.011	1987.24
368.071	676.608
372.129	75.068
376.185	21.684
380.239	244.658
384.291	51.264
388.341	246.483
392.389	54.524
396.435	225.169
400.479	196.768
404.521	201.637
408.561	625.849
412.599	1210.93
416.636	1119.93
420.67	1081.05
424.702	2104.03
428.732	4837.65
432.76	9999.92
436.786	13781.9
440.81	12472.1
444.832	15738.4
448.852	21448.1
452.87	13116.5
456.887	5014.55
460.901	2507.85
464.913	1874.09
468.923	1235.71
472.931	827.179
476.938	1178.76
480.942	1810.33
484.944	2102.21
488.945	2513.09
492.943	3785.35
496.94	5116.65
500.934	5334.83
504.927	4261.31
508.917	3085.56
512.906	3397.64
516.892	4230.88
520.877	5523.78
524.86	8316.38
528.841	18548.7
532.82	36036.2
536.796	27467.4
540.771	11357
544.744	5288.5
548.715	3666.96
552.684	2831.42
556.652	1787.05
560.617	772.571
564.58	725.098
568.541	996.037
572.501	957.039
576.458	298.13
580.414	141.432
584.367	670.829
588.319	1232.31
592.268	843.864
596.216	165.556
600.162	337.37
604.106	1132.06
608.048	1164.47
611.988	479.183
615.926	127.663
619.862	115.625
623.797	793.748
627.729	967.408
631.659	101.235
635.588	84.162
639.515	320.099
643.439	1005.32
647.362	910.781
651.283	46.702
655.202	126.983
659.119	379.731
663.034	1036.89
666.947	875.363
670.859	433.168
674.768	131.237
678.676	690.722
682.581	1449.35
686.485	1298.27
690.387	878.24
694.287	1078.1
698.185	2429.92
702.081	3701.27
705.975	3723.36
709.868	2546.19
713.758	1791.88
717.647	2296.15
721.533	3356.55
725.418	3781.66
729.301	2946.49
733.182	1459.54
737.061	1315.71
740.939	1662.33
744.814	1500.16
748.688	567.284
752.559	51.165
756.429	340.384
760.297	990.112
764.163	1249.01
768.027	690.335
771.89	175.908
775.75	3.9
779.609	801.16
783.465	1367.66
787.32	923.36
791.173	240.929
795.024	1.592
798.873	629.101
802.721	1120.35
806.566	1081.99
810.41	539.99
814.252	152.167
818.092	250.387
821.93	1093.23
825.766	1406.34
829.601	999.73
833.433	203.384
837.264	17.765
841.093	362.072
844.92	1066.66
848.745	1051.53
852.568	746.65
856.39	182.046
860.209	87.707
864.027	623.616
867.843	1279.76
871.657	1196.07
875.47	422.515
879.28	170.886
883.089	165.678
886.896	872.284
890.701	1268.99
894.504	1005.86
898.305	312.849
902.105	110.073
905.902	136.923
909.698	523.914
913.492	898.252
917.285	605.256
921.075	10.406
924.864	192.41
928.65	54.462
932.435	717.585
936.218	1085.08
940	932.73
943.779	199.867
947.557	22.664
951.333	315.392
955.107	1013.62
958.879	1702.13
962.65	2371.32
966.418	4079.08
970.185	4280.14
973.95	1558.44
977.714	1067.94
981.475	1078.08
985.235	950.86
988.993	684.601
992.749	255.3
996.503	737.044
1000.26	908.156
1004.01	1268.49
1007.75	1442.38
1011.5	1333.77
1015.25	1186.04
1018.99	2394.57
1022.73	7085.33
1026.47	16351.5
1030.21	10100.9
1033.95	4637.79
1037.68	2452.55
1041.41	1503.57
1045.15	999.114
1048.88	1028.28
1052.6	1835.35
1056.33	2685.14
1060.05	3710.29
1063.78	5110.97
1067.5	5370.82
1071.21	4133.22
1074.93	3195.68
1078.65	2798.02
1082.36	2770.5
1086.07	3462.37
1089.78	4154.7
1093.49	3717.02
1097.2	1899.22
1100.9	1051.37
1104.6	1273.69
1108.3	1306.52
1112	940.162
1115.7	804.271
1119.4	509.726
1123.09	567.339
1126.78	266.36
1130.47	356.145
1134.16	786.841
1137.85	1428.71
1141.54	1202.04
1145.22	617.244
1148.9	132.388
1152.58	22.971
1156.26	418.899
1159.94	751.693
1163.61	1488.22
1167.28	1285.53
1170.95	1053.33
1174.62	588.076
1178.29	3.222
