Measurement: Raman, 514 nm, ccw, Raman Data Processed
Mineral: Natrolite
Rruff sample: R060561
Ideal chemistry: Na_2_(Si_3_Al_2_)O_10_2H_2_O
Locality: California, USA
Source: Gemological Institute of America
Description: White fragment
Measured chemistry: Na_2.00_(Si_3.00_Al_2.00_)O_10_Â·2H_2_O
Pin_id: L00681
Orientation: Laser parallel to a* (1 0 0). Fiducial mark perpendicular to laser is parallel to -b [0 -1 0]
Raman shift (cm-1)	intensity
90.943	0
95.883	324.302
100.821	1.95959
105.756	151.226
110.689	1508.45
115.619	3752.49
120.547	7010.99
125.472	7789.09
130.395	7873.8
135.315	10579.5
140.233	13906.1
145.149	18190.4
150.062	15837.7
154.972	15458.3
159.881	21231.9
164.786	28590.9
169.689	22413.3
174.59	17169.9
179.488	13364
184.384	13056.2
189.277	12863.2
194.168	10520.5
199.057	11069.2
203.942	13019.4
208.826	14735.8
213.707	11470.8
218.585	8279.95
223.461	6528.31
228.335	5473.75
233.206	5708.17
238.074	6861.58
242.94	7732.16
247.804	5279.24
252.665	3664.64
257.524	3724.29
262.38	3940.43
267.233	4528.43
272.085	4790.28
276.933	4206.96
281.779	2960.27
286.623	2821.89
291.464	2715.47
296.303	3287.74
301.139	4930.33
305.973	6775.15
310.804	4467.69
315.633	1960.83
320.459	1486.47
325.283	1575.54
330.104	1975.92
334.923	1773.35
339.739	1168.66
344.553	1088.45
349.364	1268.77
354.173	1884.48
358.979	2254.47
363.783	2621.48
368.584	808.854
373.383	33.7188
378.179	208.992
382.973	278.002
387.764	359.711
392.553	315.398
397.339	472.17
402.123	172.584
406.904	192.443
411.682	665.305
416.459	840.883
421.232	1816.05
426.003	4374.69
430.772	9059.68
435.538	14442.4
440.302	15871.9
445.063	17714.3
449.821	15172.7
454.577	6231.43
459.331	2337.53
464.082	604.346
468.83	26.5586
473.576	453.734
478.32	611.168
483.06	1266.31
487.799	2524.59
492.535	3924.08
497.268	3710.09
501.999	3051.12
506.727	2773.21
511.453	3402.38
516.176	4484.09
520.897	7159.51
525.615	13752.2
530.331	25604.7
535.044	30391.9
539.754	15172.1
544.462	6042.6
549.168	2926.83
553.871	1605.06
558.571	905.32
563.269	448.551
567.964	226.658
572.657	190.562
577.347	93.0781
582.035	61.0352
586.72	458.424
591.403	350.309
596.083	534.629
600.761	667.307
605.436	218.303
610.108	159.074
614.778	179.654
619.446	187.471
624.111	107.086
628.773	212.935
633.433	3.5918
638.09	53.6641
642.745	142.963
647.397	47.0371
652.046	273.088
656.693	283.107
661.338	325.9
665.98	578.092
670.619	541.91
675.256	762.137
679.89	610.42
684.522	785.541
689.151	1352.74
693.778	1788.38
698.402	2624.17
703.024	3339.42
707.643	3422.25
712.259	2589.57
716.873	2304.92
721.484	2497.3
726.093	2396.39
730.699	2245
735.303	1334.03
739.904	843.955
744.502	418.99
749.098	481.758
753.692	405.066
758.282	380.861
762.871	129.414
767.456	354.912
772.04	156.08
776.62	24.582
781.198	2.67969
785.774	77.9414
790.346	140.166
794.917	146.836
799.485	24.9551
804.05	302.619
808.612	53.4453
813.172	138.147
817.73	97.3184
822.285	248.394
826.837	254.424
831.387	283.543
835.934	153.785
840.479	390.121
845.021	224.606
849.56	302.238
854.097	289.133
858.631	157.301
863.163	107.703
867.692	180.613
872.219	181.137
876.743	251.266
881.265	313.59
885.783	206.938
890.3	212.981
894.813	51.1445
899.325	61.2656
903.833	235.656
908.339	9.08594
912.843	65.6211
917.343	101.441
921.842	43.9453
926.337	6.19922
930.831	109.203
935.321	169.637
939.809	18.6328
944.294	219.836
948.777	443.555
953.257	427.258
957.735	1006.02
962.21	2116.55
966.682	3877.78
971.152	3516.06
975.619	1775.41
980.084	944.07
984.546	874.805
989.006	1128.9
993.463	1495.83
997.917	1820.43
1002.37	1367.86
1006.82	951.32
1011.26	1031.39
1015.71	1827.48
1020.15	3647.82
1024.59	7537.98
1029.03	7483.56
1033.46	3312.98
1037.89	2220.2
1042.32	1775.98
1046.74	2445.75
1051.17	2738.34
1055.59	2405.7
1060.01	2101.88
1064.42	1901.11
1068.83	2565.54
1073.24	2613.23
1077.65	2435.22
1082.06	2362.45
1086.46	2931.86
1090.86	3232.6
1095.26	2705.61
1099.65	1433.45
1104.04	898.711
1108.43	633.09
1112.82	443.586
1117.2	467.195
1121.59	618.941
1125.96	388.051
1130.34	276.035
1134.72	318.371
1139.09	162.519
1143.46	133.906
1147.82	294.344
1152.19	327.531
1156.55	70.1602
1160.9	186.113
1165.26	119.434
1169.61	111.574
1173.96	78.7383
1178.31	62.5
1182.66	325.019
1187	44.5859
1191.34	160.016
1195.68	74.543
1200.01	291.039
1204.35	241.508
1208.67	217.082
1213	22.4766
1217.33	405.859
1221.65	342.406
1225.97	204.727
1230.28	395.922
1234.6	143.211
1238.91	350.094
1243.22	243.086
1247.53	429.008
1251.83	506.793
1256.13	370.398
1260.43	151.816
1264.72	388.141
1269.02	560.356
1273.31	359.387
1277.6	31.0234
1281.88	504.949
1286.16	323.777
1290.44	149.602
1294.72	200.231
1299	17.9688
1303.27	259.641
1307.54	460.375
1311.81	176.844
1316.07	77.4453
1320.33	405.988
1324.59	347.918
1328.85	333.953
1333.1	53.8633
1337.35	167.539
1341.6	285.172
1345.85	122.434
1350.09	42.2891
1354.33	195.695
1358.57	516.894
1362.81	226.644
1367.04	439.242
1371.27	578.754
1375.5	271.051
1379.72	443.203
1383.95	519.031
1388.17	247.031
1392.38	864.754
1396.6	200.695
1400.81	200.426
1405.02	231.555
1409.23	301.543
1413.43	347.09
1417.63	154.758
1421.83	36.418
1426.03	190.703
1430.22	351.535
1434.41	282.738
1438.6	207.144
1442.79	98.9414
1446.97	193.453
1451.15	334.055
1455.33	190.953
1459.51	210.918
1463.68	113.652
1467.85	187.93
1472.02	61.1445
1476.18	477.328
1480.35	372.609
1484.51	400
1488.66	366.777
1492.82	92.7734
1496.97	162.019
1501.12	144.859
1505.27	231.555
1509.41	251.18
1513.55	539.094
1517.69	277.047
1521.83	260.184
1525.96	141.68
1530.09	285.367
1534.22	410.004
1538.35	392.465
1542.47	424.594
1546.59	258.688
1550.71	651.902
1554.82	425.496
1558.93	6.39062
1563.05	65.9531
1567.15	26.0039
1571.26	20.5078
