Measurement: Raman, 514 nm, ccw, Raman Data Processed
Mineral: Natrolite
Rruff sample: R060561
Ideal chemistry: Na_2_(Si_3_Al_2_)O_10_2H_2_O
Locality: California, USA
Source: Gemological Institute of America
Description: White fragment
Measured chemistry: Na_2.00_(Si_3.00_Al_2.00_)O_10_Â·2H_2_O
Pin_id: L00681
Orientation: Laser parallel to a* (1 0 0). Fiducial mark perpendicular to laser is parallel to -b [0 -1 0]
Raman shift (cm-1)	intensity
94.648	0
99.587	183.274
104.522	0.625
109.456	892.791
114.387	4031.58
119.315	6362.86
124.241	10516.5
129.164	6736.95
134.085	8445.9
139.004	11652.8
143.92	16647.4
148.834	16268.2
153.745	14282.9
158.654	19925.7
163.56	31384
168.464	26988.5
173.365	17287.4
178.264	12572
183.16	11064.2
188.054	11720.6
192.946	8287.7
197.835	8351.01
202.721	10610.6
207.605	13199.4
212.487	11044.4
217.366	7105.28
222.243	4923.05
227.117	3181.55
231.988	3159.65
236.857	4099.24
241.724	6220.86
246.588	3938.56
251.45	1845.83
256.309	1647.66
261.166	2181.4
266.02	2669.92
270.872	3661.49
275.721	3426.96
280.568	2057.45
285.412	1394.23
290.254	1745.75
295.094	2041.56
299.93	3743.95
304.765	5924.67
309.597	5090.39
314.426	1385.2
319.253	710.775
324.077	1103.93
328.899	1445.59
333.718	1689.77
338.535	922.65
343.35	536.309
348.162	943.486
352.971	1915.11
357.778	3022.03
362.582	2827.31
367.384	1057.8
372.183	17.3457
376.98	135.401
381.775	361.432
386.566	535.063
391.356	424.29
396.143	416.563
400.927	161.904
405.709	353.079
410.488	1047.27
415.265	1339.55
420.039	2183.8
424.811	4599.89
429.58	9839.73
434.347	16729.2
439.111	20073.3
443.873	21674.9
448.632	21828.9
453.388	9872.27
458.143	3005.98
462.894	1248.94
467.643	732.117
472.39	731.447
477.134	1182.01
481.875	2084.77
486.614	3806.16
491.351	5490.93
496.085	6034.5
500.816	4922.16
505.545	4234.98
510.272	4922.57
514.995	6023.48
519.717	8996.61
524.436	16631.2
529.152	30668.6
533.866	44042.8
538.577	25617
543.285	9952.77
547.992	4745.73
552.695	2712.72
557.396	1249.31
562.095	823.441
566.791	610.066
571.484	497.146
576.175	286.635
580.863	379.494
585.549	487.973
590.233	452.891
594.913	512.779
599.592	515.283
604.267	689.852
608.94	172.195
613.611	4.06836
618.279	9.39062
622.945	22.498
627.608	74.3691
632.268	35.5
636.926	16.9375
641.581	29.1387
646.234	23.4844
650.884	65.9394
655.532	132.785
660.177	327.287
664.82	232.897
669.46	348.397
674.097	464.959
678.732	554.492
683.364	792.141
687.994	1309
692.622	1890.61
697.246	2834.47
701.868	3928.18
706.488	3896.63
711.105	3228.49
715.72	2485.22
720.332	2710.78
724.941	3194.26
729.548	2777.45
734.152	1769.94
738.754	858.178
743.353	569.369
747.949	207.393
752.544	240.59
757.135	258.006
761.724	21.4688
766.31	41.2871
770.894	68.1699
775.475	45.7773
780.054	98.7129
784.63	28.2246
789.203	64.3594
793.774	65.3711
798.343	41.293
802.909	67.3867
807.472	130.717
812.033	140.219
816.591	164.928
821.146	177.957
825.699	235.289
830.25	111.953
834.798	314.922
839.343	503.244
843.885	251.941
848.426	306
852.963	360.455
857.498	244.32
862.031	397.617
866.56	404.353
871.088	263.562
875.612	276.256
880.134	10.5488
884.654	201.096
889.171	181.232
893.685	188.045
898.197	128.769
902.706	148.504
907.213	199.953
911.717	99.6406
916.218	122.078
920.717	161.336
925.214	231.508
929.707	78.166
934.199	100.572
938.687	19.6699
943.173	349.107
947.657	424.018
952.137	592.1
956.616	1193.74
961.091	3378.16
965.564	4403.64
970.035	5113.43
974.503	2435.31
978.968	1270
983.431	1253.8
987.891	1661.29
992.349	2020.5
996.804	2397.28
1001.26	2078.87
1005.71	1738.69
1010.15	1697.3
1014.6	2239.82
1019.04	4437.7
1023.48	9724.01
1027.92	11571.6
1032.35	5325.25
1036.78	3155.18
1041.21	2710.93
1045.64	2970.39
1050.06	3639.59
1054.48	3405.8
1058.9	2648.62
1063.32	2384.29
1067.73	2818.28
1072.14	3352.73
1076.55	2982.47
1080.96	2787.92
1085.36	3236.27
1089.76	3994.86
1094.16	3898.69
1098.55	1915.97
1102.95	1231.28
1107.34	750.818
1111.72	820.867
1116.11	633.871
1120.49	746.547
1124.87	508.131
1129.25	415.898
1133.62	307.44
1137.99	220.656
1142.36	245
1146.73	220.537
1151.1	9.74219
1155.46	23.9414
1159.82	99.1699
1164.17	116.053
1168.53	91.2949
1172.88	157.182
1177.22	90.2695
1181.57	70.6055
1185.91	61.002
1190.26	54.8066
1194.59	15.2754
1198.93	50.6191
1203.26	392.568
1207.59	0.589844
1211.92	159.66
1216.24	242.025
1220.57	236.213
1224.89	226.449
1229.2	273.644
1233.52	177.842
1237.83	243.076
1242.14	45.2266
1246.45	29.3594
1250.75	143.027
1255.05	153.062
1259.35	72.707
1263.65	143.434
1267.94	263.113
1272.23	264.717
1276.52	194.365
1280.81	39.2676
1285.09	49.2832
1289.37	279.766
1293.65	83.75
1297.93	108.91
1302.2	252.85
1306.47	71.75
1310.74	18.7676
1315	157.844
1319.27	319.633
1323.53	226.518
1327.78	114.633
1332.04	116.381
1336.29	142.731
1340.54	83.4316
1344.79	370.107
1349.03	150.762
1353.27	114.297
1357.51	199.596
1361.75	171.106
1365.98	334.609
1370.21	251.606
1374.44	64.2188
1378.67	202.481
1382.89	218.504
1387.11	255.566
1391.33	109.312
1395.55	371.365
1399.76	19.5156
1403.97	257.697
1408.18	250.949
1412.38	50.5898
1416.58	171.648
1420.78	208.602
1424.98	77.9609
1429.17	88.4707
1433.37	207.537
1437.56	223.209
1441.74	130.109
1445.93	255.07
1450.11	308.81
1454.29	271.773
1458.46	340.723
1462.64	265.394
1466.81	19.3652
1470.98	292.404
1475.14	307.69
1479.31	353.152
1483.47	440.75
1487.62	335.6
1491.78	341.51
1495.93	443.998
1500.08	495.805
1504.23	305.195
1508.37	241.644
1512.52	137.072
1516.65	254.609
1520.79	308.33
1524.93	300.291
1529.06	234.924
1533.19	127.809
1537.31	304.039
1541.44	81.3184
1545.56	134.764
1549.68	291.531
1553.79	84.6953
1557.91	483.227
1562.02	97.459
1566.12	200.65
1570.23	158.533
