Measurement: Raman, 514 nm, ccw, Raman Data Processed
Mineral: Natrolite
Rruff sample: R040102
Ideal chemistry: Na_2_(Si_3_Al_2_)O_10_2H_2_O
Locality: Ross' Quarry, Northland, New Zealand
Source: University of Arizona Mineral Museum
Description: Mass of colorless acicular crystals
Measured chemistry: (Na_0.92_Ca_0.02_)_2_(Si_3.03_Al_1.99_)O_10_Â·2H_2_O
Pin_id: S00341
Orientation: Laser parallel to -c* (0 0 -1). Fiducial mark perpendicular to laser is parallel to a [1 0 0]
Raman shift (cm-1)	intensity
124.675	0
128.84	72.806
133.003	202.764
137.164	526.583
141.323	931.279
145.48	1084.24
149.635	1038.43
153.788	1086.43
157.939	1870.11
162.088	2836.82
166.235	2467.29
170.38	1672.49
174.523	1148.31
178.664	867.033
182.803	800.352
186.94	725.777
191.076	487.55
195.209	487.408
199.34	710.762
203.47	999.723
207.597	944.084
211.722	668.586
215.846	388.844
219.967	285.15
224.087	82.37
228.204	39.66
232.32	96.562
236.434	258.824
240.545	390.33
244.655	221.812
248.763	4.663
252.869	3.311
256.973	41.882
261.075	81.811
265.175	17.967
269.273	204.293
273.369	114.156
277.463	27.317
281.556	2.335
285.646	55.457
289.734	15.487
293.821	32.08
297.905	168.706
301.988	348.185
306.069	411.999
310.147	160.852
314.224	88.531
318.299	18.934
322.372	51.037
326.443	32.512
330.512	63.576
334.579	131.179
338.645	6.357
342.708	58.046
346.769	47.353
350.829	306.192
354.887	323.354
358.942	282.519
362.996	285.057
367.048	215.107
371.098	82.375
375.146	69.989
379.192	49.702
383.236	45.201
387.279	80.448
391.319	26.993
395.358	109.312
399.394	49.729
403.429	50.493
407.462	275.02
411.493	220.53
415.522	206.531
419.549	196.284
423.575	313.119
427.598	575.963
431.619	1192
435.639	1937.35
439.657	2255.62
443.673	2328.51
447.687	2340.27
451.699	1463.55
455.709	741.869
459.717	456.033
463.724	355.031
467.728	355.55
471.731	390.602
475.732	531.279
479.731	834.467
483.728	918.983
487.723	1201.32
491.716	1202.56
495.708	1223.17
499.697	932.766
503.685	841.248
507.671	721.636
511.655	652.646
515.637	804.387
519.617	916.496
523.596	1317.13
527.572	2576.03
531.547	4063.2
535.52	3209.03
539.491	1599.78
543.46	871.213
547.427	594.008
551.393	307.791
555.356	339.499
559.318	103.162
563.278	16.697
567.236	141.785
571.192	86.175
575.147	70.52
579.099	44.895
583.05	100.193
586.999	105.951
590.946	132.963
594.891	309.488
598.834	375.111
602.776	301.185
606.715	236.878
610.653	222.694
614.589	159.235
618.523	154.994
622.456	79.046
626.386	48.188
630.315	10.895
634.242	4.984
638.167	125.719
642.09	18.208
646.012	100.619
649.931	98.058
653.849	131.712
657.765	39.029
661.679	189.749
665.592	188.059
669.502	67.798
673.411	157.227
677.318	126.455
681.223	295.603
685.126	179.234
689.028	357.237
692.927	263.728
696.825	471.73
700.721	468.115
704.616	764.647
708.508	870.001
712.399	485.441
716.288	359.146
720.175	403.188
724.06	366.411
727.944	261.127
731.825	215.744
735.705	118.815
739.584	213.914
743.46	188.295
747.334	142.561
751.207	206.474
755.078	8.726
758.947	200.227
762.815	60.812
766.68	217.696
770.544	102.252
774.406	10.01
778.267	108.116
782.125	240.667
785.982	147.283
789.837	231.683
793.69	167.367
797.542	137.049
801.391	30.629
805.239	278.088
809.085	458.117
812.93	596.35
816.772	531.857
820.613	162.049
824.452	112.727
828.29	133.684
832.125	203
835.959	67.41
839.791	71.117
843.621	252.422
847.45	132.107
851.277	211.873
855.102	111.582
858.925	371.258
862.746	120.895
866.566	199.477
870.384	126.637
874.2	83.402
878.015	10.227
881.828	175.695
885.639	90.986
889.448	44.701
893.256	70.701
897.061	232.029
900.865	162.744
904.668	133.67
908.468	183.609
912.267	124.307
916.064	93.285
919.86	42.719
923.653	289.594
927.445	116.375
931.236	86.314
935.024	48.467
938.811	176.109
942.596	63.705
946.379	280.67
950.161	127.76
953.94	104.699
957.719	153.305
961.495	641.984
965.27	380.34
969.043	438.232
972.814	365.938
976.583	181.168
980.351	157.359
984.117	305.057
987.882	429.93
991.644	296.584
995.405	251.912
999.165	283.129
1002.92	247.355
1006.68	212.211
1010.43	127.104
1014.18	161.49
1017.93	385.842
1021.68	740.395
1025.43	1081.71
1029.18	633.393
1032.92	614.453
1036.66	563.156
1040.4	769.846
1044.14	548.654
1047.88	517.061
1051.62	454.355
1055.35	540.055
1059.08	537.449
1062.81	655.188
1066.54	672.514
1070.27	722.152
1073.99	542.625
1077.72	458.174
1081.44	538.018
1085.16	402.049
1088.88	396.564
1092.59	730.424
1096.31	291.807
1100.02	165.127
1103.73	227.215
1107.44	140.314
1111.15	143.014
1114.86	245.166
1118.57	356.754
1122.27	338.381
1125.97	118.018
1129.67	287.268
1133.37	1.988
1137.07	127.338
1140.76	30.18
1144.45	96.512
1148.15	170.236
1151.84	187.102
1155.53	152.414
1159.21	2.74
1162.9	123.113
1166.58	2.34
1170.26	476.918
1173.94	352.016
1177.62	471.787
1181.3	381.25
1184.97	320.492
1188.65	252.166
1192.32	343.559
1195.99	83.873
1199.66	378.637
1203.33	496.756
1206.99	513.506
1210.65	246.137
1214.32	336.639
1217.98	479.607
1221.64	172.072
1225.29	316.965
1228.95	439.9
1232.6	660.684
1236.26	393.625
1239.91	731.801
1243.56	538.297
1247.2	522.449
1250.85	116.133
1254.49	330.383
1258.13	321.998
1261.78	643.693
1265.41	633.6
1269.05	409.463
1272.69	477.406
1276.32	553.166
1279.95	414.385
1283.59	5.07
1287.21	114.787
1290.84	249.938
1294.47	129.078
1298.09	266.545
1301.72	562.258
1305.34	286.215
1308.96	109.643
1312.58	8.016
1316.19	165.201
1319.81	143.637
1323.42	246.16
1327.03	514.855
1330.64	402.422
1334.25	279.047
1337.86	624.793
1341.46	319.312
1345.07	33.504
1348.67	78.406
1352.27	78.281
1355.87	117.941
1359.46	313.652
1363.06	315.293
1366.65	655.375
1370.25	195.941
1373.84	327.289
1377.43	278.926
1381.02	152.906
1384.6	166.684
1388.18	327.512
1391.77	198.27
1395.35	287.062
1398.93	413.434
1402.51	656.844
1406.08	885.73
1409.66	561.547
1413.23	628.91
1416.8	705.746
1420.37	502.598
1423.94	11.496
1427.51	153.621
1431.08	356.305
1434.64	700.152
1438.2	672
1441.76	1118
1445.32	1365.52
1448.88	1409.41
1452.43	949.543
1455.99	878.258
1459.54	809.172
1463.09	690.266
1466.64	533.352
1470.19	617.227
1473.74	652.25
1477.28	300.633
1480.83	794.473
1484.37	830.184
1487.91	777.797
1491.45	795.867
1494.98	385.684
1498.52	168.652
1502.05	156.047
1505.59	1.461
1509.12	58.711
1512.65	121.09
1516.17	535.016
1519.7	0
