Measurement: Raman, 514 nm, ccw, Raman Data Processed
Mineral: Natrolite
Rruff sample: R040102
Ideal chemistry: Na_2_(Si_3_Al_2_)O_10_2H_2_O
Locality: Ross' Quarry, Northland, New Zealand
Source: University of Arizona Mineral Museum
Description: Mass of colorless acicular crystals
Measured chemistry: (Na_0.92_Ca_0.02_)_2_(Si_3.03_Al_1.99_)O_10_Â·2H_2_O
Pin_id: S00542
Orientation: Laser parallel to b* (0 1 0). Fiducial mark perpendicular to laser is parallel to -c [0 0 -1]
Raman shift (cm-1)	intensity
128.84	0
133.003	957.572
137.164	4977.06
141.323	7901.33
145.48	4998.33
149.635	2775.88
153.788	6644.74
157.939	15409
162.088	19876
166.235	13369
170.38	6774.06
174.523	3196.61
178.664	1768.76
182.803	1457.15
186.94	1204.59
191.076	1145.54
195.209	2737.13
199.34	5344.04
203.47	8578.22
207.597	8372.91
211.722	4668.89
215.846	1872.67
219.967	420.416
224.087	257.743
228.204	147.749
232.32	812.692
236.434	3474.15
240.545	5075.82
244.655	2426.43
248.763	188.49
252.869	443.63
256.973	422.149
261.075	205.781
265.175	564.825
269.273	1566.3
273.369	1077.65
277.463	168.09
281.556	299.125
285.646	383.228
289.734	102.663
293.821	123.131
297.905	1201.02
301.988	4081.11
306.069	5593.62
310.147	2885.65
314.224	805.758
318.299	231.964
322.372	81.04
326.443	218.79
330.512	397.981
334.579	487.636
338.645	631.05
342.708	717.721
346.769	988.33
350.829	1442.42
354.887	2067.72
358.942	2474.28
362.996	2036.78
367.048	1318.85
371.098	736.615
375.146	508.08
379.192	446.998
383.236	471.594
387.279	530.415
391.319	408.69
395.358	476.747
399.394	651.813
403.429	926.794
407.462	1380.93
411.493	1781.86
415.522	1848.04
419.549	2010.14
423.575	2399.43
427.598	3888.63
431.619	7493.34
435.639	17548
439.657	32560.4
443.673	30416.9
447.687	17557.2
451.699	8810.2
455.709	4797.81
459.717	3059.01
463.724	2691.02
467.728	2544.98
471.731	2712.67
475.732	3351.18
479.731	4376.03
483.728	4718.44
487.723	4431.48
491.716	3694.02
495.708	3102.8
499.697	2655.01
503.685	2758.57
507.671	3044.22
511.655	3853.36
515.637	5033.31
519.617	6702.69
523.596	10231.6
527.572	20199.8
531.547	34170.9
535.52	29928.4
539.491	15443.3
543.46	7748.02
547.427	4414.09
551.393	2541.7
555.356	1771.15
559.318	1202.36
563.278	885.827
567.236	762.989
571.192	620.47
575.147	648.558
579.099	437.998
583.05	508.755
586.999	599.915
590.946	910.981
594.891	1172.13
598.834	1253.67
602.776	665.369
606.715	288.361
610.653	112.856
614.589	49.041
618.523	45.915
622.456	44.702
626.386	129.533
630.315	148.068
634.242	8.934
638.167	2.71
642.09	11.203
646.012	58.762
649.931	66.556
653.849	143.068
657.765	140.608
661.679	287.839
665.592	283.426
669.502	287.599
673.411	401.893
677.318	496.821
681.223	524.292
685.126	748.602
689.028	1151.3
692.927	1554.55
696.825	2278.27
700.721	2641.46
704.616	2844.98
708.508	2380.76
712.399	2070.74
716.288	1813.6
720.175	2156.92
724.06	2469.43
727.944	2302.28
731.825	1539.21
735.705	966.385
739.584	620.884
743.46	445.902
747.334	279.909
751.207	272.196
755.078	223.681
758.947	164.874
762.815	95.84
766.68	66.778
770.544	185.854
774.406	48.77
778.267	99.998
782.125	37.756
785.982	68.878
789.837	49.129
793.69	4.26
797.542	40.584
801.391	105.976
805.239	21.558
809.085	102.508
812.93	156.279
816.772	149.687
820.613	92.854
824.452	55.704
828.29	98.246
832.125	52.688
835.959	92.332
839.791	243.854
843.621	205.092
847.45	206.126
851.277	206.913
855.102	87.402
858.925	127.634
862.746	107.65
866.566	157.463
870.384	227.057
874.2	156.39
878.015	185.447
881.828	164.251
885.639	62.692
889.448	39.258
893.256	158.354
897.061	15.685
900.865	122.681
904.668	229.163
908.468	164.926
912.267	90.45
916.064	115.474
919.86	269.944
923.653	373.612
927.445	202.433
931.236	354.699
935.024	213.696
938.811	368.234
942.596	570.601
946.379	670.606
950.161	855.102
953.94	1336.59
957.719	2120.51
961.495	3963.54
965.27	4962.64
969.043	3681.62
972.814	2771.84
976.583	2133.35
980.351	1415.18
984.117	1235.9
987.882	1084.65
991.644	1476.36
995.405	1869.85
999.165	1900.51
1002.92	1512.09
1006.68	1135.93
1010.43	1159.09
1014.18	1198.39
1017.93	1335.52
1021.68	1501.77
1025.43	2044.13
1029.18	2668.32
1032.92	4589.9
1036.66	8096.86
1040.4	9140.93
1044.14	5412.76
1047.88	3222.12
1051.62	2262.8
1055.35	1925.45
1059.08	1616.83
1062.81	1587.52
1066.54	1588.6
1070.27	1859.02
1073.99	1960.64
1077.72	2450.29
1081.44	2503.97
1085.16	2405.05
1088.88	2236.27
1092.59	1987.93
1096.31	1359.33
1100.02	1011.06
1103.73	822.259
1107.44	514.132
1111.15	375.687
1114.86	336.197
1118.57	277.555
1122.27	268.814
1125.97	119.669
1129.67	351.5
1133.37	33.763
1137.07	174.104
1140.76	9.725
1144.45	142.618
1148.15	107.922
1151.84	107.178
1155.53	141.002
1159.21	109.953
1162.9	70.135
1166.58	62.379
1170.26	4.754
1173.94	61.973
1177.62	188.307
1181.3	166.521
1184.97	143.691
1188.65	129.973
1192.32	51.602
1195.99	8.014
1199.66	25.855
1203.33	138.881
1206.99	103.518
1210.65	103.26
1214.32	148.807
1217.98	72.451
1221.64	175.436
1225.29	37.295
1228.95	57.703
1232.6	269.139
1236.26	99.814
1239.91	292.838
1243.56	173.883
1247.2	345.805
1250.85	54.814
1254.49	108.627
1258.13	249.367
1261.78	120.447
1265.41	240.209
1269.05	259.316
1272.69	378.516
1276.32	346.699
1279.95	303.666
1283.59	48.918
1287.21	72.529
1290.84	35.275
1294.47	190.428
1298.09	255.986
1301.72	379.35
1305.34	165.447
1308.96	183.947
1312.58	222.129
1316.19	253.725
1319.81	309.416
1323.42	143.709
1327.03	333.838
1330.64	353.537
1334.25	211.311
1337.86	400.094
1341.46	338.018
1345.07	414.152
1348.67	161.646
1352.27	52.229
1355.87	104.16
1359.46	220.91
1363.06	42.773
1366.65	282.568
1370.25	34.959
1373.84	193.037
1377.43	236.875
1381.02	233.879
1384.6	274.369
1388.18	164.438
1391.77	95.043
1395.35	6.203
1398.93	121.234
1402.51	187.369
1406.08	248.725
1409.66	324.383
1413.23	494.166
1416.8	408.559
1420.37	415.266
1423.94	139.732
1427.51	104.039
1431.08	129.129
1434.64	363.1
1438.2	148.627
1441.76	510.273
1445.32	738.324
1448.88	648.537
1452.43	479.107
1455.99	497.574
1459.54	489.279
1463.09	320.674
1466.64	294.549
1470.19	146.25
1473.74	147.678
1477.28	25.477
1480.83	344.062
1484.37	309.414
1487.91	441.484
1491.45	452.51
1494.98	496.57
1498.52	430.379
1502.05	332.086
1505.59	311.33
1509.12	134.096
1512.65	16.244
1516.17	188.6
1519.7	0
