Measurement: Raman, 514 nm, ccw, Raman Data Processed
Mineral: Natrolite
Rruff sample: R040112
Ideal chemistry: Na_2_(Si_3_Al_2_)O_10_2H_2_O
Locality: Ice River Alkaline Complex, Moose Creek Valley, Yoho National Park, British Columbia, Canada
Source: National Museums of Canada
Description: Colorless pseudohexagonal prism
Measured chemistry: Na_2.00_(Si_3.00_Al_2.00_)O_10_Â·2H_2_O
Pin_id: L00277
Orientation: Laser parallel to -a* (-1 0 0). Fiducial mark perpendicular to laser is parallel to b [0 1 0]
Raman shift (cm-1)	intensity
114.949	0
119.119	1487.98
123.286	542.402
127.452	1138.67
131.615	185.84
135.777	694.311
139.937	2337
144.094	3133.14
148.25	2193.61
152.403	4616.11
156.555	12992.6
160.705	30475.1
164.853	30351.1
168.998	13556.3
173.142	5783.51
177.284	2803.15
181.424	1425.93
185.562	1057.15
189.698	1146.18
193.831	1532.42
197.963	1849.26
202.093	3900.8
206.221	7851.76
210.347	6463.83
214.472	2567.67
218.594	1277.17
222.714	771.385
226.832	535.959
230.948	482.868
235.063	289.321
239.175	635.733
243.286	901.839
247.394	567.863
251.501	496.649
255.605	27.164
259.708	252.275
263.808	367.666
267.907	603.455
272.004	211.412
276.099	115.079
280.192	223.456
284.283	146.284
288.372	244.519
292.459	315.075
296.544	446.674
300.627	338.629
304.709	790.387
308.788	941.662
312.865	342.342
316.941	62.32
321.015	200.914
325.086	142.963
329.156	183.896
333.224	148.664
337.29	302.455
341.354	555.402
345.416	407.615
349.476	668.975
353.534	1117.48
357.591	2210.15
361.645	2811.02
365.698	1731.88
369.748	812.797
373.797	613.742
377.844	364.621
381.889	195.27
385.932	275.543
389.973	525.529
394.012	465.355
398.049	424.947
402.084	374.545
406.118	624.035
410.15	663.414
414.179	690.691
418.207	607.26
422.233	890.596
426.257	1099.34
430.279	1306.6
434.299	3198.75
438.318	9336.24
442.334	21132.8
446.349	11890.9
450.361	4149.49
454.372	2588.64
458.381	1748.1
462.388	1546.63
466.394	1644.95
470.397	2723.12
474.398	3831.13
478.398	6162.52
482.396	9197.78
486.391	9189.03
490.385	6870.95
494.377	4584.39
498.368	2949.92
502.356	2527.19
506.342	2553.73
510.327	2642.94
514.31	3137.2
518.291	3676.24
522.27	5075.56
526.247	9259.64
530.222	21546.8
534.196	37563.8
538.167	24680.7
542.137	10896
546.105	5402.09
550.071	2818.27
554.035	1495.31
557.998	1282.38
561.958	1079.44
565.917	596.527
569.874	453.635
573.829	250.789
577.782	378.037
581.733	375.641
585.683	84.371
589.63	65.338
593.576	66.105
597.52	68.029
601.462	274.834
605.402	25.221
609.341	73.477
613.277	111.541
617.212	94.816
621.145	117.4
625.076	327.354
629.006	334.189
632.933	269.689
636.859	255.373
640.783	107.998
644.705	288.299
648.625	298.74
652.543	392.453
656.46	374.885
660.375	327.242
664.288	40.398
668.199	138.105
672.108	36.201
676.016	294.939
679.921	53.6
683.825	62.336
687.727	90.656
691.628	431.6
695.526	742.545
699.423	763.496
703.318	934.469
707.211	915.461
711.102	916.457
714.992	1067.45
718.879	1508.46
722.765	1869.55
726.649	2680.57
730.532	2411.6
734.412	1932.64
738.291	913.697
742.168	264.75
746.043	164.66
749.916	205.66
753.788	156.617
757.658	117.135
761.526	92.588
765.392	67.715
769.257	58.975
773.119	146.217
776.98	185.926
780.839	65.441
784.697	145.238
788.552	133.709
792.406	332.477
796.258	271.027
800.108	179.273
803.957	12.732
807.804	75.117
811.649	132.93
815.492	390.709
819.333	366.275
823.173	175.643
827.011	167.719
830.847	299.721
834.681	251.338
838.514	371.205
842.345	512.697
846.174	360.295
850.001	178.105
853.827	276.008
857.651	654.031
861.473	952.086
865.293	620.199
869.112	468.482
872.928	716.902
876.744	685.398
880.557	444.096
884.369	212.881
888.178	161.781
891.987	230.742
895.793	279.76
899.598	438.846
903.401	518.061
907.202	467.316
911.001	501.842
914.799	426.615
918.595	106.133
922.389	405.068
926.182	568.023
929.972	967.141
933.761	518.951
937.549	214.062
941.334	660.332
945.118	656.641
948.9	666.133
952.681	868.084
956.459	768.648
960.236	498.85
964.012	889.035
967.785	709.357
971.557	1919.96
975.327	3430.49
979.095	3271.77
982.862	1552.95
986.627	890.867
990.39	773.059
994.152	1233.01
997.912	1848.31
1001.67	2265.84
1005.43	1165.39
1009.18	948.873
1012.93	1132.01
1016.68	1551.69
1020.43	1813.87
1024.18	2294.68
1027.93	2633.93
1031.67	4029.24
1035.42	7788.25
1039.16	19043.2
1042.9	16078.1
1046.63	6852.84
1050.37	3808.43
1054.11	2339.93
1057.84	1506.14
1061.57	1411.17
1065.3	1395.46
1069.03	1169.77
1072.75	1513.71
1076.47	1807.29
1080.2	2010.54
1083.92	2113.4
1087.64	1746.02
1091.36	1268.19
1095.07	850.035
1098.79	1231.66
1102.5	1323.84
1106.21	675.453
1109.92	586.512
1113.62	227.32
1117.33	68.258
1121.04	380.465
1124.74	764.418
1128.44	453.121
1132.14	412.055
1135.83	250.938
1139.53	169.668
1143.22	181.449
1146.92	397.262
1150.61	695.824
1154.3	584.215
1157.98	452.703
1161.67	321.277
1165.35	110.156
1169.04	81.375
1172.72	47.672
1176.4	132.926
1180.07	586.93
1183.75	837.355
1187.42	878.441
1191.1	450.309
1194.77	152.715
1198.44	23.621
1202.1	116.164
1205.77	748.633
1209.43	742.562
1213.1	971.395
1216.76	709.566
1220.42	755.461
1224.07	429.031
1227.73	570.758
1231.38	794.172
1235.04	431.773
1238.69	615.625
1242.34	606.418
1245.99	587.184
1249.63	589.93
1253.28	386.645
1256.92	480.023
1260.56	121.27
1264.2	6.797
1267.84	0
