Measurement: Raman, 514 nm, ccw, Raman Data Processed
Mineral: Natrolite
Rruff sample: R060561
Ideal chemistry: Na_2_(Si_3_Al_2_)O_10_2H_2_O
Locality: California, USA
Source: Gemological Institute of America
Description: White fragment
Measured chemistry: Na_2.00_(Si_3.00_Al_2.00_)O_10_Â·2H_2_O
Pin_id: L00669
Orientation: Laser parallel to c* (0 0 1). Fiducial mark perpendicular to laser is parallel to a [1 0 0]
Raman shift (cm-1)	intensity
92.178	0
97.118	316.007
102.055	74.5015
106.989	644.789
111.921	2671.7
116.851	5138.2
121.778	9275.28
126.703	6613.49
131.625	7776.97
136.545	11035
141.462	18289.9
146.377	26584.6
151.29	18219.7
156.2	15192.9
161.107	22200.4
166.012	28494.3
170.915	19301.3
175.815	14689.5
180.713	10854.1
185.608	11786.5
190.5	11286.5
195.391	9937.5
200.278	12887.6
205.164	17466.7
210.046	21183.8
214.927	12982.8
219.805	6863.64
224.68	4517.06
229.553	4206
234.423	5799.8
239.291	9151.56
244.157	11264.7
249.019	4905.99
253.88	2999.09
258.738	2815.47
263.593	3776.05
268.446	5096.26
273.297	5909.97
278.145	3282.31
282.991	1936.58
287.834	1840.22
292.674	2195.8
297.512	3984.95
302.348	7983.36
307.181	13617.8
312.012	6295.9
316.84	1497.18
321.665	985.32
326.488	1072.33
331.309	1724.43
336.127	1050.03
340.943	661.215
345.756	667.635
350.567	1050.26
355.375	2085.88
360.18	3071.3
364.983	1835.47
369.784	473.37
374.582	5.08984
379.378	313.592
384.171	63.2607
388.961	460.993
393.75	551.982
398.535	404.377
403.318	124.505
408.099	712.968
412.877	1456.15
417.652	1934.92
422.425	4808.14
427.196	10952.7
431.964	22112.5
436.729	30819.5
441.492	27192.6
446.253	26832.6
451.01	19931.6
455.766	6939.47
460.519	2180.12
465.269	675.498
470.017	153.559
474.762	444.027
479.505	370.961
484.245	998.568
488.983	2018.11
493.718	3321.19
498.451	2926.09
503.181	3076.2
507.909	3664.06
512.634	4877.92
517.356	7095.98
522.077	10784.8
526.794	19226.2
531.509	34117.4
536.221	33213.8
540.931	14117.5
545.639	5827.58
550.344	3061.74
555.046	1501.71
559.746	1009.42
564.443	614.82
569.138	423.84
573.83	459.428
578.52	434.525
583.207	447.086
587.891	428.051
592.573	707.369
597.253	1140
601.93	1329.9
606.604	794.033
611.276	282.143
615.945	117.656
620.612	88.1914
625.276	69.7324
629.938	4.11133
634.597	29.4121
639.254	72.8711
643.908	13.8516
648.559	10.0195
653.208	102.777
657.855	204.406
662.499	740.412
667.14	430.859
671.779	750.998
676.415	813.674
681.049	1055.41
685.68	1383.71
690.308	2198.13
694.934	3197.5
699.558	4636.7
704.179	6079.95
708.797	5575.19
713.413	3608.21
718.026	2857.56
722.637	3002.05
727.245	3234.77
731.85	2698.69
736.453	1257.8
741.054	590.367
745.652	427.51
750.247	345.484
754.84	223.607
759.43	121.647
764.017	14.8438
768.602	0.867188
773.185	90.1016
777.765	11.1621
782.342	98.4199
786.917	118.832
791.489	103.656
796.059	122.285
800.626	165.514
805.191	203.59
809.753	254.736
814.312	323.012
818.869	367.414
823.423	316.935
827.975	318.613
832.524	477.459
837.07	251.492
841.614	324.725
846.156	298.176
850.695	252.861
855.231	298.793
859.765	402.99
864.296	433.467
868.824	367.24
873.35	70.334
877.874	429.703
882.395	226.402
886.913	85.0391
891.428	189.051
895.942	74.3281
900.452	51.0391
904.96	75.3301
909.465	87.7129
913.968	57.1602
918.468	18.2891
922.966	153.66
927.461	143.918
931.953	211.654
936.443	147.783
940.931	143.815
945.415	200.654
949.897	253.336
954.377	553.033
958.854	1792.83
963.328	4768.2
967.8	8119.64
972.269	5762.38
976.736	1972.38
981.2	1077.44
985.661	744.17
990.12	1513.61
994.576	2561.51
999.03	2764.37
1003.48	1234.43
1007.93	755.227
1012.38	825.166
1016.82	1755.15
1021.26	3998.19
1025.7	7976.24
1030.13	5286.32
1034.57	2274.54
1039	1665.35
1043.42	2110.92
1047.85	2699.28
1052.27	2871.19
1056.69	2635.54
1061.11	2551.34
1065.53	3136.87
1069.94	3973.23
1074.35	3660.14
1078.75	2448.28
1083.16	2559.55
1087.56	3216.63
1091.96	3957.65
1096.36	2778.09
1100.75	1483.36
1105.14	618.09
1109.53	865.568
1113.92	483.221
1118.3	878.981
1122.68	647.762
1127.06	528.682
1131.44	294.648
1135.81	359.037
1140.18	170.287
1144.55	121.629
1148.91	239.031
1153.28	82.5117
1157.64	145.19
1161.99	114.949
1166.35	88.459
1170.7	117.996
1175.05	246.57
1179.4	61.0234
1183.74	52.2207
1188.09	118.772
1192.42	25.2324
1196.76	140.766
1201.1	145.744
1205.43	177.348
1209.76	369.543
1214.08	91.8438
1218.41	312.113
1222.73	207.133
1227.05	138.748
1231.36	128.162
1235.68	213.221
1239.99	128.6
1244.3	402.258
1248.6	244.732
1252.9	158.981
1257.2	230
1261.5	421.658
1265.8	352.81
1270.09	158.752
1274.38	398.478
1278.67	325.668
1282.95	369.959
1287.23	213.029
1291.51	231.91
1295.79	157.455
1300.06	134.256
1304.34	263.897
1308.61	97.6621
1312.87	86.8711
1317.13	126.82
1321.4	393.147
1325.65	442.434
1329.91	416.434
1334.16	214.853
1338.41	285.81
1342.66	140.482
1346.91	189.225
1351.15	155.965
1355.39	226.191
1359.63	130.5
1363.87	245.258
1368.1	328.164
1372.33	237.613
1376.56	298.812
1380.78	259.836
1385	382.613
1389.22	233.246
1393.44	299.367
1397.65	276.574
1401.86	184.664
1406.07	95.7031
1410.28	193.684
1414.48	36.1992
1418.68	19.0117
1422.88	127.078
1427.08	159.387
1431.27	386.785
1435.46	156.445
1439.65	255.773
1443.84	350.883
1448.02	165.828
1452.2	356.633
1456.38	356.141
1460.55	134.977
1464.72	252.961
1468.89	224.746
1473.06	179.918
1477.22	88.9258
1481.39	212.82
1485.55	152.699
1489.7	194.422
1493.86	147.523
1498.01	124.644
1502.16	165.559
1506.3	244.066
1510.44	280.938
1514.59	168.574
1518.72	14.4492
1522.86	253.606
1526.99	91.3477
1531.12	3.40625
1535.25	138.758
1539.38	124.551
1543.5	41.0039
1547.62	38.6484
1551.74	10.2969
1555.85	140.426
1559.96	260.156
1564.07	331.043
1568.18	73.1133
