Measurement: Raman, 514 nm, ccw, Raman Data Processed
Mineral: Natrolite
Rruff sample: R040112
Ideal chemistry: Na_2_(Si_3_Al_2_)O_10_2H_2_O
Locality: Ice River Alkaline Complex, Moose Creek Valley, Yoho National Park, British Columbia, Canada
Source: National Museums of Canada
Description: Colorless pseudohexagonal prism
Measured chemistry: Na_2.00_(Si_3.00_Al_2.00_)O_10_Â·2H_2_O
Pin_id: L00277
Orientation: Laser parallel to -a* (-1 0 0). Fiducial mark perpendicular to laser is parallel to b [0 1 0]
Raman shift (cm-1)	intensity
98.251	0
102.428	52.921
106.604	452.06
110.777	466.175
114.949	660.912
119.119	808.712
123.286	1575.85
127.452	1170.82
131.615	894.428
135.777	2049.75
139.937	5798.94
144.094	9811.15
148.25	5299.78
152.403	1865.49
156.555	2995.22
160.705	8665.24
164.853	11613.1
168.998	6387.06
173.142	2968.6
177.284	1358.99
181.424	800.917
185.562	832.728
189.698	645.431
193.831	838.085
197.963	1190.96
202.093	1417.18
206.221	2146.95
210.347	2056.49
214.472	1090.22
218.594	687.655
222.714	353.186
226.832	176.567
230.948	233.643
235.063	290.429
239.175	1100.96
243.286	1749.63
247.394	641.731
251.501	114.079
255.605	41.625
259.708	72.597
263.808	172.057
267.907	335.408
272.004	165.307
276.099	38.375
280.192	80.044
284.283	100.713
288.372	278.402
292.459	435.92
296.544	486.165
300.627	838.096
304.709	2665.67
308.788	4469.59
312.865	1577.75
316.941	400.266
321.015	212.22
325.086	334.658
329.156	315.616
333.224	349.14
337.29	512.284
341.354	881.964
345.416	1055.05
349.476	897.054
353.534	926.619
357.591	1900.01
361.645	2903.33
365.698	1736.6
369.748	678.804
373.797	346.935
377.844	168.932
381.889	52.215
385.932	37.608
389.973	170.557
394.012	146.229
398.049	46.794
402.084	249.801
406.118	755.485
410.15	1741.85
414.179	3122.43
418.207	2635.33
422.233	1744.91
426.257	1312.98
430.279	1266.94
434.299	2125.67
438.318	6345.89
442.334	15832.1
446.349	9750.93
450.361	3611.78
454.372	1802.52
458.381	1153.43
462.388	854.363
466.394	585.314
470.397	746.302
474.398	849.784
478.398	858.729
482.396	1099.57
486.391	1059.1
490.385	1559.89
494.377	1811.05
498.368	2022.18
502.356	2473.3
506.342	3714.39
510.327	4797.02
514.31	6242.35
518.291	6993.57
522.27	7984.84
526.247	11526.2
530.222	23527.5
534.196	41039
538.167	27588.8
542.137	11587.5
546.105	5567.66
550.071	3050.79
554.035	1619.35
557.998	1228.71
561.958	1010.51
565.917	812.5
569.874	444.572
573.829	296.732
577.782	389.031
581.733	411.646
585.683	144.995
589.63	20.76
593.576	54.361
597.52	369.966
601.462	537.412
605.402	253.137
609.341	155.922
613.277	58.035
617.212	198.433
621.145	260.967
625.076	354.423
629.006	311.479
632.933	259.918
636.859	174.236
640.783	47.743
644.705	158.372
648.625	228.223
652.543	204.755
656.46	203.52
660.375	220.104
664.288	53.284
668.199	76.696
672.108	9.823
676.016	207.79
679.921	184.32
683.825	220.876
687.727	368.564
691.628	765.141
695.526	1141.75
699.423	1408.48
703.318	1705.4
707.211	1542.46
711.102	1179.59
714.992	906.771
718.879	803.966
722.765	781.161
726.649	1258.36
730.532	745.55
734.412	662.74
738.291	239.921
742.168	17.086
746.043	14.048
749.916	91.137
753.788	148.177
757.658	44.98
761.526	48.557
765.392	72.417
769.257	56.533
773.119	149.04
776.98	194.352
780.839	50.64
784.697	141.992
788.552	2.874
792.406	156.641
796.258	360.431
800.108	223.603
803.957	166.957
807.804	9.79
811.649	163.328
815.492	336.382
819.333	247.847
823.173	98.02
827.011	0.56
830.847	102.182
834.681	154.883
838.514	297.561
842.345	300.151
846.174	272.682
850.001	225.159
853.827	317.633
857.651	650.052
861.473	782.449
865.293	574.783
869.112	377.056
872.928	259.27
876.744	541.426
880.557	473.554
884.369	395.641
888.178	277.669
891.987	149.645
895.793	191.447
899.598	283.221
903.401	415.057
907.202	346.762
911.001	286.773
914.799	324.771
918.595	67.982
922.389	184.399
926.182	366.193
929.972	581.338
933.761	341.181
937.549	24.137
941.334	224.114
945.118	198.809
948.9	253.062
952.681	410.263
956.459	388.305
960.236	227.518
964.012	338.963
967.785	260.441
971.557	711.964
975.327	983.551
979.095	973.76
982.862	425.477
986.627	242.043
990.39	213.842
994.152	524.576
997.912	688.071
1001.67	944.562
1005.43	877.094
1009.18	572.521
1012.93	604.687
1016.68	586.979
1020.43	859.591
1024.18	1112.36
1027.93	1115.33
1031.67	1421.57
1035.42	2694.3
1039.16	6136.97
1042.9	5741.06
1046.63	2473.73
1050.37	1356.29
1054.11	1040.95
1057.84	516.204
1061.57	758.978
1065.3	551.579
1069.03	674.185
1072.75	806.346
1076.47	1179.1
1080.2	1110.98
1083.92	1062.24
1087.64	879.41
1091.36	553.146
1095.07	457.386
1098.79	741.908
1102.5	636.631
1106.21	281.518
1109.92	286.615
1113.62	91.755
1117.33	97.077
1121.04	232.437
1124.74	537.839
1128.44	393.399
1132.14	439.098
1135.83	394.86
1139.53	240.787
1143.22	23.112
1146.92	113.08
1150.61	299.481
1154.3	346.175
1157.98	463.214
1161.67	200.895
1165.35	29.066
1169.04	27.572
1172.72	26.422
1176.4	34.367
1180.07	285.248
1183.75	461.148
1187.42	470.615
1191.1	245.016
1194.77	155.762
1198.44	10.295
1202.1	17.074
1205.77	286.062
1209.43	206.227
1213.1	425.459
1216.76	355.053
1220.42	336.57
1224.07	251.211
1227.73	98.018
1231.38	81.465
