Measurement: Raman, 514 nm, ccw, Raman Data Processed
Mineral: Natrolite
Rruff sample: R060561
Ideal chemistry: Na_2_(Si_3_Al_2_)O_10_2H_2_O
Locality: California, USA
Source: Gemological Institute of America
Description: White fragment
Measured chemistry: Na_2.00_(Si_3.00_Al_2.00_)O_10_Â·2H_2_O
Pin_id: L00568
Orientation: Laser parallel to b* (0 1 0). Fiducial mark perpendicular to laser is parallel to c [0 0 1]
Raman shift (cm-1)	intensity
92.178	0
97.118	55.0969
102.055	214.734
106.989	13739.3
111.921	3316.64
116.851	2018.14
121.778	3499.5
126.703	2670.18
131.625	4177.85
136.545	6601.75
141.462	10395.2
146.377	9745.86
151.29	6471.77
156.2	8701.45
161.107	15103.8
166.012	14480.4
170.915	7169.05
175.815	4315.32
180.713	3124
185.608	2671.48
190.5	2575.21
195.391	3099.41
200.278	3627.15
205.164	3586.44
210.046	3390.23
214.927	2097.44
219.805	1462.99
224.68	1163.8
229.553	1050.82
234.423	1503.66
239.291	2365.67
244.157	2108.06
249.019	901.966
253.88	539.131
258.738	513.952
263.593	378.565
268.446	385.474
273.297	482.043
278.145	402.781
282.991	441.289
287.834	701.25
292.674	830.422
297.512	1699.61
302.348	3062.64
307.181	5375.4
312.012	2271.74
316.84	646.433
321.665	375.365
326.488	457.494
331.309	798.81
336.127	1004.31
340.943	1306.92
345.756	1683.61
350.567	1572.36
355.375	2414.26
360.18	3446.21
364.983	2120.15
369.784	447.996
374.582	83.2524
379.378	279.022
384.171	233.856
388.961	384.495
393.75	205.936
398.535	12.1797
403.318	755.997
408.099	1983.98
412.877	3491.05
417.652	3242.13
422.425	1955.17
427.196	2138.11
431.964	4387.93
436.729	9095.57
441.492	17693
446.253	11765.2
451.01	4085.26
455.766	1830.89
460.519	1064.2
465.269	911.179
470.017	878.831
474.762	1168.16
479.505	1417.43
484.245	1551.51
488.983	2205.53
493.718	2464.14
498.451	3489.29
503.181	4840.94
507.909	6741.03
512.634	9067.23
517.356	11600.9
522.077	16418.6
526.794	29156.1
531.509	49607.7
536.221	47549.1
540.931	18719.5
545.639	7207.28
550.344	3402.51
555.046	2103.22
559.746	1390.37
564.443	906.945
569.138	669.929
573.83	344.299
578.52	232.033
583.207	200.113
587.891	14.48
592.573	195.179
597.253	283.128
601.93	352.347
606.604	200.45
611.276	49.0469
615.945	27.5459
620.612	150.199
625.276	243.218
629.938	97.5596
634.597	37.1079
639.254	122.41
643.908	23.1113
648.559	81.1099
653.208	22.3237
657.855	50.6626
662.499	139.097
667.14	31.8081
671.779	184.41
676.415	167.044
681.049	354.571
685.68	675.925
690.308	1122.15
694.934	1507.22
699.558	2262.13
704.179	2404.87
708.797	1909.4
713.413	1341.74
718.026	1154.6
722.637	1298.15
727.245	1265.23
731.85	967.803
736.453	380.772
741.054	115.627
745.652	162.174
750.247	41.668
754.84	7.86719
759.43	106.407
764.017	2.6499
768.602	17.2651
773.185	21.5156
777.765	32.666
782.342	73.8218
786.917	23.6982
791.489	55.2227
796.059	133.593
800.626	203.745
805.191	166.522
809.753	348.919
814.312	132.713
818.869	184.93
823.423	251.754
827.975	216.186
832.524	211.227
837.07	408.88
841.614	264.147
846.156	429.03
850.695	244.535
855.231	480.664
859.765	666.42
864.296	464.816
868.824	581.87
873.35	453.569
877.874	327.634
882.395	296.262
886.913	178.651
891.428	231.445
895.942	287.694
900.452	89.1606
904.96	172.734
909.465	147.432
913.968	71.7729
918.468	83.1074
922.966	1.01465
927.461	55.1602
931.953	42.2812
936.443	173.227
940.931	87.5752
945.415	16.0684
949.897	131.893
954.377	91.8203
958.854	150.836
963.328	207.3
967.8	179.019
972.269	265.267
976.736	293.401
981.2	262.972
985.661	327.257
990.12	346.89
994.576	362.819
999.03	364.005
1003.48	429.352
1007.93	439.24
1012.38	490.006
1016.82	635.062
1021.26	844.305
1025.7	1638.44
1030.13	2020.92
1034.57	4467.71
1039	7863.65
1043.42	5253.71
1047.85	2112.99
1052.27	1104.29
1056.69	599.446
1061.11	474.545
1065.53	459.907
1069.94	549.713
1074.35	881.165
1078.75	1128.21
1083.16	1256.52
1087.56	1042.34
1091.96	632.788
1096.36	425.3
1100.75	441.001
1105.14	315.69
1109.53	395.447
1113.92	420.276
1118.3	215.18
1122.68	234.162
1127.06	220.276
1131.44	94.4688
1135.81	87.7373
1140.18	127.081
1144.55	11.4951
1148.91	34.9932
1153.28	74.5527
1157.64	15.8379
1161.99	154.75
1166.35	8.34766
1170.7	8.98047
1175.05	19.334
1179.4	15.3799
1183.74	41.8623
1188.09	31.916
1192.42	53.8262
1196.76	28.8037
1201.1	23.8545
1205.43	118.034
1209.76	17.8604
1214.08	184.017
1218.41	24.9619
1222.73	24.9062
1227.05	23.8926
1231.36	47.5791
1235.68	81.6309
1239.99	115.719
1244.3	210.843
1248.6	14.0898
1252.9	218.694
1257.2	224.929
1261.5	66.1934
1265.8	83.5732
1270.09	103.523
1274.38	166.591
1278.67	182.885
1282.95	210.23
1287.23	55.7275
1291.51	219.898
1295.79	265.582
1300.06	190.4
1304.34	157.145
1308.61	242.305
1312.87	206.833
1317.13	164.069
1321.4	178.895
1325.65	284.026
1329.91	59.9268
1334.16	107.82
1338.41	58.4795
1342.66	23.2539
1346.91	108.577
1351.15	126.374
1355.39	143.195
1359.63	97.8711
1363.87	173.682
1368.1	193.537
1372.33	1.56152
1376.56	238.379
1380.78	164.922
1385	83.9639
1389.22	258.081
1393.44	170.268
1397.65	39.4053
1401.86	240.501
1406.07	174.778
1410.28	133.177
1414.48	1.64941
1418.68	153.244
1422.88	219.952
1427.08	59.752
1431.27	210.456
1435.46	175.236
1439.65	348.796
1443.84	450.812
1448.02	468.45
1452.2	526.126
1456.38	413.347
1460.55	466.3
1464.72	306.557
1468.89	212.938
1473.06	310.333
1477.22	252.731
1481.39	286.97
1485.55	26.4795
1489.7	72.0752
1493.86	143.655
1498.01	67.3291
1502.16	38.0869
1506.3	168.926
1510.44	72.832
1514.59	101.715
1518.72	67.7178
1522.86	138.309
1526.99	115.294
1531.12	70.7236
1535.25	153.657
1539.38	362.001
1543.5	82.6309
1547.62	140.107
1551.74	227.473
1555.85	228.74
1559.96	84.5889
1564.07	156.436
1568.18	129.7
1572.28	173.132
1576.38	29.2764
