Measurement: Raman, 514 nm, ccw, Raman Data Processed
Mineral: Natrolite
Rruff sample: R040112
Ideal chemistry: Na_2_(Si_3_Al_2_)O_10_2H_2_O
Locality: Ice River Alkaline Complex, Moose Creek Valley, Yoho National Park, British Columbia, Canada
Source: National Museums of Canada
Description: Colorless pseudohexagonal prism
Measured chemistry: Na_2.00_(Si_3.00_Al_2.00_)O_10_Â·2H_2_O
Pin_id: L00214
Orientation: Laser parallel to -b* (0 -1 0). Fiducial mark perpendicular to laser is parallel to c [0 0 1]
Raman shift (cm-1)	intensity
52.937	0
57.132	60.927
61.325	42.313
65.515	54.044
69.704	78.968
73.891	56.04
78.076	1.365
82.26	7.031
86.441	5.758
90.62	27.321
94.797	106.229
98.973	189.133
103.146	393.074
107.318	1155.88
111.487	1803.01
115.655	1501.97
119.821	2630.03
123.984	1937.38
128.146	1232.96
132.306	2116.76
136.464	5153.17
140.62	9132.67
144.774	6455.27
148.927	2773.64
153.077	3215.6
157.226	7721.6
161.372	12214.5
165.517	7925.96
169.659	3758.41
173.8	2110.86
177.939	1449.32
182.076	1211.8
186.211	875.306
190.344	922.845
194.475	1404.42
198.605	1483.05
202.732	1912.72
206.858	2339.45
210.981	1388.24
215.103	886.101
219.223	555.244
223.341	381.326
227.457	297.253
231.571	376.727
235.684	1009.28
239.794	1872.54
243.902	802.672
248.009	171.38
252.114	56.228
256.217	24.907
260.318	22.404
264.417	34.081
268.514	62.872
272.609	103.767
276.703	99.758
280.794	137.841
284.884	267.014
288.972	351.276
293.058	419.627
297.142	758.065
301.224	2190.59
305.304	4333.18
309.383	1787.82
313.46	414.511
317.534	172.254
321.607	152.045
325.678	252.882
329.747	512.789
333.815	609.766
337.88	823.815
341.944	964.938
346.005	852.136
350.065	844.41
354.123	1485.76
358.179	2552.19
362.234	1900.69
366.286	751.281
370.337	196.946
374.386	23.692
378.432	73.521
382.478	105.031
386.521	95
390.562	90.38
394.602	15.038
398.639	168.334
402.675	483.818
406.709	1363.42
410.742	2733.17
414.772	2855.07
418.8	1766.1
422.827	1246.39
426.852	1319.4
430.875	1968.74
434.896	4792.19
438.916	12528.8
442.933	11676.5
446.949	4405.43
450.963	2080.6
454.975	1179.01
458.985	885.646
462.994	808.484
467	793.501
471.005	818.711
475.008	903.068
479.009	1100.57
483.009	1294.18
487.006	1433.9
491.002	1669.73
494.996	2060.66
498.988	2737.7
502.978	3534.85
506.967	4537.1
510.953	5870.45
514.938	7218.91
518.921	8184.47
522.903	10427.1
526.882	19717.9
530.86	39038.8
534.836	33259.7
538.81	13981
542.782	6032.53
546.753	3269.16
550.721	2165.75
554.688	1521.79
558.653	1112.45
562.617	831.238
566.578	739.155
570.538	563.197
574.496	498.363
578.452	341.65
582.407	244.071
586.359	226.621
590.31	287.292
594.259	408.395
598.206	455.764
602.152	337.693
606.096	235.159
610.038	202.028
613.978	166.089
617.916	147.064
621.853	131.561
625.788	130.415
629.721	134.234
633.652	82.936
637.582	34.3
641.51	21.162
645.436	34.074
649.36	20.033
653.282	23.037
657.203	13.081
661.122	20.164
665.039	79.284
668.955	114.438
672.869	141.624
676.781	229.838
680.691	335.08
684.599	512.345
688.506	760.632
692.411	1071.94
696.314	1367.35
700.216	1770.98
704.115	1720.88
708.013	1331.02
711.91	956.3
715.804	847.269
719.697	862.883
723.588	990.172
727.477	921.454
731.365	568.727
735.25	221.007
739.134	95.652
743.017	67.042
746.897	46.563
750.776	1.073
754.653	9.755
758.529	43.169
762.402	58.893
766.274	15.33
770.144	22.505
774.013	15.425
777.88	40.251
781.745	27.34
785.608	33.372
789.47	34.429
793.329	55.383
797.188	57.321
801.044	83.244
804.899	140.024
808.752	131.747
812.603	133.41
816.452	135.013
820.3	125.555
824.146	128.034
827.991	93.449
831.834	119.801
835.675	123.086
839.514	70.306
843.352	76.459
847.187	104.544
851.022	109.835
854.854	108.505
858.685	112.373
862.514	90.167
866.341	135.883
870.167	137.519
873.991	157.071
877.813	120.539
881.634	102.924
885.453	80.226
889.27	78.444
893.086	67.573
896.9	39.611
900.712	59.568
904.522	42.939
908.331	25.508
912.138	47.1
915.944	63.293
919.747	15.804
923.549	4.552
927.35	2.044
931.148	4.312
934.945	5.64
938.741	19.916
942.534	51.027
946.326	8.497
950.117	2.521
953.905	46.42
957.692	64.323
961.478	187.19
965.261	306.021
969.043	282.818
972.823	431.58
976.602	622.31
980.379	404.007
984.154	238.672
987.928	201.307
991.7	192.915
995.47	213.503
999.239	258.063
1003.01	227.597
1006.77	223.977
1010.53	258.859
1014.3	290.404
1018.06	330.363
1021.82	483.822
1025.57	630.271
1029.33	1079.71
1033.08	2102.15
1036.83	5268.57
1040.59	6512.97
1044.33	2793
1048.08	1214.92
1051.83	691.697
1055.57	476.657
1059.31	343.626
1063.05	338.958
1066.79	366.029
1070.53	401.427
1074.27	491.662
1078	668.496
1081.73	819.257
1085.46	745.989
1089.19	511.057
1092.92	331.233
1096.64	242.581
1100.37	179.798
1104.09	153.087
1107.81	144.471
1111.53	135.871
1115.25	124.219
1118.97	83.583
1122.68	79.962
1126.39	63.299
1130.1	49.614
1133.81	40.929
1137.52	65.299
1141.23	35.475
1144.93	32.848
1148.64	29.231
1152.34	7.653
1156.04	6.622
1159.74	4.376
1163.43	16.009
1167.13	42.212
1170.82	12.224
1174.51	36.865
1178.2	42.072
1181.89	27.456
1185.58	13.472
1189.26	45.292
1192.95	19.76
1196.63	23.276
1200.31	40.207
1203.99	58.528
1207.67	39.762
1211.34	45.982
1215.02	32.404
1218.69	18.416
1222.36	10.111
1226.03	9.426
1229.7	31.367
1233.36	23.081
1237.03	77.408
1240.69	44.542
1244.35	21.759
1248.01	21.854
1251.67	4.894
1255.33	10.94
1258.98	19.003
1262.64	20.967
1266.29	28.918
1269.94	17.823
1273.59	25.724
1277.23	28.561
1280.88	12.444
1284.53	25.344
1288.17	11.053
1291.81	18.663
1295.45	40.224
1299.09	15.777
1302.72	43.275
1306.36	34.376
1309.99	8.755
1313.62	20.478
1317.25	1.737
1320.88	6.091
1324.51	24.024
1328.13	26.086
1331.75	35.129
1335.38	43.087
1339	12.967
1342.62	1.064
1346.23	12.202
1349.85	26.017
1353.46	29.125
1357.08	11.388
1360.69	8.034
1364.3	29.616
1367.9	46.971
1371.51	11.441
1375.12	11.434
1378.72	33.845
1382.32	25.155
1385.92	2.734
1389.52	10.526
1393.12	19.733
1396.71	34.811
1400.31	19.649
1403.9	35.921
1407.49	48.916
1411.08	44.823
1414.67	36.535
1418.25	43.693
1421.84	16.172
1425.42	6.041
1429	14.733
1432.58	47.248
1436.16	28.319
1439.74	45.255
1443.32	52.314
1446.89	75.607
1450.46	53.497
1454.03	31.017
1457.6	50.195
1461.17	12.281
1464.74	30.493
1468.3	20.452
1471.87	41.392
1475.43	43.171
1478.99	26.299
1482.55	43.112
1486.1	17.974
1489.66	33.792
1493.21	65.882
1496.77	14.082
1500.32	20.289
1503.87	7.41
1507.41	15.868
1510.96	4.013
1514.51	4.796
1518.05	12.336
1521.59	17.288
1525.13	52.17
1528.67	0
