Measurement: Raman, 514 nm, ccw, Raman Data Processed
Mineral: Natrolite
Rruff sample: R040102
Ideal chemistry: Na_2_(Si_3_Al_2_)O_10_2H_2_O
Locality: Ross' Quarry, Northland, New Zealand
Source: University of Arizona Mineral Museum
Description: Mass of colorless acicular crystals
Measured chemistry: (Na_0.92_Ca_0.02_)_2_(Si_3.03_Al_1.99_)O_10_Â·2H_2_O
Pin_id: M00475
Orientation: Laser parallel to -a* (-1 0 0). Fiducial mark perpendicular to laser is parallel to b [0 1 0]
Raman shift (cm-1)	intensity
87.519	0
91.684	18.537
95.848	240.454
100.01	379.639
104.171	541.663
108.329	1546.12
112.486	2571.86
116.641	4814.69
120.794	6391.2
124.945	9672.87
129.095	5284.5
133.243	3224.11
137.389	3824.07
141.533	4910.49
145.675	5267.74
149.816	4175.46
153.955	3707.82
158.092	5931.85
162.227	9123.79
166.361	8356.23
170.493	5117.77
174.623	3719.76
178.751	2712.18
182.878	2491.23
187.003	2847.25
191.126	1917.67
195.247	1215.4
199.366	1582.72
203.484	2266.61
207.6	2951.44
211.714	2599.94
215.827	1644.35
219.937	1198.16
224.046	798.476
228.154	216.304
232.259	21.996
236.363	53.883
240.465	327.78
244.565	240.267
248.663	123.225
252.76	341.087
256.855	268.33
260.948	139.72
265.04	26.214
269.129	168.903
273.217	414.959
277.304	522.046
281.388	261.886
285.471	129.314
289.552	196.221
293.631	289.49
297.709	303.867
301.784	603.269
305.859	1281.8
309.931	1001.54
314.002	225.537
318.07	69.799
322.138	134.317
326.203	389.58
330.267	757.854
334.329	985.494
338.389	601.773
342.448	478.353
346.504	546.583
350.56	609.513
354.613	879.048
358.665	1155.25
362.715	1076.16
366.763	582.705
370.809	357.713
374.854	149.375
378.897	5.687
382.939	38.584
386.978	28.075
391.016	81.859
395.053	86.235
399.087	58.291
403.12	203.325
407.151	485.914
411.18	825.259
415.208	872.976
419.234	790.493
423.259	832.738
427.281	1034.87
431.302	1744.35
435.321	3459.87
439.339	7425.16
443.355	10232.6
447.369	6886.72
451.381	3593.34
455.392	1788.45
459.401	1097.6
463.409	733.299
467.414	572.495
471.418	669.254
475.421	874.417
479.421	1204.17
483.42	1391.32
487.417	1527.07
491.413	1583.8
495.407	1500.93
499.399	1352.06
503.39	1383.78
507.379	1578.06
511.366	1981.85
515.351	2430.75
519.335	3075.31
523.317	4425.38
527.298	7761.32
531.277	14303.5
535.254	17033
539.229	10017.1
543.203	4823.56
547.175	2629.23
551.146	1542.78
555.115	914.061
559.082	668.942
563.047	494.906
567.011	394.091
570.973	370.423
574.934	301.29
578.892	232.9
582.85	217.158
586.805	199.737
590.759	185.35
594.711	202.313
598.662	290.272
602.611	218.716
606.558	112.311
610.504	10.865
614.448	70.98
618.39	27.833
622.33	14.294
626.269	6.724
630.207	12.759
634.143	23.853
638.077	29.544
642.009	23.378
645.94	30.781
649.869	43.602
653.797	5.403
657.722	48.627
661.647	44.947
665.569	3.608
669.49	3.75
673.41	42.619
677.327	182.122
681.243	208.265
685.158	272.099
689.071	422.665
692.982	548.792
696.891	689.64
700.799	916.478
704.705	983.33
708.61	898.056
712.513	821.546
716.415	839.199
720.314	862.905
724.213	929.632
728.109	944.601
732.004	762.062
735.897	479.496
739.789	325.757
743.679	188.616
747.568	44.574
751.454	112.403
755.34	127.274
759.223	111.699
763.105	135.693
766.986	56.413
770.865	24.548
774.742	64.761
778.617	35.972
782.491	35.744
786.364	21.164
790.234	7.715
794.104	30.163
797.971	85.584
801.837	71.435
805.701	42.885
809.564	9.63
813.425	19.819
817.285	33.189
821.143	42.316
824.999	43.155
828.854	12.307
832.707	52.151
836.559	1.62
840.409	76.856
844.257	120.834
848.104	79.473
851.949	62.855
855.793	24.997
859.635	68.961
863.476	6.777
867.314	99.423
871.152	106.913
874.987	42.251
878.822	3.446
882.654	40.525
886.485	70.499
890.315	85.308
894.142	113.934
897.969	20.458
901.793	18.542
905.616	73.631
909.438	95.548
913.258	105.061
917.076	108.612
920.893	15.736
924.708	24.215
928.522	108.093
932.334	111.404
936.145	165.463
939.954	131.227
943.761	133.3
947.567	95.047
951.371	242.458
955.174	319.27
958.975	436.621
962.775	523.144
966.573	741.968
970.369	664.291
974.164	571.713
977.957	675.704
981.749	608.295
985.54	548.082
989.328	557.465
993.115	518.312
996.901	574.541
1000.68	695.804
1004.47	883.185
1008.25	1121.79
1012.03	1033.72
1015.81	945.499
1019.58	807.605
1023.36	912.745
1027.13	1014.32
1030.9	1364.03
1034.67	1879
1038.44	3107.04
1042.21	4460.47
1045.97	3206.62
1049.74	1849.61
1053.5	1290.52
1057.26	1030.46
1061.02	962.644
1064.78	877.158
1068.53	819.014
1072.29	790.133
1076.04	1008.87
1079.79	1080.81
1083.54	1217.65
1087.29	1322.72
1091.04	1411.66
1094.79	1404.99
1098.53	1146.73
1102.27	753.762
1106.01	583.572
1109.75	500.853
1113.49	378.428
1117.23	391.952
1120.96	306.713
1124.69	271.195
1128.43	235.285
1132.16	77.625
1135.89	180.89
1139.61	180.678
1143.34	140.869
1147.06	167.786
1150.79	110.093
1154.51	13.614
1158.23	31.052
1161.95	17.917
1165.66	47.281
1169.38	171.659
1173.09	156.364
1176.8	93.586
1180.51	89.542
1184.22	2.73
1187.93	9.237
1191.64	14.124
1195.34	9.617
1199.05	126.395
1202.75	59.439
1206.45	151.048
1210.15	140.283
1213.84	32.518
1217.54	46.972
1221.23	53.083
1224.93	50.3
1228.62	110.83
1232.31	83.625
1235.99	171.065
1239.68	217.167
1243.37	118.83
1247.05	57.897
1250.73	31.816
1254.41	21.064
1258.09	188.837
1261.77	218.035
1265.45	94.871
1269.12	125.189
1272.8	181.248
1276.47	110.5
1280.14	25.123
1283.81	102.813
1287.47	12.174
1291.14	60.007
1294.81	199.171
1298.47	243.095
1302.13	99.386
1305.79	187.624
1309.45	10.4
1313.11	27.612
1316.76	32.542
1320.41	137.166
1324.07	79.471
1327.72	220.741
1331.37	201.801
1335.02	286.699
1338.66	308.38
1342.31	69.687
1345.95	38.096
1349.6	18.362
1353.24	35.811
1356.88	159.165
1360.52	32.054
1364.15	250.031
1367.79	268.226
1371.42	360.863
1375.05	170.331
1378.68	73.45
1382.31	37.748
1385.94	9.795
1389.57	63.595
1393.19	121.357
1396.82	161.277
1400.44	248.644
1404.06	343.158
1407.68	387.954
1411.29	296.717
1414.91	374.804
1418.53	111.467
1422.14	125.562
1425.75	65.76
1429.36	74.741
1432.97	161.463
1436.58	145.707
1440.18	266.618
1443.79	337.132
1447.39	337.992
1450.99	378.533
1454.59	378.682
1458.19	206.303
1461.79	72.849
1465.39	81.664
1468.98	14.24
1472.57	187.675
1476.17	91.353
1479.76	255.794
1483.35	442.205
1486.93	423.003
1490.52	491.979
1494.1	391.603
1497.69	398.873
1501.27	236.041
1504.85	85.979
1508.43	21.549
1512.01	11.759
1515.58	94.706
1519.15	199.965
1522.73	60.5
1526.3	218.311
1529.87	353.489
1533.44	0
