Measurement: Raman, 514 nm, ccw, Raman Data Processed
Mineral: Natrolite
Rruff sample: R060561
Ideal chemistry: Na_2_(Si_3_Al_2_)O_10_2H_2_O
Locality: California, USA
Source: Gemological Institute of America
Description: White fragment
Measured chemistry: Na_2.00_(Si_3.00_Al_2.00_)O_10_Â·2H_2_O
Pin_id: L00568
Orientation: Laser parallel to b* (0 1 0). Fiducial mark perpendicular to laser is parallel to c [0 0 1]
Raman shift (cm-1)	intensity
105.756	0
110.689	655.643
115.619	1965.24
120.547	7905.95
125.472	6941.24
130.395	1240.4
135.315	3836.77
140.233	7614.15
145.149	7845.62
150.062	2958.91
154.972	5014.4
159.881	9372.07
164.786	10590
169.689	4322.39
174.59	1704.44
179.488	1340.8
184.384	2910.36
189.277	1469.09
194.168	1865.34
199.057	4165.82
203.942	5880.56
208.826	7320.29
213.707	4339.71
218.585	3192.41
223.461	937.634
228.335	162.856
233.206	1118.82
238.074	2388.67
242.94	3844.39
247.804	501.612
252.665	559.813
257.524	623.087
262.38	203.649
267.233	697.172
272.085	1391.79
276.933	847.312
281.779	248.741
286.623	306.849
291.464	565.617
296.303	1271.82
301.139	3580.18
305.973	6286.55
310.804	4226.8
315.633	842.634
320.459	779.078
325.283	2138.28
330.104	3163.02
334.923	2520.98
339.739	926.484
344.553	826.482
349.364	1136.92
354.173	1902.76
358.979	2591.95
363.783	2009.46
368.584	403.273
373.383	113.965
378.179	309.31
382.973	160.115
387.764	43.8594
392.553	89.1641
397.339	64.0019
402.123	553.418
406.904	1325.33
411.682	2202.96
416.459	2538.12
421.232	2345.68
426.003	3267.55
430.772	7708.66
435.538	17266
440.302	28471.5
445.063	25204.2
449.821	9025.07
454.577	3201.14
459.331	1585.39
464.082	1089.85
468.83	746.551
473.576	1084.55
478.32	1010.85
483.06	1251.68
487.799	1591.21
492.535	2214.48
497.268	2906.48
501.999	4347.2
506.727	5758.8
511.453	7858.19
516.176	9674.23
520.897	12361.5
525.615	21281.8
530.331	32989.7
535.044	37526.2
539.754	18528.3
544.462	7228.1
549.168	3620.4
553.871	1984.83
558.571	1386.25
563.269	778.68
567.964	985.125
572.657	680.594
577.347	670.078
582.035	293.582
586.72	481.115
591.403	776.688
596.083	912.309
600.761	894.979
605.436	269.889
610.108	220.639
614.778	299.625
619.446	369.629
624.111	215.938
628.773	150.336
633.433	116.777
638.09	32.9863
642.745	82.7188
647.397	196.527
652.046	313.215
656.693	388.977
661.338	359.916
665.98	72.6758
670.619	269.207
675.256	572.705
679.89	724.123
684.522	907.514
689.151	1449.17
693.778	2089.6
698.402	2867.72
703.024	3028.95
707.643	3072.44
712.259	1951.99
716.873	1733.31
721.484	1662.14
726.093	1655.59
730.699	1528.71
735.303	444.412
739.904	256.641
744.502	85.7363
749.098	189.861
753.692	63.752
758.282	70.5488
762.871	67.6797
767.456	6.58203
772.04	42.4648
776.62	53.7383
781.198	12.0078
785.774	235.027
790.346	37.3633
794.917	35.7793
799.485	198.668
804.05	288.83
808.612	221.156
813.172	143.643
817.73	266.328
822.285	128.121
826.837	152.006
831.387	150.125
835.934	467.492
840.479	475.103
845.021	450.951
849.56	251.045
854.097	597.424
858.631	550.09
863.163	599.047
867.692	591.307
872.219	326.869
876.743	278.75
881.265	341.467
885.783	242.613
890.3	147.035
894.813	8.53906
899.325	185.572
903.833	27.7852
908.339	48.4961
912.843	16.959
917.343	302.213
921.842	84.0918
926.337	34.7754
930.831	62.3301
935.321	91.7988
939.809	94.5293
944.294	136.578
948.777	510.453
953.257	578.312
957.735	1866.76
962.21	3827.51
966.682	4230.85
971.152	2480.65
975.619	1598.28
980.084	991.209
984.546	1162.59
989.006	618.867
993.463	1033.18
997.917	1343.47
1002.37	1312.68
1006.82	1199.9
1011.26	610.231
1015.71	410.449
1020.15	641.781
1024.59	1066.47
1029.03	1554.42
1033.46	3602.02
1037.89	6407.05
1042.32	5882.79
1046.74	2666.01
1051.17	1334.83
1055.59	957.805
1060.01	785.41
1064.42	797.236
1068.83	925.973
1073.24	1248.43
1077.65	1726.51
1082.06	2708.6
1086.46	1761.98
1090.86	1205.74
1095.26	968.67
1099.65	409.041
1104.04	572.707
1108.43	507.68
1112.82	87.9746
1117.2	356.576
1121.59	572.492
1125.96	267.801
1130.34	451.4
1134.72	440.324
1139.09	99.5703
1143.46	4.69141
1147.82	287.389
1152.19	22.8242
1156.55	231.65
1160.9	91.5469
1165.26	172.559
1169.61	219.57
1173.96	147.795
1178.31	86.6621
1182.66	220.033
1187	345.982
1191.34	109.074
1195.68	143.531
1200.01	358.33
1204.35	51.0254
1208.67	207.81
1213	202.865
1217.33	88.1582
1221.65	447.69
1225.97	27.377
1230.28	129.264
1234.6	235.381
1238.91	166.721
1243.22	414.275
1247.53	299.037
1251.83	441.006
1256.13	238.363
1260.43	180.613
1264.72	319.113
1269.02	267.852
1273.31	70.2695
1277.6	511.266
1281.88	35.1797
1286.16	89.6016
1290.44	26.0625
1294.72	255.57
1299	308
1303.27	411.453
1307.54	138.91
1311.81	407.191
1316.07	87.1016
1320.33	208.34
1324.59	235.164
1328.85	181.555
1333.1	359.801
1337.35	376.047
1341.6	289.398
1345.85	219.637
1350.09	110.039
1354.33	76.8125
1358.57	70.5352
1362.81	397.758
1367.04	270.223
1371.27	579.434
1375.5	435.156
1379.72	241.68
1383.95	266.496
1388.17	293.852
1392.38	40.4453
1396.6	192.902
1400.81	191.594
1405.02	544.223
1409.23	17.8555
1413.43	233.891
1417.63	264.477
1421.83	33.7148
1426.03	45.8359
1430.22	72.5078
1434.41	383.324
1438.6	419.383
1442.79	607.539
1446.97	793.16
1451.15	633.684
1455.33	716.258
1459.51	892.941
1463.68	384.828
1467.85	410.945
1472.02	479.266
1476.18	430.762
1480.35	179.477
1484.51	228.195
1488.66	430.949
1492.82	267.117
1496.97	66.7617
1501.12	377.102
1505.27	210.449
1509.41	331.703
1513.55	4.99609
1517.69	434.324
1521.83	397.684
1525.96	336.93
1530.09	446.992
1534.22	261.508
1538.35	516.043
1542.47	120.211
1546.59	383.828
1550.71	524.965
1554.82	83.0469
1558.93	365.102
1563.05	234.973
1567.15	176.312
1571.26	214.684
1575.36	156.023
