Measurement: Raman, 514 nm, ccw, Raman Data Processed
Mineral: Natrolite
Rruff sample: R040102
Ideal chemistry: Na_2_(Si_3_Al_2_)O_10_2H_2_O
Locality: Ross' Quarry, Northland, New Zealand
Source: University of Arizona Mineral Museum
Description: Mass of colorless acicular crystals
Measured chemistry: (Na_0.92_Ca_0.02_)_2_(Si_3.03_Al_1.99_)O_10_Â·2H_2_O
Pin_id: M00475
Orientation: Laser parallel to -a* (-1 0 0). Fiducial mark perpendicular to laser is parallel to b [0 1 0]
Raman shift (cm-1)	intensity
86.13	0
90.296	32.901
94.46	202.149
98.623	324.706
102.784	450.017
106.943	684.166
111.1	942.208
115.256	1355.98
119.41	1939.24
123.562	2691.81
127.712	2631.64
131.86	2799.17
136.007	3334.86
140.152	5368.2
144.295	6830.94
148.436	5892.02
152.575	7190.3
156.713	12925.9
160.849	21798.9
164.983	23511.8
169.116	15554.4
173.247	10992.7
177.375	8119.4
181.503	6055.32
185.628	6062.25
189.751	5504.9
193.873	3947.48
197.993	4041.1
202.112	6124.64
206.228	8621.53
210.343	7153.72
214.456	3792.11
218.567	1849.06
222.677	806.577
226.785	285.717
230.891	159.724
234.995	445.541
239.098	1121.04
243.198	1408.61
247.297	422.917
251.395	46.165
255.49	268.583
259.584	272.514
263.676	67.995
267.766	60.435
271.855	242.596
275.942	183.894
280.027	6.667
284.11	3.527
288.192	13.858
292.272	141.337
296.35	313.032
300.426	1095.09
304.501	2389.5
308.574	2714.31
312.645	1030.56
316.714	197.257
320.782	22.41
324.848	42.067
328.912	127.755
332.975	259.979
337.036	316.932
341.095	361.719
345.152	529.071
349.208	696.777
353.262	991.521
357.314	1589.93
361.365	2004.08
365.414	1475.52
369.461	529.344
373.506	227.116
377.55	82.574
381.592	0.67
385.632	11.33
389.67	1.582
393.707	106.443
397.742	167.818
401.776	266.554
405.808	515.828
409.838	904.848
413.866	1189.85
417.892	959.139
421.917	1162.67
425.941	1733.79
429.962	2995.82
433.982	6361.86
438	14187.8
442.016	24364.9
446.031	19673.7
450.044	10537.9
454.055	5219.13
458.065	2975.98
462.073	2211.94
466.079	1910.21
470.084	1806.56
474.087	2132.51
478.088	3126.65
482.087	4127.94
486.085	4549.75
490.081	4203.52
494.076	3673.01
498.069	3043.23
502.06	2508.19
506.049	2415.15
510.037	2739.78
514.023	3382.1
518.007	4413.21
521.99	6127.22
525.971	10499.1
529.951	21450.9
533.928	32401.4
537.904	23277.8
541.879	11295.7
545.851	5672.77
549.822	3216.81
553.792	2137.17
557.759	1374.99
561.725	1034.8
565.69	805.965
569.653	623.694
573.614	566.395
577.573	436.488
581.531	517.245
585.487	586.551
589.441	652.042
593.394	703.551
597.345	684.004
601.295	612.468
605.242	459.15
609.189	250.087
613.133	41.046
617.076	50.782
621.017	54.451
624.957	11.542
628.895	1.498
632.831	9.846
636.765	58.201
640.698	82.109
644.63	25.641
648.56	23.099
652.488	20.052
656.414	11.521
660.339	44.77
664.262	103.111
668.183	82.072
672.103	128.375
676.022	124.911
679.938	230.901
683.853	475.709
687.766	537.422
691.678	890.48
695.588	1208.47
699.497	1599.34
703.404	2034.22
707.309	2093.51
711.212	1847.09
715.114	1776
719.015	1788.12
722.913	1921.34
726.81	2297.06
730.706	2031.25
734.6	1308.13
738.492	800.36
742.383	521.68
746.272	395.762
750.159	275.569
754.045	138.95
757.929	114.943
761.812	139.728
765.692	182.029
769.572	95.023
773.45	77.559
777.326	81.617
781.2	70.243
785.073	28.776
788.944	28.242
792.814	86.468
796.682	71.645
800.549	39.393
804.414	8.772
808.277	45.337
812.139	38.686
815.999	49.117
819.857	24.333
823.714	3.343
827.569	43.002
831.423	24.478
835.275	9.809
839.126	3.909
842.975	78.492
846.822	62.185
850.668	95.146
854.512	99.568
858.355	93.832
862.196	134.938
866.035	86.896
869.873	92.738
873.709	53.434
877.544	127.967
881.377	11.339
885.208	10.512
889.038	79.523
892.867	55.353
896.693	95.997
900.519	56.389
904.342	9.578
908.164	52.644
911.985	42.522
915.804	139.294
919.621	120.836
923.437	164.117
927.251	62.083
931.064	123.775
934.875	112.528
938.684	204.994
942.492	260.003
946.298	313.029
950.103	174.657
953.906	386.455
957.708	567.623
961.508	823.874
965.307	1617.07
969.104	1708.54
972.899	1467.1
976.693	1321.07
980.486	1254.36
984.276	932.619
988.066	718.165
991.853	680.974
995.639	907.62
999.424	1139.85
1003.21	1073.57
1006.99	996.458
1010.77	1008.65
1014.55	1065.34
1018.32	1008.9
1022.1	1191.92
1025.87	1505.94
1029.64	1957.54
1033.41	2950.29
1037.18	5419.94
1040.95	9379.23
1044.72	8366.76
1048.48	4428.83
1052.24	2626.77
1056.01	1949.92
1059.77	1693.64
1063.53	1468.41
1067.28	1462.18
1071.04	1739.65
1074.79	1958.84
1078.54	2118.88
1082.29	2327.88
1086.04	2634.47
1089.79	2894.18
1093.54	3041.21
1097.28	2668.02
1101.02	1806.68
1104.77	1139.83
1108.51	675.511
1112.24	776.628
1115.98	440.853
1119.72	393.221
1123.45	390.604
1127.18	309.149
1130.91	226.952
1134.64	81.993
1138.37	15.96
1142.1	130.469
1145.82	145.391
1149.55	121.779
1153.27	153.351
1156.99	99.115
1160.71	71.293
1164.42	37.576
1168.14	56.658
1171.85	21.798
1175.57	136.516
1179.28	155.465
1182.99	145.401
1186.7	66.86
1190.4	44.803
1194.11	56
1197.81	84.126
1201.51	35.226
1205.21	36.245
1208.91	171.096
1212.61	104.451
1216.31	68.999
1220	125.576
1223.69	213.068
1227.39	51.024
1231.08	75.367
1234.77	100.542
1238.45	125.178
1242.14	131.773
1245.82	139.631
1249.51	65.275
1253.19	46.653
1256.87	22.282
1260.55	100.535
1264.22	21.706
1267.9	170.509
1271.57	127.868
1275.24	163.886
1278.91	138.483
1282.58	52.549
1286.25	24.897
1289.92	19.623
1293.58	62.097
1297.25	20.139
1300.91	94.073
1304.57	71.155
1308.23	130.296
1311.89	107.355
1315.54	128.828
1319.2	22.876
1322.85	89.627
1326.5	0.631
1330.15	34.253
1333.8	517.576
1337.45	134.535
1341.1	46.916
1344.74	80.113
1348.38	176.273
1352.02	166.118
1355.66	85.21
1359.3	118.412
1362.94	54.745
1366.58	14.593
1370.21	114.289
1373.84	17.988
1377.47	177.382
1381.1	196.9
1384.73	172.607
1388.36	173.518
1391.98	153.271
1395.61	130.047
1399.23	27.797
1402.85	63.237
1406.47	79.678
1410.09	206.606
1413.7	265.682
1417.32	268.649
1420.93	343.731
1424.55	330.838
1428.16	855.928
1431.77	240.025
1435.38	55.295
1438.98	127.284
1442.59	102.726
1446.19	128.695
1449.79	100.277
1453.39	284.489
1456.99	212.873
1460.59	368.578
1464.19	375.948
1467.78	341.881
1471.38	257.271
1474.97	263.029
1478.56	218.076
1482.15	174.469
1485.74	59.478
1489.32	14.917
1492.91	89.531
1496.49	264.692
1500.07	431.784
1503.65	349.07
1507.23	396.762
1510.81	365.032
1514.39	296.73
1517.96	5.68
1521.54	153.994
1525.11	2.515
1528.68	40.662
1532.25	0
