Measurement: Raman, 514 nm, ccw, Raman Data Processed
Mineral: Natrolite
Rruff sample: R040102
Ideal chemistry: Na_2_(Si_3_Al_2_)O_10_2H_2_O
Locality: Ross' Quarry, Northland, New Zealand
Source: University of Arizona Mineral Museum
Description: Mass of colorless acicular crystals
Measured chemistry: (Na_0.92_Ca_0.02_)_2_(Si_3.03_Al_1.99_)O_10_Â·2H_2_O
Pin_id: S00542
Orientation: Laser parallel to b* (0 1 0). Fiducial mark perpendicular to laser is parallel to -c [0 0 -1]
Raman shift (cm-1)	intensity
99.644	0
103.82	145.984
107.995	758.256
112.168	2405.97
116.339	4272.84
120.508	8110.07
124.675	6492.21
128.84	3246.91
133.003	2879.13
137.164	2973.67
141.323	4012.87
145.48	3049.03
149.635	1378.25
153.788	1813.81
157.939	4015.03
162.088	5888.38
166.235	4566.99
170.38	2709.54
174.523	1788.86
178.664	1760.97
182.803	2265.45
186.94	1319.24
191.076	737.671
195.209	897.264
199.34	1165.52
203.47	1973.3
207.597	1886.34
211.722	1454.77
215.846	1384.39
219.967	741.782
224.087	103.695
228.204	162.313
232.32	191.566
236.434	383.047
240.545	908.769
244.655	118.585
248.763	459.097
252.869	585.792
256.973	568.449
261.075	408.101
265.175	2.725
269.273	575.22
273.369	567.076
277.463	544.549
281.556	756.589
285.646	730.185
289.734	930.416
293.821	1067.88
297.905	1420.74
301.988	2299.74
306.069	2921.38
310.147	2308.44
314.224	1729.88
318.299	1588.77
322.372	1877.16
326.443	2426.84
330.512	2994
334.579	2854.89
338.645	2415.26
342.708	2422.31
346.769	2506.45
350.829	2610.71
354.887	2997.71
358.942	3156.11
362.996	2879.33
367.048	2362.5
371.098	2127.22
375.146	1939.81
379.192	1857.86
383.236	1760.06
387.279	1965.12
391.319	1807
395.358	1865.79
399.394	1610.49
403.429	1819.06
407.462	2130.11
411.493	2298.02
415.522	2267.11
419.549	1963.37
423.575	2103.99
427.598	2271.74
431.619	3463.94
435.639	6013.69
439.657	10113
443.673	9821.56
447.687	6118.4
451.699	3445.81
455.709	2103.41
459.717	1592.41
463.724	1325.47
467.728	1445.38
471.731	1499.27
475.732	1596.74
479.731	1729.53
483.728	1713.1
487.723	1956.39
491.716	1866.87
495.708	1903.94
499.697	1947.84
503.685	2229.38
507.671	2702.28
511.655	3137.18
515.637	3645.78
519.617	4437.23
523.596	5857
527.572	10640
531.547	16917.8
535.52	14784.1
539.491	7849.01
543.46	4212.05
547.427	2656.84
551.393	1704.25
555.356	1447.3
559.318	1095.17
563.278	914.561
567.236	854.337
571.192	821.051
575.147	810.475
579.099	632.327
583.05	497.307
586.999	323.456
590.946	265.533
594.891	452.78
598.834	295.67
602.776	262.801
606.715	224.869
610.653	151.655
614.589	105.837
618.523	24.62
622.456	26.894
626.386	19.178
630.315	23.506
634.242	3.373
638.167	35.459
642.09	14.251
646.012	33.33
649.931	76.8
653.849	50.99
657.765	74.851
661.679	94.225
665.592	47.713
669.502	36.255
673.411	182.395
677.318	117.705
681.223	216.071
685.126	211.361
689.028	457.309
692.927	452.711
696.825	721.676
700.721	809.716
704.616	848.622
708.508	807.598
712.399	596.437
716.288	544.505
720.175	669.821
724.06	674.834
727.944	524.629
731.825	278.197
735.705	139.814
739.584	1.541
743.46	41.805
747.334	3.432
751.207	48.525
755.078	0.892
758.947	16.848
762.815	89.601
766.68	9.972
770.544	30.449
774.406	54.456
778.267	61.739
782.125	40.179
785.982	58.885
789.837	51.373
793.69	14.432
797.542	12.453
801.391	25.201
805.239	15.126
809.085	8.46
812.93	38.798
816.772	119.611
820.613	49.009
824.452	0.119
828.29	1.604
832.125	55.45
835.959	52.63
839.791	102.074
843.621	143.624
847.45	109.473
851.277	94.878
855.102	91.58
858.925	109.993
862.746	169.487
866.566	236.041
870.384	125.726
874.2	137.167
878.015	58.331
881.828	74.144
885.639	127.662
889.448	103.723
893.256	93.362
897.061	116.452
900.865	67.779
904.668	75.723
908.468	174.007
912.267	175.717
916.064	109.438
919.86	78.829
923.653	211.9
927.445	116.3
931.236	129.405
935.024	56.231
938.811	211.169
942.596	97.731
946.379	330.507
950.161	272.955
953.94	354.629
957.719	618.519
961.495	1054.44
965.27	1274.85
969.043	994.367
972.814	875.848
976.583	742.714
980.351	542.721
984.117	459.284
987.882	414.818
991.644	536.691
995.405	767.42
999.165	779.251
1002.92	821.08
1006.68	872.604
1010.43	765.873
1014.18	679.003
1017.93	704.93
1021.68	850.389
1025.43	915.647
1029.18	1145.1
1032.92	1688.34
1036.66	2738.82
1040.4	3268.14
1044.14	1998.95
1047.88	1408.87
1051.62	935.329
1055.35	726.691
1059.08	667.449
1062.81	658.833
1066.54	614.25
1070.27	719.499
1073.99	730.61
1077.72	850.346
1081.44	891.123
1085.16	992.072
1088.88	953.76
1092.59	876.597
1096.31	628.086
1100.02	489.575
1103.73	461.003
1107.44	472.911
1111.15	243.833
1114.86	264.572
1118.57	325.647
1122.27	287.948
1125.97	228.698
1129.67	179.913
1133.37	191.396
1137.07	232.263
1140.76	53.793
1144.45	25.694
1148.15	48.695
1151.84	89.392
1155.53	101.215
1159.21	8.367
1162.9	51.826
1166.58	58.264
1170.26	48.381
1173.94	141.356
1177.62	160.495
1181.3	149.624
1184.97	108.571
1188.65	109.362
1192.32	98.841
1195.99	137.642
1199.66	16.548
1203.33	64.706
1206.99	122.832
1210.65	0.929
1214.32	53.314
1217.98	11.367
1221.64	139.668
1225.29	113.559
1228.95	68.601
1232.6	143.322
1236.26	67.209
1239.91	104.223
1243.56	150
1247.2	186.129
1250.85	22.868
1254.49	155.766
1258.13	275.049
1261.78	222.164
1265.41	97.158
1269.05	272.717
1272.69	307.29
1276.32	311.594
1279.95	216.311
1283.59	90.427
1287.21	43.965
1290.84	16.739
1294.47	119.627
1298.09	72.249
1301.72	245.705
1305.34	164.226
1308.96	114.772
1312.58	127.846
1316.19	174.709
1319.81	133.708
1323.42	153.983
1327.03	219.335
1330.64	198.479
1334.25	37.361
1337.86	295.339
1341.46	264.364
1345.07	161.829
1348.67	85.684
1352.27	72.813
1355.87	51.428
1359.46	144.717
1363.06	121.324
1366.65	327.526
1370.25	13.59
1373.84	130.598
1377.43	155.469
1381.02	189.922
1384.6	178.099
1388.18	66.57
1391.77	16.75
1395.35	24.699
1398.93	103.439
1402.51	200.889
1406.08	184.837
1409.66	191.434
1413.23	357.143
1416.8	333.276
1420.37	199.861
1423.94	106.497
1427.51	153.212
1431.08	134.973
1434.64	149.479
1438.2	144.779
1441.76	392.57
1445.32	424.877
1448.88	431.224
1452.43	311.851
1455.99	353.814
1459.54	345.521
1463.09	285.191
1466.64	184.414
1470.19	170.114
1473.74	164.896
1477.28	60.33
1480.83	224.328
1484.37	292.457
1487.91	327.824
1491.45	274.831
1494.98	251.768
1498.52	218.697
1502.05	164.641
1505.59	162.145
1509.12	79.037
1512.65	10.981
1516.17	35.625
1519.7	78.58
