Measurement: Raman, 514 nm, ccw, Raman Data Processed
Mineral: Natrolite
Rruff sample: R040102
Ideal chemistry: Na_2_(Si_3_Al_2_)O_10_2H_2_O
Locality: Ross' Quarry, Northland, New Zealand
Source: University of Arizona Mineral Museum
Description: Mass of colorless acicular crystals
Measured chemistry: (Na_0.92_Ca_0.02_)_2_(Si_3.03_Al_1.99_)O_10_Â·2H_2_O
Pin_id: S00542
Orientation: Laser parallel to b* (0 1 0). Fiducial mark perpendicular to laser is parallel to -c [0 0 -1]
Raman shift (cm-1)	intensity
91.284	0
95.465	313.383
99.644	564.609
103.82	581.565
107.995	1359.31
112.168	1596.85
116.339	2549.09
120.508	2963.17
124.675	3721.35
128.84	2973.36
133.003	3603.42
137.164	4767.9
141.323	5325.24
145.48	4561.75
149.635	3150.06
153.788	3399.65
157.939	5490.63
162.088	6490.97
166.235	4916.24
170.38	3070.62
174.523	2154.05
178.664	1776.47
182.803	1529.42
186.94	1466.47
191.076	1124.26
195.209	1158.36
199.34	1212.54
203.47	1333.3
207.597	1078.68
211.722	726.332
215.846	593.203
219.967	350.163
224.087	54.904
228.204	37.911
232.32	84.358
236.434	257.685
240.545	410.203
244.655	147.66
248.763	259.362
252.869	290.205
256.973	223.906
261.075	306.081
265.175	188.289
269.273	9.262
273.369	69.292
277.463	91.954
281.556	116.464
285.646	212.608
289.734	209.322
293.821	404.467
297.905	759.97
301.988	1365.6
306.069	1698.38
310.147	1188.56
314.224	636.315
318.299	551.639
322.372	548.149
326.443	652.069
330.512	878.994
334.579	957.496
338.645	1081.53
342.708	1245.76
346.769	1466.57
350.829	1545.24
354.887	1762.18
358.942	1907.8
362.996	1702.51
367.048	1166.46
371.098	728.985
375.146	656.061
379.192	654.208
383.236	462.233
387.279	545.031
391.319	486.663
395.358	493.016
399.394	609.376
403.429	704.756
407.462	1266.89
411.493	1635.14
415.522	1691.59
419.549	1568.02
423.575	1313.99
427.598	1417.96
431.619	2104.68
435.639	3847.77
439.657	6418.16
443.673	6095.2
447.687	4064.61
451.699	2223.85
455.709	1336.53
459.717	1044.29
463.724	937.178
467.728	903.69
471.731	868.316
475.732	909.572
479.731	1104.92
483.728	996.456
487.723	1287.96
491.716	1432.17
495.708	1705.75
499.697	1981.09
503.685	2377.74
507.671	2984.26
511.655	3440.54
515.637	4298.5
519.617	5283.31
523.596	7537.69
527.572	14311.8
531.547	22841.2
535.52	19088.6
539.491	9555.54
543.46	5001.19
547.427	3087.36
551.393	1843.2
555.356	1480.63
559.318	1298.88
563.278	948.06
567.236	841.126
571.192	794.491
575.147	688.526
579.099	583.376
583.05	439.267
586.999	307.957
590.946	166.194
594.891	234.37
598.834	342.997
602.776	161.377
606.715	115.4
610.653	117.708
614.589	27.154
618.523	97.208
622.456	44.469
626.386	91.38
630.315	57.626
634.242	45.636
638.167	46.092
642.09	23.388
646.012	5.767
649.931	104.716
653.849	47.32
657.765	84.591
661.679	141.236
665.592	58.357
669.502	126.025
673.411	252.819
677.318	152.411
681.223	211.155
685.126	197.436
689.028	463.714
692.927	450.066
696.825	756.875
700.721	683.208
704.616	659.48
708.508	765.917
712.399	531.974
716.288	388.381
720.175	604.732
724.06	521.527
727.944	514.102
731.825	210.323
735.705	96.421
739.584	12.045
743.46	57.95
747.334	53.95
751.207	149.25
755.078	44.433
758.947	113.915
762.815	6.163
766.68	20.535
770.544	3.191
774.406	15.462
778.267	15.547
782.125	12.179
785.982	11.687
789.837	113.837
793.69	47.941
797.542	92.5
801.391	22.985
805.239	40.173
809.085	154.9
812.93	244.248
816.772	224.131
820.613	43.375
824.452	42.917
828.29	220.045
832.125	69.689
835.959	119.216
839.791	148.488
843.621	127.678
847.45	86.722
851.277	45.614
855.102	154.349
858.925	232.964
862.746	141.478
866.566	109.857
870.384	148.151
874.2	16.305
878.015	54.281
881.828	92.05
885.639	69.564
889.448	206.734
893.256	133.269
897.061	44.906
900.865	83.922
904.668	130.184
908.468	145.251
912.267	81.28
916.064	30.317
919.86	92.403
923.653	156.134
927.445	80.35
931.236	15.621
935.024	75.819
938.811	68.451
942.596	4.574
946.379	223.553
950.161	12.686
953.94	72.259
957.719	155.293
961.495	345.794
965.27	80.432
969.043	205.533
972.814	389.608
976.583	373.363
980.351	268.227
984.117	369.477
987.882	372.039
991.644	306.672
995.405	341.539
999.165	397.464
1002.92	582.817
1006.68	428.961
1010.43	498.889
1014.18	505.173
1017.93	464.861
1021.68	723.055
1025.43	906.869
1029.18	971.972
1032.92	1580.99
1036.66	2936.95
1040.4	2834.83
1044.14	1650.57
1047.88	1134.75
1051.62	799.293
1055.35	524.521
1059.08	530.048
1062.81	545.453
1066.54	366.74
1070.27	480.979
1073.99	698.59
1077.72	532.643
1081.44	687.141
1085.16	561.881
1088.88	602.645
1092.59	738.59
1096.31	573.547
1100.02	428.289
1103.73	583.768
1107.44	408.164
1111.15	462.57
1114.86	397.088
1118.57	520.98
1122.27	515.041
1125.97	209.43
1129.67	364.383
1133.37	279.232
1137.07	163.67
1140.76	68.385
1144.45	29.77
1148.15	25.582
1151.84	328.859
1155.53	255.658
1159.21	21.029
1162.9	71.48
1166.58	65.006
1170.26	118.729
1173.94	152.117
1177.62	103.928
1181.3	214.918
1184.97	286.037
1188.65	81.418
1192.32	104.949
1195.99	38.895
1199.66	79.918
1203.33	39.719
1206.99	29.221
1210.65	219.598
1214.32	210.789
1217.98	39.779
1221.64	98.67
1225.29	29.252
1228.95	69.439
1232.6	327.355
1236.26	19.641
1239.91	356.803
1243.56	343.633
1247.2	310.051
1250.85	26.523
1254.49	192.932
1258.13	179.775
1261.78	276.186
1265.41	311.373
1269.05	416.943
1272.69	351.543
1276.32	436.639
1279.95	470.66
1283.59	134.164
1287.21	72.406
1290.84	78.779
1294.47	99.748
1298.09	141.969
1301.72	402.246
1305.34	356.43
1308.96	75.742
1312.58	207.611
1316.19	26.385
1319.81	125.145
1323.42	242.641
1327.03	280.076
1330.64	205.846
1334.25	199.164
1337.86	216.992
1341.46	312.613
1345.07	268.145
1348.67	253.059
1352.27	186.969
1355.87	1.482
1359.46	256.133
1363.06	229.508
1366.65	190.121
1370.25	63.547
1373.84	239.727
1377.43	322.869
1381.02	276.133
1384.6	214.783
1388.18	261.049
1391.77	199.41
1395.35	227.926
1398.93	73.914
1402.51	378.953
1406.08	423.812
1409.66	256.822
1413.23	323.121
1416.8	465.777
1420.37	365.047
1423.94	228.865
1427.51	235.508
1431.08	208.236
1434.64	279.277
1438.2	139.852
1441.76	477.791
1445.32	695.65
1448.88	541.566
1452.43	479.762
1455.99	567.234
1459.54	372.348
1463.09	472.879
1466.64	295.535
1470.19	196.697
1473.74	238.928
1477.28	30.617
1480.83	388.986
1484.37	409.811
1487.91	385.258
1491.45	449.557
1494.98	435.973
1498.52	263.93
1502.05	237.555
1505.59	405.012
1509.12	166.068
1512.65	15.764
1516.17	75.123
1519.7	0
