Measurement: Raman, 514 nm, ccw, Raman Data Processed
Mineral: Natrolite
Rruff sample: R060561
Ideal chemistry: Na_2_(Si_3_Al_2_)O_10_2H_2_O
Locality: California, USA
Source: Gemological Institute of America
Description: White fragment
Measured chemistry: Na_2.00_(Si_3.00_Al_2.00_)O_10_Â·2H_2_O
Pin_id: L00568
Orientation: Laser parallel to b* (0 1 0). Fiducial mark perpendicular to laser is parallel to c [0 0 1]
Raman shift (cm-1)	intensity
97.118	0
102.055	21.9656
106.989	1249.62
111.921	1103.91
116.851	1038.41
121.778	3645.22
126.703	3205.12
131.625	4895.77
136.545	9461.15
141.462	16941.1
146.377	15531.1
151.29	8013.4
156.2	9189.34
161.107	15879.3
166.012	15917
170.915	8089.27
175.815	4879.82
180.713	3866.1
185.608	3838.47
190.5	4300.86
195.391	6224.73
200.278	9189.25
205.164	13373.4
210.046	14234.1
214.927	6861.21
219.805	3602.96
224.68	2732.18
229.553	2636.37
234.423	4147.14
239.291	8290.1
244.157	10025.5
249.019	3458.96
253.88	1893.18
258.738	1691.36
263.593	2393.62
268.446	3535.49
273.297	4798.69
278.145	2229.3
282.991	1223.61
287.834	932.075
292.674	1206.27
297.512	2368.88
302.348	5286.59
307.181	11318.1
312.012	5576.35
316.84	1252.96
321.665	472.755
326.488	178.654
331.309	276.664
336.127	137.772
340.943	75.9746
345.756	207.267
350.567	591.295
355.375	1017.13
360.18	1776.79
364.983	1142.08
369.784	291.78
374.582	236.207
379.378	197.31
384.171	239.207
388.961	203.833
393.75	230.878
398.535	14.9004
403.318	132.907
408.099	640.63
412.877	1182.04
417.652	1184.01
422.425	1419.43
427.196	2734.22
431.964	7298.48
436.729	18982.6
441.492	42822.2
446.253	31337.7
451.01	9427.31
455.766	3334.86
460.519	1414.35
465.269	526.744
470.017	232.23
474.762	34.8203
479.505	44.334
484.245	49.6084
488.983	80.1475
493.718	379.991
498.451	525.607
503.181	956.972
507.909	2062.5
512.634	3091.73
517.356	4395.89
522.077	6137.65
526.794	9915.61
531.509	19173.7
536.221	22509.8
540.931	9872.02
545.639	3771.8
550.344	1718.3
555.046	925.187
559.746	567.428
564.443	459.993
569.138	202.847
573.83	135.919
578.52	139.172
583.207	292.579
587.891	425.16
592.573	1077.89
597.253	1830.74
601.93	1474.7
606.604	552.229
611.276	175.743
615.945	60.0645
620.612	100.179
625.276	203.01
629.938	155.408
634.597	96.6465
639.254	78.8438
643.908	147.568
648.559	267.017
653.208	331.044
657.855	426.045
662.499	185.943
667.14	196.371
671.779	168.675
676.415	370.628
681.049	489.793
685.68	681.667
690.308	1266.19
694.934	2034.3
699.558	3304.66
704.179	3796.08
708.797	2979.81
713.413	1999.96
718.026	1794.25
722.637	1820.99
727.245	1908.38
731.85	1506.42
736.453	721.104
741.054	342.42
745.652	130.357
750.247	17.7646
754.84	37.959
759.43	79.1094
764.017	14.7607
768.602	136.237
773.185	122.694
777.765	4.59082
782.342	97.4961
786.917	59.6846
791.489	43.1377
796.059	90.458
800.626	175.643
805.191	27.751
809.753	220.69
814.312	118.905
818.869	132.614
823.423	93.9141
827.975	352.817
832.524	236.35
837.07	111.519
841.614	316.328
846.156	379.796
850.695	280.956
855.231	224.818
859.765	551.379
864.296	506.633
868.824	355.59
873.35	303.292
877.874	478.714
882.395	102.512
886.913	337.074
891.428	207.303
895.942	243.329
900.452	65.668
904.96	111.406
909.465	185.653
913.968	128.477
918.468	39.8213
922.966	4.33008
927.461	200.017
931.953	85.2451
936.443	130.871
940.931	56.0566
945.415	263.574
949.897	600.102
954.377	1044.46
958.854	2612.78
963.328	6121.07
967.8	6730.93
972.269	2894.93
976.736	1210.34
981.2	571.8
985.661	551.227
990.12	580.893
994.576	1093.63
999.03	2021.45
1003.48	1021.16
1007.93	355.165
1012.38	423.276
1016.82	330.297
1021.26	455.466
1025.7	322.867
1030.13	779.006
1034.57	1612.48
1039	3664.77
1043.42	3300.62
1047.85	1234.43
1052.27	784.609
1056.69	524.391
1061.11	412.776
1065.53	470.312
1069.94	665.428
1074.35	1207.26
1078.75	1422.72
1083.16	2194.02
1087.56	1876.02
1091.96	1276.1
1096.36	864.335
1100.75	401.363
1105.14	290.897
1109.53	138.581
1113.92	40.4121
1118.3	138.519
1122.68	180.662
1127.06	36.9492
1131.44	146.41
1135.81	99.0215
1140.18	32.7266
1144.55	141.568
1148.91	129.836
1153.28	30.9863
1157.64	85.793
1161.99	89.3418
1166.35	22.4551
1170.7	127.83
1175.05	221.244
1179.4	94.7559
1183.74	1.21289
1188.09	46.7051
1192.42	10.7637
1196.76	6.27344
1201.1	62.2598
1205.43	44.8398
1209.76	70.8008
1214.08	14.4863
1218.41	1.49414
1222.73	124.287
1227.05	14.1328
1231.36	71.0059
1235.68	208.91
1239.99	204.871
1244.3	15.1152
1248.6	103.803
1252.9	174.107
1257.2	130.885
1261.5	245.394
1265.8	275.752
1270.09	385.951
1274.38	14.1973
1278.67	313.32
1282.95	45.3789
1287.23	112.541
1291.51	204.816
1295.79	194.197
1300.06	79.6914
1304.34	162.228
1308.61	181.815
1312.87	394.16
1317.13	482.885
1321.4	194.471
1325.65	219.012
1329.91	53.2754
1334.16	139.652
1338.41	337.053
1342.66	117.656
1346.91	188.707
1351.15	167.111
1355.39	367.935
1359.63	227.709
1363.87	318.223
1368.1	122.197
1372.33	286.381
1376.56	25.0332
1380.78	311.582
1385	22.9707
1389.22	18.3086
1393.44	77.0156
1397.65	376.801
1401.86	86.1797
1406.07	15.5781
1410.28	145.312
1414.48	31.4277
1418.68	12.5078
1422.88	324.596
1427.08	200.158
1431.27	203.223
1435.46	62.7051
1439.65	227.447
1443.84	449.908
1448.02	599.342
1452.2	797.164
1456.38	467.721
1460.55	604.414
1464.72	543.644
1468.89	82.0859
1473.06	392.762
1477.22	345.897
1481.39	351.506
1485.55	159.461
1489.7	127.961
1493.86	191.588
1498.01	82.6699
1502.16	263.773
1506.3	319.938
1510.44	194.162
1514.59	4.61133
1518.72	47.377
1522.86	281.328
1526.99	62.8145
1531.12	211.051
1535.25	367.766
1539.38	260.307
1543.5	197.106
1547.62	393.424
1551.74	289.162
1555.85	330.961
1559.96	157.76
1564.07	290.353
1568.18	0.332031
