Measurement: Raman, 514 nm, ccw, Raman Data Processed
Mineral: Natrolite
Rruff sample: R060561
Ideal chemistry: Na_2_(Si_3_Al_2_)O_10_2H_2_O
Locality: California, USA
Source: Gemological Institute of America
Description: White fragment
Measured chemistry: Na_2.00_(Si_3.00_Al_2.00_)O_10_Â·2H_2_O
Pin_id: L00669
Orientation: Laser parallel to c* (0 0 1). Fiducial mark perpendicular to laser is parallel to a [1 0 0]
Raman shift (cm-1)	intensity
79.819	0
84.764	219.491
89.708	517.508
94.648	213.204
99.587	54.907
104.522	99.8313
109.456	949.658
114.387	2994.99
119.315	5039.99
124.241	8955.51
129.164	7050.44
134.085	8371.86
139.004	9859.49
143.92	13557.5
148.834	13964.2
153.745	12413.3
158.654	17384.8
163.56	28971.4
168.464	24672.8
173.365	16336.7
178.264	12584.7
183.16	11296.1
188.054	12069.9
192.946	10170.4
197.835	9857.47
202.721	11155.2
207.605	12498.6
212.487	11264.8
217.366	8307.68
222.243	6658.25
227.117	5369.79
231.988	5028.19
236.857	5126.38
241.724	6011.31
246.588	5175.66
251.45	3685.39
256.309	3408.33
261.166	3574.92
266.02	3774.17
270.872	4175.57
275.721	4219.87
280.568	3286.85
285.412	2748.33
290.254	2614.14
295.094	2757.11
299.93	3201.11
304.765	4947.03
309.597	4248.9
314.426	2108.7
319.253	1581.38
324.077	1720.86
328.899	1898.98
333.718	2001.33
338.535	1468.33
343.35	1061.37
348.162	1333.09
352.971	1645.3
357.778	2551.2
362.582	2541.65
367.384	1297.46
372.183	558.805
376.98	120.955
381.775	26.8809
386.566	290.522
391.356	240.633
396.143	303.522
400.927	223.656
405.709	132.018
410.488	616.918
415.265	707.146
420.039	1101.63
424.811	2155.3
429.58	4772.08
434.347	8916.91
439.111	11204.7
443.873	13801.4
448.632	15792
453.388	7442.73
458.143	2055.62
462.894	670.535
467.643	99.0488
472.39	243.635
477.134	353.268
481.875	993.195
486.614	2000.69
491.351	3429.29
496.085	3980.31
500.816	3427.1
505.545	3352.93
510.272	3128.9
514.995	3916.46
519.717	5015.45
524.436	9421.37
529.152	19357.4
533.866	32754.4
538.577	18840.9
543.285	6983.25
547.992	3114.36
552.695	1810.69
557.396	858.318
562.095	677.885
566.791	439.541
571.484	249.084
576.175	273.43
580.863	149.508
585.549	119.254
590.233	24.6191
594.913	162.361
599.592	13.5957
604.267	71.6348
608.94	42.8633
613.611	89.8027
618.279	22.418
622.945	46.1641
627.608	36.998
632.268	54.7324
636.926	90.5352
641.581	97.6152
646.234	5.24805
650.884	64.5039
655.532	46.5938
660.177	263.041
664.82	268.988
669.46	181.219
674.097	465.949
678.732	409.877
683.364	615.539
687.994	817.816
692.622	1005.42
697.246	1871.82
701.868	2502.85
706.488	2646.36
711.105	2136.36
715.72	1958.88
720.332	2226.98
724.941	2390.68
729.548	2322.42
734.152	1452.18
738.754	743.777
743.353	537.264
747.949	282.305
752.544	391.731
757.135	190.06
761.724	75.582
766.31	246.051
770.894	83.2305
775.475	111.676
780.054	191.119
784.63	139.172
789.203	56.8418
793.774	95.7109
798.343	174.559
802.909	172.522
807.472	171.844
812.033	201.338
816.591	188.787
821.146	198.559
825.699	283.758
830.25	4.8418
834.798	76.416
839.343	173.879
843.885	138.459
848.426	414.164
852.963	339.049
857.498	403.109
862.031	262.332
866.56	21.7324
871.088	324.397
875.612	302.428
880.134	238.801
884.654	101.144
889.171	159.693
893.685	277.738
898.197	54.2793
902.706	91.9062
907.213	28.3594
911.717	169.731
916.218	307.426
920.717	27.6836
925.214	75.5137
929.707	100.232
934.199	302.258
938.687	195.533
943.173	103.861
947.657	160.299
952.137	89.7383
956.616	480.162
961.091	1002.56
965.564	2678.3
970.035	2441.68
974.503	1128.24
978.968	363.682
983.431	484.756
987.891	665.883
992.349	1115.83
996.804	1231.24
1001.26	901.268
1005.71	899.496
1010.15	1111.45
1014.6	1332.32
1019.04	2703.77
1023.48	7578.42
1027.92	9441.13
1032.35	3915.33
1036.78	2177.23
1041.21	2137.98
1045.64	2483.65
1050.06	2995.39
1054.48	2375.3
1058.9	1652.07
1063.32	1975.13
1067.73	2298.84
1072.14	2663.22
1076.55	2105.48
1080.96	1755.53
1085.36	1908.02
1089.76	2657.78
1094.16	2438.6
1098.55	1496.76
1102.95	645.693
1107.34	514.008
1111.72	374.062
1116.11	69.9199
1120.49	370.769
1124.87	339.113
1129.25	130.559
1133.62	192.713
1137.99	166.502
1142.36	176.043
1146.73	17.4023
1151.1	137.106
1155.46	179.113
1159.82	302.316
1164.17	130.293
1168.53	7.35938
1172.88	97.4609
1177.22	197.734
1181.57	112.695
1185.91	205.344
1190.26	241.641
1194.59	81.7227
1198.93	110.512
1203.26	193.031
1207.59	118.309
1211.92	97.3984
1216.24	276.582
1220.57	53.1328
1224.89	174.176
1229.2	187.957
1233.52	185.652
1237.83	310.961
1242.14	209.023
1246.45	320.668
1250.75	475.945
1255.05	71.3047
1259.35	273.258
1263.65	383.891
1267.94	199.418
1272.23	336.422
1276.52	88.1875
1280.81	282.836
1285.09	201.031
1289.37	238.348
1293.65	59.0898
1297.93	325.219
1302.2	123.5
1306.47	78.8359
1310.74	184.203
1315	505.508
1319.27	91.7734
1323.53	286.961
1327.78	128.461
1332.04	295.098
1336.29	227.121
1340.54	6.73438
1344.79	222.273
1349.03	193.609
1353.27	253.773
1357.51	199.898
1361.75	212.184
1365.98	226.941
1370.21	312.801
1374.44	256.629
1378.67	229.262
1382.89	354.227
1387.11	182.477
1391.33	109.344
1395.55	411.348
1399.76	186.531
1403.97	340.484
1408.18	156.836
1412.38	281.223
1416.58	120.887
1420.78	141.719
1424.98	124.172
1429.17	59.3672
1433.37	328.953
1437.56	244.965
1441.74	204.172
1445.93	74.8008
1450.11	319.188
1454.29	548.926
1458.46	390.617
1462.64	320.559
1466.81	313.156
1470.98	11.668
1475.14	33.4766
1479.31	326.438
1483.47	269.559
1487.62	453.59
1491.78	20.332
1495.93	180.231
1500.08	171.18
1504.23	13.8125
1508.37	221.707
1512.52	129.059
1516.65	47.2227
1520.79	717.812
1524.93	539.969
1529.06	425.93
1533.19	601.695
1537.31	107.461
1541.44	54.3555
1545.56	233.621
1549.68	533.465
1553.79	253.891
1557.91	285.828
1562.02	288.656
1566.12	181.578
1570.23	265.781
1574.33	259.945
