Measurement: Raman, 514 nm, ccw, Raman Data Processed
Mineral: Natrolite
Rruff sample: R040112
Ideal chemistry: Na_2_(Si_3_Al_2_)O_10_2H_2_O
Locality: Ice River Alkaline Complex, Moose Creek Valley, Yoho National Park, British Columbia, Canada
Source: National Museums of Canada
Description: Colorless pseudohexagonal prism
Measured chemistry: Na_2.00_(Si_3.00_Al_2.00_)O_10_Â·2H_2_O
Pin_id: L00109
Orientation: Laser parallel to -c* (0 0 -1). Fiducial mark perpendicular to laser is parallel to a [1 0 0]
Raman shift (cm-1)	intensity
133.393	0
137.568	178.64
141.741	858.25
145.911	999.827
150.08	2470.15
154.247	7517.6
158.411	21378.7
162.574	47935.8
166.734	45433.5
170.893	19439.6
175.049	8457.35
179.203	4383.14
183.355	2743.8
187.505	1734.79
191.653	1601.57
195.799	2180.84
199.943	3032.62
204.084	5624.51
208.224	9293.65
212.362	5654.1
216.497	2107.78
220.631	749.449
224.762	411.775
228.891	149.522
233.018	44.694
237.144	454.3
241.267	1347.97
245.388	511.314
249.507	205.818
253.624	116.785
257.739	59.383
261.852	161.136
265.962	172.057
270.071	189.608
274.178	237.513
278.283	139.163
282.385	23.116
286.486	296.09
290.584	159.977
294.681	43.443
298.775	193.829
302.868	965.363
306.958	1212.8
311.047	0.244
315.133	88.228
319.217	233.867
323.299	20.436
327.38	194.418
331.458	129.523
335.534	447.282
339.608	248.993
343.681	227.871
347.751	794.603
351.819	1611.19
355.885	2313.9
359.949	3555.23
364.011	3147.59
368.071	1658.83
372.129	616.458
376.185	203.448
380.239	429.103
384.291	579.716
388.341	366.15
392.389	26.355
396.435	331.857
400.479	699.248
404.521	539.638
408.561	338.039
412.599	907.508
416.636	1011.9
420.67	1034.26
424.702	1027.43
428.732	2246.38
432.76	4886.48
436.786	8453.4
440.81	11864.7
444.832	20956.7
448.852	32618.5
452.87	20971.3
456.887	8126.1
460.901	3645.52
464.913	2738.78
468.923	2247.85
472.931	1790.74
476.938	1742.26
480.942	2449.63
484.944	3451.06
488.945	4184.26
492.943	5726.03
496.94	8015.86
500.934	9214.88
504.927	7951.02
508.917	5730.09
512.906	4789.12
516.892	5528.11
520.877	7358.75
524.86	11988.7
528.841	28137.7
532.82	55956.7
536.796	43045.7
540.771	18264.9
544.744	8463.23
548.715	5031.85
552.684	3769.42
556.652	2959.06
560.617	1863.47
564.58	1087.39
568.541	1021.41
572.501	1355.58
576.458	995.211
580.414	386.367
584.367	322.192
588.319	596.535
592.268	926.185
596.216	448.685
600.162	105.742
604.106	227.597
608.048	681.874
611.988	646.583
615.926	55.409
619.862	142.857
623.797	145.99
627.729	692.572
631.659	563.535
635.588	50.344
639.515	136.123
643.439	382.319
647.362	771.217
651.283	363.96
655.202	38.742
659.119	154.368
663.034	404.518
666.947	829.88
670.859	446.892
674.768	22.438
678.676	13.622
682.581	589.439
686.485	1069.09
690.387	931.463
694.287	793.345
698.185	1166.73
702.081	2079.14
705.975	2372.47
709.868	2055.94
713.758	1493.28
717.647	1866.41
721.533	3419.57
725.418	4912.98
729.301	4676.02
733.182	2599.22
737.061	1104.29
740.939	997.701
744.814	1252.41
748.688	846.764
752.559	231.249
756.429	83.509
760.297	311.767
764.163	822.797
768.027	859.545
771.89	311.624
775.75	221.049
779.609	145.605
783.465	730.287
787.32	987.945
791.173	585.434
795.024	37.434
798.873	7.738
802.721	472.466
806.566	968.715
810.41	930.081
814.252	286.82
818.092	8.5
821.93	212.027
825.766	955.336
829.601	1074.81
833.433	691.646
837.264	85.702
841.093	33.425
844.92	457.275
848.745	1077.83
852.568	1019.17
856.39	434.346
860.209	76.408
864.027	121.402
867.843	832.329
871.657	1134.16
875.47	893.861
879.28	281.506
883.089	55.102
886.896	232.658
890.701	882.094
894.504	1177.36
898.305	852.378
902.105	317.22
905.902	101.802
909.698	165.049
913.492	841.356
917.285	1141.78
921.075	745.881
924.864	161.953
928.65	142.061
932.435	348.017
936.218	1010.34
940	1284.21
943.779	1036.35
947.557	491.547
951.333	84.377
955.107	466.798
958.879	1382.99
962.65	2229.36
966.418	3173.09
970.185	2787.92
973.95	863.541
977.714	401.666
981.475	737.614
985.235	1260.19
988.993	1445.07
992.749	1009.65
996.503	296.642
1000.26	226.751
1004.01	1013.8
1007.75	1886.33
1011.5	2694.96
1015.25	3132.95
1018.99	4921.43
1022.73	12615.2
1026.47	27984.1
1030.21	16762.9
1033.95	7930.73
1037.68	4777.92
1041.41	3269.56
1045.15	2209.99
1048.88	1797.96
1052.6	2359.33
1056.33	3544.24
1060.05	5782.2
1063.78	7949.42
1067.5	8477.31
1071.21	5785.71
1074.93	3564.68
1078.65	2453.9
1082.36	2563.55
1086.07	2923.71
1089.78	2983.94
1093.49	2484.54
1097.2	1325.7
1100.9	597.145
1104.6	648.937
1108.3	981.054
1112	1363.43
1115.7	1416.95
1119.4	881.998
1123.09	488.714
1126.78	26.773
1130.47	66.06
1134.16	466.703
1137.85	1358.88
1141.54	1772.88
1145.22	1399.02
1148.9	681.069
1152.58	174.522
1156.26	6.36
1159.94	342.011
1163.61	1176.69
1167.28	1447.99
1170.95	1638.52
1174.62	1251.84
1178.29	504.895
1181.96	2.992
