Measurement: Raman, 514 nm, ccw, Raman Data Processed
Mineral: Natrolite
Rruff sample: R040102
Ideal chemistry: Na_2_(Si_3_Al_2_)O_10_2H_2_O
Locality: Ross' Quarry, Northland, New Zealand
Source: University of Arizona Mineral Museum
Description: Mass of colorless acicular crystals
Measured chemistry: (Na_0.92_Ca_0.02_)_2_(Si_3.03_Al_1.99_)O_10_Â·2H_2_O
Pin_id: S00341
Orientation: Laser parallel to -c* (0 0 -1). Fiducial mark perpendicular to laser is parallel to a [1 0 0]
Raman shift (cm-1)	intensity
130.228	0
134.39	4.371
138.55	505.766
142.709	1157
146.865	1104
151.019	1065.7
155.171	1746.12
159.322	3026.97
163.47	4092.11
167.617	2963.54
171.761	1837.49
175.904	1146.98
180.044	824.433
184.183	818.497
188.319	651.7
192.454	580.518
196.586	683.482
200.717	1043.09
204.846	1475.58
208.972	1297.03
213.097	769.121
217.22	523.351
221.341	175.812
225.46	153.309
229.577	103.918
233.692	176.914
237.805	503.189
241.916	600.022
246.025	271.302
250.132	49.597
254.237	132.325
258.34	33.31
262.442	75.886
266.541	41.782
270.639	148.813
274.734	110.829
278.828	13.427
282.919	33.362
287.009	64.833
291.097	3.558
295.183	59.68
299.266	241.422
303.348	529.737
307.428	460.291
311.507	173.563
315.583	50.193
319.657	37.969
323.729	56.777
327.8	116.568
331.868	158.225
335.935	141.722
339.999	261.148
344.062	245.375
348.123	448.444
352.182	543.711
356.239	649.433
360.294	639.137
364.347	464.88
368.398	360.194
372.448	248.164
376.495	212.965
380.54	218.248
384.584	127.342
388.626	176.502
392.666	165.76
396.704	122.081
400.74	210.639
404.774	307.067
408.806	301.586
412.836	317.785
416.865	317.261
420.891	388.727
424.916	479.965
428.939	1272.58
432.959	1936.21
436.978	2664.89
440.996	2983.37
445.011	3526.95
449.024	3143.72
453.036	1932.22
457.045	1052.57
461.053	640.79
465.059	472.599
469.063	610.376
473.065	627.865
477.065	1170.24
481.063	1365.21
485.06	1971.53
489.054	2104.95
493.047	2052.49
497.038	1870.97
501.027	1514.14
505.014	1333.42
508.999	1140.23
512.982	1007.33
516.964	1115.16
520.944	1512.15
524.921	2407.23
528.897	4671.54
532.871	6164.37
536.844	3955.72
540.814	1897.55
544.783	1008.38
548.749	609.008
552.714	359.065
556.677	169.019
560.638	139.525
564.597	160.503
568.555	152.356
572.511	23.713
576.464	85.792
580.416	139.045
584.366	208.096
588.315	276.08
592.261	325.594
596.206	340.963
600.148	595.618
604.089	510.745
608.028	427.833
611.965	192.342
615.901	209.694
619.834	144.512
623.766	79.923
627.696	113.563
631.624	86.305
635.551	34.651
639.475	50.282
643.398	27.547
647.318	33.978
651.237	74.726
655.155	114.846
659.07	4.876
662.984	54.747
666.895	84.262
670.805	16.216
674.713	43.662
678.62	242.882
682.524	222.711
686.427	271.99
690.328	310.903
694.227	519.681
698.124	627.613
702.02	934.647
705.913	1061.48
709.805	1148.1
713.695	784.432
717.584	590.787
721.47	437.438
725.355	284.178
729.238	309.867
733.119	226.625
736.998	145.34
740.876	112.309
744.752	106.229
748.626	12.93
752.498	68.029
756.368	47.039
760.237	28.732
764.104	14.918
767.969	25.443
771.832	30.612
775.693	64.769
779.553	78.105
783.411	192.389
787.267	313.027
791.122	234.538
794.974	154.466
798.825	180.268
802.674	410.549
806.522	585.187
810.367	862.089
814.211	735.82
818.053	516.807
821.893	241.793
825.732	165.32
829.568	189.896
833.403	124.881
837.236	169.797
841.068	104.704
844.898	169.28
848.726	203.515
852.552	377.409
856.376	371.465
860.199	445.84
864.02	609.154
867.839	441.789
871.656	184.05
875.472	265.965
879.286	327.508
883.098	18.691
886.909	19.266
890.717	178.35
894.524	68.127
898.33	6.161
902.133	48.08
905.935	64.238
909.735	120.27
913.533	43.236
917.33	71.444
921.124	91.57
924.918	65.764
928.709	89.821
932.499	37.4
936.286	26.295
940.073	21.174
943.857	4.933
947.64	248.319
951.421	181.447
955.2	256.805
958.978	350.939
962.753	564.905
966.527	808.259
970.3	800.777
974.071	483.604
977.84	255.705
981.607	398.588
985.372	426.826
989.136	415.506
992.898	468.166
996.659	600.992
1000.42	512.223
1004.17	423.104
1007.93	175.555
1011.68	207.941
1015.43	398.107
1019.18	658.926
1022.93	1337.79
1026.68	1296.2
1030.42	1133.98
1034.17	800.273
1037.91	737.82
1041.65	625.576
1045.39	557.553
1049.12	511.33
1052.86	377.262
1056.59	663.791
1060.33	706.461
1064.06	703.467
1067.78	724.559
1071.51	577.83
1075.23	639.721
1078.96	482.305
1082.68	471.166
1086.4	559.012
1090.12	543.168
1093.83	641.568
1097.55	304.164
1101.26	175.676
1104.97	379.443
1108.68	322.756
1112.39	484.725
1116.1	306.162
1119.8	313.939
1123.5	298.777
1127.2	99.58
1130.9	99.785
1134.6	24.863
1138.3	58.428
1141.99	30.225
1145.69	341.922
1149.38	111.67
1153.07	10.6
1156.76	29.553
1160.44	307.436
1164.13	261.949
1167.81	388.771
1171.49	165.713
1175.17	204.934
1178.85	221.379
1182.52	163.418
1186.2	40.854
1189.87	87.521
1193.54	373.121
1197.21	432.58
1200.88	167.896
1204.55	131.039
1208.21	112.83
1211.88	285.959
1215.54	300.965
1219.2	220.809
1222.86	587.686
1226.51	423.074
1230.17	468.637
1233.82	415.715
1237.47	636.766
1241.12	350.434
1244.77	443.076
1248.42	395.723
1252.06	585.881
1255.71	556.119
1259.35	635.271
1262.99	354.604
1266.63	423.67
1270.26	430.91
1273.9	226.613
1277.53	28.82
1281.16	310.324
1284.8	236.785
1288.42	297.213
1292.05	528.297
1295.68	267.207
1299.3	56.498
1302.92	143.928
1306.55	11.088
1310.16	227.848
1313.78	383.568
1317.4	438.008
1321.01	402.664
1324.62	316.297
1328.24	128.471
1331.85	188.113
1335.45	36.279
1339.06	24.654
1342.66	146.309
1346.27	70.178
1349.87	277.012
1353.47	382.609
1357.07	397.664
1360.66	362.84
1364.26	397.844
1367.85	16.891
1371.44	81.869
1375.04	32.08
1378.62	15.822
1382.21	300.543
1385.8	715.049
1389.38	549.213
1392.96	723.363
1396.54	905.455
1400.12	709.344
1403.7	500.602
1407.28	362.918
1410.85	404.682
1414.42	496.199
1417.99	516.402
1421.56	549.57
1425.13	816.84
1428.7	524.246
1432.26	1035.6
1435.83	1005.78
1439.39	980.531
1442.95	1039.49
1446.51	1044.13
1450.06	1095.76
1453.62	904.881
1457.17	729.805
1460.73	1034.74
1464.28	986.803
1467.83	868.268
1471.37	1113.57
1474.92	1002.02
1478.46	902.832
1482.01	515.193
1485.55	300.215
1489.09	485.33
1492.63	250.754
1496.16	207.912
1499.7	168.154
1503.23	121.324
1506.76	198.645
1510.29	532.387
1513.82	596.691
1517.35	0
