Measurement: Raman, 514 nm, ccw, Raman Data Processed
Mineral: Natrolite
Rruff sample: R040112
Ideal chemistry: Na_2_(Si_3_Al_2_)O_10_2H_2_O
Locality: Ice River Alkaline Complex, Moose Creek Valley, Yoho National Park, British Columbia, Canada
Source: National Museums of Canada
Description: Colorless pseudohexagonal prism
Measured chemistry: Na_2.00_(Si_3.00_Al_2.00_)O_10_Â·2H_2_O
Pin_id: L00214
Orientation: Laser parallel to -b* (0 -1 0). Fiducial mark perpendicular to laser is parallel to c [0 0 1]
Raman shift (cm-1)	intensity
52.937	0
57.132	87.737
61.325	169.964
65.515	145.623
69.704	178.917
73.891	138.335
78.076	4.618
82.26	20.304
86.441	28.318
90.62	46.865
94.797	144.941
98.973	333.09
103.146	890.166
107.318	2079.57
111.487	2609.61
115.655	1756.22
119.821	3195.18
123.984	3157.84
128.146	2904.27
132.306	5737.16
136.464	13823.5
140.62	21770
144.774	13617.7
148.927	5467.01
153.077	6061.53
157.226	12867.5
161.372	18333.5
165.517	10739.4
169.659	4719.43
173.8	2598.51
177.939	1758.68
182.076	1599.94
186.211	1608.3
190.344	2467.51
194.475	4432.02
198.605	6788.45
202.732	12991.1
206.858	15497.9
210.981	7427.81
215.103	3296.9
219.223	1835.78
223.341	1275.83
227.457	1241.64
231.571	2076.53
235.684	6189.65
239.794	12243.2
243.902	5318.79
248.009	1551.73
252.114	792.508
256.217	724.752
260.318	1065.93
264.417	2252.71
268.514	4626.7
272.609	3973.88
276.703	1397.23
280.794	604.739
284.884	514.405
288.972	628.216
293.058	927.163
297.142	2127.24
301.224	6818.44
305.304	14232.7
309.383	5869.07
313.46	1446.49
317.534	418.997
321.607	97.595
325.678	25.712
329.747	83.054
333.815	20.917
337.88	11.867
341.944	87.885
346.005	251.996
350.065	520.204
354.123	1183.5
358.179	2150.87
362.234	1618.3
366.286	556.812
370.337	91.425
374.386	57.903
378.432	124.375
382.478	122.453
386.521	99.123
390.562	85.291
394.602	26.701
398.639	205.947
402.675	466.748
406.709	945.72
410.742	1500.92
414.772	1540.34
418.8	1445.96
422.827	1868.71
426.852	3219.59
430.875	6654.58
434.896	18322.7
438.916	49401.9
442.933	42791.3
446.949	14300.8
450.963	5572.55
454.975	2594.57
458.985	1426.88
462.994	837.471
467	591.322
471.005	407.67
475.008	250.089
479.009	267.062
483.009	310.839
487.006	416.309
491.002	441.362
494.996	657.529
498.988	1019.02
502.978	1554.69
506.967	2316.15
510.953	3382.71
514.938	4723.36
518.921	5840.11
522.903	7204.94
526.882	12411.9
530.86	25064.9
534.836	22729.1
538.81	10381.1
542.782	4628.94
546.753	2368.91
550.721	1366.08
554.688	947.955
558.653	673.721
562.617	422.611
566.578	322.622
570.538	368.752
574.496	401.995
578.452	352.349
582.407	368.81
586.359	675.376
590.31	1266.04
594.259	2033.86
598.206	1981.62
602.152	970.871
606.096	438.894
610.038	269.22
613.978	195.131
617.916	53.144
621.853	26.208
625.788	28.181
629.721	71.596
633.652	87.233
637.582	61.808
641.51	69.231
645.436	176.018
649.36	276.626
653.282	338.372
657.203	282.899
661.122	262.488
665.039	320.111
668.955	357.585
672.869	373.045
676.781	478.483
680.691	622.899
684.599	935.29
688.506	1453.65
692.411	2095.74
696.314	3123.69
700.216	4305.55
704.115	4344.66
708.013	3148
711.91	2217.39
715.804	1684.75
719.697	1737.06
723.588	2162.31
727.477	2171.51
731.365	1347.64
735.25	627.82
739.134	284.868
743.017	145.825
746.897	125.876
750.776	74.692
754.653	34.55
758.529	30.619
762.402	54.033
766.274	7
770.144	17.452
774.013	29.347
777.88	77.656
781.745	81.381
785.608	10.741
789.47	25.73
793.329	25.543
797.188	7.494
801.044	8.72
804.899	28.908
808.752	112.798
812.603	147.85
816.452	108.174
820.3	88.399
824.146	73.526
827.991	122.557
831.834	162.494
835.675	194.336
839.514	98.084
843.352	130.737
847.187	109.305
851.022	183.776
854.854	204.147
858.685	155.416
862.514	122.579
866.341	103.641
870.167	155.609
873.991	194.472
877.813	196.238
881.634	99.9
885.453	44.461
889.27	57.917
893.086	92.277
896.9	135.541
900.712	107.71
904.522	48.758
908.331	15.823
912.138	4.382
915.944	61.883
919.747	120.296
923.549	124.531
927.35	70.594
931.148	31.333
934.945	109.984
938.741	151.901
942.534	334.853
946.326	432.161
950.117	668.028
953.905	1207.13
957.692	2692.04
961.478	6581.47
965.261	9377.85
969.043	4801.21
972.823	2266.52
976.602	1131.97
980.379	636.432
984.154	459.013
987.928	531.49
991.7	807.983
995.47	1679.04
999.239	1986.57
1003.01	761.106
1006.77	346.653
1010.53	273.22
1014.3	299.82
1018.06	312.635
1021.82	348.457
1025.57	371.622
1029.33	578.34
1033.08	1464.1
1036.83	4014.77
1040.59	5156.55
1044.33	2384.79
1048.08	1127.75
1051.83	688.693
1055.57	528.096
1059.31	447.731
1063.05	528.55
1066.79	682.543
1070.53	826.884
1074.27	1076.18
1078	1633.93
1081.73	2113.38
1085.46	1931.41
1089.19	1404.83
1092.92	946.416
1096.64	638.174
1100.37	373.118
1104.09	231.433
1107.81	159.304
1111.53	134.854
1115.25	127.929
1118.97	157.063
1122.68	158.964
1126.39	81.059
1130.1	9.646
1133.81	15.726
1137.52	0.031
1141.23	66.313
1144.93	85.156
1148.64	83.146
1152.34	93.485
1156.04	44.813
1159.74	11.19
1163.43	25.006
1167.13	9.492
1170.82	72.438
1174.51	90.921
1178.2	114.948
1181.89	56.592
1185.58	41.228
1189.26	13.297
1192.95	3.871
1196.63	14.38
1200.31	74.546
1203.99	95.889
1207.67	87.362
1211.34	96.698
1215.02	50.764
1218.69	11.332
1222.36	15.186
1226.03	2.858
1229.7	46.975
1233.36	89.272
1237.03	175.373
1240.69	127.292
1244.35	58.997
1248.01	0.202
1251.67	22.989
1255.33	21.728
1258.98	49.389
1262.64	98.932
1266.29	159.448
1269.94	146.85
1273.59	111.3
1277.23	33.418
1280.88	3.44
1284.53	26.73
1288.17	38.858
1291.81	52.159
1295.45	135.389
1299.09	185.193
1302.72	157.789
1306.36	66.316
1309.99	44.123
1313.62	26.23
1317.25	23.873
1320.88	2.514
1324.51	43.414
1328.13	125.249
1331.75	140.963
1335.38	161.19
1339	126.607
1342.62	107.49
1346.23	53.151
1349.85	17.883
1353.46	29.025
1357.08	31.353
1360.69	67.224
1364.3	158.474
1367.9	200.452
1371.51	208.141
1375.12	145.512
1378.72	62.76
1382.32	45.592
1385.92	15.772
1389.52	11.192
1393.12	55.437
1396.71	83.911
1400.31	201.879
1403.9	178.346
1407.49	229.701
1411.08	183.534
1414.67	135.749
1418.25	93.637
1421.84	63.91
1425.42	32.938
1429	27.379
1432.58	69.488
1436.16	79.423
1439.74	147.005
1443.32	241.66
1446.89	231.78
1450.46	182.193
1454.03	142.859
1457.6	78.156
1461.17	27.018
1464.74	43.459
1468.3	38.508
1471.87	72.77
1475.43	89.732
1478.99	122.818
1482.55	189.694
1486.1	202.461
1489.66	207.792
1493.21	168.379
1496.77	82.255
1500.32	95.488
1503.87	23.097
1507.41	2.892
1510.96	20.997
1514.51	48.543
1518.05	107.027
1521.59	145.433
1525.13	158.596
