Measurement: Raman, 514 nm, ccw, Raman Data Processed
Mineral: Nepheline
Rruff sample: R040025
Ideal chemistry: KNa_3_(AlSiO_4_)_4_
Locality: Bancroft, Ontario, Canada
Source: University of Arizona Mineral Museum
Description: White massive
Measured chemistry: (Na_0.77_K_0.23_)_Î£=1_Al_1.00_Si_1.00_O_4_
Pin_id: L00106
Orientation: Laser parallel to c* (0 0 1). Fiducial mark perpendicular to laser is parallel to b [0 1 0]
Raman shift (cm-1)	intensity
136.46	0
140.63	81.862
144.799	381.115
148.965	683.338
153.13	702.727
157.292	328.812
161.452	35.469
165.611	108.416
169.767	141.821
173.921	334.454
178.073	684.652
182.222	731.43
186.37	1187
190.516	1743.21
194.66	2542.05
198.801	3355.03
202.941	3643.22
207.079	3297.8
211.214	2776.24
215.348	2686.76
219.479	3033.64
223.608	3756.1
227.736	3899.38
231.861	2958.7
235.984	2042.94
240.105	1347.23
244.224	821.932
248.342	636.872
252.457	591.936
256.57	967.09
260.681	1662.17
264.79	2167.02
268.896	1731.53
273.001	1015.74
277.104	479.587
281.205	232.966
285.304	4.126
289.401	118.402
293.495	100.385
297.588	61.183
301.679	34.535
305.767	120.009
309.854	75.254
313.939	120.849
318.021	37.17
322.102	266.025
326.181	448.762
330.257	599.84
334.332	851.426
338.405	1442.42
342.475	2292.8
346.544	3452.33
350.61	3740.87
354.675	3008.68
358.738	2585.82
362.798	2432.16
366.857	2778.64
370.913	3365.57
374.968	4550.57
379.021	6013.71
383.071	8356.62
387.12	11478
391.166	15677.1
395.211	19605.9
399.254	20896.2
403.294	18685.9
407.333	15834.8
411.37	13642
415.405	13259
419.437	13854
423.468	13288.4
427.497	10923.2
431.524	8389.1
435.549	6255.06
439.572	4970.99
443.593	4363.15
447.611	3833.69
451.628	3538.81
455.644	3752.53
459.657	5328.41
463.668	6114.45
467.677	4726.81
471.684	2921.1
475.689	1536.27
479.692	1167.61
483.694	1058.94
487.693	1312.91
491.691	2336.93
495.686	4649.94
499.68	3416.83
503.671	1659.92
507.661	998.729
511.648	704.738
515.634	540.584
519.618	387.182
523.6	432.814
527.58	308.674
531.558	304.158
535.534	368.445
539.508	292.367
543.48	265.93
547.45	319.129
551.418	241.959
555.385	5.545
559.349	26.523
563.312	88.201
567.272	239.486
571.231	190.461
575.187	281.068
579.142	521.391
583.095	492.105
587.046	41.812
590.995	161.139
594.942	70.109
598.888	98.707
602.831	187.094
606.772	136.449
610.712	294.379
614.649	292.295
618.585	26.33
622.519	55.33
626.45	32.355
630.38	163.969
634.308	82.42
638.235	47.457
642.159	40.477
646.081	70.789
650.002	10.34
653.92	60.742
657.837	2.512
661.752	73.059
665.664	38.043
669.575	59.508
673.484	76.994
677.392	220.576
681.297	86.75
685.2	83.344
689.102	255.531
693.002	345.895
696.899	387.68
700.795	364.217
704.689	285.021
708.581	336.641
712.472	383.949
716.36	432.025
720.247	609.723
724.131	292.297
728.014	250.795
731.895	240.795
735.774	320.916
739.651	200.828
743.526	288.826
747.4	346.828
751.271	263.406
755.141	269.85
759.009	17.051
762.875	153.518
766.739	272.109
770.601	60.508
774.462	17.449
778.32	209.6
782.177	175.186
786.032	60.549
789.885	95.432
793.736	71.445
797.585	223.217
801.433	12.975
805.279	11.082
809.122	4.537
812.964	21.641
816.804	83.111
820.643	157.141
824.479	0.83
828.314	39.877
832.147	35.342
835.977	90.133
839.807	44.695
843.634	90.242
847.459	154.902
851.283	119.916
855.105	24.9
858.925	50.098
862.743	185.08
866.559	240.053
870.373	65.062
874.186	290.107
877.997	155.195
881.806	180.264
885.613	195.361
889.419	270.438
893.222	194.842
897.024	229.984
900.824	75.225
904.622	200.539
908.418	235.939
912.213	450.424
916.005	265.541
919.796	131.18
923.585	286.443
927.373	295.428
931.158	411.318
934.942	377.344
938.724	359.629
942.504	395.578
946.282	438.436
950.059	486.158
953.833	649.486
957.606	573.389
961.377	826.133
965.147	973.348
968.914	1500.82
972.68	1798.52
976.444	2566.13
980.206	4394.27
983.967	6923.72
987.725	8819.76
991.482	8086.26
995.237	6063.08
998.99	4245.96
1002.74	2739.97
1006.49	1799.65
1010.24	1259.61
1013.99	1088.72
1017.73	1029.37
1021.47	1029.8
1025.21	831.893
1028.95	1132.42
1032.69	1154.35
1036.42	1204.8
1040.16	726.965
1043.89	669.191
1047.62	472.689
1051.35	805.49
1055.08	798.258
1058.8	711.998
1062.53	855.598
1066.25	878.75
1069.97	1191.95
1073.68	1225.43
1077.4	1628.77
1081.11	1662.18
1084.83	1325.62
1088.54	1219.13
1092.25	932.66
1095.95	636.223
1099.66	840.137
1103.36	633.783
1107.07	417.404
1110.77	261.27
1114.47	325.205
1118.16	69.324
1121.86	323.938
1125.55	429.59
1129.24	234.764
1132.93	219.812
1136.62	288.385
1140.31	95.285
1143.99	75.719
1147.68	31.477
1151.36	249.514
1155.04	337.023
1158.71	195.826
1162.39	144.316
1166.07	141.848
1169.74	20.42
1173.41	56.08
1177.08	71.621
1180.75	346.939
1184.41	468
1188.08	523.336
1191.74	376.188
1195.4	280.398
1199.06	382.539
1202.71	215.285
1206.37	396.227
1210.02	485.785
1213.68	483.848
1217.33	662.109
1220.98	459.832
1224.62	498.344
1228.27	386.105
1231.91	392.906
1235.55	529.414
1239.19	565.105
1242.83	680.297
1246.47	615.102
1250.1	510.156
1253.74	373.879
1257.37	357.27
1261	310.148
1264.63	402.391
1268.25	414.898
1271.88	465.969
1275.5	527.672
1279.12	266.887
1282.74	405.043
1286.36	46.539
1289.98	259.953
1293.59	61.074
1297.21	85.414
1300.82	168.328
1304.43	401.367
1308.04	312.582
1311.64	193.707
1315.25	203.809
1318.85	170.07
1322.45	78.211
1326.05	233.348
1329.65	73.992
1333.24	19.625
1336.84	426.156
1340.43	360.16
1344.03	574.559
1347.61	578
1351.2	400.82
1354.79	432.957
1358.37	225.16
1361.96	396.957
1365.54	310.047
1369.12	471.23
1372.69	533.355
1376.27	493.539
1379.85	692.688
1383.42	626
1386.99	698.238
1390.56	259.656
1394.13	550.188
1397.7	467.285
1401.26	612.039
1404.82	595.879
1408.38	635.66
1411.94	650.145
1415.5	885.824
1419.06	677.832
1422.62	581.395
1426.17	339.98
1429.72	293.199
1433.27	66.832
1436.82	363.23
1440.37	421.055
1443.91	639.672
1447.45	493.957
1450.99	817.977
1454.54	1111.63
1458.07	1011.98
1461.61	702.555
1465.15	721.988
1468.68	647.949
1472.21	500.074
1475.74	551.785
1479.27	503.594
1482.8	638.977
1486.32	594.164
1489.85	919.633
1493.37	816.16
1496.89	805.492
1500.41	688.23
1503.93	654.055
1507.44	664.426
1510.96	31.605
1514.47	327.871
1517.98	1.723
