Measurement: Raman, 514 nm, ccw, Raman Data Processed
Mineral: Nepheline
Rruff sample: R040025
Ideal chemistry: KNa_3_(AlSiO_4_)_4_
Locality: Bancroft, Ontario, Canada
Source: University of Arizona Mineral Museum
Description: White massive
Measured chemistry: (Na_0.77_K_0.23_)_Î£=1_Al_1.00_Si_1.00_O_4_
Pin_id: L00106
Orientation: Laser parallel to c* (0 0 1). Fiducial mark perpendicular to laser is parallel to b [0 1 0]
Raman shift (cm-1)	intensity
136.46	0
140.63	68.468
144.799	362.062
148.965	594.104
153.13	802.797
157.292	238.833
161.452	143.985
165.611	34.644
169.767	135.224
173.921	344.761
178.073	610.894
182.222	842.769
186.37	1224.29
190.516	1916.33
194.66	2721.44
198.801	3559.85
202.941	3963.33
207.079	3453.7
211.214	2855.56
215.348	2520.76
219.479	3103.64
223.608	3751.78
227.736	3918.47
231.861	3205.28
235.984	2135.15
240.105	1364.1
244.224	903.422
248.342	602.95
252.457	672.565
256.57	922.195
260.681	1801.72
264.79	2231.01
268.896	1929.94
273.001	1138.52
277.104	466.703
281.205	184.37
285.304	41.539
289.401	38.358
293.495	104.58
297.588	80.317
301.679	0.957
305.767	91.977
309.854	132.46
313.939	93.37
318.021	34.97
322.102	232.766
326.181	399.888
330.257	646.381
334.332	1012.31
338.405	1547.66
342.475	2492.37
346.544	3466.2
350.61	3839.07
354.675	3121.08
358.738	2702.69
362.798	2583.17
366.857	2933.26
370.913	3523.35
374.968	4452.4
379.021	6069.94
383.071	8386.94
387.12	11892.8
391.166	16137.3
395.211	20190.1
399.254	21573.8
403.294	19337.5
407.333	16319.7
411.37	13941.8
415.405	13701.5
419.437	14150.2
423.468	14498.7
427.497	11367.5
431.524	8697.25
435.549	6388.69
439.572	5158.09
443.593	4563.19
447.611	4189.74
451.628	3660.45
455.644	3806.33
459.657	5452.56
463.668	6365.21
467.677	4751.04
471.684	2975.03
475.689	1687.18
479.692	1336.78
483.694	1104.81
487.693	1261.69
491.691	2433.13
495.686	4819.63
499.68	3733.61
503.671	1819.25
507.661	1103.25
511.648	782.584
515.634	494.108
519.618	385.272
523.6	487.758
527.58	287.166
531.558	285.903
535.534	414.196
539.508	202.68
543.48	220.428
547.45	187.643
551.418	284.579
555.385	21.164
559.349	87.375
563.312	73.206
567.272	68.662
571.231	313.816
575.187	368.645
579.142	413.595
583.095	408.102
587.046	122.098
590.995	14.236
594.942	49.036
598.888	61.957
602.831	34.675
606.772	217.583
610.712	279.91
614.649	272.305
618.585	85.025
622.519	57.318
626.45	100.074
630.38	22.236
634.308	164.598
638.235	109.104
642.159	101.277
646.081	86.809
650.002	76.977
653.92	71.932
657.837	27.732
661.752	94.369
665.664	76.004
669.575	130.762
673.484	99.803
677.392	113.732
681.297	243.096
685.2	277.859
689.102	234.709
693.002	193.68
696.899	304.369
700.795	330.203
704.689	322.67
708.581	286.742
712.472	351.068
716.36	314.396
720.247	556.598
724.131	334.615
728.014	228.512
731.895	127.656
735.774	292.875
739.651	277.904
743.526	261.379
747.4	332.559
751.271	314.533
755.141	146.369
759.009	178.105
762.875	150.744
766.739	104.596
770.601	178.207
774.462	120.674
778.32	102.516
782.177	156.619
786.032	134.779
789.885	65.512
793.736	163.811
797.585	84.611
801.433	43.521
805.279	181.9
809.122	55.42
812.964	56.863
816.804	126.736
820.643	30.232
824.479	28.01
828.314	102.189
832.147	57.561
835.977	124.1
839.807	46.318
843.634	97.006
847.459	157.639
851.283	17.709
855.105	8.053
858.925	48.467
862.743	158.756
866.559	29.043
870.373	99.377
874.186	229.766
877.997	110.164
881.806	200.529
885.613	260.701
889.419	290.92
893.222	81.09
897.024	191.514
900.824	152.008
904.622	92.594
908.418	323.227
912.213	313.91
916.005	184.24
919.796	234.934
923.585	225.809
927.373	346.133
931.158	436.977
934.942	357.928
938.724	309.254
942.504	430.561
946.282	290.248
950.059	541.992
953.833	683.816
957.606	683.678
961.377	722.109
965.147	1354.66
968.914	1415.25
972.68	1846.21
976.444	2593.68
980.206	4280.99
983.967	7114.59
987.725	8930.22
991.482	8446
995.237	6609.99
998.99	4304.42
1002.74	2734.3
1006.49	1838.89
1010.24	1405.71
1013.99	1231.59
1017.73	1125.86
1021.47	1074.44
1025.21	951.029
1028.95	1084.03
1032.69	1074.28
1036.42	956.941
1040.16	754.336
1043.89	731.713
1047.62	649.529
1051.35	637.285
1055.08	515.303
1058.8	564.051
1062.53	642.744
1066.25	880.959
1069.97	969.037
1073.68	1277.51
1077.4	1516.19
1081.11	1634.44
1084.83	1372.73
1088.54	1001.21
1092.25	839.582
1095.95	728.473
1099.66	727.01
1103.36	515.58
1107.07	474.109
1110.77	292.672
1114.47	141.141
1118.16	270.234
1121.86	171.512
1125.55	251.049
1129.24	281.127
1132.93	113.613
1136.62	175.197
1140.31	32.078
1143.99	66.826
1147.68	54.324
1151.36	267.494
1155.04	299.779
1158.71	107.537
1162.39	8.98
1166.07	62.846
1169.74	12.762
1173.41	3.67
1177.08	139.795
1180.75	370.049
1184.41	366.645
1188.08	446.451
1191.74	185.043
1195.4	233.43
1199.06	200.297
1202.71	167.135
1206.37	205.768
1210.02	321.346
1213.68	416.547
1217.33	500.375
1220.98	394.539
1224.62	489.416
1228.27	442.818
1231.91	295.713
1235.55	419.09
1239.19	603.023
1242.83	573.709
1246.47	644.707
1250.1	384.875
1253.74	344.896
1257.37	494.619
1261	234.678
1264.63	93.941
1268.25	442.158
1271.88	529.936
1275.5	436.994
1279.12	134
1282.74	249.105
1286.36	160.457
1289.98	107.871
1293.59	54.383
1297.21	56.057
1300.82	2.812
1304.43	447.383
1308.04	185.885
1311.64	132.021
1315.25	179.447
1318.85	206
1322.45	51.691
1326.05	315.969
1329.65	118.559
1333.24	62.484
1336.84	365.619
1340.43	378.354
1344.03	350.461
1347.61	321.771
1351.2	412.191
1354.79	262.453
1358.37	272.461
1361.96	252.232
1365.54	111.541
1369.12	410.039
1372.69	338.789
1376.27	417.027
1379.85	566.074
1383.42	453.328
1386.99	632.551
1390.56	441.4
1394.13	369.291
1397.7	404.055
1401.26	208.188
1404.82	335.359
1408.38	503.887
1411.94	716.742
1415.5	922.055
1419.06	586.016
1422.62	282.117
1426.17	336.602
1429.72	134.375
1433.27	197.508
1436.82	373.285
1440.37	374.648
1443.91	381.285
1447.45	555.301
1450.99	719.051
1454.54	956.25
1458.07	519.684
1461.61	661.418
1465.15	577.984
1468.68	495.316
1472.21	422.371
1475.74	89.156
1479.27	501.152
1482.8	505.031
1486.32	308.625
1489.85	652.289
1493.37	626.32
1496.89	531.5
1500.41	579.012
1503.93	468.602
1507.44	459.547
1510.96	34.324
1514.47	193.582
1517.98	7.746
1521.49	1.027
