Measurement: Raman, 514 nm, ccw, Raman Data Processed
Mineral: Nepheline
Rruff sample: R040025
Ideal chemistry: KNa_3_(AlSiO_4_)_4_
Locality: Bancroft, Ontario, Canada
Source: University of Arizona Mineral Museum
Description: White massive
Measured chemistry: (Na_0.77_K_0.23_)_Î£=1_Al_1.00_Si_1.00_O_4_
Pin_id: L00445
Orientation: Laser parallel to -a* (-1 0 0). Fiducial mark perpendicular to laser is parallel to -c [0 0 -1]
Raman shift (cm-1)	intensity
121.15	0
125.328	149.314
129.504	453.258
133.678	252.327
137.85	63.944
142.02	100.558
146.188	253.713
150.354	607.882
154.517	987.49
158.679	859.302
162.839	1141.8
166.996	1534.56
171.152	1083.58
175.305	698.69
179.456	718.714
183.605	944.508
187.752	1206.92
191.898	1736.57
196.041	2543.92
200.182	3039.32
204.321	3083.57
208.457	2466.26
212.592	2143.98
216.725	2110.25
220.856	2557.24
224.984	3217.65
229.111	3056.39
233.236	2394.78
237.358	1643.5
241.479	1112.48
245.597	811.651
249.713	810.978
253.828	1300.4
257.94	2189.74
262.05	3579.02
266.159	3798.36
270.265	2687.66
274.369	1466.75
278.471	815.655
282.572	504.537
286.67	385.113
290.766	410.936
294.86	767.75
298.952	404.675
303.042	28.175
307.13	294.189
311.216	127.593
315.3	111.635
319.382	113.72
323.462	68.682
327.54	213.396
331.616	377.966
335.69	612.312
339.762	1296.21
343.832	2009.63
347.9	3022.64
351.965	2905.26
356.029	2137.52
360.091	1709.42
364.151	1811.13
368.209	2032.64
372.265	2734.01
376.319	3575.65
380.371	4955.77
384.421	6834.98
388.469	9582.86
392.515	13669.5
396.559	18297.8
400.601	20310.2
404.641	18107.6
408.679	15748.1
412.715	13195.3
416.749	10331
420.781	7505.78
424.811	5420.56
428.839	4286.09
432.866	3444.14
436.89	2841.18
440.912	3009.3
444.932	3305.2
448.951	3899.89
452.967	5142.05
456.981	7993.95
460.994	15376.1
465.004	22564.2
469.013	16722.4
473.019	8600.86
477.024	4754.83
481.026	2818.17
485.027	2046.53
489.026	1593.53
493.023	1367.86
497.017	1317.53
501.01	980.141
505.001	781.111
508.99	354.061
512.977	343.922
516.962	433.246
520.945	311.074
524.927	398.33
528.906	404.354
532.883	290.047
536.858	175.211
540.832	140.387
544.803	145.629
548.773	239.996
552.741	54.055
556.706	177.551
560.67	150.201
564.632	192.172
568.592	113.666
572.55	124.783
576.506	226.414
580.46	247.557
584.412	198.533
588.363	168.555
592.311	87.52
596.258	13.74
600.202	4.844
604.145	73.543
608.086	292.291
612.024	270.227
615.961	257.43
619.896	506.262
623.829	62.381
627.761	21.035
631.69	88.25
635.617	74.547
639.543	69.523
643.466	164.422
647.388	57.461
651.308	183.221
655.226	12.697
659.142	85.676
663.056	10.652
666.968	100.703
670.879	351.877
674.787	232.836
678.694	193.631
682.598	335.32
686.501	384.057
690.402	442.334
694.301	259.059
698.198	210.188
702.093	316.039
705.987	300.387
709.878	197.375
713.768	653.008
717.656	481.164
721.542	443.791
725.426	587.119
729.308	518.355
733.188	406.875
737.067	219.125
740.943	330.986
744.818	340.943
748.691	417.547
752.562	213.15
756.431	149.775
760.298	417.854
764.163	186.262
768.027	245.959
771.888	185.309
775.748	243.652
779.606	35.271
783.462	21.553
787.317	213.443
791.169	131.941
795.019	100.627
798.868	232.746
802.715	121.334
806.56	74.293
810.403	118.299
814.245	79.061
818.084	167.68
821.922	158.232
825.758	160.215
829.592	59.584
833.424	60.484
837.254	152.025
841.082	63.545
844.909	94.818
848.734	84.25
852.557	116.086
856.378	236.422
860.197	76.559
864.015	43.971
867.831	46.42
871.645	336.557
875.457	236.75
879.267	156.865
883.075	53.229
886.882	175.5
890.687	83.811
894.49	322.545
898.291	281.316
902.09	240.604
905.888	179.186
909.683	47.447
913.477	335.885
917.269	382.689
921.06	250.488
924.848	188.012
928.635	373.893
932.42	160.91
936.203	345.494
939.984	373.701
943.764	520.281
947.541	360.07
951.317	598.279
955.091	423.949
958.864	710.75
962.634	1088.36
966.403	1556.47
970.17	1934.26
973.935	1983.35
977.698	2832.52
981.46	4951.01
985.22	9640.36
988.978	11387.6
992.734	8363.33
996.488	5254.98
1000.24	2967.3
1003.99	2138.02
1007.74	1478.68
1011.49	1322.1
1015.23	1249.18
1018.98	872.383
1022.72	574.615
1026.46	534.395
1030.2	622.164
1033.93	681.246
1037.67	658.414
1041.4	894.277
1045.13	872.141
1048.86	698.945
1052.59	1072.1
1056.32	1085.54
1060.04	1147.31
1063.77	1249.91
1067.49	1311.84
1071.2	964.645
1074.92	1035.75
1078.64	1057.19
1082.35	1218.43
1086.06	1129.91
1089.78	1011.09
1093.48	663.453
1097.19	485.488
1100.89	426.723
1104.6	127.836
1108.3	388.434
1112	389.312
1115.7	389.848
1119.39	422.602
1123.09	294.18
1126.78	365.902
1130.47	6.824
1134.16	246.512
1137.85	129.52
1141.54	347.332
1145.22	520.965
1148.9	233.938
1152.58	137.633
1156.26	48.605
1159.94	82.578
1163.62	20.453
1167.29	289.324
1170.96	221.711
1174.63	456.309
1178.3	419.188
1181.97	393.727
1185.63	120.168
1189.3	172.523
1192.96	331.473
1196.62	240.875
1200.28	644.047
1203.93	903.039
1207.59	626.148
1211.24	499.293
1214.89	497.152
1218.54	653.988
1222.19	490.691
1225.84	577.473
1229.48	714.168
1233.13	969.539
1236.77	806.891
1240.41	389.902
1244.05	650.539
1247.68	421.289
1251.32	560.992
1254.95	480.387
1258.58	778.645
1262.21	1007.41
1265.84	734.254
1269.46	500.168
1273.09	424.539
1276.71	1.906
1280.33	57.445
1283.95	174.234
1287.57	298.59
1291.18	293.652
1294.8	321.828
1298.41	564.949
1302.02	134.668
1305.63	14.375
1309.24	56.188
1312.84	137.922
1316.45	21.141
1320.05	37.891
1323.65	192.328
1327.25	136.52
1330.85	367.582
1334.44	348.871
1338.04	78.641
1341.63	92.422
1345.22	213.711
1348.81	42.59
1352.4	59.355
1355.98	654.32
1359.57	679.234
1363.15	652.488
1366.73	645.887
1370.31	119.402
1373.89	251.953
1377.46	4.309
1381.04	287.898
1384.61	511.535
1388.18	539.934
1391.75	637.734
1395.32	773.555
1398.88	882.141
1402.45	1076.79
1406.01	780.766
1409.57	566.195
1413.13	517.504
1416.69	129.438
1420.24	0.219
1423.8	96.863
1427.35	429.555
1430.9	580.488
1434.45	1021.56
1438	956.453
1441.55	915.859
1445.09	1041.42
1448.63	360.949
1452.18	440.695
1455.71	571.062
1459.25	580.535
1462.79	444.594
1466.32	603.125
1469.86	641.84
1473.39	1020.52
1476.92	1157.26
1480.45	926.57
1483.97	971.809
1487.5	837.156
1491.02	593.836
1494.54	160.223
1498.06	138.199
1501.58	180.633
1505.1	87.246
1508.62	298.23
1512.13	146.348
1515.64	635.16
1519.15	1086.66
1522.66	805.785
