Measurement: Raman, 514 nm, ccw, Raman Data Processed
Mineral: Nepheline
Rruff sample: R040025
Ideal chemistry: KNa_3_(AlSiO_4_)_4_
Locality: Bancroft, Ontario, Canada
Source: University of Arizona Mineral Museum
Description: White massive
Measured chemistry: (Na_0.77_K_0.23_)_Î£=1_Al_1.00_Si_1.00_O_4_
Pin_id: L00445
Orientation: Laser parallel to -a* (-1 0 0). Fiducial mark perpendicular to laser is parallel to -c [0 0 -1]
Raman shift (cm-1)	intensity
121.15	0
125.328	68.226
129.504	457.992
133.678	405.937
137.85	169.602
142.02	55.075
146.188	204.464
150.354	736.413
154.517	1446.41
158.679	1340.98
162.839	1408.27
166.996	1537.31
171.152	1218.43
175.305	887.296
179.456	1033.52
183.605	1067.2
187.752	1608.92
191.898	2279.07
196.041	3227.94
200.182	4015.74
204.321	4282.64
208.457	3568.61
212.592	2428.73
216.725	1762.2
220.856	1557.52
224.984	1733.82
229.111	1639.5
233.236	1325.72
237.358	1012.4
241.479	609.451
245.597	426.828
249.713	404.531
253.828	752.444
257.94	1150.48
262.05	1788.57
266.159	1956.74
270.265	1394.96
274.369	683.118
278.471	351.381
282.572	109.832
286.67	306.66
290.766	373.762
294.86	753.9
298.952	325.71
303.042	21.429
307.13	178.06
311.216	194.659
315.3	51.415
319.382	1.688
323.462	5.359
327.54	67.374
331.616	250.01
335.69	332.548
339.762	794.806
343.832	1376.76
347.9	2148.4
351.965	1929.78
356.029	1250.94
360.091	1031.78
364.151	872.805
368.209	1134.69
372.265	1596.63
376.319	2106.9
380.371	2946.7
384.421	4016.32
388.469	5615.09
392.515	7962.76
396.559	10781.9
400.601	12300.4
404.641	11658.1
408.679	11288
412.715	10465
416.749	8752.43
420.781	6287.47
424.811	4414.53
428.839	3375.82
432.866	2564.01
436.89	2030.01
440.912	1937.84
444.932	2039.31
448.951	2384.22
452.967	3068.28
456.981	4991.68
460.994	9775.44
465.004	13697.1
469.013	9467.27
473.019	4870.27
477.024	2658.7
481.026	1726.52
485.027	1166.31
489.026	884.654
493.023	893.74
497.017	939.801
501.01	601.703
505.001	471.961
508.99	312.367
512.977	321.217
516.962	319.371
520.945	225.824
524.927	281.725
528.906	257.225
532.883	212.279
536.858	86.871
540.832	201.859
544.803	45.652
548.773	139.088
552.741	131.947
556.706	144.547
560.67	206.846
564.632	58.338
568.592	90.438
572.55	51.766
576.506	292.656
580.46	142.303
584.412	38.008
588.363	51.953
592.311	10.516
596.258	68.354
600.202	3.701
604.145	73.68
608.086	141.047
612.024	157.258
615.961	122.889
619.896	37.773
623.829	232.277
627.761	43.691
631.69	62.816
635.617	53.322
639.543	89.471
643.466	4.795
647.388	71.557
651.308	156.424
655.226	61.082
659.142	86.375
663.056	87.557
666.968	146.967
670.879	186.604
674.787	276.055
678.694	544.611
682.598	585.613
686.501	432.246
690.402	377.559
694.301	283.031
698.198	335.924
702.093	277.998
705.987	400.758
709.878	253.465
713.768	445.102
717.656	311.008
721.542	330.299
725.426	195.041
729.308	275.215
733.188	427.73
737.067	366.824
740.943	129.59
744.818	275.896
748.691	209.789
752.562	47.285
756.431	119.105
760.298	80.576
764.163	346.434
768.027	172.211
771.888	297.484
775.748	191.238
779.606	85.537
783.462	15.74
787.317	165.365
791.169	131.703
795.019	106.018
798.868	114.367
802.715	58.484
806.56	22.113
810.403	67.207
814.245	81.598
818.084	41.232
821.922	49.748
825.758	0.115
829.592	49.719
833.424	140.32
837.254	110.633
841.082	20.662
844.909	50.471
848.734	109.965
852.557	68.49
856.378	167.346
860.197	6.146
864.015	25.416
867.831	106.969
871.645	120.865
875.457	208.916
879.267	35.23
883.075	67.52
886.882	269.25
890.687	46.611
894.49	282.68
898.291	139.09
902.09	215.428
905.888	51.457
909.683	127.666
913.477	33.301
917.269	309.211
921.06	314.584
924.848	140.664
928.635	166.318
932.42	141.594
936.203	335.586
939.984	431.15
943.764	386.781
947.541	432.123
951.317	626.359
955.091	821.439
958.864	1312.04
962.634	2332.27
966.403	3717.86
970.17	3453.19
973.935	2756.61
977.698	2904.85
981.46	4090.61
985.22	7269.25
988.978	8062.77
992.734	5864.13
996.488	4030.79
1000.24	2438.33
1003.99	1689.73
1007.74	1226.72
1011.49	1207.52
1015.23	1034.94
1018.98	729.492
1022.72	469.512
1026.46	612.504
1030.2	665.834
1033.93	699.857
1037.67	831.102
1041.4	820.867
1045.13	590.25
1048.86	700.965
1052.59	820.398
1056.32	1150.94
1060.04	970.066
1063.77	948.543
1067.49	1137.2
1071.2	775.352
1074.92	613.992
1078.64	562.137
1082.35	720.277
1086.06	768.234
1089.78	895.719
1093.48	614.211
1097.19	251.957
1100.89	360.262
1104.6	61.238
1108.3	396.719
1112	343.949
1115.7	241.367
1119.39	469.301
1123.09	426.785
1126.78	343.5
1130.47	39.023
1134.16	21.379
1137.85	115.301
1141.54	345.227
1145.22	532.699
1148.9	191.805
1152.58	269.559
1156.26	64.52
1159.94	2.648
1163.62	33.824
1167.29	353.723
1170.96	529.047
1174.63	428.48
1178.3	378.801
1181.97	133.859
1185.63	112.059
1189.3	206.973
1192.96	141.082
1196.62	354.598
1200.28	466.988
1203.93	826.91
1207.59	651.191
1211.24	597.977
1214.89	653.18
1218.54	468.203
1222.19	481.395
1225.84	465.516
1229.48	775.047
1233.13	689.105
1236.77	755.273
1240.41	676.941
1244.05	434.574
1247.68	393.832
1251.32	448.898
1254.95	584.695
1258.58	760.035
1262.21	835.598
1265.84	839.133
1269.46	492.453
1273.09	463.602
1276.71	72.48
1280.33	7.691
1283.95	115.148
1287.57	119.527
1291.18	342.879
1294.8	484.641
1298.41	674.16
1302.02	320.887
1305.63	48.25
1309.24	84.551
1312.84	80.324
1316.45	2.836
1320.05	67.957
1323.65	261.801
1327.25	252.375
1330.85	189.996
1334.44	368.086
1338.04	204.93
1341.63	20.73
1345.22	45.914
1348.81	11.082
1352.4	372.285
1355.98	565.035
1359.57	677.062
1363.15	827.941
1366.73	570.512
1370.31	141.984
1373.89	211.508
1377.46	10.145
1381.04	60.348
1384.61	506.352
1388.18	380.215
1391.75	584.039
1395.32	893.848
1398.88	803.246
1402.45	1009.85
1406.01	915.441
1409.57	598.816
1413.13	494.398
1416.69	202.137
1420.24	22.57
1423.8	274.797
1427.35	437.27
1430.9	621.699
1434.45	926.109
1438	1007.52
1441.55	1108.75
1445.09	862.949
1448.63	861.613
1452.18	499.652
1455.71	525.945
1459.25	314.746
1462.79	409.98
1466.32	712.645
1469.86	965.523
1473.39	1261.47
1476.92	1360.02
1480.45	978.602
1483.97	925.543
1487.5	1025.86
1491.02	695.855
1494.54	197.078
1498.06	171.457
1501.58	178.688
1505.1	30.766
1508.62	194
1512.13	152.109
1515.64	675.25
1519.15	566.633
