Measurement: Raman, 514 nm, ccw, Raman Data Processed
Mineral: Nepheline
Rruff sample: R040025
Ideal chemistry: KNa_3_(AlSiO_4_)_4_
Locality: Bancroft, Ontario, Canada
Source: University of Arizona Mineral Museum
Description: White massive
Measured chemistry: (Na_0.77_K_0.23_)_Î£=1_Al_1.00_Si_1.00_O_4_
Pin_id: L00106
Orientation: Laser parallel to c* (0 0 1). Fiducial mark perpendicular to laser is parallel to b [0 1 0]
Raman shift (cm-1)	intensity
137.28	0
141.448	52.8242
145.614	446.293
149.778	922.576
153.94	1059.82
158.1	572.735
162.258	160.245
166.414	53.7974
170.568	74.9771
174.72	422.478
178.87	587.944
183.018	995.398
187.164	1500.99
191.308	2293.3
195.45	3180.48
199.59	4312.9
203.728	4904.73
207.864	4374.64
211.998	3458.66
216.13	3263.23
220.261	3754.7
224.389	4845.25
228.515	5037.16
232.639	4080.99
236.761	3068.07
240.881	1907.18
244.999	1316.62
249.116	890.13
253.23	851.528
257.342	1271.75
261.452	2194.58
265.561	3053.74
269.667	2573.1
273.772	1512.67
277.874	689.343
281.974	259.977
286.073	118.695
290.17	107.629
294.264	136.457
298.357	19.7324
302.447	104.751
306.536	159.824
310.623	183.073
314.708	24.9526
318.79	47.1216
322.871	210.195
326.95	544.622
331.027	834.505
335.102	1107.91
339.175	1641.41
343.247	2782.68
347.316	4328.38
351.383	4918.44
355.448	4059.96
359.512	3334
363.573	3126.17
367.633	3506.09
371.69	4305.36
375.746	5713.28
379.8	7632.25
383.852	10459
387.901	14782.7
391.949	20035
395.995	25266.6
400.039	26707.6
404.082	24388.3
408.122	20128.3
412.16	17625.9
416.197	17058.4
420.231	18012.4
424.264	17656.9
428.294	14811
432.323	11076.4
436.35	8352.38
440.375	6606.46
444.398	5643.1
448.419	5086.75
452.438	4449.77
456.455	4640.66
460.471	6851.56
464.484	7920.64
468.496	5652.6
472.505	3447.62
476.513	2116.73
480.519	1616.34
484.523	1328.13
488.525	1517.25
492.525	2946.65
496.524	6315.19
500.52	4804.37
504.514	2213.87
508.507	1350.63
512.498	925.28
516.487	677.125
520.474	546.107
524.459	411.803
528.442	384.96
532.423	329.517
536.403	387.708
540.38	370.32
544.356	350.323
548.33	243.332
552.302	144.772
556.272	143.808
560.24	105.456
564.206	106.706
568.171	182.557
572.133	286.038
576.094	410.235
580.053	667.457
584.01	526.518
587.965	197.867
591.918	85.9072
595.869	52.6069
599.819	20.9136
603.767	114.893
607.713	283.211
611.657	369.816
615.599	277.435
619.539	53.9937
623.477	24.6006
627.414	79.6006
631.349	30.9311
635.281	23.062
639.212	33.0879
643.142	25.8306
647.069	10.2471
650.994	30.4487
654.918	32.105
658.84	3.16894
662.76	36.2158
666.678	57.3999
670.594	7.1875
674.509	25.8447
678.421	33.1421
682.332	238.46
686.241	390.403
690.148	156.409
694.054	171.818
697.957	187.107
701.859	283.317
705.759	188.328
709.657	254.841
713.553	302.647
717.447	503.692
721.34	544.237
725.231	301.183
729.12	171.567
733.007	204.963
736.892	119.936
740.775	186.788
744.657	235.791
748.537	286.279
752.415	201.631
756.291	58.9116
760.166	42.3565
764.038	8.83594
767.909	47.0269
771.778	26.9321
775.645	70.7783
779.511	57.9375
783.374	100.32
787.236	50.2109
791.096	8.5376
794.955	41.7954
798.811	38.8452
802.666	13.2393
806.518	2.27441
810.37	27.6069
814.219	30.6885
818.066	7.1001
821.912	13.2241
825.756	54.707
829.598	15.8096
833.438	17.0205
837.277	41.1143
841.114	9.35498
844.949	24.0811
848.782	18.4624
852.613	8.15918
856.443	52.8428
860.271	66.3516
864.097	45.5454
867.922	3.71582
871.744	83.915
875.565	100.116
879.384	131.348
883.201	48.6553
887.017	68.9888
890.831	128.015
894.643	104.929
898.453	125.251
902.261	79.5977
906.068	190.998
909.873	201.125
913.676	203.833
917.477	173.664
921.277	163.727
925.075	121.846
928.871	156.125
932.666	151.401
936.458	171.856
940.249	212.282
944.038	238.04
947.826	290.106
951.611	358.714
955.395	498.06
959.178	676.236
962.958	889.396
966.737	1104.07
970.514	1519.12
974.289	1933.5
978.062	3115.2
981.834	5402.19
985.604	8599.81
989.373	11398.2
993.139	9885.65
996.904	7332.89
1000.67	4821.72
1004.43	2958.71
1008.19	2024.83
1011.95	1518.35
1015.7	1289.53
1019.46	1125.69
1023.21	872.391
1026.96	970.259
1030.71	1220.73
1034.46	1347.11
1038.2	1114.04
1041.95	738.581
1045.69	464.512
1049.43	481.102
1053.17	430.533
1056.91	650.67
1060.64	668.657
1064.38	786.027
1068.11	900.733
1071.84	1120.17
1075.57	1334.51
1079.29	1541.99
1083.02	1610.35
1086.74	1445.56
1090.46	1150.05
1094.19	822.599
1097.9	634.098
1101.62	445.717
1105.34	396.063
1109.05	430.607
1112.76	355.303
1116.47	295.71
1120.18	213.267
1123.89	332.694
1127.59	163.183
1131.29	59.7305
1135	26.998
1138.7	78.4746
1142.39	53.8975
1146.09	107.847
1149.79	85.3076
1153.48	39.4766
1157.17	8.35449
1160.86	69.8467
1164.55	73.04
1168.23	3.93652
1171.92	69.1611
1175.6	13.4912
1179.28	35.2285
1182.96	12.168
1186.64	22.7119
1190.32	34.8633
1193.99	140.538
1197.67	139.38
1201.34	72.9531
1205.01	111.463
1208.67	73.5088
1212.34	5.38672
1216.01	84.8232
1219.67	94.5156
1223.33	187.356
1226.99	244.734
1230.65	143.142
1234.31	142.675
1237.96	221.578
1241.61	114.708
1245.26	81.9492
1248.91	214.727
1252.56	212.657
1256.21	229.203
1259.85	178.44
1263.5	129.128
1267.14	182.525
1270.78	193.318
1274.42	26.6787
1278.05	9.22266
1281.69	107.657
1285.32	149.184
1288.95	125.46
1292.58	220.367
1296.21	147.585
1299.84	96.3037
1303.46	80.2783
1307.09	38.8115
1310.71	7.12598
1314.33	9.78125
1317.95	91.0264
1321.56	167.773
1325.18	136.225
1328.79	136.111
1332.41	96.0186
1336.02	49.1357
1339.62	29.8906
1343.23	84.9609
1346.84	72.6719
1350.44	110.644
1354.04	95.3213
1357.64	244.16
1361.24	123.366
1364.84	251.276
1368.44	269.26
1372.03	43.4648
1375.62	30.4062
1379.21	92.874
1382.8	269.046
1386.39	290.92
1389.98	142.621
1393.56	323.76
1397.15	305.126
1400.73	301.802
1404.31	348.56
1407.88	105.748
1411.46	132.574
1415.04	168.11
1418.61	144.541
1422.18	198.647
1425.75	339.748
1429.32	268.421
1432.89	373.833
1436.45	287.459
1440.02	291.888
1443.58	265.765
1447.14	192.997
1450.7	128.559
1454.26	21.4072
1457.81	32.4424
1461.37	112.478
1464.92	240.614
1468.47	269.292
1472.02	378.943
1475.57	328.266
1479.11	397.447
1482.66	255.919
1486.2	95.0644
1489.74	142.839
1493.28	113.249
1496.82	62.334
1500.36	60.4785
1503.89	91.4053
1507.42	113.266
1510.96	146.525
1514.49	194.836
1518.02	6.07519
