Measurement: Raman, 514 nm, ccw, Raman Data Processed
Mineral: Nepheline
Rruff sample: R040025
Ideal chemistry: KNa_3_(AlSiO_4_)_4_
Locality: Bancroft, Ontario, Canada
Source: University of Arizona Mineral Museum
Description: White massive
Measured chemistry: (Na_0.77_K_0.23_)_Î£=1_Al_1.00_Si_1.00_O_4_
Pin_id: L00445
Orientation: Laser parallel to -a* (-1 0 0). Fiducial mark perpendicular to laser is parallel to -c [0 0 -1]
Raman shift (cm-1)	intensity
121.15	0
125.328	9.281
129.504	59.705
133.678	111.837
137.85	179.705
142.02	298.334
146.188	802.799
150.354	1490.6
154.517	2637.52
158.679	2760.48
162.839	2947.77
166.996	3168.33
171.152	2728.67
175.305	2305.55
179.456	2481.66
183.605	2627.21
187.752	3332.48
191.898	4347.64
196.041	6042.85
200.182	7338.23
204.321	7943.81
208.457	6458.97
212.592	4530.2
216.725	3009.22
220.856	2287.49
224.984	2068.18
229.111	1808.41
233.236	1489.43
237.358	1161.15
241.479	903.521
245.597	656.474
249.713	699.96
253.828	993.903
257.94	1378.22
262.05	2203.15
266.159	2828.72
270.265	1764.88
274.369	1081.39
278.471	598.309
282.572	405.812
286.67	389.922
290.766	489.322
294.86	581.866
298.952	346.955
303.042	66.356
307.13	178.604
311.216	110.253
315.3	161.565
319.382	42.562
323.462	23.243
327.54	13.679
331.616	136.149
335.69	466.17
339.762	786.257
343.832	1496.38
347.9	2216.53
351.965	2706.72
356.029	1406.92
360.091	937.144
364.151	977.363
368.209	1347.58
372.265	1657.89
376.319	2208.06
380.371	3067.78
384.421	4246.92
388.469	5865.64
392.515	8135.28
396.559	10962.3
400.601	12865.8
404.641	13340.2
408.679	13610
412.715	13219
416.749	11135.4
420.781	7974.79
424.811	5534.74
428.839	4001.3
432.866	3004.23
436.89	2264.04
440.912	2072.82
444.932	1825
448.951	2007.22
452.967	2567.25
456.981	4498.6
460.994	8929.26
465.004	12931
469.013	8775.02
473.019	4716.8
477.024	2583.75
481.026	1618.31
485.027	1147.68
489.026	833.907
493.023	682.207
497.017	660.467
501.01	568.906
505.001	475.258
508.99	391.205
512.977	316.949
516.962	171.506
520.945	315.627
524.927	179.459
528.906	283.018
532.883	216.348
536.858	139.393
540.832	312.25
544.803	105.043
548.773	37.682
552.741	69.447
556.706	142.516
560.67	74.549
564.632	146.148
568.592	147.381
572.55	42.523
576.506	206.502
580.46	165.561
584.412	23.74
588.363	112.516
592.311	200.369
596.258	22.842
600.202	13.92
604.145	154.291
608.086	119.723
612.024	5.293
615.961	139.865
619.896	56.375
623.829	151.17
627.761	174.582
631.69	247.518
635.617	145.596
639.543	27.361
643.466	42.365
647.388	69.898
651.308	160.984
655.226	34.766
659.142	105.957
663.056	196.02
666.968	276.695
670.879	350.705
674.787	539.688
678.694	617.902
682.598	766.031
686.501	626.836
690.402	477.688
694.301	384.387
698.198	348.729
702.093	253.66
705.987	458.842
709.878	185.822
713.768	381.822
717.656	209.908
721.542	156.562
725.426	350.275
729.308	275.939
733.188	415.072
737.067	304.633
740.943	392.027
744.818	315.449
748.691	210.463
752.562	123.531
756.431	46.443
760.298	149.537
764.163	322.836
768.027	205.75
771.888	231.619
775.748	169.176
779.606	174.115
783.462	157.25
787.317	221.941
791.169	74.195
795.019	12.545
798.868	184.992
802.715	156.885
806.56	179.492
810.403	0.697
814.245	101.195
818.084	26.188
821.922	83.809
825.758	17.912
829.592	10.24
833.424	52.537
837.254	264.625
841.082	83.49
844.909	208.066
848.734	30.557
852.557	100.477
856.378	250.832
860.197	31.344
864.015	89.623
867.831	0.67
871.645	179.512
875.457	108.449
879.267	108.061
883.075	167.607
886.882	237.752
890.687	17.34
894.49	247.326
898.291	146.199
902.09	275.209
905.888	234.703
909.683	69.33
913.477	79.047
917.269	198.898
921.06	317.59
924.848	176.982
928.635	206.385
932.42	271.682
936.203	260.695
939.984	310.324
943.764	415.117
947.541	293.76
951.317	710.945
955.091	694.479
958.864	1134.31
962.634	2299.77
966.403	3608.76
970.17	3766.67
973.935	3291.31
977.698	2810.33
981.46	3641.08
985.22	6395.29
988.978	7166.72
992.734	5337.6
996.488	4129.03
1000.24	2423.3
1003.99	1820.75
1007.74	1111.52
1011.49	1050.58
1015.23	1018.04
1018.98	611.1
1022.72	394.281
1026.46	574.779
1030.2	474.916
1033.93	627.316
1037.67	940.611
1041.4	643.256
1045.13	546.188
1048.86	529.082
1052.59	632.246
1056.32	835.803
1060.04	668.617
1063.77	691.934
1067.49	734.322
1071.2	586.025
1074.92	297.916
1078.64	400.094
1082.35	421.951
1086.06	544.715
1089.78	655.984
1093.48	367.936
1097.19	249.898
1100.89	151.301
1104.6	133.459
1108.3	204.988
1112	225.803
1115.7	367.406
1119.39	248.527
1123.09	250.023
1126.78	341.66
1130.47	86.746
1134.16	22.375
1137.85	167.227
1141.54	477.508
1145.22	405.059
1148.9	212.152
1152.58	168.488
1156.26	223.008
1159.94	47.863
1163.62	159.59
1167.29	265.004
1170.96	190.125
1174.63	397.973
1178.3	447.574
1181.97	237.566
1185.63	126.219
1189.3	194.191
1192.96	167.066
1196.62	372.102
1200.28	464.117
1203.93	777.797
1207.59	629.098
1211.24	469.906
1214.89	511.004
1218.54	441.055
1222.19	488.516
1225.84	501.16
1229.48	750.637
1233.13	697.078
1236.77	634.164
1240.41	379.742
1244.05	433.078
1247.68	366.75
1251.32	459.105
1254.95	652.152
1258.58	743.191
1262.21	854.117
1265.84	552.805
1269.46	541.301
1273.09	349.652
1276.71	40.262
1280.33	23.781
1283.95	47.582
1287.57	220.312
1291.18	309.938
1294.8	232.543
1298.41	406.945
1302.02	243.871
1305.63	78.375
1309.24	117.191
1312.84	25.242
1316.45	94.68
1320.05	48.883
1323.65	347.918
1327.25	115.922
1330.85	302.047
1334.44	258.527
1338.04	124.035
1341.63	110.828
1345.22	146.93
1348.81	105.324
1352.4	247.59
1355.98	349.109
1359.57	490.676
1363.15	542.035
1366.73	293.891
1370.31	74.363
1373.89	415.102
1377.46	20.043
1381.04	136.484
1384.61	320.469
1388.18	282.41
1391.75	643.828
1395.32	822.965
1398.88	519.18
1402.45	875.066
1406.01	574.07
1409.57	444.859
1413.13	289.02
1416.69	154.449
1420.24	163.027
1423.8	315.582
1427.35	375.43
1430.9	451.633
1434.45	753.48
1438	787.16
1441.55	976.344
1445.09	510.621
1448.63	535.727
1452.18	578.273
1455.71	584.195
1459.25	364.801
1462.79	354.438
1466.32	574.566
1469.86	780.25
1473.39	1040.4
1476.92	1043.51
1480.45	1179.41
1483.97	757.57
1487.5	718.262
1491.02	470.617
1494.54	26.758
1498.06	288.496
1501.58	153.59
1505.1	29.629
1508.62	411.262
1512.13	334.949
1515.64	896.672
1519.15	0
