Measurement: Raman, 514 nm, ccw, Raman Data Processed
Mineral: Olivenite
Rruff sample: R040181
Ideal chemistry: Cu^2+^_2_As^5+^O_4_(OH)
Locality: Majuba Hill, Pershing County, Nevada, USA
Source: University of Arizona Mineral Museum
Description: Greenish blue prismatic, untwinned. Structure for this sample reported in Li et al (2008).
Measured chemistry: (Cu_0.98_[box]_0.02_)_2_(As_0.90_P_0.10_O_4_)(OH)_0.92_
Pin_id: S00117
Orientation: Laser parallel to (-1 0 -1). Fiducial mark perpendicular to laser is parallel to -b [0 -1 0]
Raman shift (cm-1)	intensity
52.866	0
57.065	59.186
61.262	100.284
65.458	19.393
69.651	71.01
73.842	493.209
78.031	1370.64
82.218	2432.68
86.404	3071.44
90.587	2910.67
94.768	2251.5
98.947	1658.06
103.124	1253.48
107.3	1333.18
111.473	1228.78
115.644	1218.03
119.813	1138.78
123.981	1089.98
128.146	1284.51
132.309	1541.19
136.47	2095.84
140.63	3437.22
144.787	6417.17
148.942	11206.1
153.096	16581.7
157.247	18389.3
161.396	14729.9
165.544	7879.51
169.689	4140.14
173.833	2526.84
177.974	1700.61
182.114	1053.85
186.251	642.677
190.387	517.958
194.52	463.272
198.652	522.464
202.782	921.504
206.909	1833.36
211.035	3253.99
215.159	4920.38
219.281	6036.65
223.4	5592.77
227.518	4266.09
231.634	3122.61
235.748	2445.58
239.86	1822.87
243.97	1211.69
248.079	770.744
252.185	510.91
256.289	427.091
260.391	442.206
264.492	614.206
268.59	1074.09
272.687	2093.83
276.781	3811.45
280.874	5657.9
284.964	5883.16
289.053	4443.19
293.14	2738.95
297.225	1933.44
301.308	1655.16
305.389	1695.87
309.468	1755.21
313.545	1664.43
317.62	1355.52
321.693	1073.13
325.765	902.868
329.834	880.365
333.902	976.668
337.967	1289.34
342.031	1621.36
346.093	1829.71
350.153	1660.35
354.21	1049.27
358.267	648.444
362.321	487.861
366.373	446.505
370.423	383.361
374.471	308.416
378.518	302.657
382.563	154.093
386.605	48.878
390.646	65.973
394.685	97.555
398.722	79.97
402.757	31.799
406.79	247.825
410.821	645.094
414.851	1101.58
418.878	1614.28
422.904	1656.64
426.927	1561.4
430.949	1187.74
434.969	843.418
438.987	570.548
443.003	395.649
447.018	206.624
451.03	80.531
455.041	40.096
459.049	10.458
463.056	34.595
467.061	77.238
471.064	53.24
475.065	30.521
479.064	72.312
483.062	25.103
487.057	1.087
491.051	33.697
495.043	132.359
499.032	160.165
503.02	243.791
507.007	243.284
510.991	376.636
514.973	529.841
518.954	669.893
522.933	744.784
526.91	820.509
530.885	794.062
534.858	639.438
538.829	565.632
542.799	482.64
546.766	546.454
550.732	590.922
554.696	640.791
558.658	704.352
562.618	658.071
566.576	471.836
570.533	394.375
574.488	214.686
578.44	72.763
582.391	44.591
586.341	20.089
590.288	11.172
594.233	44.236
598.177	6.25
602.119	19.826
606.059	13.005
609.997	39.741
613.933	19.103
617.868	14.081
621.801	29.626
625.731	15.158
629.66	27.293
633.588	19.282
637.513	22.014
641.437	12.91
645.358	7.68
649.278	16.271
653.196	56.643
657.113	89.794
661.027	70.73
664.94	95.458
668.851	91.981
672.76	100.302
676.667	112.426
680.572	112.356
684.476	96.097
688.378	116.66
692.278	86.057
696.176	158.3
700.072	144.397
703.967	123.341
707.86	238.134
711.751	252.842
715.64	266.497
719.527	337.035
723.413	402.435
727.297	408.704
731.179	350.849
735.059	268.194
738.937	218.506
742.814	212.624
746.689	198.678
750.562	180.469
754.433	201.673
758.303	190.719
762.17	218.216
766.036	190.711
769.901	234.556
773.763	299.649
777.624	323.023
781.482	435.946
785.339	562.726
789.195	726.667
793.048	956.603
796.9	1064.9
800.75	1241.16
804.598	1338.29
808.445	1487.55
812.289	1761.14
816.132	2192.89
819.973	2807.74
823.813	3347.71
827.65	3962.67
831.486	4872.98
835.32	6443.31
839.152	9086.76
842.983	13310.3
846.812	21821.4
850.639	36607.5
854.464	55160.8
858.288	54197.4
862.11	34370.9
865.93	18844.9
869.748	11182.7
873.564	7241.67
877.379	4978.93
881.192	3749.45
885.004	2870.22
888.813	2281.23
892.621	1797.48
896.427	1432.03
900.232	1127.88
904.034	920.12
907.835	727.744
911.634	593.758
915.432	512.16
919.227	439.943
923.021	363.138
926.813	328.702
930.604	314.656
934.393	273.943
938.18	272.546
941.965	250.423
945.749	273.556
949.53	355.962
953.311	489.605
957.089	607.475
960.866	657.544
964.641	525.795
968.414	314.223
972.185	186.826
975.955	101.325
979.723	107.555
983.49	57.671
987.254	6.951
991.017	45.607
994.779	46.032
998.538	39.333
1002.3	38.534
1006.05	22.872
1009.81	3.78
1013.56	11.384
1017.31	13.225
1021.06	11.473
1024.81	33.649
1028.55	12.607
1032.3	44.846
1036.04	64.868
1039.78	40.017
1043.52	41.674
1047.26	57.384
1050.99	57.249
1054.73	60.018
1058.46	93.986
1062.19	77.168
1065.92	106.212
1069.65	128.031
1073.37	137.182
1077.1	142.49
1080.82	167.854
1084.54	177.331
1088.26	162.93
1091.97	109.057
1095.69	95.88
1099.4	85.48
1103.12	116.853
1106.83	102.121
1110.54	63.74
1114.24	76.223
1117.95	105.841
1121.65	95.56
1125.35	119.978
1129.06	81.215
1132.75	59.444
1136.45	66.47
1140.15	38.831
1143.84	27.947
1147.53	44.725
1151.22	44.385
1154.91	26.899
1158.6	6.704
1162.28	1.673
1165.97	8.652
1169.65	0.207
1173.33	16.292
1177.01	14.005
1180.69	23.078
1184.36	4.547
1188.04	2.925
1191.71	9.069
1195.38	20.009
1199.05	32.737
1202.71	8.271
1206.38	18.565
1210.04	36.663
1213.71	28.57
1217.37	46.258
1221.03	37.769
1224.68	42.756
1228.34	43.289
1231.99	39.292
1235.65	59.117
1239.3	25.775
1242.95	29.24
1246.59	27.51
1250.24	62.598
1253.88	83.51
1257.53	68.252
1261.17	83.826
1264.81	91.229
1268.45	82.453
1272.08	98.501
1275.72	91.37
1279.35	102.068
1282.98	84.597
1286.61	93.968
1290.24	105.192
1293.87	86.276
1297.49	106.235
1301.11	115.434
1304.73	95.972
1308.36	86.918
1311.97	95.025
1315.59	106.893
1319.2	73.23
1322.82	110.553
1326.43	90.667
1330.04	96.864
1333.65	95.108
1337.26	92.238
1340.86	111.434
1344.47	66.358
1348.07	100.111
1351.67	110.101
1355.27	97.624
1358.87	101.005
1362.46	79.794
1366.06	118.734
1369.65	115.678
1373.24	90.399
1376.83	108.812
1380.42	106.599
1384	141.324
1387.59	96.914
1391.17	100.49
1394.75	101.339
1398.33	82.373
1401.91	108.563
1405.49	83.642
1409.06	128.199
1412.64	74.409
1416.21	77.561
1419.78	84.913
1423.35	96.401
1426.91	94.381
1430.48	75.576
1434.05	103.844
1437.61	53.165
1441.17	99.563
1444.73	46.023
1448.29	58.441
1451.84	33.821
1455.4	56.18
1458.95	54.664
1462.5	54.044
1466.05	34.498
1469.6	26.058
1473.15	15.789
1476.69	47.678
1480.24	21.671
1483.78	23.759
1487.32	19.949
1490.86	13.281
1494.39	17.797
1497.93	32.553
1501.46	37.575
1505	32.903
1508.53	20.363
1512.06	34.153
1515.59	16.78
1519.11	6.714
1522.64	4.682
