Measurement: Raman, 514 nm, ccw, Raman Data Processed
Mineral: Olivenite
Rruff sample: R040181
Ideal chemistry: Cu^2+^_2_As^5+^O_4_(OH)
Locality: Majuba Hill, Pershing County, Nevada, USA
Source: University of Arizona Mineral Museum
Description: Greenish blue prismatic, untwinned. Structure for this sample reported in Li et al (2008).
Measured chemistry: (Cu_0.98_[box]_0.02_)_2_(As_0.90_P_0.10_O_4_)(OH)_0.92_
Pin_id: S00079
Orientation: Laser parallel to b* (0 1 0). Fiducial mark perpendicular to laser is parallel to -c [0 0 -1]
Raman shift (cm-1)	intensity
52.866	0
57.065	4.971
61.262	111.487
65.458	66.365
69.651	570.841
73.842	2677.28
78.031	5694.05
82.218	5668.41
86.404	4577.17
90.587	6605.15
94.768	8066.12
98.947	6373.32
103.124	6772.96
107.3	8989.17
111.473	11826.5
115.644	13504.4
119.813	10593.3
123.981	6315.87
128.146	3896.87
132.309	2525.03
136.47	1903.05
140.63	1822.5
144.787	2408.4
148.942	3339.05
153.096	3554.71
157.247	3317.93
161.396	2334.58
165.544	1482.93
169.689	1241.06
173.833	1833.91
177.974	2577.48
182.114	3162.74
186.251	2271.68
190.387	1041.25
194.52	553.388
198.652	636.068
202.782	1172.26
206.909	2214.91
211.035	3657.98
215.159	5602.44
219.281	6458.11
223.4	5017.36
227.518	3423.22
231.634	2156.19
235.748	1275.26
239.86	718.076
243.97	236.918
248.079	9.479
252.185	109.249
256.289	66.368
260.391	25.299
264.492	339.723
268.59	1008.84
272.687	2285.56
276.781	5053.99
280.874	8727.7
284.964	9273.94
289.053	6825.66
293.14	4406.88
297.225	3564.59
301.308	3559.76
305.389	3826.29
309.468	3822.13
313.545	3263.19
317.62	2485.34
321.693	1979.24
325.765	1691.24
329.834	1719.36
333.902	1737.62
337.967	1826.98
342.031	1843.41
346.093	2077.84
350.153	1946.26
354.21	1654.65
358.267	1337.98
362.321	1118.22
366.373	795.369
370.423	459.396
374.471	233.291
378.518	164.04
382.563	36.668
386.605	12.646
390.646	90.126
394.685	166.276
398.722	152.441
402.757	202.672
406.79	210.104
410.821	18.532
414.851	176.948
418.878	293.198
422.904	309.531
426.927	277.329
430.949	160.33
434.969	150.475
438.987	146.643
443.003	139.729
447.018	261.029
451.03	199.748
455.041	282.319
459.049	263.261
463.056	430.943
467.061	463.783
471.064	612.334
475.065	709.637
479.064	935.478
483.062	1265.52
487.057	1721.67
491.051	2266.81
495.043	3094.2
499.032	3843.98
503.02	4387.8
507.007	4668.06
510.991	4955.35
514.973	4546.62
518.954	3618.16
522.933	2800.8
526.91	2206
530.885	1899.53
534.858	1678.58
538.829	1399.15
542.799	1313.89
546.766	1168.63
550.732	1224.25
554.696	1175.08
558.658	1105.09
562.618	984.189
566.576	808.737
570.533	606.444
574.488	415.153
578.44	211.444
582.391	138.397
586.341	78.923
590.288	95.977
594.233	24.526
598.177	52.661
602.119	2.141
606.059	24.608
609.997	38.274
613.933	72.036
617.868	64.687
621.801	29.159
625.731	2.69
629.66	8.917
633.588	67.602
637.513	62.861
641.437	34.706
645.358	17.927
649.278	22.096
653.196	9.809
657.113	17.008
661.027	7.65
664.94	26.341
668.851	12.001
672.76	7.31
676.667	52.32
680.572	24.059
684.476	114.538
688.378	39.777
692.278	57.805
696.176	50.673
700.072	121.347
703.967	150.879
707.86	146.399
711.751	146.175
715.64	118.284
719.527	157.74
723.413	165.374
727.297	175.974
731.179	149.523
735.059	92.951
738.937	138.836
742.814	203.989
746.689	223.679
750.562	214.86
754.433	300.416
758.303	275.588
762.17	411.051
766.036	365.337
769.901	503.203
773.763	589.972
777.624	864.463
781.482	1085.25
785.339	1389.37
789.195	1658.26
793.048	2041.93
796.9	2318.82
800.75	2827.57
804.598	3521.96
808.445	4591.84
812.289	6036.81
816.132	7601.5
819.973	8808.41
823.813	9398.63
827.65	9314.74
831.486	9931.97
835.32	11303.5
839.152	14510.6
842.983	18868.4
846.812	27135.1
850.639	41574.6
854.464	56079.9
858.288	50995.1
862.11	31023.6
865.93	17490.3
869.748	10886.5
873.564	7499.92
877.379	5368.74
881.192	4098.88
885.004	3213.28
888.813	2686.98
892.621	2235.01
896.427	1730.35
900.232	1451.99
904.034	1161.99
907.835	973.345
911.634	789.051
915.432	753.193
919.227	720.813
923.021	636.965
926.813	706.643
930.604	726.781
934.393	574.351
938.18	653.317
941.965	648.623
945.749	706.219
949.53	871.12
953.311	1101.36
957.089	1466.97
960.866	1667.96
964.641	1406.29
968.414	886.912
972.185	494.81
975.955	318.969
979.723	165.387
983.49	158.045
987.254	64.937
991.017	20.95
994.779	79.625
998.538	113.596
1002.3	22.543
1006.05	20.84
1009.81	9.788
1013.56	107.179
1017.31	183.88
1021.06	318.557
1024.81	362.323
1028.55	408.447
1032.3	345.234
1036.04	291.577
1039.78	246.167
1043.52	180.903
1047.26	136.189
1050.99	62.419
1054.73	69.445
1058.46	94.057
1062.19	33.575
1065.92	75.797
1069.65	68.626
1073.37	181.513
1077.1	173.794
1080.82	179.124
1084.54	157.202
1088.26	209.735
1091.97	106.831
1095.69	138.574
1099.4	93.989
1103.12	52.067
1106.83	20.172
1110.54	141.711
1114.24	101.919
1117.95	19.412
1121.65	133.326
1125.35	262.077
1129.06	28.922
1132.75	114.041
1136.45	68.752
1140.15	61.685
1143.84	28.28
1147.53	14.053
1151.22	7.999
1154.91	13.343
1158.6	6.332
1162.28	55.543
1165.97	26.067
1169.65	30.103
1173.33	92.453
1177.01	19.058
1180.69	26.326
1184.36	3.807
1188.04	0.905
1191.71	42.191
1195.38	31.031
1199.05	14.434
1202.71	84.911
1206.38	33.743
1210.04	24.272
1213.71	35.625
1217.37	87.519
1221.03	89.179
1224.68	50.622
1228.34	43.826
1231.99	24.794
1235.65	92.516
1239.3	67.023
1242.95	112.307
1246.59	85.374
1250.24	59.252
1253.88	37.837
1257.53	119.182
1261.17	89.307
1264.81	108.2
1268.45	523.854
1272.08	136.272
1275.72	109.445
1279.35	124.405
1282.98	86.089
1286.61	101.537
1290.24	131.721
1293.87	132.119
1297.49	87.461
1301.11	97.321
1304.73	86.048
1308.36	127.825
1311.97	61.197
1315.59	94.475
1319.2	64.992
1322.82	32.65
1326.43	125.449
1330.04	96.201
1333.65	78.401
1337.26	49.46
1340.86	61.929
1344.47	45.001
1348.07	151.185
1351.67	152.029
1355.27	108.026
1358.87	128.15
1362.46	89.884
1366.06	97.971
1369.65	117.204
1373.24	119.352
1376.83	79.417
1380.42	106.939
1384	94.201
1387.59	105.255
1391.17	140.141
1394.75	108.639
1398.33	123.943
1401.91	148.758
1405.49	94.149
1409.06	106.568
1412.64	133.561
1416.21	152.526
1419.78	94.953
1423.35	53.043
1426.91	100.875
1430.48	59.141
1434.05	107.576
1437.61	135.332
1441.17	111.763
1444.73	133.383
1448.29	186.302
1451.84	165.163
1455.4	295.954
1458.95	204.671
1462.5	761.271
1466.05	88.929
1469.6	122.584
1473.15	78.408
1476.69	59.42
1480.24	77.031
1483.78	43.379
1487.32	74.177
1490.86	58.12
1494.39	40.261
1497.93	83.704
1501.46	51.549
1505	52.862
1508.53	6.691
1512.06	76.334
1515.59	1.823
1519.11	67.742
1522.64	68.267
1526.16	9.737
