Measurement: Raman, 514 nm, ccw, Raman Data Processed
Mineral: Olivenite
Rruff sample: R040181
Ideal chemistry: Cu^2+^_2_As^5+^O_4_(OH)
Locality: Majuba Hill, Pershing County, Nevada, USA
Source: University of Arizona Mineral Museum
Description: Greenish blue prismatic, untwinned. Structure for this sample reported in Li et al (2008).
Measured chemistry: (Cu_0.98_[box]_0.02_)_2_(As_0.90_P_0.10_O_4_)(OH)_0.92_
Pin_id: S00079
Orientation: Laser parallel to b* (0 1 0). Fiducial mark perpendicular to laser is parallel to -c [0 0 -1]
Raman shift (cm-1)	intensity
52.866	0
57.065	32.677
61.262	15.37
65.458	22.882
69.651	85.823
73.842	384.693
78.031	923.535
82.218	1444.94
86.404	1719.73
90.587	1839.35
94.768	1662.62
98.947	1445.45
103.124	1823.93
107.3	2151.79
111.473	2088.78
115.644	2068.5
119.813	1659.58
123.981	982.731
128.146	914.724
132.309	954.365
136.47	659.436
140.63	472.74
144.787	584.166
148.942	1248.51
153.096	2767.78
157.247	4014.95
161.396	3015.77
165.544	1833.68
169.689	1481.17
173.833	1659.11
177.974	2076.51
182.114	2280.37
186.251	1947.69
190.387	1333.46
194.52	906.652
198.652	1051.25
202.782	1718.23
206.909	2983.56
211.035	4926.21
215.159	7529.16
219.281	8545.39
223.4	6572.62
227.518	4066.35
231.634	2443.42
235.748	1576.25
239.86	1075.62
243.97	748.599
248.079	618.393
252.185	593.096
256.289	759.121
260.391	1078.86
264.492	1642.16
268.59	2739.49
272.687	5142.95
276.781	9836.53
280.874	16214.1
284.964	17157.9
289.053	12251.2
293.14	7638.72
297.225	5717.62
301.308	5208.85
305.389	5517.36
309.468	5718.14
313.545	4875.14
317.62	3806.35
321.693	2994.71
325.765	2343.25
329.834	1994.95
333.902	1792.75
337.967	1610.6
342.031	1662.49
346.093	1593.4
350.153	1486.31
354.21	1245.24
358.267	1066.15
362.321	943.04
366.373	865.893
370.423	685.704
374.471	581.464
378.518	585.163
382.563	512.821
386.605	321.599
390.646	159.479
394.685	49.432
398.722	44.565
402.757	73.671
406.79	96.079
410.821	87.956
414.851	66.316
418.878	63.145
422.904	54.462
426.927	32.261
430.949	22.066
434.969	1.502
438.987	43.043
443.003	76.885
447.018	141.454
451.03	189.836
455.041	249.533
459.049	294.644
463.056	492.356
467.061	592.175
471.064	676.683
475.065	877.672
479.064	1200.15
483.062	1585.56
487.057	2099.63
491.051	2818.29
495.043	3750.85
499.032	4610.6
503.02	4598.73
507.007	3815.59
510.991	3107.52
514.973	2436.89
518.954	1927.15
522.933	1596.84
526.91	1346.43
530.885	1182.75
534.858	1024.98
538.829	938.623
542.799	866.66
546.766	812.935
550.732	771.941
554.696	814.678
558.658	770.641
562.618	721.347
566.576	560.35
570.533	483.764
574.488	326.669
578.44	204.073
582.391	149.792
586.341	79.147
590.288	52.005
594.233	58.574
598.177	30.664
602.119	3.413
606.059	3.15
609.997	22.092
613.933	37.474
617.868	34.279
621.801	13.473
625.731	16.863
629.66	4.073
633.588	2.304
637.513	1.188
641.437	11.616
645.358	25.76
649.278	23.736
653.196	9.022
657.113	18.131
661.027	51.092
664.94	60.916
668.851	11.582
672.76	12.111
676.667	46.521
680.572	24.816
684.476	37.011
688.378	30.109
692.278	2.117
696.176	3.958
700.072	65.887
703.967	23.658
707.86	77.367
711.751	29.947
715.64	39.496
719.527	73.303
723.413	85.105
727.297	176.098
731.179	141.287
735.059	128.662
738.937	256.237
742.814	249.823
746.689	271.04
750.562	316.221
754.433	352.437
758.303	401.705
762.17	411.877
766.036	443.359
769.901	571.653
773.763	571.6
777.624	719.505
781.482	855.458
785.339	1096.44
789.195	1353.02
793.048	1645.11
796.9	1948.15
800.75	2241.36
804.598	2595.08
808.445	2867.19
812.289	2970.34
816.132	3174.83
819.973	3424.48
823.813	4000.97
827.65	4999.94
831.486	6758.07
835.32	9451.59
839.152	13648.4
842.983	18540.3
846.812	26975.4
850.639	41417.4
854.464	55182.7
858.288	49539.8
862.11	29716.3
865.93	16599.4
869.748	10299.8
873.564	7104.43
877.379	5024.35
881.192	3907.51
885.004	2992.86
888.813	2399.69
892.621	1934.58
896.427	1543.69
900.232	1292.99
904.034	1018.51
907.835	855.258
911.634	735.254
915.432	734.507
919.227	706.068
923.021	647.973
926.813	724.197
930.604	665.732
934.393	656.562
938.18	671.659
941.965	666.026
945.749	765.819
949.53	962.257
953.311	1206.86
957.089	1504.3
960.866	1612.96
964.641	1254.81
968.414	747.839
972.185	390.038
975.955	193.423
979.723	78.972
983.49	68.682
987.254	13.745
991.017	12.334
994.779	17.136
998.538	8.971
1002.3	4.358
1006.05	22.114
1009.81	32.195
1013.56	38.088
1017.31	5.479
1021.06	21.303
1024.81	85.799
1028.55	24.73
1032.3	81.042
1036.04	12.054
1039.78	32.683
1043.52	19.484
1047.26	44.122
1050.99	27.559
1054.73	25.326
1058.46	36.431
1062.19	5.566
1065.92	59.013
1069.65	33.305
1073.37	56.46
1077.1	64.409
1080.82	45.427
1084.54	86.304
1088.26	51.688
1091.97	27.674
1095.69	95.97
1099.4	53.098
1103.12	53.072
1106.83	69.805
1110.54	68.126
1114.24	54.807
1117.95	65.596
1121.65	97.334
1125.35	149.983
1129.06	83.637
1132.75	69.47
1136.45	14.663
1140.15	59.66
1143.84	4.401
1147.53	34.03
1151.22	18.949
1154.91	52.139
1158.6	50.502
1162.28	14.264
1165.97	27.454
1169.65	29.96
1173.33	20.328
1177.01	108.916
1180.69	176.138
1184.36	29.716
1188.04	16.964
1191.71	57.536
1195.38	40.042
1199.05	29.146
1202.71	39.687
1206.38	86.546
1210.04	45.145
1213.71	70.563
1217.37	19.805
1221.03	41.867
1224.68	38.865
1228.34	54.628
1231.99	40.281
1235.65	19.673
1239.3	48.858
1242.95	91.708
1246.59	75.562
1250.24	30.352
1253.88	43.738
1257.53	33.069
1261.17	78.228
1264.81	109.228
1268.45	91.054
1272.08	103.695
1275.72	86.16
1279.35	117.446
1282.98	93.851
1286.61	114.474
1290.24	93.402
1293.87	49.051
1297.49	75.722
1301.11	61.971
1304.73	42.586
1308.36	61.79
1311.97	77.335
1315.59	68.103
1319.2	57.946
1322.82	77.321
1326.43	85.762
1330.04	53.263
1333.65	56.949
1337.26	40.382
1340.86	69.269
1344.47	0.143
1348.07	56.198
1351.67	48.775
1355.27	54.972
1358.87	63.115
1362.46	73.339
1366.06	33.22
1369.65	84.671
1373.24	72.331
1376.83	60.37
1380.42	63.154
1384	143.349
1387.59	66.604
1391.17	78.379
1394.75	70.723
1398.33	79.921
1401.91	86.855
1405.49	54.882
1409.06	80.303
1412.64	78.312
1416.21	75.449
1419.78	96.387
1423.35	41.291
1426.91	74.566
1430.48	68.523
1434.05	72.452
1437.61	66.395
1441.17	69.562
1444.73	115.763
1448.29	121.675
1451.84	120.605
1455.4	114.737
1458.95	144.919
1462.5	78.093
1466.05	122.271
1469.6	78.62
1473.15	85.251
1476.69	61.984
1480.24	34.956
1483.78	65.136
1487.32	69.51
1490.86	49.145
1494.39	79.103
1497.93	46.488
1501.46	40.372
1505	59.883
1508.53	55.524
1512.06	38.845
1515.59	60.816
1519.11	18.426
1522.64	0
