Measurement: Raman, 514 nm, ccw, Raman Data Processed
Mineral: Olivenite
Rruff sample: R040181
Ideal chemistry: Cu^2+^_2_As^5+^O_4_(OH)
Locality: Majuba Hill, Pershing County, Nevada, USA
Source: University of Arizona Mineral Museum
Description: Greenish blue prismatic, untwinned. Structure for this sample reported in Li et al (2008).
Measured chemistry: (Cu_0.98_[box]_0.02_)_2_(As_0.90_P_0.10_O_4_)(OH)_0.92_
Pin_id: S00388
Orientation: Laser parallel to -a* (-1 0 0). Fiducial mark perpendicular to laser is parallel to b [0 1 0]
Raman shift (cm-1)	intensity
52.866	0
57.065	478.5
61.262	734.399
65.458	24.477
69.651	92.992
73.842	673.644
78.031	1702.63
82.218	2881.73
86.404	3585.54
90.587	4078.51
94.768	3976.7
98.947	3494.34
103.124	3159.4
107.3	3534.87
111.473	2947.27
115.644	3456.77
119.813	3507.44
123.981	2849.23
128.146	2625.97
132.309	2814.49
136.47	3023.71
140.63	3756.78
144.787	5442.37
148.942	7802.52
153.096	8093.37
157.247	7219.87
161.396	4673.96
165.544	2755.79
169.689	1818.5
173.833	1464.44
177.974	1319.35
182.114	1314.9
186.251	1079.79
190.387	766.56
194.52	584.33
198.652	586.078
202.782	748.698
206.909	1156.87
211.035	1730.58
215.159	2682.84
219.281	3539.19
223.4	3110.5
227.518	2906.95
231.634	1453.07
235.748	1006.44
239.86	658.071
243.97	404.854
248.079	212.613
252.185	109.29
256.289	55.786
260.391	123.971
264.492	106.071
268.59	3.419
272.687	99.511
276.781	589.188
280.874	1240.4
284.964	1653.21
289.053	1320.95
293.14	1009.53
297.225	964.179
301.308	1091.83
305.389	1449.67
309.468	1610.19
313.545	1667.18
317.62	1320.38
321.693	1320.93
325.765	1306.03
329.834	1595.03
333.902	1813.95
337.967	2246.72
342.031	2516.77
346.093	2686.03
350.153	2216.55
354.21	1686.3
358.267	1067.21
362.321	773.587
366.373	582.811
370.423	395.118
374.471	121.825
378.518	136.405
382.563	59.514
386.605	123.085
390.646	136.746
394.685	115.563
398.722	129.745
402.757	67.058
406.79	146.37
410.821	269.643
414.851	613.979
418.878	845.438
422.904	830.443
426.927	829.399
430.949	516.571
434.969	362.224
438.987	312.832
443.003	97.685
447.018	37.135
451.03	80.382
455.041	194.006
459.049	205.274
463.056	0.99
467.061	62.174
471.064	30.295
475.065	798.91
479.064	84.347
483.062	31.056
487.057	145.755
491.051	172.892
495.043	407.904
499.032	433.26
503.02	534.528
507.007	404.077
510.991	415.174
514.973	415.488
518.954	360.657
522.933	257.231
526.91	199.475
530.885	323.917
534.858	338.252
538.829	372.39
542.799	468.831
546.766	562.253
550.732	615.344
554.696	698.331
558.658	864.581
562.618	832.106
566.576	735.39
570.533	626.757
574.488	512.545
578.44	315.136
582.391	179.754
586.341	117.625
590.288	230.058
594.233	126.416
598.177	110.379
602.119	130.153
606.059	76.294
609.997	38.181
613.933	72.775
617.868	13.347
621.801	22.631
625.731	149.104
629.66	7.665
633.588	20.306
637.513	109.519
641.437	12.239
645.358	3.503
649.278	9.134
653.196	70.999
657.113	111.714
661.027	27.556
664.94	29.637
668.851	16.587
672.76	49.907
676.667	16.619
680.572	273.812
684.476	113.7
688.378	219.501
692.278	171.18
696.176	51.291
700.072	235.322
703.967	108.841
707.86	147.793
711.751	78.166
715.64	244.964
719.527	172.201
723.413	203.885
727.297	256.049
731.179	237.565
735.059	136.572
738.937	159.495
742.814	91.354
746.689	171.612
750.562	212.304
754.433	172.536
758.303	229.56
762.17	17.636
766.036	193.242
769.901	162.206
773.763	482.973
777.624	426.581
781.482	762.112
785.339	830.387
789.195	1103.87
793.048	1389.65
796.9	1881.22
800.75	2696.26
804.598	3491.76
808.445	4717.04
812.289	6629.11
816.132	9058.69
819.973	10814.2
823.813	11198.5
827.65	11064.1
831.486	10916.2
835.32	11344.5
839.152	13289.8
842.983	15996.4
846.812	20956.5
850.639	30165.1
854.464	40601.2
858.288	39363.5
862.11	26018.1
865.93	15033.4
869.748	9065.85
873.564	6043.41
877.379	4155.14
881.192	3279.25
885.004	2352.99
888.813	2038.91
892.621	1487.66
896.427	999.11
900.232	899.033
904.034	808.264
907.835	562.319
911.634	401.012
915.432	589.544
919.227	548.887
923.021	536.235
926.813	516.02
930.604	414.941
934.393	332.969
938.18	350.1
941.965	361.484
945.749	434.918
949.53	537.717
953.311	684.768
957.089	912.998
960.866	1180.82
964.641	1168.7
968.414	646.393
972.185	390.404
975.955	198.807
979.723	197.945
983.49	410.115
987.254	129.682
991.017	15.08
994.779	91.137
998.538	165.221
1002.3	0.6
1006.05	98.564
1009.81	242.846
1013.56	239.543
1017.31	430.066
1021.06	459.838
1024.81	775.699
1028.55	640.23
1032.3	644.014
1036.04	458.607
1039.78	494.41
1043.52	520.146
1047.26	262.947
1050.99	152.123
1054.73	149.586
1058.46	116.277
1062.19	410.992
1065.92	482.885
1069.65	268.639
1073.37	372.402
1077.1	330.48
1080.82	360.803
1084.54	512.734
1088.26	502.49
1091.97	188.852
1095.69	232.936
1099.4	293.59
1103.12	217.057
1106.83	88.877
1110.54	199.773
1114.24	34.104
1117.95	164.758
1121.65	165.916
1125.35	451.416
1129.06	110.254
1132.75	21.205
1136.45	170.113
1140.15	8.379
1143.84	146.951
1147.53	76.357
1151.22	91.447
1154.91	53.404
1158.6	36.436
1162.28	264.424
1165.97	133.143
1169.65	36.129
1173.33	4.936
1177.01	9.162
1180.69	61.963
1184.36	231.58
1188.04	277.676
1191.71	206.811
1195.38	168.104
1199.05	250.641
1202.71	369.676
1206.38	295.785
1210.04	132.504
1213.71	248.807
1217.37	191.887
1221.03	414.371
1224.68	369.311
1228.34	408.107
1231.99	258.953
1235.65	241.801
1239.3	163.076
1242.95	177.537
1246.59	469.273
1250.24	529.27
1253.88	397.506
1257.53	404.041
1261.17	202.879
1264.81	260.311
1268.45	243.107
1272.08	218.453
1275.72	206.408
1279.35	277.322
1282.98	48.248
1286.61	254.438
1290.24	81.508
1293.87	20.199
1297.49	20.6
1301.11	124.676
1304.73	197.143
1308.36	198.809
1311.97	48.143
1315.59	406.941
1319.2	15.674
1322.82	17.807
1326.43	175.6
1330.04	135.43
1333.65	38.691
1337.26	22.76
1340.86	69.764
1344.47	162.129
1348.07	449.395
1351.67	430.07
1355.27	296.742
1358.87	383.068
1362.46	273.33
1366.06	478.803
1369.65	312.584
1373.24	227.834
1376.83	564.146
1380.42	562.496
1384	464.781
1387.59	354.551
1391.17	347.42
1394.75	454.418
1398.33	287.502
1401.91	387.559
1405.49	306.859
1409.06	380.455
1412.64	652.018
1416.21	1317.61
1419.78	553.855
1423.35	236.916
1426.91	298.375
1430.48	279.523
1434.05	479.045
1437.61	681.076
1441.17	531.479
1444.73	521.982
1448.29	499.695
1451.84	822.963
1455.4	474.941
1458.95	574.668
1462.5	2.961
1466.05	46.348
1469.6	150.539
1473.15	51.539
1476.69	78.184
1480.24	196.422
1483.78	471.5
1487.32	112.391
1490.86	36.031
1494.39	11.023
