Measurement: Raman, 514 nm, ccw, Raman Data Processed
Mineral: Olivenite
Rruff sample: R040181
Ideal chemistry: Cu^2+^_2_As^5+^O_4_(OH)
Locality: Majuba Hill, Pershing County, Nevada, USA
Source: University of Arizona Mineral Museum
Description: Greenish blue prismatic, untwinned. Structure for this sample reported in Li et al (2008).
Measured chemistry: (Cu_0.98_[box]_0.02_)_2_(As_0.90_P_0.10_O_4_)(OH)_0.92_
Pin_id: S00117
Orientation: Laser parallel to (-1 0 -1). Fiducial mark perpendicular to laser is parallel to -b [0 -1 0]
Raman shift (cm-1)	intensity
52.866	0
57.065	33.391
61.262	16.044
65.458	23.2
69.651	124.505
73.842	553.935
78.031	1294.57
82.218	1798.28
86.404	2045.62
90.587	2477.81
94.768	2629.55
98.947	2353.69
103.124	2473.52
107.3	3308.52
111.473	4304.06
115.644	4936.65
119.813	4415.98
123.981	3115.77
128.146	2092.81
132.309	1627.91
136.47	1336.85
140.63	1405.27
144.787	2121.98
148.942	3464.78
153.096	4966.38
157.247	5431.6
161.396	4570.48
165.544	3180.07
169.689	2970.41
173.833	3153.51
177.974	3044.41
182.114	2327.09
186.251	1571.57
190.387	1080.81
194.52	915.887
198.652	1243.49
202.782	1995.89
206.909	3291.94
211.035	5299.62
215.159	7147.89
219.281	8013.1
223.4	7079.85
227.518	5351.91
231.634	3999.16
235.748	2860.4
239.86	1901.63
243.97	1041.83
248.079	595.286
252.185	424.88
256.289	418.286
260.391	513.569
264.492	788.646
268.59	1452.45
272.687	2954.94
276.781	5630.1
280.874	8490.94
284.964	9111.41
289.053	7296.53
293.14	5250.28
297.225	4176.61
301.308	3998.51
305.389	4134.98
309.468	4066.95
313.545	3513.3
317.62	2803.98
321.693	2218
325.765	1821.37
329.834	1741.04
333.902	1763
337.967	1769.26
342.031	1715.76
346.093	1643.47
350.153	1486.36
354.21	1049.42
358.267	825.627
362.321	614.972
366.373	463.44
370.423	334.016
374.471	193.689
378.518	191.447
382.563	144.304
386.605	30.439
390.646	74.161
394.685	172.785
398.722	212.018
402.757	186.566
406.79	125.814
410.821	4.687
414.851	155.234
418.878	209.876
422.904	223.596
426.927	184.428
430.949	82.093
434.969	93.942
438.987	61.389
443.003	96.976
447.018	143.421
451.03	154.423
455.041	192.51
459.049	227.3
463.056	198.905
467.061	263.435
471.064	338.535
475.065	365.696
479.064	538.777
483.062	770.142
487.057	1027
491.051	1463.79
495.043	1946.54
499.032	2402.48
503.02	2765.78
507.007	2935.34
510.991	3233.65
514.973	3579.34
518.954	3635.74
522.933	3734.93
526.91	3601.89
530.885	3214.63
534.858	2618.14
538.829	2163.41
542.799	1864.46
546.766	1624.26
550.732	1490.83
554.696	1311.28
558.658	1135.55
562.618	922.046
566.576	650.671
570.533	442.067
574.488	295.243
578.44	155.201
582.391	132.938
586.341	57.452
590.288	53.718
594.233	12.298
598.177	3.258
602.119	11.617
606.059	29.531
609.997	32.676
613.933	28.513
617.868	39.627
621.801	66.339
625.731	28.663
629.66	16.551
633.588	33.444
637.513	3.032
641.437	9.753
645.358	14.064
649.278	53.569
653.196	3.262
657.113	15.556
661.027	28.129
664.94	20.477
668.851	47.374
672.76	50.545
676.667	59.291
680.572	56.853
684.476	97.236
688.378	78.446
692.278	62.499
696.176	49.414
700.072	93.19
703.967	50.837
707.86	101.38
711.751	91.002
715.64	135.874
719.527	140.023
723.413	186.346
727.297	185.684
731.179	142.921
735.059	160.052
738.937	161.702
742.814	184.682
746.689	232.604
750.562	229.567
754.433	257.678
758.303	291.691
762.17	293.602
766.036	377.828
769.901	399.37
773.763	483.187
777.624	570.146
781.482	718.153
785.339	871.775
789.195	1122.11
793.048	1287.84
796.9	1487.52
800.75	1613.7
804.598	1821.32
808.445	1997.54
812.289	2251.91
816.132	2755.2
819.973	3290.73
823.813	3900.86
827.65	4548.15
831.486	5901.61
835.32	7954.19
839.152	11354.9
842.983	16152.2
846.812	24445.9
850.639	38848.2
854.464	52956.3
858.288	49532.7
862.11	31614.3
865.93	17890.7
869.748	10806.9
873.564	7246.1
877.379	5177.46
881.192	3965.04
885.004	3117.83
888.813	2573.84
892.621	2121.04
896.427	1681.41
900.232	1416.98
904.034	1109.78
907.835	961.852
911.634	732.231
915.432	688.948
919.227	618.027
923.021	576.461
926.813	526.005
930.604	491.411
934.393	454.916
938.18	445.686
941.965	474.674
945.749	480.887
949.53	530.357
953.311	639.07
957.089	840.99
960.866	856.159
964.641	683.535
968.414	401.088
972.185	267.813
975.955	200.699
979.723	126.738
983.49	92.928
987.254	15.269
991.017	3.24
994.779	15.61
998.538	21.875
1002.3	35.05
1006.05	23.136
1009.81	1.724
1013.56	19.38
1017.31	59.506
1021.06	5.04
1024.81	65.115
1028.55	44.994
1032.3	66.302
1036.04	42.756
1039.78	53.494
1043.52	39.932
1047.26	35.686
1050.99	18.788
1054.73	28.36
1058.46	26.072
1062.19	39.794
1065.92	15.321
1069.65	52.653
1073.37	77.205
1077.1	76.524
1080.82	105.546
1084.54	116.491
1088.26	95.172
1091.97	73.529
1095.69	73.242
1099.4	34.588
1103.12	25.256
1106.83	51.802
1110.54	64.526
1114.24	75.088
1117.95	54.104
1121.65	81.428
1125.35	116.642
1129.06	80.952
1132.75	46.322
1136.45	47.859
1140.15	37.179
1143.84	40.537
1147.53	38.635
1151.22	29.644
1154.91	21.29
1158.6	5.326
1162.28	35.195
1165.97	28.211
1169.65	8.888
1173.33	23.845
1177.01	11.061
1180.69	19.687
1184.36	19.628
1188.04	10.746
1191.71	7.875
1195.38	38.418
1199.05	31.746
1202.71	42.926
1206.38	20.945
1210.04	16.788
1213.71	47.46
1217.37	45.984
1221.03	12.359
1224.68	30.56
1228.34	45.997
1231.99	28.546
1235.65	31.322
1239.3	71.946
1242.95	29.43
1246.59	63.773
1250.24	74.98
1253.88	56.046
1257.53	55.978
1261.17	57.767
1264.81	64.404
1268.45	90.896
1272.08	75.245
1275.72	84.444
1279.35	62.49
1282.98	61.387
1286.61	74.145
1290.24	68.777
1293.87	75.302
1297.49	76.72
1301.11	96.036
1304.73	56.573
1308.36	79.883
1311.97	57.561
1315.59	52.356
1319.2	56.445
1322.82	75.469
1326.43	68.718
1330.04	66.362
1333.65	63.518
1337.26	85.022
1340.86	62.155
1344.47	74.116
1348.07	80.687
1351.67	54.628
1355.27	99.761
1358.87	69.89
1362.46	85.603
1366.06	68.183
1369.65	76.662
1373.24	84.85
1376.83	86.742
1380.42	82.764
1384	112.456
1387.59	88.873
1391.17	55.869
1394.75	72.027
1398.33	77.84
1401.91	73.262
1405.49	71.712
1409.06	68.666
1412.64	65.361
1416.21	69.656
1419.78	83.907
1423.35	65.01
1426.91	85.88
1430.48	55.34
1434.05	57.676
1437.61	63.161
1441.17	53.704
1444.73	65.267
1448.29	61.856
1451.84	22.402
1455.4	49.953
1458.95	35.476
1462.5	58.98
1466.05	64.501
1469.6	54.109
1473.15	25.876
1476.69	15.843
1480.24	33.904
1483.78	28.047
1487.32	27.276
1490.86	26.618
1494.39	33.119
1497.93	47.84
1501.46	33.802
1505	5.351
1508.53	14.606
1512.06	37.655
1515.59	1.084
1519.11	14.333
1522.64	2.74
