Measurement: Raman, 514 nm, ccw, Raman Data Processed
Mineral: Olivenite
Rruff sample: R040181
Ideal chemistry: Cu^2+^_2_As^5+^O_4_(OH)
Locality: Majuba Hill, Pershing County, Nevada, USA
Source: University of Arizona Mineral Museum
Description: Greenish blue prismatic, untwinned. Structure for this sample reported in Li et al (2008).
Measured chemistry: (Cu_0.98_[box]_0.02_)_2_(As_0.90_P_0.10_O_4_)(OH)_0.92_
Pin_id: S00117
Orientation: Laser parallel to (-1 0 -1). Fiducial mark perpendicular to laser is parallel to -b [0 -1 0]
Raman shift (cm-1)	intensity
52.866	0
57.065	80.325
61.262	6.665
65.458	0.521
69.651	180.786
73.842	769.015
78.031	1742.11
82.218	2094.57
86.404	2228.1
90.587	3036.08
94.768	3501.25
98.947	3115.49
103.124	3147.82
107.3	4263.83
111.473	5623.19
115.644	6457.53
119.813	5618.5
123.981	3745.81
128.146	2386.23
132.309	1711.55
136.47	1167.55
140.63	880.947
144.787	1074.52
148.942	1655.48
153.096	2395.24
157.247	2745.29
161.396	2211.63
165.544	1475.49
169.689	1231.33
173.833	1378.83
177.974	1608.97
182.114	1713.76
186.251	1365.19
190.387	896.226
194.52	721.859
198.652	888.059
202.782	1523.8
206.909	2604.04
211.035	4234.75
215.159	6007.91
219.281	6941.53
223.4	6161.61
227.518	4362.68
231.634	2836.04
235.748	1827.41
239.86	1238.81
243.97	757.518
248.079	507.875
252.185	417.155
256.289	417.161
260.391	532.696
264.492	909.379
268.59	1569.36
272.687	3173.6
276.781	6167
280.874	9550.11
284.964	10273.9
289.053	7997.14
293.14	5551.88
297.225	4425.05
301.308	4305.61
305.389	4724.54
309.468	4798.81
313.545	4220.43
317.62	3306.32
321.693	2596.46
325.765	2154.81
329.834	2038.37
333.902	1951.13
337.967	1771.04
342.031	1709.09
346.093	1535.24
350.153	1343.48
354.21	1081.8
358.267	913.191
362.321	782.634
366.373	591.122
370.423	471.644
374.471	379.188
378.518	377.746
382.563	303.332
386.605	185.108
390.646	88.09
394.685	12.738
398.722	76.527
402.757	86.481
406.79	74.703
410.821	79.218
414.851	3.991
418.878	0.062
422.904	45.988
426.927	65.849
430.949	83.971
434.969	48.859
438.987	6.086
443.003	40.816
447.018	88.601
451.03	114.159
455.041	142.111
459.049	171.867
463.056	225.243
467.061	293.904
471.064	356.104
475.065	456.997
479.064	593.449
483.062	825.876
487.057	1136.01
491.051	1564.37
495.043	2196.36
499.032	2669.59
503.02	3064.75
507.007	3126.08
510.991	3267.21
514.973	3149.13
518.954	2663.84
522.933	2136.34
526.91	1788.62
530.885	1572.69
534.858	1271.54
538.829	1069.17
542.799	951.574
546.766	887.756
550.732	916.708
554.696	902.786
558.658	867.351
562.618	691.564
566.576	547.767
570.533	372.362
574.488	288.312
578.44	170.882
582.391	126.213
586.341	92.091
590.288	41.138
594.233	12.631
598.177	12.657
602.119	20.716
606.059	3.67
609.997	48.308
613.933	23.755
617.868	11.604
621.801	5.912
625.731	9.369
629.66	16.73
633.588	16.542
637.513	1.898
641.437	18.405
645.358	1.489
649.278	6.313
653.196	25.884
657.113	2.27
661.027	51.484
664.94	79.553
668.851	35.486
672.76	53.287
676.667	57.962
680.572	46.515
684.476	76.952
688.378	45.289
692.278	75.535
696.176	88.702
700.072	94.807
703.967	91.831
707.86	75.778
711.751	47.653
715.64	72.536
719.527	127.503
723.413	150.586
727.297	124.79
731.179	151.071
735.059	130.385
738.937	159.729
742.814	193.125
746.689	221.21
750.562	246.692
754.433	242.984
758.303	275.818
762.17	336.992
766.036	325.546
769.901	439.445
773.763	517.698
777.624	587.855
781.482	748.083
785.339	924.226
789.195	1145.26
793.048	1339.37
796.9	1449.03
800.75	1581.04
804.598	1699.52
808.445	1899.4
812.289	2205.16
816.132	2740.72
819.973	3370.57
823.813	3985.53
827.65	4640.62
831.486	5899.83
835.32	8065.18
839.152	11397
842.983	16180.9
846.812	24741.7
850.639	38800.1
854.464	52128.7
858.288	47364.6
862.11	28464
865.93	15635.6
869.748	9402.39
873.564	6236.4
877.379	4474.59
881.192	3445.99
885.004	2855.59
888.813	2242.38
892.621	1827.37
896.427	1543.53
900.232	1231.88
904.034	997.455
907.835	855.311
911.634	699.373
915.432	627.335
919.227	588.314
923.021	569.225
926.813	518.406
930.604	508.834
934.393	434.5
938.18	385.421
941.965	415.552
945.749	400.892
949.53	493.428
953.311	641.479
957.089	788.075
960.866	823.189
964.641	605.457
968.414	363.874
972.185	202.43
975.955	103.121
979.723	82.944
983.49	44.896
987.254	0.974
991.017	31.83
994.779	11.542
998.538	47.16
1002.3	55.67
1006.05	6.592
1009.81	10.422
1013.56	0.569
1017.31	1.359
1021.06	2.132
1024.81	34.566
1028.55	43.515
1032.3	41.784
1036.04	63.876
1039.78	45.246
1043.52	39.122
1047.26	7.568
1050.99	34.97
1054.73	7.41
1058.46	18.695
1062.19	30.157
1065.92	34.928
1069.65	45.979
1073.37	38.488
1077.1	73.955
1080.82	73.528
1084.54	89.245
1088.26	52.625
1091.97	52.368
1095.69	39.784
1099.4	39.595
1103.12	19.672
1106.83	37.579
1110.54	32.435
1114.24	53.268
1117.95	54.079
1121.65	53.707
1125.35	100.253
1129.06	61.743
1132.75	63.157
1136.45	75.523
1140.15	50.009
1143.84	46.825
1147.53	10.946
1151.22	16.51
1154.91	9.515
1158.6	12.042
1162.28	6.859
1165.97	6.511
1169.65	17.756
1173.33	20.745
1177.01	0.299
1180.69	4.131
1184.36	13.269
1188.04	15.13
1191.71	15.374
1195.38	17.53
1199.05	8.559
1202.71	9.503
1206.38	45.168
1210.04	6.746
1213.71	33.165
1217.37	19.462
1221.03	26.604
1224.68	26.621
1228.34	35.509
1231.99	34.267
1235.65	28.882
1239.3	30.348
1242.95	14.684
1246.59	45.879
1250.24	49.338
1253.88	54.909
1257.53	53.745
1261.17	57.461
1264.81	67.049
1268.45	73.509
1272.08	61.839
1275.72	86.041
1279.35	80.119
1282.98	66.076
1286.61	63.925
1290.24	66.671
1293.87	59.27
1297.49	48.839
1301.11	75.681
1304.73	65.444
1308.36	83.296
1311.97	66.322
1315.59	59.992
1319.2	59.237
1322.82	47.465
1326.43	59.261
1330.04	71.47
1333.65	65.949
1337.26	61.166
1340.86	64.299
1344.47	38.341
1348.07	68.687
1351.67	59.901
1355.27	58.308
1358.87	53.041
1362.46	50.334
1366.06	66.769
1369.65	57.809
1373.24	47.957
1376.83	86.872
1380.42	71.793
1384	65.327
1387.59	67.772
1391.17	60.051
1394.75	64.104
1398.33	49.29
1401.91	52.369
1405.49	57.033
1409.06	70.307
1412.64	49.211
1416.21	67.29
1419.78	60.464
1423.35	46.857
1426.91	32.582
1430.48	53.532
1434.05	53.339
1437.61	48.115
1441.17	46.055
1444.73	50.992
1448.29	33.939
1451.84	50.884
1455.4	53.458
1458.95	40.881
1462.5	35.859
1466.05	17.838
1469.6	32.914
1473.15	23.121
1476.69	33.225
1480.24	30.786
1483.78	25.165
1487.32	15.675
1490.86	0.281
1494.39	24.014
1497.93	22.826
1501.46	2.889
1505	1.07
1508.53	14.132
1512.06	20.274
1515.59	7.367
1519.11	23.753
1522.64	0
