Measurement: Raman, 514 nm, ccw, Raman Data Processed
Mineral: Olivenite
Rruff sample: R040181
Ideal chemistry: Cu^2+^_2_As^5+^O_4_(OH)
Locality: Majuba Hill, Pershing County, Nevada, USA
Source: University of Arizona Mineral Museum
Description: Greenish blue prismatic, untwinned. Structure for this sample reported in Li et al (2008).
Measured chemistry: (Cu_0.98_[box]_0.02_)_2_(As_0.90_P_0.10_O_4_)(OH)_0.92_
Pin_id: S00388
Orientation: Laser parallel to -a* (-1 0 0). Fiducial mark perpendicular to laser is parallel to b [0 1 0]
Raman shift (cm-1)	intensity
52.866	0
57.065	248.538
61.262	317.871
65.458	17.666
69.651	89.368
73.842	793.023
78.031	2164.76
82.218	3752.25
86.404	4706.14
90.587	4863.87
94.768	4243.38
98.947	3350.66
103.124	2757.53
107.3	2958.29
111.473	2435.48
115.644	2500.79
119.813	2627.11
123.981	2221.38
128.146	2069.46
132.309	2200.12
136.47	2544.14
140.63	3438.57
144.787	5576.98
148.942	9591.1
153.096	14338.2
157.247	18016.5
161.396	11593.8
165.544	5590.42
169.689	3099.19
173.833	1968.17
177.974	1325.7
182.114	988.065
186.251	748.397
190.387	536.522
194.52	494.012
198.652	714.471
202.782	778.821
206.909	1462.03
211.035	2447.05
215.159	4096.85
219.281	5180.58
223.4	4434.51
227.518	3008.64
231.634	2208.26
235.748	1962.49
239.86	1602.41
243.97	972.366
248.079	567.69
252.185	432.299
256.289	340.073
260.391	327.913
264.492	394.752
268.59	645.525
272.687	1367.19
276.781	2782.74
280.874	4803.16
284.964	5174.39
289.053	3497.42
293.14	1912.5
297.225	1319.4
301.308	1114.81
305.389	1114.54
309.468	1374.25
313.545	1194.49
317.62	1038.02
321.693	783.004
325.765	727.381
329.834	776.056
333.902	844.141
337.967	1124.28
342.031	1443.88
346.093	1590.85
350.153	1317.14
354.21	860.73
358.267	557.556
362.321	357.59
366.373	414.806
370.423	315.177
374.471	351.683
378.518	325.314
382.563	213.075
386.605	150.026
390.646	40.276
394.685	78.11
398.722	91.14
402.757	60.031
406.79	90.232
410.821	347.66
414.851	794.225
418.878	1058.9
422.904	1210.27
426.927	1191.78
430.949	934.429
434.969	714.298
438.987	476.085
443.003	303.653
447.018	116.245
451.03	36.293
455.041	52.477
459.049	70.371
463.056	34.552
467.061	59.923
471.064	28.733
475.065	140.492
479.064	61.361
483.062	54.524
487.057	6.053
491.051	43.268
495.043	136.94
499.032	144.174
503.02	185.611
507.007	149.385
510.991	157.333
514.973	276.193
518.954	279.176
522.933	340.835
526.91	258.774
530.885	294.43
534.858	289.828
538.829	284.655
542.799	352.894
546.766	358.611
550.732	488.834
554.696	547.152
558.658	612.463
562.618	636.064
566.576	560.739
570.533	532.968
574.488	440.566
578.44	200.559
582.391	70.157
586.341	98.14
590.288	107.635
594.233	13.57
598.177	76.617
602.119	52.601
606.059	82.45
609.997	120.287
613.933	36.307
617.868	31.954
621.801	9.169
625.731	78.434
629.66	15.114
633.588	72.54
637.513	75.345
641.437	42.312
645.358	3.051
649.278	45.555
653.196	9.174
657.113	47.933
661.027	33.217
664.94	21.02
668.851	21.798
672.76	18.246
676.667	32.178
680.572	60.663
684.476	224.712
688.378	146.348
692.278	200.56
696.176	69.338
700.072	139.678
703.967	125.304
707.86	70.091
711.751	165.188
715.64	180.94
719.527	233.345
723.413	276.392
727.297	283.075
731.179	257.407
735.059	160.169
738.937	162.674
742.814	137.064
746.689	170.346
750.562	172.159
754.433	130.745
758.303	84.419
762.17	110.37
766.036	29.59
769.901	155.796
773.763	200.716
777.624	200.81
781.482	316.12
785.339	374.505
789.195	656.134
793.048	784.296
796.9	868.777
800.75	1124.11
804.598	1390.59
808.445	1518.9
812.289	1890.19
816.132	2158.22
819.973	2762.53
823.813	3403.11
827.65	3700.03
831.486	4686.06
835.32	6052.98
839.152	8296.34
842.983	11297.7
846.812	17075.1
850.639	27757.6
854.464	40663.8
858.288	40474.8
862.11	26391.9
865.93	15143.2
869.748	9379.99
873.564	6117.72
877.379	4098.96
881.192	3252.22
885.004	2401.74
888.813	1888.36
892.621	1599.16
896.427	1158.91
900.232	897.862
904.034	691.023
907.835	621.085
911.634	319.68
915.432	457.151
919.227	317.597
923.021	307.646
926.813	334.935
930.604	311.523
934.393	246.281
938.18	380.318
941.965	278.299
945.749	350.208
949.53	398.152
953.311	591.733
957.089	874.533
960.866	1025.88
964.641	969.279
968.414	407.935
972.185	265.546
975.955	246.938
979.723	140.288
983.49	244.06
987.254	134.799
991.017	54.081
994.779	90.3
998.538	121.694
1002.3	58.506
1006.05	32.629
1009.81	74.562
1013.56	57.111
1017.31	146.723
1021.06	152.417
1024.81	184.827
1028.55	268.35
1032.3	83.467
1036.04	146.779
1039.78	163.865
1043.52	267.717
1047.26	212.239
1050.99	114.606
1054.73	249.692
1058.46	229.172
1062.19	248.757
1065.92	199.03
1069.65	214.153
1073.37	342.885
1077.1	325.892
1080.82	438.746
1084.54	258.065
1088.26	213.949
1091.97	85.977
1095.69	233.155
1099.4	119.695
1103.12	203.887
1106.83	59.485
1110.54	187.419
1114.24	18.215
1117.95	173.562
1121.65	143.836
1125.35	327.434
1129.06	51.82
1132.75	26.452
1136.45	363.762
1140.15	80.746
1143.84	98.516
1147.53	78.526
1151.22	11.322
1154.91	58.882
1158.6	23.342
1162.28	47.941
1165.97	140.532
1169.65	39.7
1173.33	58.438
1177.01	137.181
1180.69	95.646
1184.36	146.018
1188.04	183.738
1191.71	269.772
1195.38	82.056
1199.05	71.794
1202.71	241.176
1206.38	263.52
1210.04	160.215
1213.71	313.709
1217.37	167.297
1221.03	278.402
1224.68	217.221
1228.34	255.316
1231.99	202.988
1235.65	236.547
1239.3	200.553
1242.95	246.488
1246.59	387.916
1250.24	400.412
1253.88	366.186
1257.53	42.959
1261.17	136.113
1264.81	259.877
1268.45	157.443
1272.08	258.229
1275.72	63.803
1279.35	291.844
1282.98	104.439
1286.61	127.432
1290.24	4.059
1293.87	91.086
1297.49	108.85
1301.11	134.719
1304.73	35.127
1308.36	240.68
1311.97	39.174
1315.59	95.846
1319.2	37.184
1322.82	46.867
1326.43	207.484
1330.04	92.203
1333.65	21.584
1337.26	120.318
1340.86	125.293
1344.47	239.09
1348.07	383.223
1351.67	366.551
1355.27	320.473
1358.87	408.418
1362.46	214.234
1366.06	435.248
1369.65	431.525
1373.24	271.738
1376.83	391.738
1380.42	298.586
1384	369.102
1387.59	443.012
1391.17	278.35
1394.75	414.248
1398.33	193.271
1401.91	382.201
1405.49	345.844
1409.06	353.482
1412.64	489.01
1416.21	500.314
1419.78	603.898
1423.35	199.428
1426.91	257.17
1430.48	416.578
1434.05	590.195
1437.61	603.973
1441.17	559.908
1444.73	580.701
1448.29	536.594
1451.84	709.453
1455.4	679.266
1458.95	856.123
1462.5	378.998
1466.05	332.143
1469.6	401.977
1473.15	243.68
1476.69	232.934
1480.24	187.566
1483.78	507.598
1487.32	246.896
1490.86	290.727
1494.39	371.846
1497.93	112.994
1501.46	154.49
1505	152.367
1508.53	365.652
1512.06	405.188
1515.59	149.088
1519.11	104.828
1522.64	0
