Measurement: Raman, 514 nm, ccw, Raman Data Processed
Mineral: Olivenite
Rruff sample: R040181
Ideal chemistry: Cu^2+^_2_As^5+^O_4_(OH)
Locality: Majuba Hill, Pershing County, Nevada, USA
Source: University of Arizona Mineral Museum
Description: Greenish blue prismatic, untwinned. Structure for this sample reported in Li et al (2008).
Measured chemistry: (Cu_0.98_[box]_0.02_)_2_(As_0.90_P_0.10_O_4_)(OH)_0.92_
Pin_id: S00079
Orientation: Laser parallel to b* (0 1 0). Fiducial mark perpendicular to laser is parallel to -c [0 0 -1]
Raman shift (cm-1)	intensity
52.866	0
57.065	95.094
61.262	202.935
65.458	12.192
69.651	152.454
73.842	866.263
78.031	1840.8
82.218	2505.37
86.404	2457.57
90.587	2684.36
94.768	2621.46
98.947	2296.93
103.124	2460.01
107.3	2696.1
111.473	2830.96
115.644	2948.47
119.813	2693.64
123.981	2390.57
128.146	2492.27
132.309	2535.78
136.47	2784.07
140.63	3780.46
144.787	5871.81
148.942	7881.42
153.096	6480.5
157.247	3887.79
161.396	2363.36
165.544	1565.41
169.689	1198.97
173.833	1165.3
177.974	1289.43
182.114	1432.35
186.251	1128.04
190.387	680.444
194.52	437.678
198.652	546.191
202.782	829.48
206.909	1389.35
211.035	2311.76
215.159	3872.71
219.281	4790.35
223.4	4135.13
227.518	2876.22
231.634	1927.8
235.748	1297.83
239.86	885.041
243.97	454.24
248.079	240.287
252.185	111.061
256.289	41.474
260.391	72.568
264.492	106.215
268.59	181.567
272.687	109.683
276.781	119.561
280.874	588.287
284.964	1006.52
289.053	1088.25
293.14	1022.51
297.225	1105.33
301.308	1533.95
305.389	1996.91
309.468	2327.42
313.545	2025.97
317.62	1750.82
321.693	1181.92
325.765	1005.88
329.834	938.69
333.902	971.787
337.967	1059.2
342.031	1161.87
346.093	1247.76
350.153	1209.86
354.21	1030.12
358.267	872.553
362.321	674.124
366.373	419.827
370.423	189.649
374.471	51.58
378.518	18.609
382.563	53.736
386.605	145.058
390.646	185.184
394.685	178.257
398.722	179.125
402.757	220.113
406.79	392.203
410.821	686.378
414.851	1084.62
418.878	1346.93
422.904	1365.17
426.927	1188.24
430.949	791.681
434.969	540.58
438.987	380.31
443.003	205.271
447.018	133.589
451.03	84.724
455.041	24.358
459.049	43.043
463.056	68.207
467.061	55.557
471.064	126.806
475.065	78.817
479.064	160.415
483.062	260.305
487.057	479.368
491.051	649.496
495.043	765.169
499.032	848.285
503.02	875.234
507.007	810.052
510.991	699.848
514.973	584.12
518.954	399.992
522.933	290.572
526.91	271.923
530.885	269.04
534.858	280.919
538.829	292.557
542.799	421.882
546.766	622.025
550.732	774.912
554.696	1030.54
558.658	1159.9
562.618	1078
566.576	881.817
570.533	628.361
574.488	431.627
578.44	242.611
582.391	130.367
586.341	53.982
590.288	24.487
594.233	54.224
598.177	33.482
602.119	31.387
606.059	17.987
609.997	16.31
613.933	84.396
617.868	81.354
621.801	63.397
625.731	7.003
629.66	11.692
633.588	6.732
637.513	5.423
641.437	10.902
645.358	5.776
649.278	1.861
653.196	2.961
657.113	24.069
661.027	19.225
664.94	65.345
668.851	28.192
672.76	47.781
676.667	95.13
680.572	118.246
684.476	148.137
688.378	182.811
692.278	193.285
696.176	163.579
700.072	236.722
703.967	169.69
707.86	262.471
711.751	240.073
715.64	235.502
719.527	233.767
723.413	221.877
727.297	172.84
731.179	225.667
735.059	186.364
738.937	173.939
742.814	207.47
746.689	236.811
750.562	250.228
754.433	260.523
758.303	274.235
762.17	324.263
766.036	383.679
769.901	429.158
773.763	538.992
777.624	661.228
781.482	831.617
785.339	1138.58
789.195	1394.55
793.048	1815.69
796.9	2331.69
800.75	3276.8
804.598	4665.52
808.445	6878.73
812.289	10243.3
816.132	14249.9
819.973	17035
823.813	17271.4
827.65	15606.6
831.486	14335
835.32	13756.7
839.152	15254.5
842.983	18715.2
846.812	26382.6
850.639	40826.5
854.464	56705.4
858.288	52250.3
862.11	31720.5
865.93	17409.9
869.748	10572.6
873.564	6956.69
877.379	4888.12
881.192	3661.94
885.004	2845.12
888.813	2203.42
892.621	1767.38
896.427	1436.45
900.232	1240.83
904.034	996.58
907.835	907.832
911.634	710.673
915.432	726.541
919.227	669.206
923.021	630.342
926.813	712.049
930.604	676.325
934.393	648.07
938.18	605.227
941.965	583.723
945.749	583.577
949.53	727.829
953.311	941.491
957.089	1340.51
960.866	1639.9
964.641	1413.64
968.414	917.69
972.185	582.018
975.955	466.608
979.723	332.445
983.49	250.522
987.254	122.154
991.017	11.711
994.779	46.476
998.538	52.177
1002.3	55.95
1006.05	4.378
1009.81	38.931
1013.56	175.783
1017.31	337.372
1021.06	542.88
1024.81	763.879
1028.55	763.833
1032.3	709.855
1036.04	668.859
1039.78	455.736
1043.52	263.252
1047.26	164.815
1050.99	84.679
1054.73	2.581
1058.46	67.093
1062.19	29.458
1065.92	0.359
1069.65	87.015
1073.37	111.169
1077.1	146.798
1080.82	161.623
1084.54	226.882
1088.26	102.813
1091.97	119.11
1095.69	97.77
1099.4	83.192
1103.12	58.752
1106.83	36.942
1110.54	37.24
1114.24	74.119
1117.95	39.647
1121.65	89.731
1125.35	219.302
1129.06	78.804
1132.75	16.941
1136.45	39.171
1140.15	18.175
1143.84	85.313
1147.53	0.677
1151.22	27.103
1154.91	22.945
1158.6	16.377
1162.28	24.362
1165.97	18.289
1169.65	30.99
1173.33	34.171
1177.01	62.656
1180.69	30.993
1184.36	21.811
1188.04	27.036
1191.71	59.744
1195.38	13.222
1199.05	44.401
1202.71	59.54
1206.38	39.453
1210.04	93.1
1213.71	53.727
1217.37	40.946
1221.03	85.989
1224.68	19.761
1228.34	40.24
1231.99	35.498
1235.65	72.518
1239.3	49.349
1242.95	54.919
1246.59	65.267
1250.24	82.395
1253.88	87.273
1257.53	25.938
1261.17	69.361
1264.81	109.554
1268.45	162.523
1272.08	156.268
1275.72	149.782
1279.35	131.063
1282.98	79.819
1286.61	127.615
1290.24	133.241
1293.87	96.643
1297.49	82.545
1301.11	135.589
1304.73	117.314
1308.36	98.964
1311.97	91.589
1315.59	93.555
1319.2	55.64
1322.82	92.193
1326.43	13.463
1330.04	42.816
1333.65	47.423
1337.26	50.799
1340.86	94.37
1344.47	73.957
1348.07	71.717
1351.67	85.981
1355.27	117.344
1358.87	100.346
1362.46	217.206
1366.06	75.486
1369.65	120.689
1373.24	121.879
1376.83	104.475
1380.42	43.248
1384	102.281
1387.59	72.258
1391.17	88.787
1394.75	99.132
1398.33	66.604
1401.91	78.139
1405.49	78.657
1409.06	90.253
1412.64	85.823
1416.21	99.35
1419.78	111.295
1423.35	60.216
1426.91	85.943
1430.48	102.197
1434.05	26.901
1437.61	67.599
1441.17	76.345
1444.73	100.705
1448.29	63.338
1451.84	109.114
1455.4	90.826
1458.95	95.601
1462.5	31.454
1466.05	34.358
1469.6	100.334
1473.15	15.539
1476.69	68.068
1480.24	3.965
1483.78	6.075
1487.32	70.438
1490.86	6.116
1494.39	89.183
1497.93	65.18
1501.46	54.962
1505	36.932
1508.53	36.865
1512.06	45.123
1515.59	75.731
1519.11	85.293
1522.64	47.162
1526.16	0
