Measurement: Raman, 514 nm, ccw, Raman Data Processed
Mineral: Olivenite
Rruff sample: R040181
Ideal chemistry: Cu^2+^_2_As^5+^O_4_(OH)
Locality: Majuba Hill, Pershing County, Nevada, USA
Source: University of Arizona Mineral Museum
Description: Greenish blue prismatic, untwinned. Structure for this sample reported in Li et al (2008).
Measured chemistry: (Cu_0.98_[box]_0.02_)_2_(As_0.90_P_0.10_O_4_)(OH)_0.92_
Pin_id: S00388
Orientation: Laser parallel to -a* (-1 0 0). Fiducial mark perpendicular to laser is parallel to b [0 1 0]
Raman shift (cm-1)	intensity
52.866	0
57.065	412.088
61.262	823.847
65.458	90.738
69.651	71.16
73.842	335.796
78.031	1172.89
82.218	2105.19
86.404	2739.49
90.587	3157.59
94.768	3126.72
98.947	2975.28
103.124	2940.5
107.3	3216.29
111.473	2880.39
115.644	2972.02
119.813	3221.12
123.981	2815.69
128.146	2869.66
132.309	3051.96
136.47	3069.55
140.63	3796.38
144.787	5229.2
148.942	6898.61
153.096	6064.59
157.247	3731.6
161.396	2491.15
165.544	1707.01
169.689	1456
173.833	1361.79
177.974	1478.62
182.114	1553.58
186.251	1383.54
190.387	1045.32
194.52	753.774
198.652	738.898
202.782	1014.67
206.909	1329.06
211.035	2112.07
215.159	3221.71
219.281	4300.35
223.4	3885.49
227.518	2742.92
231.634	1831.78
235.748	1267.82
239.86	902.849
243.97	590.508
248.079	332.052
252.185	214.384
256.289	119.428
260.391	15.877
264.492	48.592
268.59	88.772
272.687	73.443
276.781	2.489
280.874	415.02
284.964	714.092
289.053	802.674
293.14	806.332
297.225	894.324
301.308	1149.3
305.389	1508.24
309.468	1848.75
313.545	1669.9
317.62	1343.38
321.693	1050.89
325.765	922.519
329.834	845.325
333.902	935.524
337.967	956.082
342.031	989.92
346.093	1027
350.153	1052.39
354.21	883
358.267	706.796
362.321	609.373
366.373	521.129
370.423	215.959
374.471	6.395
378.518	62.068
382.563	147.313
386.605	221.974
390.646	229.521
394.685	143.232
398.722	187.246
402.757	230.511
406.79	300.875
410.821	484.301
414.851	789.774
418.878	1016.57
422.904	1082.04
426.927	980.431
430.949	657.95
434.969	441.026
438.987	365.133
443.003	232.609
447.018	61.991
451.03	16.215
455.041	43.759
459.049	12.893
463.056	28.808
467.061	3.394
471.064	116.104
475.065	51.267
479.064	108.793
483.062	151.399
487.057	332.507
491.051	408.693
495.043	561.53
499.032	633.892
503.02	612.362
507.007	597.4
510.991	427.053
514.973	275.855
518.954	256.13
522.933	158.69
526.91	103.1
530.885	138.885
534.858	180.634
538.829	282.485
542.799	441.893
546.766	545.416
550.732	720.445
554.696	912.835
558.658	990.136
562.618	1021.39
566.576	924.396
570.533	760.805
574.488	497.476
578.44	326.008
582.391	186.724
586.341	26.487
590.288	100.363
594.233	21.041
598.177	33.688
602.119	14.104
606.059	56.674
609.997	33.922
613.933	55.891
617.868	48.819
621.801	41.752
625.731	67.395
629.66	48.215
633.588	64.221
637.513	60.17
641.437	22.881
645.358	19.448
649.278	34.981
653.196	4.989
657.113	32.44
661.027	1.094
664.94	10.814
668.851	13.189
672.76	5.185
676.667	29.986
680.572	106.411
684.476	135.212
688.378	53.949
692.278	207.729
696.176	105.935
700.072	244.793
703.967	93.213
707.86	158.195
711.751	136.75
715.64	144.884
719.527	183.606
723.413	196.93
727.297	135.869
731.179	78.106
735.059	107.592
738.937	111.5
742.814	47.344
746.689	120.067
750.562	165.721
754.433	143.104
758.303	152.187
762.17	98.625
766.036	92.791
769.901	416.549
773.763	413.485
777.624	376.351
781.482	691.344
785.339	806.955
789.195	1046.12
793.048	1458.31
796.9	1854.75
800.75	2655.53
804.598	3751.39
808.445	5445.78
812.289	8093.85
816.132	11206.9
819.973	13770.5
823.813	14745.3
827.65	13981
831.486	13390.1
835.32	12901.4
839.152	14139.3
842.983	16644.9
846.812	22238.1
850.639	32516.6
854.464	44088.7
858.288	42926.5
862.11	27988.3
865.93	15937.1
869.748	9628.83
873.564	6252.35
877.379	4162.57
881.192	3306.78
885.004	2310.33
888.813	1949.02
892.621	1426.04
896.427	1108.36
900.232	990.751
904.034	853.707
907.835	647.001
911.634	536.986
915.432	579.253
919.227	545.761
923.021	424.667
926.813	513.801
930.604	578.257
934.393	302.92
938.18	582.834
941.965	605.008
945.749	446.777
949.53	520.557
953.311	785.38
957.089	1153.17
960.866	1382.66
964.641	1455.09
968.414	919.452
972.185	580.379
975.955	451.216
979.723	278.277
983.49	452.769
987.254	110.893
991.017	51.467
994.779	48.439
998.538	174.625
1002.3	35.048
1006.05	77.609
1009.81	167.933
1013.56	294.331
1017.31	435.923
1021.06	692.046
1024.81	977.479
1028.55	877.41
1032.3	865.175
1036.04	751.849
1039.78	630.135
1043.52	440.387
1047.26	204.847
1050.99	107.532
1054.73	120.107
1058.46	126.639
1062.19	194.766
1065.92	265.34
1069.65	94.574
1073.37	184.493
1077.1	160.622
1080.82	345.434
1084.54	287.931
1088.26	148.246
1091.97	84.046
1095.69	167.4
1099.4	87.266
1103.12	192.856
1106.83	49.249
1110.54	44.203
1114.24	92.83
1117.95	115.133
1121.65	166.79
1125.35	484.229
1129.06	17.51
1132.75	178.841
1136.45	275.234
1140.15	131.749
1143.84	104.064
1147.53	40.942
1151.22	100.15
1154.91	119.613
1158.6	105.068
1162.28	191.188
1165.97	194.516
1169.65	30.242
1173.33	135.775
1177.01	116.324
1180.69	3.262
1184.36	220.857
1188.04	246.49
1191.71	193.646
1195.38	221.201
1199.05	235.381
1202.71	263.098
1206.38	213.5
1210.04	204.459
1213.71	273
1217.37	229.996
1221.03	344.256
1224.68	270.957
1228.34	208.645
1231.99	212.605
1235.65	369.52
1239.3	200.68
1242.95	169.883
1246.59	411.248
1250.24	409.945
1253.88	286.688
1257.53	225.049
1261.17	154.496
1264.81	445.895
1268.45	375.031
1272.08	183.455
1275.72	146.859
1279.35	210.672
1282.98	290.438
1286.61	229.355
1290.24	23.975
1293.87	182.941
1297.49	171.457
1301.11	167.154
1304.73	209.477
1308.36	430.553
1311.97	4.539
1315.59	9.688
1319.2	61.629
1322.82	66.959
1326.43	138.324
1330.04	198.158
1333.65	32.516
1337.26	19.885
1340.86	252.707
1344.47	69.711
1348.07	265.727
1351.67	381.75
1355.27	329.695
1358.87	248.721
1362.46	300.076
1366.06	375.297
1369.65	220.33
1373.24	228.152
1376.83	247.279
1380.42	501.605
1384	436.807
1387.59	148.701
1391.17	401.357
1394.75	483.986
1398.33	152.215
1401.91	263.035
1405.49	104.17
1409.06	381.574
1412.64	541.787
1416.21	359.139
1419.78	334.127
1423.35	238.951
1426.91	174.418
1430.48	364.959
1434.05	323.307
1437.61	524.855
1441.17	337.598
1444.73	472.893
1448.29	321.045
1451.84	456.371
1455.4	336.066
1458.95	419.117
1462.5	180.766
1466.05	194.617
1469.6	162.219
1473.15	116.307
1476.69	76.314
1480.24	150.57
1483.78	168.902
1487.32	26.248
1490.86	144.119
1494.39	166.281
