Measurement: Raman, 514 nm, ccw, Raman Data Processed
Mineral: Olmiite
Rruff sample: R050177
Ideal chemistry: CaMnSiO_3_(OH)_2_
Locality: N'Chwaning II mine, Kuruman, South Africa
Source: Marcus Origlieri
Description: Gray etched crystals
Measured chemistry: Ca_1.00_(Mn_0.98_Ca_0.02_)(Si_1.00_O_3_OH)(OH)
Raman shift (cm-1)	intensity
56.365	0
60.563	148.257
64.758	124.034
68.952	26.428
73.144	255.501
77.333	727.387
81.521	383.076
85.706	1091.15
89.89	1644.61
94.071	1593.52
98.251	989.613
102.428	1231.7
106.604	1771.97
110.777	2097.39
114.949	3255.97
119.119	5608.12
123.286	2843.28
127.452	1477.43
131.615	1492.07
135.777	675.144
139.937	303.64
144.094	231.385
148.25	209.059
152.403	304.857
156.555	572.914
160.705	1217.65
164.853	1448.61
168.998	600.413
173.142	237.549
177.284	170.534
181.424	80.45
185.562	89.264
189.698	38.109
193.831	141.359
197.963	602.128
202.093	1452.18
206.221	1813.36
210.347	1654.66
214.472	1593.16
218.594	1042.85
222.714	644.56
226.832	543.354
230.948	614.157
235.063	707.446
239.175	1527.95
243.286	3309.51
247.394	4439.54
251.501	2496
255.605	730.793
259.708	123.927
263.808	46.628
267.907	51.04
272.004	197.966
276.099	163.144
280.192	150.559
284.283	128.158
288.372	160.009
292.459	115.636
296.544	173.501
300.627	124.194
304.709	28.327
308.788	67.689
312.865	159.084
316.941	530.013
321.015	1121.09
325.086	2066.34
329.156	2837.19
333.224	3455.14
337.29	3234.66
341.354	2298.16
345.416	1414.64
349.476	786.621
353.534	527.596
357.591	568.729
361.645	766.808
365.698	1289.83
369.748	2354.78
373.797	3885.65
377.844	4594.44
381.889	3594.14
385.932	2395.76
389.973	2169.29
394.012	2599.03
398.049	3155.36
402.084	3108.51
406.118	2321.09
410.15	1759.46
414.179	1610.13
418.207	1827.92
422.233	1725.23
426.257	1290.1
430.279	1047.04
434.299	982.912
438.318	847.471
442.334	542.736
446.349	221.907
450.361	39.343
454.372	27.02
458.381	5.365
462.388	168.579
466.394	405.806
470.397	727.411
474.398	1491.82
478.398	1897.11
482.396	2045.21
486.391	2276.31
490.385	2135.85
494.377	1790.35
498.368	1587.49
502.356	1829.6
506.342	2528.35
510.327	4074.77
514.31	4944.9
518.291	4278.69
522.27	3144.13
526.247	2703.21
530.222	2540.93
534.196	1867.29
538.167	1147.3
542.137	713.691
546.105	442.137
550.071	238.072
554.035	120.646
557.998	66.828
561.958	36.563
565.917	30.179
569.874	93.462
573.829	16.634
577.782	7.304
581.733	31.368
585.683	26.893
589.63	1.062
593.576	15.287
597.52	11.366
601.462	36.461
605.402	61.689
609.341	22.873
613.277	29.369
617.212	68.397
621.145	54.126
625.076	46.198
629.006	41.786
632.933	41.909
636.859	6.542
640.783	36.656
644.705	51.325
648.625	43.463
652.543	19.179
656.46	81.213
660.375	122.23
664.288	269.325
668.199	408.765
672.108	416.308
676.016	412.715
679.921	359.999
683.825	251.172
687.727	116.25
691.628	46.243
695.526	29.834
699.423	11.991
703.318	14.798
707.211	242.553
711.102	550.636
714.992	846.533
718.879	1320.53
722.765	1773.29
726.649	1972.98
730.532	1749.13
734.412	1276.74
738.291	752.468
742.168	613.69
746.043	401.418
749.916	195.178
753.788	24.06
757.658	43.522
761.526	28.146
765.392	147.209
769.257	343.415
773.119	842.807
776.98	1469.87
780.839	2286.05
784.697	3369.41
788.552	4668.15
792.406	6019.42
796.258	7343.95
800.108	9393.49
803.957	11305.1
807.804	13547.6
811.649	16244
815.492	14641.1
819.333	9869.66
823.173	7247.82
827.011	6105.41
830.847	5974.44
834.681	6581.07
838.514	8258.26
842.345	12769
846.174	21790.4
850.001	35702.9
853.827	41734.9
857.651	31436.8
861.473	19536.3
865.293	11906.4
869.112	7394.94
872.928	4815.06
876.744	3547.77
880.557	2560.11
884.369	2010.04
888.178	1798.6
891.987	1729.78
895.793	2032.55
899.598	2776.91
903.401	3254.88
907.202	3137.45
911.001	3198.48
914.799	3840.74
918.595	4565.08
922.389	3873.01
926.182	2245.56
929.972	1190.76
933.761	908.593
937.549	1114.05
941.334	2098.08
945.118	3855.66
948.9	7237.93
952.681	10776.7
956.459	9329.01
960.236	5655.89
964.012	3410.32
967.785	2262.91
971.557	1654.87
975.327	1180.27
979.095	951.614
982.862	696.462
986.627	501.146
990.39	471.05
994.152	435.027
997.912	612.997
1001.67	742.896
1005.43	686.193
1009.18	713.174
1012.93	570.615
1016.68	572.163
1020.43	511.217
1024.18	395.297
1027.93	271.694
1031.67	240.307
1035.42	234.625
1039.16	211.986
1042.9	173.54
1046.63	193.899
1050.37	129.359
1054.11	114.446
1057.84	81.449
1061.57	39.891
1065.3	69.774
1069.03	75.44
1072.75	131.93
1076.47	188.302
1080.2	143.541
1083.92	134.4
1087.64	183.683
1091.36	114.046
1095.07	11.377
1098.79	88.667
1102.5	60.727
1106.21	41.627
1109.92	135.654
1113.62	56.476
1117.33	71.376
1121.04	58.102
1124.74	131.076
1128.44	8.091
1132.14	18.14
1135.83	38.052
1139.53	21.538
1143.22	38.753
1146.92	10.65
1150.61	29.528
1154.3	23.872
1157.98	8.915
1161.67	58.824
1165.35	62.503
1169.04	52.182
1172.72	103.635
1176.4	54.259
1180.07	61.759
1183.75	75.479
1187.42	183.348
1191.1	229.644
1194.77	152.357
1198.44	146.851
1202.1	153.986
1205.77	182.134
1209.43	155.097
1213.1	119.159
1216.76	208.229
1220.42	183.455
1224.07	152.095
1227.73	233.056
1231.38	209.495
1235.04	201.134
1238.69	234.031
1242.34	204.932
1245.99	238.261
1249.63	213.77
1253.28	250.387
1256.92	264.521
1260.56	183.684
1264.2	184.59
1267.84	198.479
1271.48	178.913
1275.11	207.568
1278.74	212.256
1282.38	194.273
1286.01	144.031
1289.63	146.172
1293.26	182.005
1296.89	136.511
1300.51	139.737
1304.13	79.72
1307.75	150.908
1311.37	210.763
1314.99	131.874
1318.6	216.561
1322.22	237.368
1325.83	215.194
1329.44	287.124
1333.05	268.591
1336.66	247.029
1340.26	235.296
1343.87	206.865
1347.47	125.642
1351.07	142.432
1354.67	73.348
1358.27	147.174
1361.86	112.141
1365.46	49.745
1369.05	31.319
1372.64	47.348
1376.23	58.942
1379.82	40.662
1383.41	13.978
1386.99	14.639
1390.57	13.93
1394.16	2.052
1397.74	7.924
1401.32	66.351
1404.89	70.424
1408.47	34.418
1412.04	128.077
1415.61	160.047
1419.18	138.708
1422.75	146.434
1426.32	141.201
1429.89	163.794
1433.45	100.873
1437.01	169.971
1440.58	209.293
1444.13	215.471
1447.69	120.214
1451.25	112.835
1454.81	122.359
1458.36	146.947
1461.91	136.139
1465.46	47.771
1469.01	35.571
1472.56	41.838
1476.1	7.708
1479.64	18.828
1483.19	63.691
1486.73	117.415
1490.27	7.612
1493.81	77.336
1497.34	179.874
1500.88	57.983
1504.41	104.518
1507.94	111.47
1511.47	113.635
1515	103.771
1518.53	40.254
1522.05	21.883
1525.57	1.516
1529.1	0
