Measurement: Raman, 514 nm, ccw, Raman Data Processed
Mineral: Olmiite
Rruff sample: R050177
Ideal chemistry: CaMnSiO_3_(OH)_2_
Locality: N'Chwaning II mine, Kuruman, South Africa
Source: Marcus Origlieri
Description: Gray etched crystals
Measured chemistry: Ca_1.00_(Mn_0.98_Ca_0.02_)(Si_1.00_O_3_OH)(OH)
Raman shift (cm-1)	intensity
56.365	0
60.563	10.813
64.758	29.762
68.952	0.808
73.144	302.849
77.333	716.789
81.521	406.468
85.706	684.238
89.89	827.347
94.071	1116.58
98.251	953.253
102.428	1120.82
106.604	1697.23
110.777	2264.23
114.949	3907.7
119.119	5908
123.286	1711.96
127.452	795.331
131.615	629.477
135.777	305.625
139.937	179.957
144.094	272.716
148.25	470.07
152.403	487.163
156.555	252.25
160.705	483.053
164.853	791.898
168.998	545.688
173.142	521.283
177.284	819.193
181.424	437.074
185.562	47.891
189.698	39.345
193.831	97.304
197.963	411.732
202.093	949.923
206.221	1569.55
210.347	1685.29
214.472	1343.79
218.594	1203.11
222.714	1699.44
226.832	2774.75
230.948	3136.83
235.063	2156.94
239.175	1393.26
243.286	1275.54
247.394	960.645
251.501	446.531
255.605	101.116
259.708	71.793
263.808	160.385
267.907	143.036
272.004	33.447
276.099	74.508
280.192	277.906
284.283	509.829
288.372	730.893
292.459	780.041
296.544	885.974
300.627	859.781
304.709	628.765
308.788	578.776
312.865	734.062
316.941	1196.15
321.015	2045.8
325.086	3687.59
329.156	6245.9
333.224	9817.51
337.29	10659.9
341.354	8087.19
345.416	5165.31
349.476	3156.51
353.534	1976.94
357.591	1486.37
361.645	1277.74
365.698	1272.95
369.748	1443.96
373.797	1736.8
377.844	1813.47
381.889	1820.98
385.932	1990.41
389.973	2771.2
394.012	4216.55
398.049	5497.29
402.084	5432.31
406.118	4214.69
410.15	3397.85
414.179	3282.24
418.207	3644.81
422.233	4183.16
426.257	4856.94
430.279	6934.72
434.299	9879.91
438.318	10578.3
442.334	7201.02
446.349	3882.56
450.361	2112.43
454.372	1262.13
458.381	813.539
462.388	675.322
466.394	684.754
470.397	957.925
474.398	1336.7
478.398	1560.26
482.396	1322.03
486.391	1177.23
490.385	1137.03
494.377	1050.39
498.368	1196
502.356	1420.94
506.342	2282.9
510.327	3938.77
514.31	4021.59
518.291	2658.29
522.27	1620.75
526.247	989.935
530.222	681.832
534.196	485.074
538.167	298.312
542.137	271.961
546.105	208.328
550.071	132.713
554.035	90.862
557.998	5.261
561.958	38.957
565.917	22.889
569.874	25.342
573.829	28.422
577.782	49.176
581.733	3.252
585.683	55.348
589.63	47.262
593.576	10.219
597.52	15.601
601.462	36.549
605.402	12.189
609.341	48.52
613.277	33.959
617.212	43.912
621.145	29.803
625.076	23.924
629.006	44.359
632.933	11.812
636.859	22.306
640.783	32.774
644.705	41.569
648.625	40.72
652.543	1.843
656.46	28.814
660.375	18.694
664.288	41.26
668.199	82.083
672.108	37.24
676.016	83.361
679.921	89.825
683.825	77.182
687.727	39.443
691.628	22.394
695.526	6.654
699.423	25.396
703.318	91.161
707.211	89.906
711.102	239.859
714.992	372.663
718.879	472.742
722.765	617.397
726.649	546.489
730.532	521.003
734.412	365.41
738.291	231.556
742.168	241.485
746.043	193.402
749.916	162.204
753.788	113.049
757.658	170.831
761.526	256.674
765.392	364.865
769.257	505.208
773.119	758.118
776.98	1194.98
780.839	1752.51
784.697	2644.49
788.552	3732.81
792.406	4671.83
796.258	5364.38
800.108	6025.45
803.957	7075.41
807.804	8945.68
811.649	11278.4
815.492	11130.5
819.333	8593.88
823.173	7107.51
827.011	6447.37
830.847	6625.45
834.681	7593.8
838.514	9597.55
842.345	14114.5
846.174	23541.7
850.001	38146.9
853.827	45288.6
857.651	34283.8
861.473	21037.3
865.293	12553.1
869.112	7627.32
872.928	4944.94
876.744	3461.93
880.557	2469.25
884.369	1949.89
888.178	1508.86
891.987	1270.17
895.793	1160.79
899.598	1152.72
903.401	1236.97
907.202	1137.58
911.001	958.505
914.799	1036.74
918.595	1119.37
922.389	779.431
926.182	436.903
929.972	302.802
933.761	308.045
937.549	468.619
941.334	894.547
945.118	1474.79
948.9	2508.37
952.681	3408.21
956.459	3021.75
960.236	1851.39
964.012	1046.09
967.785	772.561
971.557	569.146
975.327	346.728
979.095	277.361
982.862	168.979
986.627	100.451
990.39	54.188
994.152	23.417
997.912	52.85
1001.67	95.556
1005.43	63.616
1009.18	122.738
1012.93	173.33
1016.68	236.062
1020.43	248.089
1024.18	189.314
1027.93	113.499
1031.67	166.717
1035.42	176.09
1039.16	169.566
1042.9	162.613
1046.63	138.832
1050.37	53.208
1054.11	55.846
1057.84	83.704
1061.57	112.92
1065.3	159.331
1069.03	37.035
1072.75	83.69
1076.47	107.531
1080.2	113.331
1083.92	144.6
1087.64	145.013
1091.36	97.151
1095.07	42.289
1098.79	13.047
1102.5	15.465
1106.21	28.544
1109.92	49.171
1113.62	17.764
1117.33	14.127
1121.04	34.108
1124.74	262.171
1128.44	46.971
1132.14	41.478
1135.83	54.949
1139.53	1.798
1143.22	42.839
1146.92	1.432
1150.61	29.379
1154.3	8.293
1157.98	0.571
1161.67	6.392
1165.35	9.909
1169.04	20.87
1172.72	72.594
1176.4	76.198
1180.07	65.048
1183.75	13.475
1187.42	52.031
1191.1	94.407
1194.77	100.368
1198.44	49.383
1202.1	33.164
1205.77	102.922
1209.43	83.108
1213.1	81.368
1216.76	78.023
1220.42	90.642
1224.07	116.611
1227.73	95.466
1231.38	153.161
1235.04	154.648
1238.69	142.361
1242.34	102.481
1245.99	128.76
1249.63	185.091
1253.28	196.552
1256.92	131.923
1260.56	163.636
1264.2	214.773
1267.84	157.371
1271.48	187.181
1275.11	184.417
1278.74	139.958
1282.38	156.574
1286.01	105.144
1289.63	173.615
1293.26	123.244
1296.89	141.805
1300.51	122.898
1304.13	122.551
1307.75	113.718
1311.37	175.308
1314.99	136.732
1318.6	97.015
1322.22	159.041
1325.83	104.559
1329.44	198.05
1333.05	155.769
1336.66	172.955
1340.26	119.596
1343.87	117.094
1347.47	92.216
1351.07	96.781
1354.67	71.221
1358.27	67.203
1361.86	57.476
1365.46	48.987
1369.05	46.75
1372.64	13.608
1376.23	30.807
1379.82	22.616
1383.41	13.739
1386.99	95.848
1390.57	64.844
1394.16	124.854
1397.74	65.372
1401.32	81.805
1404.89	116.471
1408.47	75.116
1412.04	64.618
1415.61	109.883
1419.18	129.262
1422.75	134.927
1426.32	82.61
1429.89	119.267
1433.45	98.744
1437.01	116.321
1440.58	91.193
1444.13	127.446
1447.69	75.062
1451.25	105.216
1454.81	126.208
1458.36	99.332
1461.91	73.028
1465.46	59.147
1469.01	41.054
1472.56	68.814
1476.1	42.281
1479.64	9.99
1483.19	47.285
1486.73	30.6
1490.27	109.671
1493.81	38.749
1497.34	27.497
1500.88	0.308
1504.41	152.255
1507.94	83.744
1511.47	25.342
1515	65.528
1518.53	36.992
1522.05	5.295
1525.57	0
