Measurement: Raman, 514 nm, ccw, Raman Data Processed
Mineral: Olmiite
Rruff sample: R050177
Ideal chemistry: CaMnSiO_3_(OH)_2_
Locality: N'Chwaning II mine, Kuruman, South Africa
Source: Marcus Origlieri
Description: Gray etched crystals
Measured chemistry: Ca_1.00_(Mn_0.98_Ca_0.02_)(Si_1.00_O_3_OH)(OH)
Raman shift (cm-1)	intensity
56.365	0
60.563	45.583
64.758	93.159
68.952	19.697
73.144	171.013
77.333	551.176
81.521	527.465
85.706	1281.43
89.89	1631.4
94.071	1871.29
98.251	1401.29
102.428	1657.59
106.604	2202.32
110.777	2870.99
114.949	3607.3
119.119	4862.09
123.286	3786.62
127.452	2159.32
131.615	1739.07
135.777	1290.78
139.937	980.302
144.094	753.5
148.25	812.905
152.403	937.943
156.555	1406.84
160.705	1890.7
164.853	2059.6
168.998	1327.57
173.142	800.627
177.284	741.971
181.424	624.236
185.562	382.138
189.698	383.813
193.831	640.549
197.963	1373.32
202.093	2104.09
206.221	2649.8
210.347	2863.42
214.472	2485.9
218.594	1917.2
222.714	1061.89
226.832	723.014
230.948	677.97
235.063	839.041
239.175	1654.69
243.286	2768.92
247.394	3231.62
251.501	2171.67
255.605	867.968
259.708	218.378
263.808	18.826
267.907	103.194
272.004	243.43
276.099	237.524
280.192	168.497
284.283	145.284
288.372	85.932
292.459	220.454
296.544	225.314
300.627	158.107
304.709	48.112
308.788	75.7
312.865	182.29
316.941	587.937
321.015	1261.17
325.086	2056.05
329.156	2712.73
333.224	3162.28
337.29	2918.49
341.354	2293.04
345.416	1488.9
349.476	995.998
353.534	783.366
357.591	926.998
361.645	1457.87
365.698	2524.97
369.748	4413.28
373.797	6773.77
377.844	7608.44
381.889	5775.27
385.932	3763.25
389.973	2712.53
394.012	2879.12
398.049	3142.91
402.084	3015.1
406.118	2461.86
410.15	1733.74
414.179	1642.11
418.207	1653.05
422.233	1521.21
426.257	1184.97
430.279	957.641
434.299	818.556
438.318	782.115
442.334	384.685
446.349	88.759
450.361	43.834
454.372	38.633
458.381	70.959
462.388	30.409
466.394	314.177
470.397	767.375
474.398	1341.53
478.398	1880.56
482.396	2170.66
486.391	2570.06
490.385	2406.63
494.377	1902.07
498.368	1847.71
502.356	2041.07
506.342	3083.13
510.327	4748.9
514.31	5703.36
518.291	4943.51
522.27	3800.35
526.247	3092.86
530.222	2708.04
534.196	2128.89
538.167	1403.39
542.137	769.561
546.105	423.381
550.071	224.85
554.035	130.962
557.998	50.698
561.958	16.888
565.917	26.449
569.874	33.26
573.829	37.655
577.782	46.645
581.733	39.684
585.683	24.305
589.63	36.744
593.576	2.609
597.52	25.223
601.462	42.198
605.402	65.49
609.341	46.69
613.277	73.776
617.212	85.674
621.145	5.064
625.076	114.498
629.006	1.242
632.933	128.612
636.859	59.252
640.783	3.52
644.705	30.468
648.625	21.903
652.543	78.292
656.46	141.212
660.375	272.869
664.288	436.277
668.199	607.45
672.108	532.403
676.016	621.148
679.921	562.696
683.825	378.062
687.727	204.261
691.628	96.306
695.526	71.212
699.423	62.994
703.318	227.661
707.211	250.23
711.102	795.715
714.992	1200.35
718.879	1870.16
722.765	2141.58
726.649	2245.52
730.532	2032.43
734.412	1544.49
738.291	931.885
742.168	717.583
746.043	538.346
749.916	214.458
753.788	88.224
757.658	53.219
761.526	61.553
765.392	98.904
769.257	474.677
773.119	963.484
776.98	1742.69
780.839	2667.99
784.697	4073.27
788.552	5582.23
792.406	7221.02
796.258	8716.93
800.108	10555.7
803.957	12469.6
807.804	14807.7
811.649	16585.4
815.492	14684.7
819.333	10349.8
823.173	8342.65
827.011	7104.13
830.847	6686.15
834.681	7166.4
838.514	9085.61
842.345	13795.5
846.174	23692.1
850.001	38233.3
853.827	45307.1
857.651	35545.4
861.473	22710.4
865.293	13877
869.112	8466.28
872.928	5586.24
876.744	3994.88
880.557	2914.32
884.369	2481.51
888.178	2016.47
891.987	1954.08
895.793	2366.5
899.598	3156.52
903.401	3681.23
907.202	3616.68
911.001	3657.75
914.799	4251.16
918.595	4993.91
922.389	4105.45
926.182	2273.8
929.972	1173.91
933.761	893.733
937.549	1154.21
941.334	2010.39
945.118	3842.27
948.9	6710.78
952.681	9684.19
956.459	8783.43
960.236	5595.54
964.012	3365.99
967.785	2303.64
971.557	1566.23
975.327	1169.55
979.095	809.646
982.862	645.883
986.627	488.82
990.39	440.577
994.152	447.976
997.912	559.751
1001.67	725.716
1005.43	725.724
1009.18	739.588
1012.93	726.089
1016.68	622.159
1020.43	502.798
1024.18	329.138
1027.93	317.471
1031.67	275.896
1035.42	163.207
1039.16	160.255
1042.9	200.076
1046.63	155.392
1050.37	78.815
1054.11	42.594
1057.84	66.177
1061.57	83.872
1065.3	32.343
1069.03	81.579
1072.75	44.964
1076.47	65.958
1080.2	340.227
1083.92	687.246
1087.64	285.611
1091.36	145.122
1095.07	57.528
1098.79	9.709
1102.5	72.214
1106.21	22.617
1109.92	180.091
1113.62	70.768
1117.33	39.21
1121.04	202.854
1124.74	302.528
1128.44	73.571
1132.14	42.397
1135.83	19.69
1139.53	20.245
1143.22	44.477
1146.92	2.073
1150.61	47.167
1154.3	53.549
1157.98	34.274
1161.67	17.305
1165.35	64.92
1169.04	187.921
1172.72	180.333
1176.4	100.107
1180.07	104.069
1183.75	51.276
1187.42	125.171
1191.1	129.316
1194.77	81.706
1198.44	212.963
1202.1	140.255
1205.77	206.245
1209.43	181.496
1213.1	108.401
1216.76	266.881
1220.42	239.512
1224.07	213.085
1227.73	271.838
1231.38	215.806
1235.04	276.083
1238.69	367.647
1242.34	284.753
1245.99	382.718
1249.63	343.48
1253.28	324.764
1256.92	272.919
1260.56	218.478
1264.2	274.5
1267.84	233.324
1271.48	186.419
1275.11	234.383
1278.74	270.617
1282.38	206.066
1286.01	219.529
1289.63	234.374
1293.26	220.875
1296.89	233.21
1300.51	149.71
1304.13	314.897
1307.75	284.983
1311.37	205.789
1314.99	98.316
1318.6	295.387
1322.22	250.77
1325.83	195.675
1329.44	464.294
1333.05	347.267
1336.66	364.617
1340.26	289.701
1343.87	226.424
1347.47	150.064
1351.07	209.8
1354.67	80.305
1358.27	136.709
1361.86	116.771
1365.46	59.83
1369.05	66.987
1372.64	17.518
1376.23	30.233
1379.82	15.133
1383.41	38.167
1386.99	36.176
1390.57	51.104
1394.16	50.188
1397.74	31.72
1401.32	54.625
1404.89	50.441
1408.47	94.617
1412.04	122.266
1415.61	70.852
1419.18	118.523
1422.75	138.581
1426.32	33.146
1429.89	93.69
1433.45	69.955
1437.01	137.569
1440.58	177.675
1444.13	222.778
1447.69	170.938
1451.25	162.01
1454.81	259.336
1458.36	198.48
1461.91	133.608
1465.46	128.582
1469.01	125.743
1472.56	127.223
1476.1	131.548
1479.64	91.622
1483.19	43.547
1486.73	82.463
1490.27	23.22
1493.81	38.471
1497.34	80.594
1500.88	77.752
1504.41	101.637
1507.94	36.134
1511.47	4.561
1515	139.19
1518.53	94.279
1522.05	13.577
1525.57	2.955
