Measurement: Raman, 514 nm, ccw, Raman Data Processed
Mineral: Olmiite
Rruff sample: R050177
Ideal chemistry: CaMnSiO_3_(OH)_2_
Locality: N'Chwaning II mine, Kuruman, South Africa
Source: Marcus Origlieri
Description: Gray etched crystals
Measured chemistry: Ca_1.00_(Mn_0.98_Ca_0.02_)(Si_1.00_O_3_OH)(OH)
Raman shift (cm-1)	intensity
56.365	0
60.563	37.353
64.758	43.619
68.952	22.19
73.144	222.646
77.333	713.96
81.521	664.522
85.706	1751
89.89	3051.84
94.071	2713.16
98.251	1253.1
102.428	1384.88
106.604	1927.69
110.777	2581.15
114.949	3966.95
119.119	6809.92
123.286	3785.1
127.452	2244.09
131.615	2743.73
135.777	1263.95
139.937	689.651
144.094	530.828
148.25	594.186
152.403	608.069
156.555	825.459
160.705	1410.82
164.853	1785.11
168.998	861.301
173.142	500.475
177.284	406.646
181.424	298.388
185.562	76.936
189.698	142.435
193.831	340.931
197.963	880.392
202.093	1600.78
206.221	2183.03
210.347	1759.1
214.472	1408.94
218.594	976.527
222.714	703.848
226.832	827.838
230.948	905.926
235.063	1072.41
239.175	1899.73
243.286	3630.4
247.394	4779.28
251.501	3120.28
255.605	1163.34
259.708	236.419
263.808	42.497
267.907	42.511
272.004	222.461
276.099	224.323
280.192	273.095
284.283	322.699
288.372	322.078
292.459	172.173
296.544	211.94
300.627	128.304
304.709	89.7
308.788	138.165
312.865	40.906
316.941	477.596
321.015	1141.9
325.086	2059.71
329.156	3051.94
333.224	3760.52
337.29	3433.41
341.354	2317.57
345.416	1375.99
349.476	715.426
353.534	367.799
357.591	390.893
361.645	649.929
365.698	1276.14
369.748	2402.51
373.797	3849.03
377.844	4314.67
381.889	3350.41
385.932	2478.27
389.973	2329.37
394.012	3203.71
398.049	4078.29
402.084	3779.32
406.118	2888.07
410.15	2268.28
414.179	2074.18
418.207	2210.26
422.233	2205.26
426.257	1629.16
430.279	1398.01
434.299	1362.3
438.318	1149.04
442.334	774.326
446.349	362.452
450.361	169.391
454.372	131.843
458.381	88.115
462.388	210.979
466.394	395.127
470.397	858.988
474.398	1521.22
478.398	1984.41
482.396	2216.96
486.391	2530.58
490.385	2330.71
494.377	1923.02
498.368	1857.99
502.356	2058.61
506.342	3119.88
510.327	4706.78
514.31	5471.31
518.291	4574.47
522.27	3559.25
526.247	2992.64
530.222	2726.64
534.196	2072.24
538.167	1282.68
542.137	794.227
546.105	526.608
550.071	298.574
554.035	206.119
557.998	113.238
561.958	63.901
565.917	81.014
569.874	33.55
573.829	5.422
577.782	13.441
581.733	29.13
585.683	33.708
589.63	66.182
593.576	52.66
597.52	58.159
601.462	44.707
605.402	69.198
609.341	19.637
613.277	3.06
617.212	71.018
621.145	39.918
625.076	73.615
629.006	30.105
632.933	88.389
636.859	55.611
640.783	27.634
644.705	15.294
648.625	8.52
652.543	36.983
656.46	105.102
660.375	135.902
664.288	311.397
668.199	408.603
672.108	435.531
676.016	474.194
679.921	425.604
683.825	286.776
687.727	226.723
691.628	77.459
695.526	137.999
699.423	179.358
703.318	286.551
707.211	500.301
711.102	826.672
714.992	1291.28
718.879	1902.77
722.765	2443.98
726.649	2793.2
730.532	2384.96
734.412	1665.4
738.291	1010.2
742.168	733.364
746.043	425.354
749.916	248.876
753.788	124.828
757.658	62.48
761.526	133.984
765.392	242.386
769.257	535.653
773.119	972.089
776.98	1657.6
780.839	2536.88
784.697	3868.95
788.552	5423.37
792.406	6727.4
796.258	7837.95
800.108	9134.01
803.957	11018
807.804	13765.6
811.649	17289.8
815.492	16205.7
819.333	11112.3
823.173	7940.49
827.011	6556.51
830.847	6360.25
834.681	7223.98
838.514	9015.3
842.345	13807.2
846.174	23355.7
850.001	37083.8
853.827	42156.7
857.651	30987
861.473	19406.1
865.293	11772.8
869.112	7197.02
872.928	4785.94
876.744	3272.57
880.557	2330.88
884.369	1929.93
888.178	1612.24
891.987	1572.32
895.793	1865.76
899.598	2571.04
903.401	3271.22
907.202	3069.28
911.001	3185.25
914.799	3836.08
918.595	4752.71
922.389	3940.11
926.182	2213.25
929.972	1132.16
933.761	976.822
937.549	1341.28
941.334	2538.53
945.118	5034.6
948.9	9457.29
952.681	14176
956.459	12427.4
960.236	7349.13
964.012	4063.74
967.785	2469.62
971.557	1639.68
975.327	1140.14
979.095	860.501
982.862	624.503
986.627	472.97
990.39	426.042
994.152	483.456
997.912	671.248
1001.67	774.424
1005.43	731.746
1009.18	707.524
1012.93	586.302
1016.68	474.509
1020.43	382.615
1024.18	304.165
1027.93	211.057
1031.67	200.134
1035.42	203.567
1039.16	172.022
1042.9	128.281
1046.63	137.074
1050.37	94.855
1054.11	94.389
1057.84	56.254
1061.57	1.964
1065.3	19.502
1069.03	37.085
1072.75	55.358
1076.47	66.098
1080.2	64.583
1083.92	216.338
1087.64	192.057
1091.36	208.273
1095.07	1.145
1098.79	27.076
1102.5	64.073
1106.21	148.125
1109.92	126.23
1113.62	85.71
1117.33	89.812
1121.04	4.366
1124.74	330.883
1128.44	130.297
1132.14	62.849
1135.83	89.989
1139.53	14.359
1143.22	42.665
1146.92	39.794
1150.61	17.697
1154.3	66.606
1157.98	5.082
1161.67	45.685
1165.35	116.81
1169.04	47.765
1172.72	39.031
1176.4	66.524
1180.07	101.337
1183.75	93.493
1187.42	108.002
1191.1	88.851
1194.77	112.987
1198.44	99.614
1202.1	162.658
1205.77	189.302
1209.43	173.703
1213.1	125.025
1216.76	207.105
1220.42	189.824
1224.07	237.834
1227.73	215.312
1231.38	203.539
1235.04	202.04
1238.69	224.302
1242.34	230.978
1245.99	227.705
1249.63	300.08
1253.28	253.571
1256.92	287.81
1260.56	230.308
1264.2	267.339
1267.84	257.762
1271.48	255.494
1275.11	234.342
1278.74	256.761
1282.38	236.68
1286.01	282.748
1289.63	282.397
1293.26	268.225
1296.89	253.885
1300.51	276.115
1304.13	285.337
1307.75	297.912
1311.37	339.985
1314.99	278.382
1318.6	345.825
1322.22	287.463
1325.83	358.286
1329.44	381.203
1333.05	397.812
1336.66	360.266
1340.26	325.663
1343.87	292.307
1347.47	262.344
1351.07	171.578
1354.67	126.062
1358.27	119.846
1361.86	123.152
1365.46	55.312
1369.05	36.544
1372.64	77.975
1376.23	32.105
1379.82	21.443
1383.41	15.612
1386.99	26.186
1390.57	45.511
1394.16	34.66
1397.74	19.033
1401.32	55.91
1404.89	78.557
1408.47	33.049
1412.04	89.523
1415.61	129.044
1419.18	142.013
1422.75	127.011
1426.32	106.499
1429.89	136.864
1433.45	161.925
1437.01	144.545
1440.58	225.884
1444.13	176.929
1447.69	142.377
1451.25	77.457
1454.81	162.691
1458.36	115.354
1461.91	12.063
1465.46	74.256
1469.01	35.883
1472.56	3.315
1476.1	20.333
1479.64	46.885
1483.19	25.925
1486.73	110.115
1490.27	0.425
1493.81	54.32
1497.34	47.425
1500.88	5.588
1504.41	5.282
1507.94	62.344
1511.47	19.449
1515	49.732
1518.53	25.136
1522.05	71.935
1525.57	90.926
1529.1	0
