Measurement: Raman, 514 nm, ccw, Raman Data Processed
Mineral: Olmiite
Rruff sample: R050177
Ideal chemistry: CaMnSiO_3_(OH)_2_
Locality: N'Chwaning II mine, Kuruman, South Africa
Source: Marcus Origlieri
Description: Gray etched crystals
Measured chemistry: Ca_1.00_(Mn_0.98_Ca_0.02_)(Si_1.00_O_3_OH)(OH)
Raman shift (cm-1)	intensity
56.365	0
60.563	35.216
64.758	53.195
68.952	26.493
73.144	231.093
77.333	400.791
81.521	398.185
85.706	918.497
89.89	1230.05
94.071	1581.9
98.251	1999.83
102.428	2922.04
106.604	3983.49
110.777	4686.07
114.949	4220.05
119.119	4824.34
123.286	2657.04
127.452	1504.21
131.615	1430.88
135.777	1359.05
139.937	1110.65
144.094	831.759
148.25	970.867
152.403	1233.5
156.555	1975.91
160.705	3040.23
164.853	3878.45
168.998	3009.17
173.142	2004
177.284	1696.05
181.424	1705.32
185.562	1219.79
189.698	904.452
193.831	1061.26
197.963	1722.12
202.093	2567.99
206.221	2950.84
210.347	2642.63
214.472	1928.3
218.594	1637.82
222.714	1641.36
226.832	1692.18
230.948	1611.48
235.063	1328.76
239.175	1523.32
243.286	1917.54
247.394	1739.32
251.501	995.433
255.605	389.925
259.708	169.598
263.808	232.072
267.907	184.757
272.004	58.658
276.099	75.287
280.192	195.48
284.283	449.939
288.372	737.522
292.459	1153.87
296.544	1656.88
300.627	1670.66
304.709	919.155
308.788	432.373
312.865	479.3
316.941	1182.86
321.015	1839
325.086	2776.42
329.156	4351.62
333.224	5794.09
337.29	5847.95
341.354	4507.19
345.416	2896.78
349.476	1656.7
353.534	1030.93
357.591	1001.45
361.645	1179.23
365.698	1667.27
369.748	2562.53
373.797	3756
377.844	4069.66
381.889	3315.5
385.932	2676.51
389.973	2606.81
394.012	3380.43
398.049	4048.38
402.084	4035.4
406.118	3473.78
410.15	3035.6
414.179	3395.05
418.207	4237.01
422.233	4492.12
426.257	4173.35
430.279	4370.66
434.299	5109.79
438.318	4839.9
442.334	3421.31
446.349	1753.46
450.361	919.105
454.372	486.978
458.381	272.938
462.388	330.308
466.394	560.022
470.397	1354.02
474.398	1665.47
478.398	2174.58
482.396	2612.92
486.391	2847.41
490.385	2945.41
494.377	2405.12
498.368	1980.85
502.356	2082.08
506.342	3106.01
510.327	4478.63
514.31	5073.93
518.291	4474.89
522.27	3304.51
526.247	2460.79
530.222	1910.71
534.196	1457.28
538.167	944.48
542.137	804.311
546.105	607.766
550.071	379.84
554.035	140.524
557.998	75.814
561.958	36.407
565.917	66.414
569.874	7.737
573.829	53.851
577.782	45.337
581.733	19.658
585.683	57.625
589.63	51.221
593.576	14.459
597.52	116.714
601.462	48.016
605.402	93.253
609.341	8.54
613.277	52.405
617.212	68.153
621.145	40.853
625.076	116.419
629.006	60.952
632.933	59.342
636.859	48.457
640.783	7.209
644.705	28.533
648.625	65.888
652.543	127.901
656.46	231.582
660.375	328.942
664.288	466.995
668.199	703.752
672.108	718.227
676.016	725.428
679.921	617.369
683.825	464.062
687.727	373.519
691.628	185.755
695.526	208.783
699.423	222.618
703.318	363.272
707.211	489.758
711.102	827.09
714.992	1263
718.879	1782.72
722.765	1968.83
726.649	1853.14
730.532	1631.43
734.412	1340.7
738.291	961.806
742.168	643.77
746.043	416.108
749.916	275
753.788	132.095
757.658	67.219
761.526	137.537
765.392	222.667
769.257	485.456
773.119	1095.07
776.98	1811.06
780.839	2726.33
784.697	3884.63
788.552	5117.18
792.406	6545.74
796.258	7571.05
800.108	8877.75
803.957	10359.7
807.804	12252.2
811.649	13936.2
815.492	12704.8
819.333	9540.96
823.173	7944.73
827.011	6789.93
830.847	6635.57
834.681	7522.78
838.514	9523.53
842.345	14512.9
846.174	24323.9
850.001	38445.6
853.827	44535.8
857.651	34604.6
861.473	22306.9
865.293	13447.7
869.112	8220.08
872.928	5347.09
876.744	3760.85
880.557	2761.33
884.369	2140.55
888.178	1792.52
891.987	1696.57
895.793	2033.67
899.598	2680.86
903.401	3032.79
907.202	2852.09
911.001	2607.05
914.799	2867.41
918.595	3043
922.389	2491.57
926.182	1343.1
929.972	679.396
933.761	546.424
937.549	799.397
941.334	1533.69
945.118	2661.8
948.9	4753.74
952.681	8505.79
956.459	5706.34
960.236	3635.62
964.012	2285.05
967.785	1491.81
971.557	1103.22
975.327	773.54
979.095	505.631
982.862	379.222
986.627	231.258
990.39	154.887
994.152	171.633
997.912	287.266
1001.67	431.35
1005.43	433.503
1009.18	526.971
1012.93	487.957
1016.68	445.319
1020.43	482.452
1024.18	306.459
1027.93	176.801
1031.67	70.381
1035.42	102.403
1039.16	61.767
1042.9	81.425
1046.63	141.676
1050.37	53.465
1054.11	40.808
1057.84	30.36
1061.57	51.018
1065.3	354.617
1069.03	47.533
1072.75	5.22
1076.47	125.106
1080.2	181.875
1083.92	308.906
1087.64	262.233
1091.36	277.245
1095.07	75.103
1098.79	30.431
1102.5	158.042
1106.21	38.834
1109.92	101.033
1113.62	69.277
1117.33	68.5
1121.04	30.206
1124.74	80.664
1128.44	22.603
1132.14	30.335
1135.83	11.729
1139.53	5.072
1143.22	27.007
1146.92	40.96
1150.61	17.78
1154.3	4.853
1157.98	74.69
1161.67	67.777
1165.35	66.453
1169.04	103.718
1172.72	57.445
1176.4	76.221
1180.07	136.194
1183.75	100.055
1187.42	158.961
1191.1	151.151
1194.77	140.771
1198.44	182.228
1202.1	145.521
1205.77	250.791
1209.43	183.454
1213.1	184.527
1216.76	180.425
1220.42	164.079
1224.07	201.999
1227.73	202.218
1231.38	272.44
1235.04	254.161
1238.69	293.43
1242.34	218.581
1245.99	259.008
1249.63	297.231
1253.28	325.552
1256.92	330.644
1260.56	240.162
1264.2	274.187
1267.84	315.829
1271.48	221.083
1275.11	237.004
1278.74	236.731
1282.38	212.265
1286.01	217.186
1289.63	210.108
1293.26	232.958
1296.89	203.697
1300.51	135.938
1304.13	198.342
1307.75	277.261
1311.37	237.281
1314.99	203.442
1318.6	231.163
1322.22	233.885
1325.83	237.013
1329.44	417.323
1333.05	340.742
1336.66	378.14
1340.26	257.728
1343.87	225.666
1347.47	252.831
1351.07	267.844
1354.67	198.965
1358.27	166.298
1361.86	178.537
1365.46	50.967
1369.05	80.834
1372.64	14.372
1376.23	36.437
1379.82	73.421
1383.41	38.223
1386.99	46.867
1390.57	20.86
1394.16	63.56
1397.74	31.163
1401.32	122.021
1404.89	79.503
1408.47	109.49
1412.04	128.533
1415.61	164.096
1419.18	213.924
1422.75	204.355
1426.32	192.057
1429.89	196.217
1433.45	240.701
1437.01	208.636
1440.58	203.498
1444.13	288.993
1447.69	192.182
1451.25	240.434
1454.81	270.156
1458.36	253.478
1461.91	187.868
1465.46	113.849
1469.01	118.666
1472.56	145.147
1476.1	118.994
1479.64	30.021
1483.19	75.637
1486.73	115.058
1490.27	42.364
1493.81	70.26
1497.34	135.363
1500.88	76.157
1504.41	63.833
1507.94	115.761
1511.47	136.074
1515	125.938
1518.53	77.971
1522.05	58.932
1525.57	0
