Measurement: Raman, 514 nm, ccw, Raman Data Processed
Mineral: Olmiite
Rruff sample: R050177
Ideal chemistry: CaMnSiO_3_(OH)_2_
Locality: N'Chwaning II mine, Kuruman, South Africa
Source: Marcus Origlieri
Description: Gray etched crystals
Measured chemistry: Ca_1.00_(Mn_0.98_Ca_0.02_)(Si_1.00_O_3_OH)(OH)
Raman shift (cm-1)	intensity
75.937	0
80.125	99.501
84.311	1380.92
88.496	2685.22
92.678	2701.52
96.858	602.879
101.036	450.578
105.212	600.956
109.387	1280.95
113.559	2509.94
117.729	4520.25
121.897	3233.7
126.063	2289.42
130.228	2844.55
134.39	1614.85
138.55	479.424
142.709	341.529
146.865	407.582
151.019	199.337
155.171	40.725
159.322	170.712
163.47	249.198
167.617	75.343
171.761	113.192
175.904	197.718
180.044	68.845
184.183	142.491
188.319	124.365
192.454	33.939
196.586	45.772
200.717	237.77
204.846	533.053
208.972	736.618
213.097	579.292
217.22	503.91
221.341	659.417
225.46	1013.23
229.577	1230.32
233.692	1479.67
237.805	2484.34
241.916	4948.69
246.025	7261.55
250.132	5693.92
254.237	2421.44
258.34	879.544
262.442	292.056
266.541	172.92
270.639	348.969
274.734	500.957
278.828	584.907
282.919	705.854
287.009	849.84
291.097	515.911
295.183	329.762
299.266	190.933
303.348	23.907
307.428	62.154
311.507	194.611
315.583	595.304
319.657	1315.11
323.729	2372.18
327.8	3637.42
331.868	4346.77
335.935	4199.68
339.999	2939.83
344.062	1659.43
348.123	857.024
352.182	314.96
356.239	120.189
360.294	72.523
364.347	97.115
368.398	334.684
372.448	676.227
376.495	946.747
380.54	933.254
384.584	1021.75
388.626	1541.56
392.666	2564.51
396.704	3503.45
400.74	3548.06
404.774	2635.68
408.806	1992.32
412.836	1787.96
416.865	1895.6
420.891	1992.35
424.916	1602.3
428.939	1240.77
432.959	1025.28
436.978	957.061
440.996	679.833
445.011	349.829
449.024	173.554
453.036	136.171
457.045	130.889
461.053	205.649
465.059	415.345
469.063	753.876
473.065	1518.53
477.065	2131.6
481.063	1739.64
485.06	1537.62
489.054	1549.48
493.047	1423.38
497.038	1152.6
501.027	967.61
505.014	1093.93
508.999	1427.26
512.982	1730.64
516.964	1560
520.944	1295.57
524.921	1053.47
528.897	818.75
532.871	669.521
536.844	425.038
540.814	311.192
544.783	175.007
548.749	102.694
552.714	79.991
556.677	20.863
560.638	33.237
564.597	3.94
568.555	32.295
572.511	27.053
576.464	4.708
580.416	46.061
584.366	39.155
588.315	18.995
592.261	11.469
596.206	5.86
600.148	21.342
604.089	21.573
608.028	16.06
611.965	24.99
615.901	2.65
619.834	18.003
623.766	14.833
627.696	62.819
631.624	7.001
635.551	0.658
639.475	34.808
643.398	64.349
647.318	36.375
651.237	19.795
655.155	55.585
659.07	1.69
662.984	97.964
666.895	22.443
670.805	0.814
674.713	6.164
678.62	3.338
682.524	10.652
686.427	6.613
690.328	26.109
694.227	9.041
698.124	19.151
702.02	16.478
705.913	96.336
709.805	389.999
713.695	431.188
717.584	503.73
721.47	620.812
725.355	813.377
729.238	767.823
733.119	499.683
736.998	324.342
740.876	221.697
744.752	60.234
748.626	2.8
752.498	77.559
756.368	12.116
760.237	23.688
764.104	152.455
767.969	296.076
771.832	558.347
775.693	1058.11
779.553	1665.16
783.411	2392.69
787.267	3296.13
791.122	4496.32
794.974	5390.8
798.825	6598.61
802.674	8354.13
806.522	11383.8
810.367	16643.2
814.211	17848.6
818.053	12779.2
821.893	8472.8
825.732	6842.73
829.568	6208.88
833.403	6695.25
837.236	8175.81
841.068	12045.6
844.898	20886.4
848.726	33450.5
852.552	40434.1
856.376	32546.7
860.199	21052.7
864.02	12491.1
867.839	7849.99
871.656	5185.43
875.472	3592.43
879.286	2670.98
883.098	2093.05
886.909	1658.69
890.717	1456.94
894.524	1416.83
898.33	1637.35
902.133	1897.55
905.935	2127.72
909.735	2539.76
913.533	3385.42
917.33	4575.54
921.124	4258.1
924.918	2824.11
928.709	1457.59
932.499	1082.58
936.286	1200.04
940.073	2149.01
943.857	4424.45
947.64	9015.34
951.421	15146.7
955.2	14716.3
958.978	8890.33
962.753	4686.79
966.527	2798.83
970.3	1796.55
974.071	1297.77
977.84	901.585
981.607	606.14
985.372	428.817
989.136	418.669
992.898	368.83
996.659	337.587
1000.42	463.702
1004.17	495.266
1007.93	425.088
1011.68	381.897
1015.43	370.925
1019.18	377.414
1022.93	246.663
1026.68	303.418
1030.42	248.437
1034.17	239.705
1037.91	233.455
1041.65	227.007
1045.39	203.515
1049.12	179.794
1052.86	105.277
1056.59	129.185
1060.33	181.074
1064.06	115.343
1067.78	131.333
1071.51	171.415
1075.23	215.078
1078.96	159.222
1082.68	257.753
1086.4	293.276
1090.12	381.206
1093.83	206.573
1097.55	53.572
1101.26	12.935
1104.97	34.748
1108.68	87.482
1112.39	99.161
1116.1	56.176
1119.8	61.896
1123.5	142.507
1127.2	93.275
1130.9	78.945
1134.6	45.804
1138.3	31.641
1141.99	17.824
1145.69	20.704
1149.38	45.543
1153.07	21.319
1156.76	29.366
1160.44	28.324
1164.13	40.849
1167.81	17.222
1171.49	23.047
1175.17	47.803
1178.85	74.228
1182.52	15.092
1186.2	124.335
1189.87	38.02
1193.54	75.147
1197.21	43.714
1200.88	100.692
1204.55	68.539
1208.21	97.73
1211.88	164.077
1215.54	133.383
1219.2	97.856
1222.86	110.751
1226.51	118.25
1230.17	133.461
1233.82	127.645
1237.47	227.646
1241.12	254.223
1244.77	286.594
1248.42	191.056
1252.06	143.23
1255.71	221.981
1259.35	259.176
1262.99	220.089
1266.63	212.585
1270.26	279.32
1273.9	210.797
1277.53	281.755
1281.16	228.332
1284.8	246.341
1288.42	223.195
1292.05	268.213
1295.68	262.315
1299.3	328.803
1302.92	324.078
1306.55	396.228
1310.16	379.851
1313.78	390.031
1317.4	245.026
1321.01	326.59
1324.62	318.13
1328.24	263.563
1331.85	361.507
1335.45	339.725
1339.06	298.894
1342.66	337.584
1346.27	255.857
1349.87	171.542
1353.47	150.295
1357.07	158.816
1360.66	138.558
1364.26	113.59
1367.85	31.932
1371.44	63.703
1375.04	62.664
1378.62	48.267
1382.21	40.252
1385.8	92.208
1389.38	8.839
1392.96	72.862
1396.54	63.369
1400.12	54.683
1403.7	20.715
1407.28	56.577
1410.85	77.692
1414.42	46.993
1417.99	89.218
1421.56	85.229
1425.13	151.084
1428.7	164.918
1432.26	181.758
1435.83	196.551
1439.39	332.13
1442.95	230.951
1446.51	209.043
1450.06	219.457
1453.62	239.097
1457.17	234.67
1460.73	215.273
1464.28	239.146
1467.83	189.709
1471.37	87.307
1474.92	117.746
1478.46	131.147
1482.01	36.99
1485.55	6.766
1489.09	96
1492.63	39.188
1496.16	149.164
1499.7	65.359
1503.23	2.594
1506.76	72.285
1510.29	68.664
1513.82	98.29
1517.35	39.007
1520.88	30.484
1524.4	62.268
