Measurement: Raman, 514 nm, ccw, Raman Data Processed
Mineral: Olmiite
Rruff sample: R050177
Ideal chemistry: CaMnSiO_3_(OH)_2_
Locality: N'Chwaning II mine, Kuruman, South Africa
Source: Marcus Origlieri
Description: Gray etched crystals
Measured chemistry: Ca_1.00_(Mn_0.98_Ca_0.02_)(Si_1.00_O_3_OH)(OH)
Raman shift (cm-1)	intensity
56.365	0
60.563	298.15
64.758	70.373
68.952	34.203
73.144	131.564
77.333	511.283
81.521	834.348
85.706	2369.15
89.89	4221.9
94.071	3042.39
98.251	1478.64
102.428	1807.74
106.604	2425.71
110.777	3423.47
114.949	5349.28
119.119	7316.82
123.286	3516.87
127.452	2352.23
131.615	2443.82
135.777	1017.56
139.937	697.323
144.094	722.827
148.25	990.6
152.403	1060.07
156.555	1493.48
160.705	2478.29
164.853	2406.19
168.998	1244.86
173.142	784.872
177.284	713.24
181.424	466.097
185.562	124.089
189.698	208.073
193.831	528.408
197.963	1487.05
202.093	2815.95
206.221	3296.03
210.347	2866.25
214.472	2754.55
218.594	1852.88
222.714	1161.03
226.832	1126.54
230.948	1003.61
235.063	1166.6
239.175	1984.08
243.286	3398.36
247.394	3765.21
251.501	2043.58
255.605	585.384
259.708	14.44
263.808	83.966
267.907	123.761
272.004	267.747
276.099	173.922
280.192	259.319
284.283	384.902
288.372	347.589
292.459	346.195
296.544	319.816
300.627	197.431
304.709	133.012
308.788	104.681
312.865	208.427
316.941	685.35
321.015	1645.04
325.086	2997.34
329.156	4346.15
333.224	5191.5
337.29	4396.31
341.354	3191.53
345.416	1986.15
349.476	1221.96
353.534	867.108
357.591	1107.59
361.645	1725.38
365.698	3081.46
369.748	5608.8
373.797	8561.37
377.844	9010.16
381.889	6570.14
385.932	4345.32
389.973	3999.86
394.012	5126.76
398.049	5942.03
402.084	5288.13
406.118	3862.21
410.15	2866.8
414.179	2725.93
418.207	2773.25
422.233	2751.61
426.257	2376.52
430.279	2852.35
434.299	3297.11
438.318	2847.8
442.334	1639.05
446.349	805.751
450.361	433.655
454.372	262.283
458.381	252.642
462.388	376.402
466.394	672.012
470.397	1255.63
474.398	2058.23
478.398	2579.16
482.396	2975.18
486.391	3385.47
490.385	3060.9
494.377	2567.61
498.368	2504.93
502.356	3151.84
506.342	5057.35
510.327	7650.44
514.31	8321.1
518.291	6486.32
522.27	4925.1
526.247	4351.43
530.222	3953.29
534.196	2892.68
538.167	1810.6
542.137	1126.05
546.105	682.001
550.071	458.465
554.035	274.429
557.998	147.888
561.958	77.817
565.917	60.146
569.874	9.755
573.829	11.532
577.782	2.775
581.733	51.029
585.683	72.349
589.63	49.853
593.576	69.544
597.52	109.441
601.462	64.723
605.402	143.308
609.341	21.083
613.277	88.866
617.212	115.9
621.145	92.196
625.076	96.615
629.006	81.989
632.933	108.35
636.859	74.726
640.783	8.031
644.705	14.852
648.625	42.658
652.543	89.68
656.46	188.306
660.375	345.644
664.288	511.439
668.199	633.981
672.108	668.197
676.016	643.1
679.921	574.707
683.825	413.038
687.727	395.109
691.628	349.939
695.526	360.547
699.423	321.951
703.318	550.169
707.211	777.217
711.102	1370.11
714.992	2074.88
718.879	2914.09
722.765	3659.73
726.649	4092.2
730.532	3540.46
734.412	2318.57
738.291	1526.13
742.168	1036.59
746.043	666.243
749.916	404.549
753.788	220.302
757.658	188.732
761.526	245.142
765.392	439.111
769.257	823.583
773.119	1554.05
776.98	2459.46
780.839	3707.3
784.697	5370.82
788.552	7515.89
792.406	9509.4
796.258	10605.1
800.108	11677.2
803.957	13624.9
807.804	16976.3
811.649	20400.5
815.492	18735.5
819.333	13003.4
823.173	9584.02
827.011	8176.48
830.847	8078.25
834.681	9232.02
838.514	11754.6
842.345	18201
846.174	30837.3
850.001	48133.3
853.827	51995.2
857.651	37475.7
861.473	23537.5
865.293	14031.1
869.112	8620.92
872.928	5811.55
876.744	4130
880.557	3009.35
884.369	2464.67
888.178	2079.95
891.987	2038.2
895.793	2547.61
899.598	3564.04
903.401	4212.54
907.202	3994.15
911.001	4057.24
914.799	4698.12
918.595	5531.98
922.389	4583.86
926.182	2456.82
929.972	1366.87
933.761	1118.11
937.549	1757
941.334	3126.95
945.118	5682.83
948.9	9997.26
952.681	14502.8
956.459	12500.4
960.236	7513.43
964.012	4216.48
967.785	2571.52
971.557	1768.81
975.327	1226.89
979.095	988.814
982.862	809.494
986.627	601.3
990.39	558.668
994.152	740.956
997.912	880.828
1001.67	1095.77
1005.43	1090.57
1009.18	925.517
1012.93	735.521
1016.68	645.783
1020.43	517.433
1024.18	268.217
1027.93	264.236
1031.67	242.966
1035.42	267.642
1039.16	225.964
1042.9	168.244
1046.63	129.21
1050.37	92.693
1054.11	69.36
1057.84	5.302
1061.57	72.982
1065.3	111.393
1069.03	84.875
1072.75	24.162
1076.47	85.712
1080.2	4.94
1083.92	44.166
1087.64	40.846
1091.36	59.916
1095.07	50.474
1098.79	107.321
1102.5	136.36
1106.21	64.683
1109.92	139.991
1113.62	89.531
1117.33	60.959
1121.04	62.716
1124.74	67.381
1128.44	59.472
1132.14	82.676
1135.83	33.608
1139.53	31.478
1143.22	37.651
1146.92	37.373
1150.61	31.556
1154.3	16.622
1157.98	56.738
1161.67	65.129
1165.35	84.513
1169.04	66.139
1172.72	84.42
1176.4	49.656
1180.07	129.015
1183.75	95.338
1187.42	123.828
1191.1	177.498
1194.77	191.358
1198.44	175.61
1202.1	190.333
1205.77	243.962
1209.43	238.792
1213.1	247.278
1216.76	294.283
1220.42	238.12
1224.07	272.336
1227.73	294.679
1231.38	294.389
1235.04	304.741
1238.69	381.108
1242.34	361.387
1245.99	320
1249.63	372.688
1253.28	368.427
1256.92	228.144
1260.56	301.238
1264.2	349.156
1267.84	335.09
1271.48	271.78
1275.11	296.997
1278.74	283.237
1282.38	297.639
1286.01	271.107
1289.63	264.16
1293.26	215.864
1296.89	252.599
1300.51	205.348
1304.13	277.394
1307.75	319.405
1311.37	317.781
1314.99	301.917
1318.6	339.695
1322.22	285.316
1325.83	401.837
1329.44	557.501
1333.05	572.323
1336.66	432.563
1340.26	347.875
1343.87	261.666
1347.47	241.247
1351.07	177.358
1354.67	176.789
1358.27	166.142
1361.86	72.949
1365.46	89.062
1369.05	9.569
1372.64	10.253
1376.23	62.828
1379.82	17.59
1383.41	12.14
1386.99	41.879
1390.57	61.147
1394.16	37.445
1397.74	79.99
1401.32	72.896
1404.89	35.726
1408.47	89.837
1412.04	115.399
1415.61	121.788
1419.18	200.337
1422.75	243.768
1426.32	236.315
1429.89	153.244
1433.45	222.97
1437.01	223.745
1440.58	220.001
1444.13	227.58
1447.69	231.292
1451.25	172.632
1454.81	232.04
1458.36	122.577
1461.91	139.843
1465.46	139.095
1469.01	59.157
1472.56	120.802
1476.1	13.19
1479.64	96.847
1483.19	159.981
1486.73	101.007
1490.27	86.864
1493.81	46.016
1497.34	40.378
1500.88	107.951
1504.41	119.603
1507.94	88.784
1511.47	75.695
1515	216.148
1518.53	106.433
1522.05	91.905
1525.57	112.167
1529.1	0
