Measurement: Raman, 514 nm, ccw, Raman Data Processed
Mineral: Olmiite
Rruff sample: R050177
Ideal chemistry: CaMnSiO_3_(OH)_2_
Locality: N'Chwaning II mine, Kuruman, South Africa
Source: Marcus Origlieri
Description: Gray etched crystals
Measured chemistry: Ca_1.00_(Mn_0.98_Ca_0.02_)(Si_1.00_O_3_OH)(OH)
Raman shift (cm-1)	intensity
56.365	0
60.563	31.959
64.758	2.792
68.952	10.612
73.144	145.432
77.333	603.919
81.521	444.122
85.706	949.186
89.89	1024.52
94.071	1236.13
98.251	1075.95
102.428	1423.31
106.604	1992.79
110.777	3590.08
114.949	4571.49
119.119	5467.76
123.286	2329.24
127.452	1051.17
131.615	863.739
135.777	540.061
139.937	494.228
144.094	504.136
148.25	613.745
152.403	595.346
156.555	634.064
160.705	726.236
164.853	964.635
168.998	896.983
173.142	884.467
177.284	831.223
181.424	527.038
185.562	257.532
189.698	191.936
193.831	316.954
197.963	765.25
202.093	1315.81
206.221	1795.62
210.347	1909.66
214.472	1500.94
218.594	1540.42
222.714	2275.29
226.832	2859.18
230.948	2812.6
235.063	2120.36
239.175	1550.4
243.286	1325.16
247.394	865.544
251.501	381.421
255.605	97.727
259.708	105.641
263.808	168.875
267.907	192.232
272.004	25.659
276.099	94.937
280.192	356.592
284.283	548.325
288.372	689.217
292.459	869.246
296.544	892.371
300.627	754.595
304.709	574.938
308.788	566.388
312.865	793.934
316.941	1327.6
321.015	2427.37
325.086	4288.83
329.156	7186.4
333.224	9670.79
337.29	9683.31
341.354	7268.94
345.416	4750.65
349.476	2809.42
353.534	1760.23
357.591	1291.07
361.645	1107.94
365.698	1125.17
369.748	1274.72
373.797	1433.62
377.844	1526.53
381.889	1658.45
385.932	2034.37
389.973	2959.44
394.012	4368.09
398.049	5063.15
402.084	4956.76
406.118	3979.64
410.15	3323.48
414.179	3382.82
418.207	3739.05
422.233	4364.68
426.257	5468.87
430.279	7669.44
434.299	9787.08
438.318	9404.4
442.334	6419.02
446.349	3549.14
450.361	1847.19
454.372	1053.38
458.381	714.813
462.388	550.919
466.394	610.149
470.397	941.396
474.398	1387.87
478.398	1426.18
482.396	1228.77
486.391	1121.73
490.385	1043.28
494.377	1059.15
498.368	1203.15
502.356	1527.75
506.342	2629.45
510.327	3761.58
514.31	3638.49
518.291	2456.2
522.27	1506.68
526.247	936.958
530.222	628.015
534.196	415.981
538.167	358.063
542.137	223.885
546.105	153.123
550.071	44.047
554.035	66.705
557.998	18.967
561.958	7.911
565.917	34.655
569.874	18.289
573.829	15.822
577.782	63.926
581.733	39.327
585.683	14.231
589.63	30.809
593.576	4.275
597.52	14.498
601.462	5.601
605.402	50.073
609.341	35.962
613.277	21.63
617.212	22.01
621.145	13.98
625.076	2.086
629.006	13.941
632.933	49.054
636.859	43.424
640.783	1.149
644.705	22.296
648.625	22.828
652.543	25.645
656.46	21.256
660.375	7.073
664.288	86.396
668.199	139.706
672.108	62.86
676.016	106.323
679.921	78.725
683.825	23.449
687.727	14.042
691.628	9.688
695.526	29.155
699.423	37.969
703.318	25.078
707.211	120.03
711.102	220.763
714.992	344.297
718.879	448.05
722.765	529.124
726.649	506.893
730.532	382.852
734.412	296.813
738.291	169.255
742.168	189.571
746.043	135.264
749.916	117.921
753.788	136.281
757.658	151.235
761.526	235.913
765.392	318.251
769.257	512.698
773.119	871.481
776.98	1327.58
780.839	1971.02
784.697	2929.39
788.552	3834.33
792.406	4913.39
796.258	5612.25
800.108	6625.04
803.957	7474.34
807.804	9221.22
811.649	10778.7
815.492	10187.7
819.333	8205.39
823.173	7081.32
827.011	6702.43
830.847	6910.73
834.681	8030.28
838.514	10315.1
842.345	15679.2
846.174	25654.4
850.001	38878.1
853.827	43835.3
857.651	33147.4
861.473	20927
865.293	12531.8
869.112	7603.98
872.928	4988.52
876.744	3478.42
880.557	2555.67
884.369	1967.29
888.178	1522.24
891.987	1377.59
895.793	1197.25
899.598	1252.25
903.401	1261.57
907.202	1122.2
911.001	1019.13
914.799	1084.41
918.595	1004.08
922.389	743.054
926.182	398.302
929.972	268.865
933.761	259.724
937.549	436.859
941.334	886.288
945.118	1567.02
948.9	2630.04
952.681	3372.43
956.459	2724.26
960.236	1746.62
964.012	1034.05
967.785	738.873
971.557	584.008
975.327	462.493
979.095	391.341
982.862	172.348
986.627	123.315
990.39	28.583
994.152	16.978
997.912	50.947
1001.67	86.531
1005.43	180.6
1009.18	132.422
1012.93	184.55
1016.68	205.459
1020.43	313.898
1024.18	210.737
1027.93	178.877
1031.67	131.304
1035.42	177.88
1039.16	155.843
1042.9	119.139
1046.63	113.302
1050.37	148.197
1054.11	112.451
1057.84	45.253
1061.57	139.957
1065.3	102.225
1069.03	72.709
1072.75	93.416
1076.47	165.685
1080.2	194.629
1083.92	273.384
1087.64	321.889
1091.36	259.4
1095.07	123.709
1098.79	43.889
1102.5	23.029
1106.21	56.961
1109.92	65.904
1113.62	50.217
1117.33	88.199
1121.04	6.086
1124.74	239.464
1128.44	74.234
1132.14	54.475
1135.83	10.738
1139.53	37.23
1143.22	9.04
1146.92	11.055
1150.61	30.712
1154.3	0.168
1157.98	7.104
1161.67	28.026
1165.35	16.553
1169.04	64.15
1172.72	33.662
1176.4	29.39
1180.07	80.043
1183.75	91.951
1187.42	88.377
1191.1	108.652
1194.77	70.149
1198.44	22.968
1202.1	92.322
1205.77	98.665
1209.43	82.949
1213.1	40.261
1216.76	170.104
1220.42	162.898
1224.07	162.107
1227.73	122.3
1231.38	175.907
1235.04	160.351
1238.69	127.449
1242.34	163.506
1245.99	156.502
1249.63	167.924
1253.28	234.778
1256.92	223.525
1260.56	116.836
1264.2	144.409
1267.84	208.685
1271.48	189.901
1275.11	206.684
1278.74	184.384
1282.38	196.38
1286.01	166.252
1289.63	219.682
1293.26	177.471
1296.89	197.292
1300.51	158.956
1304.13	207.17
1307.75	155.597
1311.37	291.554
1314.99	181.797
1318.6	249.424
1322.22	214.302
1325.83	222.608
1329.44	291.675
1333.05	190.362
1336.66	272.048
1340.26	153.139
1343.87	183.497
1347.47	133.668
1351.07	98.142
1354.67	61.836
1358.27	74.45
1361.86	58.69
1365.46	48.432
1369.05	6.961
1372.64	1.976
1376.23	35.858
1379.82	39.146
1383.41	7.904
1386.99	20.503
1390.57	8.41
1394.16	2.098
1397.74	12.028
1401.32	26.75
1404.89	69.844
1408.47	32.098
1412.04	3.936
1415.61	74.373
1419.18	51.247
1422.75	107.5
1426.32	89.562
1429.89	146.673
1433.45	112.184
1437.01	195.479
1440.58	212.161
1444.13	162.716
1447.69	219.063
1451.25	144.624
1454.81	105.569
1458.36	169.623
1461.91	149.487
1465.46	111.88
1469.01	58.289
1472.56	54.444
1476.1	97.377
1479.64	30.045
1483.19	61.829
1486.73	74.517
1490.27	54.335
1493.81	74.227
1497.34	88.401
1500.88	30.542
1504.41	59.699
1507.94	54.301
1511.47	74.49
1515	54.447
1518.53	22.105
1522.05	4.771
1525.57	0
