Measurement: Raman, 514 nm, ccw, Raman Data Processed
Mineral: Olmiite
Rruff sample: R050177
Ideal chemistry: CaMnSiO_3_(OH)_2_
Locality: N'Chwaning II mine, Kuruman, South Africa
Source: Marcus Origlieri
Description: Gray etched crystals
Measured chemistry: Ca_1.00_(Mn_0.98_Ca_0.02_)(Si_1.00_O_3_OH)(OH)
Raman shift (cm-1)	intensity
56.365	0
60.563	51.422
64.758	72.352
68.952	18.15
73.144	434.933
77.333	983.645
81.521	570.331
85.706	808.818
89.89	1490.32
94.071	1865.44
98.251	1614.56
102.428	2423.84
106.604	4109.69
110.777	3634.55
114.949	3727.95
119.119	5297.33
123.286	2232.05
127.452	1196.37
131.615	1388.47
135.777	1241.47
139.937	749.446
144.094	633.202
148.25	668.594
152.403	646.015
156.555	1005.62
160.705	2091.7
164.853	2850.55
168.998	1713.29
173.142	946.966
177.284	1010.27
181.424	1008.17
185.562	567.649
189.698	574.68
193.831	805.221
197.963	1065.16
202.093	1937.46
206.221	2237.1
210.347	1950.05
214.472	1404.3
218.594	1043.81
222.714	1066.99
226.832	1233.49
230.948	1102.91
235.063	829.061
239.175	954.318
243.286	1773.44
247.394	2173.3
251.501	1282.82
255.605	349.897
259.708	64.562
263.808	260.722
267.907	220.955
272.004	82.211
276.099	31.65
280.192	131.899
284.283	274.152
288.372	511.78
292.459	672.622
296.544	1108.68
300.627	1089.98
304.709	488.478
308.788	220.25
312.865	242.192
316.941	585.369
321.015	1184.75
325.086	2207.95
329.156	3292.04
333.224	4819.82
337.29	4828.67
341.354	3432.59
345.416	2194.57
349.476	1225.57
353.534	802.602
357.591	750.644
361.645	906.782
365.698	1334.71
369.748	2144.72
373.797	3198.7
377.844	3742.64
381.889	3090.54
385.932	2273.37
389.973	2217.18
394.012	2935.98
398.049	3678.15
402.084	3559.64
406.118	2979.03
410.15	2597.08
414.179	2990.75
418.207	3945.12
422.233	4279.61
426.257	3634.97
430.279	3436.48
434.299	3842.8
438.318	3631.61
442.334	2379.52
446.349	1210.89
450.361	628.91
454.372	297.189
458.381	209.794
462.388	206.731
466.394	368.875
470.397	758.484
474.398	1352.11
478.398	1757.48
482.396	2082.67
486.391	2227.97
490.385	2063.33
494.377	1834.34
498.368	1608.73
502.356	1702.79
506.342	2352.52
510.327	3757.91
514.31	4422.97
518.291	3667.69
522.27	2689.06
526.247	2077.09
530.222	1708.77
534.196	1256.1
538.167	890.079
542.137	667.706
546.105	475.979
550.071	316.898
554.035	104.461
557.998	105.638
561.958	29.394
565.917	104.637
569.874	56.334
573.829	13.401
577.782	5.901
581.733	14.186
585.683	15.634
589.63	70.219
593.576	6.143
597.52	50.607
601.462	43.609
605.402	36.341
609.341	41.01
613.277	30.293
617.212	86.226
621.145	1.839
625.076	100.052
629.006	3.993
632.933	94.447
636.859	52.61
640.783	1.316
644.705	34.506
648.625	25.893
652.543	57.03
656.46	161.919
660.375	185.579
664.288	351.023
668.199	391.263
672.108	482.309
676.016	448.663
679.921	390.857
683.825	258.381
687.727	136.432
691.628	46.978
695.526	44.075
699.423	36.054
703.318	182.927
707.211	296.705
711.102	638.905
714.992	995.19
718.879	1341.28
722.765	1603.84
726.649	1609.12
730.532	1418.89
734.412	1053.01
738.291	795.684
742.168	565.387
746.043	361.735
749.916	179.728
753.788	18.054
757.658	7.189
761.526	83.04
765.392	75.81
769.257	309.211
773.119	789.035
776.98	1432.27
780.839	2110.78
784.697	3144.97
788.552	4248.39
792.406	5372.32
796.258	6370.85
800.108	7703.23
803.957	8985.3
807.804	10878.9
811.649	12895.2
815.492	11740
819.333	8241.39
823.173	6322.23
827.011	5443.44
830.847	5318.98
834.681	6033.92
838.514	7710.24
842.345	11571
846.174	19901.2
850.001	32572
853.827	38336.3
857.651	28817
861.473	17936.2
865.293	10708.9
869.112	6555.06
872.928	4301.74
876.744	3021.96
880.557	2110.76
884.369	1749.15
888.178	1413.09
891.987	1427.61
895.793	1674.71
899.598	2257.4
903.401	2614.7
907.202	2443.64
911.001	2256.91
914.799	2518
918.595	2908.78
922.389	2385.15
926.182	1355.12
929.972	695.062
933.761	611.79
937.549	735.484
941.334	1459.72
945.118	2569.56
948.9	4562.46
952.681	6666.36
956.459	5896.91
960.236	3694.64
964.012	2207.41
967.785	1540.86
971.557	1107.28
975.327	723.313
979.095	538.475
982.862	391.316
986.627	217.321
990.39	211.983
994.152	188.51
997.912	276.144
1001.67	417.22
1005.43	434.949
1009.18	509.681
1012.93	477.663
1016.68	460.294
1020.43	482.947
1024.18	271.699
1027.93	247.146
1031.67	94.323
1035.42	121.04
1039.16	157.055
1042.9	84.714
1046.63	88.916
1050.37	93.178
1054.11	132.164
1057.84	32.931
1061.57	64.595
1065.3	42.518
1069.03	75.092
1072.75	129.335
1076.47	194.994
1080.2	202.441
1083.92	289.69
1087.64	383.249
1091.36	259.98
1095.07	98.847
1098.79	17.621
1102.5	47.903
1106.21	119.84
1109.92	59.771
1113.62	127.562
1117.33	71.806
1121.04	30.516
1124.74	128.549
1128.44	81.999
1132.14	13.296
1135.83	14.092
1139.53	4.067
1143.22	15.399
1146.92	64.498
1150.61	17.396
1154.3	18.729
1157.98	9.561
1161.67	37.409
1165.35	30.167
1169.04	77.085
1172.72	109.213
1176.4	2.044
1180.07	41.049
1183.75	147.953
1187.42	57.036
1191.1	145.769
1194.77	138.775
1198.44	62.588
1202.1	132.072
1205.77	129.32
1209.43	181.536
1213.1	143.643
1216.76	182.843
1220.42	183.11
1224.07	122.963
1227.73	149.018
1231.38	181.824
1235.04	184.689
1238.69	163.879
1242.34	127.917
1245.99	240.599
1249.63	153.926
1253.28	198.134
1256.92	241.661
1260.56	147.996
1264.2	177.032
1267.84	175.158
1271.48	157.878
1275.11	188.546
1278.74	156.451
1282.38	195.095
1286.01	201.695
1289.63	206.919
1293.26	150.812
1296.89	111.459
1300.51	172.083
1304.13	189.37
1307.75	116.337
1311.37	129.805
1314.99	94.139
1318.6	169.385
1322.22	154.229
1325.83	189.066
1329.44	281.019
1333.05	186.831
1336.66	332.319
1340.26	183.129
1343.87	232.979
1347.47	197.505
1351.07	117.263
1354.67	88.826
1358.27	108.91
1361.86	114.557
1365.46	103.676
1369.05	53.558
1372.64	54.794
1376.23	2.667
1379.82	9.355
1383.41	0.83
1386.99	60.568
1390.57	32.503
1394.16	64.104
1397.74	8.535
1401.32	30.598
1404.89	86.917
1408.47	40.235
1412.04	93.809
1415.61	135.583
1419.18	199.231
1422.75	167.612
1426.32	175.165
1429.89	168.436
1433.45	154.376
1437.01	195.839
1440.58	134.577
1444.13	167.661
1447.69	120.453
1451.25	110.618
1454.81	175.336
1458.36	122.674
1461.91	86.337
1465.46	66.295
1469.01	23.812
1472.56	36.766
1476.1	82.209
1479.64	53.315
1483.19	4.065
1486.73	88.387
1490.27	83.343
1493.81	121.884
1497.34	127.274
1500.88	98.489
1504.41	84.545
1507.94	71.891
1511.47	102.438
1515	131.862
1518.53	3.361
1522.05	24.224
