Measurement: Raman, 514 nm, ccw, Raman Data Processed
Mineral: Orthoclase
Rruff sample: R040055
Ideal chemistry: KAlSi_3_O_8_
Locality: Madagascar
Source: Bob Downs
Description: Pale yellow fragments
Measured chemistry: Light: K_0.96_(Al_0.96_Si_0.03_Fe_0.02_)Si_3.00_O_8_; dark: (K_0.90_Na_0.02_)(Al_0.91_Si_0.08_Fe_0.02_)Si_3.00_O_8
Pin_id: M00411
Orientation: Laser parallel to -c* (0 0 -1). Fiducial mark perpendicular to laser is parallel to a [1 0 0]
Raman shift (cm-1)	intensity
98.251	0
102.428	29.541
106.604	188.489
110.777	2148.8
114.949	2759.55
119.119	3711.31
123.286	3195.12
127.452	3054.53
131.615	5885.98
135.777	11163.2
139.937	13945.9
144.094	13566.2
148.25	16754.7
152.403	24076.8
156.555	30333.5
160.705	25405.8
164.853	15472.7
168.998	9270.92
173.142	5742.68
177.284	3647.82
181.424	2572.47
185.562	1720.49
189.698	1034.83
193.831	795.854
197.963	443.588
202.093	138.931
206.221	230.23
210.347	133.014
214.472	109.698
218.594	146.398
222.714	39.117
226.832	77.135
230.948	170.347
235.063	200.413
239.175	534.992
243.286	1084.36
247.394	1671.32
251.501	2489.97
255.605	3752.97
259.708	5423.61
263.808	7321.11
267.907	9644.61
272.004	13363.4
276.099	18095.4
280.192	20509.3
284.283	18674.2
288.372	13649.7
292.459	8695.42
296.544	5310.91
300.627	3356.06
304.709	2482.94
308.788	1774.57
312.865	1259.98
316.941	1217.94
321.015	1066.07
325.086	1089.79
329.156	1059.15
333.224	1088.53
337.29	1151.91
341.354	1059.24
345.416	981.466
349.476	939.578
353.534	939.581
357.591	653.486
361.645	337.294
365.698	225.042
369.748	225.019
373.797	127.509
377.844	23.113
381.889	42.017
385.932	70.692
389.973	21.391
394.012	78.14
398.049	31.546
402.084	69.582
406.118	101.159
410.15	39.863
414.179	7.478
418.207	12.688
422.233	60.487
426.257	66.107
430.279	246.592
434.299	650.946
438.318	1115.11
442.334	1983.05
446.349	3204.74
450.361	4387.16
454.372	4529.32
458.381	4041.21
462.388	4292.83
466.394	6584.18
470.397	10855.3
474.398	13156.1
478.398	10396.6
482.396	7376.96
486.391	6227.06
490.385	5526.95
494.377	5476.63
498.368	7786.1
502.356	13735.4
506.342	27184.7
510.327	45584.4
514.31	44934.9
518.291	25676.9
522.27	13157.6
526.247	7549.07
530.222	4702.91
534.196	3294.27
538.167	2678.79
542.137	2002.91
546.105	1506.07
550.071	1225.45
554.035	1045.86
557.998	1027.19
561.958	885.141
565.917	694.261
569.874	544.378
573.829	732.056
577.782	772.104
581.733	658.613
585.683	624.653
589.63	522.542
593.576	668.037
597.52	729.366
601.462	533.562
605.402	523.607
609.341	638.479
613.277	720.265
617.212	728.909
621.145	738.396
625.076	837.752
629.006	1002.93
632.933	862.925
636.859	744.747
640.783	427.394
644.705	331.866
648.625	472.166
652.543	433.293
656.46	432.249
660.375	138.033
664.288	153.642
668.199	162.071
672.108	158.298
676.016	29.49
679.921	111.45
683.825	74.858
687.727	52.871
691.628	110.702
695.526	34.662
699.423	133.833
703.318	20.122
707.211	4.058
711.102	320.777
714.992	301.582
718.879	91.306
722.765	222.986
726.649	413.559
730.532	644.542
734.412	664.464
738.291	639.331
742.168	742.879
746.043	875.199
749.916	981.421
753.788	1058.16
757.658	1061.75
761.526	1076.63
765.392	1286.7
769.257	1490.08
773.119	1502.23
776.98	1043.64
780.839	788.458
784.697	879.109
788.552	987.598
792.406	1352.92
796.258	1517.1
800.108	1488.11
803.957	1527.98
807.804	1837.7
811.649	1904.27
815.492	1436.43
819.333	651.508
823.173	333.882
827.011	111.935
830.847	206.385
834.681	274.996
838.514	161.487
842.345	48.398
846.174	6.237
850.001	4.924
853.827	238.332
857.651	282.482
861.473	264.307
865.293	46.609
869.112	41.485
872.928	66.323
876.744	117.849
880.557	114.329
884.369	87.604
888.178	105.29
891.987	76.411
895.793	59.281
899.598	152.828
903.401	261.244
907.202	15.435
911.001	47.22
914.799	0.931
918.595	44.011
922.389	125.958
926.182	217.884
929.972	133.72
933.761	20.52
937.549	33.336
941.334	284.194
945.118	378.078
948.9	584.014
952.681	476.03
956.459	500.096
960.236	522.202
964.012	622.356
967.785	885.559
971.557	1048.88
975.327	1092.28
979.095	1005.52
982.862	979.109
986.627	1242.49
990.39	1246.1
994.152	1509.76
997.912	1522.41
1001.67	1835.9
1005.43	1416.95
1009.18	1352.32
1012.93	1497.75
1016.68	1530.38
1020.43	1703.64
1024.18	1528.37
1027.93	1324.51
1031.67	1100.83
1035.42	1067.84
1039.16	1055.76
1042.9	988.16
1046.63	971.657
1050.37	723.445
1054.11	531.637
1057.84	293.763
1061.57	379.853
1065.3	477.606
1069.03	809.612
1072.75	828.308
1076.47	976.872
1080.2	830.209
1083.92	1139
1087.64	1279.4
1091.36	1388.5
1095.07	1557.78
1098.79	1592.04
1102.5	1442.76
1106.21	1492.3
1109.92	1382.09
1113.62	1542.17
1117.33	2007.34
1121.04	2417.67
1124.74	2707.72
1128.44	2667.87
1132.14	2538.38
1135.83	2358.95
1139.53	2569.57
1143.22	2280.43
1146.92	2268.94
1150.61	2001.36
1154.3	1614.89
1157.98	1416.25
1161.67	1040.68
1165.35	835.41
1169.04	766.744
1172.72	878.309
1176.4	863.019
1180.07	737.979
1183.75	491.575
1187.42	290.06
1191.1	17.328
1194.77	31.484
1198.44	40.455
1202.1	222.345
1205.77	314.074
1209.43	336.723
1213.1	258.081
1216.76	223.137
1220.42	18.485
1224.07	11.122
1227.73	90.78
1231.38	175.907
1235.04	279.35
1238.69	411.909
1242.34	302.309
1245.99	232.665
1249.63	192.796
1253.28	83.075
1256.92	43.343
1260.56	144.021
1264.2	354.987
1267.84	374.744
1271.48	474.674
1275.11	293.776
1278.74	182.801
1282.38	141.718
1286.01	70.15
1289.63	91.619
1293.26	65.841
1296.89	753.052
1300.51	259.775
1304.13	306.115
1307.75	381.918
1311.37	167.294
1314.99	52.381
1318.6	22.788
1322.22	18.31
1325.83	35.798
1329.44	199.581
1333.05	363.012
1336.66	395.846
1340.26	287.956
1343.87	180.379
1347.47	121.537
1351.07	23.256
1354.67	93.227
1358.27	85.376
1361.86	54.298
1365.46	181.691
1369.05	422.582
1372.64	356.168
1376.23	276.567
1379.82	419.808
1383.41	271.917
1386.99	177.525
1390.57	213.708
1394.16	153.713
1397.74	209.715
1401.32	554.842
1404.89	479.577
1408.47	542.346
1412.04	522.491
1415.61	442.83
1419.18	254.557
1422.75	146.115
1426.32	183.345
1429.89	135.213
1433.45	190.838
1437.01	546.578
1440.58	689.768
1444.13	905.676
1447.69	736.169
1451.25	840.831
1454.81	824.143
1458.36	596.078
1461.91	524.438
1465.46	310.245
1469.01	267.191
1472.56	313.831
1476.1	390.638
1479.64	439.444
1483.19	579.778
1486.73	672.701
1490.27	625.93
1493.81	540.581
1497.34	487.689
1500.88	348.175
1504.41	132.229
1507.94	62.166
1511.47	18.684
1515	155.9
1518.53	0
