Measurement: Raman, 514 nm, ccw, Raman Data Processed
Mineral: Orthoclase
Rruff sample: R040055
Ideal chemistry: KAlSi_3_O_8_
Locality: Madagascar
Source: Bob Downs
Description: Pale yellow fragments
Measured chemistry: Light: K_0.96_(Al_0.96_Si_0.03_Fe_0.02_)Si_3.00_O_8_; dark: (K_0.90_Na_0.02_)(Al_0.91_Si_0.08_Fe_0.02_)Si_3.00_O_8
Pin_id: L00390
Orientation: Laser parallel to a* (1 0 0). Fiducial mark perpendicular to laser is parallel to -b [0 -1 0]
Raman shift (cm-1)	intensity
108.603	0
112.787	815.422
116.97	4330.27
121.15	3297.75
125.328	1958.32
129.504	860.648
133.678	454.701
137.85	171.156
142.02	60.421
146.188	202.49
150.354	402.153
154.517	924.642
158.679	1331.08
162.839	1207.81
166.996	841.49
171.152	779.783
175.305	697.022
179.456	423.001
183.605	369.742
187.752	216.909
191.898	214.833
196.041	104.188
200.182	69.182
204.321	150.928
208.457	226.125
212.592	181.997
216.725	33.841
220.856	5.327
224.984	30.729
229.111	22.788
233.236	14.487
237.358	141.216
241.479	164.972
245.597	397.134
249.713	556.287
253.828	773.616
257.94	1093.2
262.05	1373.16
266.159	2160.16
270.265	2693.15
274.369	3557.73
278.471	4896.74
282.572	5589.26
286.67	4712.56
290.766	2915.55
294.86	1657.69
298.952	1198.76
303.042	728.15
307.13	485.86
311.216	422.219
315.3	267.458
319.382	431.42
323.462	251.917
327.54	278.634
331.616	363.874
335.69	358.217
339.762	282.361
343.832	116.646
347.9	220.977
351.965	74.66
356.029	268.036
360.091	550.71
364.151	849.247
368.209	965.299
372.265	935.977
376.319	512.576
380.371	423.49
384.421	175.129
388.469	78.285
392.515	148.658
396.559	79.453
400.601	302.713
404.641	388.898
408.679	406.086
412.715	203.418
416.749	110.838
420.781	151.625
424.811	64.021
428.839	243.666
432.866	391.41
436.89	709.273
440.912	1287.11
444.932	2544.81
448.951	4242.35
452.967	5479.75
456.981	5696.99
460.994	6414.1
465.004	8241.09
469.013	13178
473.019	20454.8
477.024	21421.5
481.026	14418.6
485.027	8765.25
489.026	6231.97
493.023	4938.83
497.017	5545.76
501.01	8132.78
505.001	14509.5
508.99	28617.8
512.977	43074.4
516.962	33002.7
520.945	16513.7
524.927	8445.48
528.906	5182.47
532.883	3663.23
536.858	2402.27
540.832	2022.61
544.803	1502.98
548.773	1042.65
552.741	1025.73
556.706	910.32
560.67	711.285
564.632	572.348
568.592	673.48
572.55	304.711
576.506	515.986
580.46	510.881
584.412	339.686
588.363	580.805
592.311	331.875
596.258	382.932
600.202	470.604
604.145	414.816
608.086	515.643
612.024	356.414
615.961	217.252
619.896	228.008
623.829	528.689
627.761	499.295
631.69	449.812
635.617	20.242
639.543	200.566
643.466	270.98
647.388	366.969
651.308	407.131
655.226	177.965
659.142	407.777
663.056	87.76
666.968	87.34
670.879	119.439
674.787	61.307
678.694	17.662
682.598	116.561
686.501	20.633
690.402	82.652
694.301	76.105
698.198	124.236
702.093	101.158
705.987	426.039
709.878	80.6
713.768	435.012
717.656	667.465
721.542	465.441
725.426	811.486
729.308	732.697
733.188	799.752
737.067	882.893
740.943	1165.92
744.818	1349.62
748.691	1166.39
752.562	1118.71
756.431	1170.8
760.298	1292.67
764.163	1504.65
768.027	1328.4
771.888	1089.59
775.748	730.688
779.606	432.342
783.462	452.869
787.317	503.174
791.169	292.936
795.019	342.807
798.868	252.463
802.715	201.855
806.56	280.934
810.403	199.799
814.245	188.441
818.084	166.711
821.922	77.006
825.758	160.389
829.592	262.305
833.424	89.334
837.254	113.771
841.082	79.479
844.909	118.623
848.734	85.984
852.557	68.74
856.378	285.602
860.197	222.783
864.015	269.186
867.831	51.713
871.645	57.344
875.457	162.744
879.267	22.188
883.075	77.404
886.882	57.188
890.687	1.752
894.49	466.297
898.291	260.824
902.09	165.291
905.888	179.705
909.683	108.85
913.477	108.689
917.269	333.248
921.06	167.703
924.848	7.967
928.635	43.588
932.42	100.826
936.203	183.18
939.984	219.879
943.764	434.541
947.541	339.312
951.317	724.002
955.091	573.125
958.864	1038.09
962.634	1062.41
966.403	987.76
970.17	1002.97
973.935	649.865
977.698	571.734
981.46	817.754
985.22	833.922
988.978	1200.41
992.734	944.258
996.488	889.904
1000.24	918.221
1003.99	1291.09
1007.74	990.373
1011.49	1040.09
1015.23	1010.26
1018.98	660.814
1022.72	713.406
1026.46	820.531
1030.2	618.701
1033.93	880.053
1037.67	731.717
1041.4	413.828
1045.13	396.381
1048.86	578.43
1052.59	987.992
1056.32	873.369
1060.04	530.527
1063.77	895.068
1067.49	750.082
1071.2	624.018
1074.92	679.227
1078.64	903.873
1082.35	1299.83
1086.06	1766.59
1089.78	1963.4
1093.48	1541.49
1097.19	1768.95
1100.89	2006.4
1104.6	2294.74
1108.3	3603.13
1112	4061.38
1115.7	4800.2
1119.39	5749.03
1123.09	6007.6
1126.78	5887.1
1130.47	5606.26
1134.16	5617.88
1137.85	4789.56
1141.54	4775.56
1145.22	4106.89
1148.9	2707.69
1152.58	2264.22
1156.26	1409.24
1159.94	1354.12
1163.62	1227.44
1167.29	1339.88
1170.96	1151.6
1174.63	1040.03
1178.3	631.703
1181.97	504.994
1185.63	467.59
1189.3	489.223
1192.96	158.309
1196.62	394.072
1200.28	479.426
1203.93	520.617
1207.59	286.285
1211.24	12.57
1214.89	37.055
1218.54	501.809
1222.19	528.23
1225.84	766.59
1229.48	891.922
1233.13	799.184
1236.77	509.809
1240.41	228.605
1244.05	315.074
1247.68	312.344
1251.32	618.523
1254.95	715.273
1258.58	942.023
1262.21	858.41
1265.84	813.469
1269.46	198.395
1273.09	334.211
1276.71	127.453
1280.33	56.09
1283.95	328.344
1287.57	741.281
1291.18	431.531
1294.8	580.973
1298.41	459.898
1302.02	7.859
1305.63	285.148
1309.24	50.062
1312.84	194.102
1316.45	22.336
1320.05	520.484
1323.65	732.598
1327.25	303.953
1330.85	394.359
1334.44	93.898
1338.04	2.648
1341.63	469.652
1345.22	146.637
1348.81	221.094
1352.4	633.375
1355.98	937.391
1359.57	560.219
1363.15	753.969
1366.73	477.191
1370.31	40.367
1373.89	176.531
1377.46	280.855
1381.04	124.832
1384.61	852.703
1388.18	859.551
1391.75	915.117
1395.32	1240.98
1398.88	1035.79
1402.45	913.957
1406.01	637.859
1409.57	585.625
1413.13	143.125
1416.69	4.898
1420.24	351.422
1423.8	471.297
1427.35	693.625
1430.9	918.887
1434.45	1111.53
1438	1109.05
1441.55	841.789
1445.09	704.891
1448.63	567.625
1452.18	587.281
1455.71	623.707
1459.25	1173.48
1462.79	1048.88
1466.32	1245.2
1469.86	1412.92
1473.39	1583.23
1476.92	1380.75
1480.45	1143.56
1483.97	1015.83
1487.5	845.648
1491.02	266.871
1494.54	9.125
1498.06	126.066
1501.58	287.984
1505.1	488.719
1508.62	617.961
1512.13	954.297
1515.64	1107.43
1519.15	1126.36
