Measurement: Raman, 514 nm, ccw, Raman Data Processed
Mineral: Orthoclase
Rruff sample: R040055
Ideal chemistry: KAlSi_3_O_8_
Locality: Madagascar
Source: Bob Downs
Description: Pale yellow fragments
Measured chemistry: Light: K_0.96_(Al_0.96_Si_0.03_Fe_0.02_)Si_3.00_O_8_; dark: (K_0.90_Na_0.02_)(Al_0.91_Si_0.08_Fe_0.02_)Si_3.00_O_8
Pin_id: M00468
Orientation: Laser parallel to (1 0 1). Fiducial mark perpendicular to laser is parallel to b [0 1 0]
Raman shift (cm-1)	intensity
51.562	0
55.785	84.679
60.005	62.429
64.224	59.967
68.44	53.628
72.654	106.891
76.866	137.015
81.076	41.98
85.284	12.064
89.489	512.806
93.693	1151.99
97.894	1762.35
102.093	1833.35
106.29	2037.7
110.485	3003.27
114.678	5966.94
118.868	6311.73
123.057	4444.17
127.243	2722.87
131.427	1751.65
135.609	1136.59
139.789	944.428
143.966	1064.72
148.142	1664.56
152.316	2742.96
156.487	2209.03
160.656	1433.81
164.823	695.332
168.988	588.616
173.151	515.675
177.312	295.51
181.471	104.124
185.627	166.974
189.781	142.306
193.934	74.162
198.084	149.341
202.232	163.314
206.378	32.169
210.522	93.015
214.664	147.084
218.803	245.692
222.941	151.444
227.076	180.05
231.21	348.833
235.341	370.623
239.47	327.479
243.597	594.44
247.722	1073.08
251.845	1504.9
255.966	2022.97
260.085	2998.2
264.202	3753.2
268.316	3904.13
272.429	4221.01
276.539	5680.81
280.647	6985.53
284.754	5839.18
288.858	3754.73
292.96	2421.13
297.06	1382.32
301.158	772.338
305.254	361.217
309.348	297.964
313.44	140.583
317.529	33.929
321.617	60.631
325.702	69.592
329.786	64.927
333.867	50.627
337.947	43.646
342.024	12.029
346.1	17.538
350.173	32.411
354.244	167.308
358.313	393.375
362.38	554.093
366.445	476.169
370.508	348.222
374.569	255.211
378.628	267.719
382.685	237.377
386.74	303.019
390.793	509.597
394.844	837.105
398.892	1188.54
402.939	1636.91
406.984	1521.2
411.026	764.423
415.067	376.59
419.106	99.686
423.142	239.706
427.177	302.654
431.209	498.533
435.24	945.344
439.268	1859.09
443.295	3537.77
447.319	5655.38
451.342	7547.93
455.362	7935.42
459.38	6892.85
463.397	5722.22
467.411	5739.54
471.424	7554.81
475.434	9041.75
479.442	6863.97
483.449	4830.83
487.453	4166.56
491.456	4061.69
495.456	4863.79
499.454	6790.1
503.451	11868.7
507.445	24681.9
511.437	43417.7
515.428	36666.2
519.416	18386.4
523.403	9491.02
527.387	5688.12
531.37	3874.81
535.35	2713.88
539.329	1952.19
543.305	1599.46
547.28	1347.51
551.252	1070.55
555.223	782.577
559.191	701.612
563.158	730.68
567.123	607.776
571.085	554.938
575.046	495.211
579.005	500.41
582.962	544.737
586.916	517.126
590.869	389.551
594.82	391.019
598.769	411.499
602.716	373.013
606.661	381.553
610.604	208.087
614.545	237.619
618.484	215.154
622.421	314.68
626.357	233.196
630.29	151.703
634.221	108.203
638.151	169.723
642.078	196.314
646.004	256.08
649.927	191.121
653.849	179.377
657.769	270.846
661.686	188.462
665.602	54.226
669.516	23.865
673.428	94.989
677.338	14.382
681.246	30.039
685.152	19.933
689.056	72.974
692.959	92.46
696.859	12.983
700.758	86.05
704.654	166.065
708.549	237.104
712.441	423.059
716.332	617.754
720.221	700.359
724.108	758.138
727.993	864.244
731.876	1218.32
735.757	1721.64
739.636	2341.44
743.514	2514.34
747.389	2486.1
751.263	2495.21
755.134	2531.8
759.004	2588.29
762.872	2424.65
766.738	2172.93
770.602	2028.25
774.464	1977.38
778.324	1984.44
782.183	2007.44
786.039	1999.38
789.894	2527.25
793.746	2736.06
797.597	3076.8
801.446	3241.47
805.293	3298.08
809.138	3447.61
812.981	2863.06
816.823	1879.43
820.662	1063.71
824.5	548.305
828.336	310.242
832.169	197.051
836.001	155.297
839.831	81.675
843.66	163.468
847.486	106.952
851.31	50.464
855.133	43.088
858.954	22.687
862.773	130.241
866.59	40.755
870.405	10.178
874.218	7.516
878.029	120.303
881.839	15.37
885.647	29.654
889.452	19.881
893.256	3.659
897.058	17.28
900.859	31.034
904.657	27.095
908.454	51.814
912.248	23.138
916.041	6.099
919.832	69.066
923.621	10.997
927.409	88.922
931.194	158.854
934.978	153.774
938.76	187.75
942.54	291.589
946.318	449.483
950.094	665.372
953.868	833.255
957.641	938.136
961.412	873.017
965.181	831.9
968.948	860.823
972.713	916.769
976.477	920.729
980.238	1016.74
983.998	1149.9
987.756	1376.19
991.512	1326.6
995.267	1386.07
999.019	1533.82
1002.77	1542.46
1006.52	1373.44
1010.27	1140.45
1014.01	1038.59
1017.75	998.785
1021.5	974.161
1025.24	966.913
1028.97	1063.28
1032.71	936.985
1036.44	927.262
1040.18	917.366
1043.91	905.306
1047.64	947.889
1051.36	1035.57
1055.09	1062.92
1058.81	885.267
1062.54	755.918
1066.26	702.213
1069.97	707.274
1073.69	811.501
1077.4	975.889
1081.12	1119.09
1084.83	1189.7
1088.54	1251.15
1092.24	1287.55
1095.95	1506.01
1099.65	1650.54
1103.36	1702.17
1107.06	1802.82
1110.76	1604.58
1114.45	1625.47
1118.15	1481.42
1121.84	1532.37
1125.53	1625.21
1129.22	1605.09
1132.91	1595.15
1136.6	1490.37
1140.28	1295.49
1143.96	1211.36
1147.64	1035.95
1151.32	914.333
1155	841.629
1158.67	679.607
1162.35	544.575
1166.02	482.092
1169.69	351.092
1173.36	264.419
1177.03	233.121
1180.69	266.59
1184.35	245.589
1188.01	191.078
1191.67	72.78
1195.33	2.728
1198.99	5.084
1202.64	33.482
1206.3	20.948
1209.95	14.106
1213.6	60.113
1217.24	76.862
1220.89	6.729
1224.53	50.511
1228.17	6.131
1231.81	9.434
1235.45	97.519
1239.09	127.79
1242.72	157.511
1246.36	128.654
1249.99	80.462
1253.62	42.504
1257.25	32.452
1260.88	59.701
1264.5	87.428
1268.12	158.289
1271.74	122.656
1275.36	172.981
1278.98	126.323
1282.6	149.403
1286.21	33.263
1289.83	8.838
1293.44	34.743
1297.05	46.838
1300.65	45.374
1304.26	122.458
1307.86	91.337
1311.47	113.06
1315.07	129.576
1318.66	18.958
1322.26	31.212
1325.86	38.665
1329.45	16.715
1333.04	68.081
1336.63	39.75
1340.22	168.292
1343.81	203.603
1347.4	66.906
1350.98	80.137
1354.56	2.733
1358.14	16.347
1361.72	45.365
1365.3	64.083
1368.87	131.798
1372.45	109.806
1376.02	195.425
1379.59	202.562
1383.16	135.525
1386.72	154.907
1390.29	115.987
1393.85	17.412
1397.41	30.094
1400.97	48.713
1404.53	64.923
1408.09	140.325
1411.64	221.5
1415.19	152.416
1418.75	212.829
1422.3	193.587
1425.85	142.499
1429.39	39.414
1432.94	73.171
1436.48	64.355
1440.02	170.582
1443.56	214.979
1447.1	286.977
1450.63	436.42
1454.17	363.314
1457.7	426.486
1461.23	372.642
1464.76	317.693
1468.29	263.977
1471.82	112.536
1475.34	79.803
1478.87	60.893
1482.39	194.916
1485.91	165.324
1489.43	220.371
1492.94	289.097
1496.46	223.608
1499.97	306.292
1503.48	187.444
1506.99	245.271
1510.5	173.846
1514.01	110.594
1517.51	63.177
1521.02	0.974
