Measurement: Raman, 514 nm, ccw, Raman Data Processed
Mineral: Orthoclase
Rruff sample: R040055
Ideal chemistry: KAlSi_3_O_8_
Locality: Madagascar
Source: Bob Downs
Description: Pale yellow fragments
Measured chemistry: Light: K_0.96_(Al_0.96_Si_0.03_Fe_0.02_)Si_3.00_O_8_; dark: (K_0.90_Na_0.02_)(Al_0.91_Si_0.08_Fe_0.02_)Si_3.00_O_8
Pin_id: L00124
Orientation: Laser parallel to b* (0 1 0). Fiducial mark perpendicular to laser is parallel to c [0 0 1]
Raman shift (cm-1)	intensity
53.228	0
57.445	65.712
61.659	137.447
65.871	205.552
70.081	67.199
74.288	11.356
78.494	35.99
82.697	58.864
86.898	170.597
91.097	755.604
95.293	1722.52
99.488	2676.14
103.68	2828.99
107.87	2622.65
112.057	2743.92
116.243	3824.64
120.426	4830.72
124.608	4418.05
128.787	3381.68
132.963	2944.76
137.138	3134.04
141.311	3811.18
145.481	5522.9
149.649	9903.37
153.815	16603
157.979	15343
162.14	8293.64
166.3	4406.94
170.457	2723.78
174.612	1948.17
178.765	1445.13
182.915	1181.66
187.064	950.757
191.21	746.424
195.355	582.659
199.497	607.462
203.637	448.16
207.774	376.37
211.91	387.685
216.043	398.576
220.175	336.315
224.304	374.247
228.431	426.421
232.556	443.906
236.678	323.074
240.799	464.554
244.917	671.46
249.034	890.454
253.148	1209.52
257.26	1800.24
261.37	2476.57
265.477	3165.01
269.583	3746.74
273.686	4776.72
277.788	6367.19
281.887	7567.14
285.984	7347.56
290.079	5819.44
294.172	4068.75
298.263	2645.48
302.351	1821.62
306.438	1331.16
310.522	971.063
314.604	666.351
318.684	575.024
322.762	515.081
326.838	450.516
330.912	329.331
334.984	280.518
339.053	218.071
343.121	109.993
347.186	64.732
351.25	38.13
355.311	7.804
359.37	173.121
363.427	241.873
367.482	308.045
371.535	291.651
375.585	115.805
379.634	107.539
383.68	135.61
387.725	53.619
391.767	33.47
395.808	303.876
399.846	933.692
403.882	1926.96
407.916	2308.2
411.948	1624.84
415.978	748.336
420.006	290.182
424.031	105.372
428.055	57.131
432.077	24.581
436.096	215.593
440.114	588.154
444.129	1347.56
448.142	2463.5
452.154	4005.74
456.163	4962.27
460.17	5478.08
464.175	6429.18
468.178	9755.54
472.179	16492.2
476.178	21509.1
480.175	17386.2
484.17	10653.6
488.163	7171.33
492.153	5534.53
496.142	5127.98
500.129	6467.12
504.113	10815.7
508.096	21602.6
512.077	38741.3
516.055	41782.7
520.032	24958.8
524.006	12696.6
527.978	6838.26
531.949	4125.65
535.917	2777.13
539.883	2120.54
543.848	1567.37
547.81	1269.54
551.77	917.943
555.728	638.958
559.685	620.156
563.639	515.516
567.591	415.067
571.541	406.784
575.489	370.651
579.435	359.632
583.38	371.676
587.322	324.27
591.262	224.104
595.2	174.308
599.136	325.54
603.07	256.795
607.002	248.062
610.932	168.331
614.86	175.597
618.786	272.851
622.71	262.087
626.632	236.297
630.552	333.476
634.471	271.616
638.387	126.524
642.301	43.993
646.213	24.737
650.123	26.642
654.031	46.462
657.937	138.196
661.842	71.189
665.744	10.156
669.644	13.646
673.542	16.803
677.438	26.649
681.333	38.605
685.225	47.103
689.115	32.609
693.004	12.593
696.89	31.244
700.775	81.651
704.657	145.783
708.538	233.339
712.416	389.376
716.293	536.152
720.167	629.338
724.04	720.675
727.911	785.24
731.78	887.791
735.646	1031.38
739.511	1319.25
743.374	1613.85
747.235	1672.53
751.094	1661.2
754.951	1635.72
758.806	1471.72
762.659	1360.47
766.511	1162.95
770.36	981.213
774.207	867.256
778.053	709.081
781.896	501.687
785.738	437.072
789.577	374.237
793.415	298.183
797.251	299.905
801.084	320.075
804.916	268.936
808.746	258.965
812.574	232.048
816.4	197.682
820.224	197.824
824.047	115.463
827.867	106.87
831.685	77.052
835.502	112.614
839.316	30.299
843.129	6.71
846.94	23.94
850.749	8.876
854.556	8.14
858.361	55.633
862.164	62.434
865.965	28.185
869.764	16.112
873.562	33.336
877.357	44.914
881.151	22.8
884.942	34.944
888.732	81.691
892.52	35.21
896.306	44.382
900.09	4.16
903.872	40.945
907.653	78.953
911.431	92.881
915.208	97.725
918.982	65.483
922.755	44.164
926.526	131.769
930.295	62.306
934.062	239.854
937.827	254.207
941.59	284.573
945.352	297.892
949.112	552.165
952.869	769.409
956.625	862.63
960.379	925.825
964.131	982.002
967.881	1022.82
971.63	1027.93
975.376	1162.57
979.121	1309.94
982.864	1480.22
986.605	1558.21
990.344	1516.74
994.081	1483.78
997.816	1502.97
1001.55	1537.28
1005.28	1525.41
1009.01	1407.86
1012.74	1383.62
1016.47	1169.46
1020.19	1112.7
1023.91	1083.61
1027.63	1000.97
1031.35	969.552
1035.07	914.252
1038.78	956.661
1042.49	1062.48
1046.21	1106
1049.92	1184.2
1053.62	1372.21
1057.33	1302.05
1061.03	1097.89
1064.73	975.281
1068.44	725.823
1072.13	812.535
1075.83	943.336
1079.53	991.803
1083.22	1232.8
1086.91	1372.96
1090.6	1575.37
1094.29	1804.86
1097.97	1907.32
1101.66	2265.82
1105.34	2818.65
1109.02	3406.57
1112.7	4083.83
1116.37	4856.98
1120.05	5628.25
1123.72	5779.69
1127.39	5601.82
1131.06	5295.26
1134.73	4868.81
1138.39	4164.49
1142.06	3661.57
1145.72	3120.17
1149.38	2418.22
1153.04	1964.92
1156.69	1531.82
1160.35	1300.72
1164	1129.6
1167.65	1042.87
1171.3	805.055
1174.95	681.529
1178.6	483.669
1182.24	408.202
1185.88	684.418
1189.52	204.783
1193.16	185.67
1196.8	134.253
1200.43	178.809
1204.07	65.555
1207.7	28.781
1211.33	14.028
1214.96	11.088
1218.58	17.795
1222.21	34.583
1225.83	119.329
1229.45	135.602
1233.07	215.819
1236.69	45.523
1240.3	61.878
1243.92	17.425
1247.53	22.723
1251.14	40.059
1254.75	145.128
1258.35	54.146
1261.96	162.344
1265.56	119.755
1269.16	17.322
1272.76	26.561
1276.36	5.667
1279.96	79.236
1283.55	38.231
1287.14	134.583
1290.73	108.794
1294.32	52.528
1297.91	46.008
1301.5	24.207
1305.08	35.842
1308.66	71.234
1312.24	78.075
1315.82	31.192
1319.4	103.071
1322.97	212.684
1326.55	237.942
1330.12	207.974
1333.69	33.787
1337.26	13.454
1340.82	5.158
1344.39	37.725
1347.95	66.529
1351.51	99.487
1355.07	122.423
1358.63	297.096
1362.18	238.641
1365.74	233.177
1369.29	146.877
1372.84	17.512
1376.39	32.83
1379.94	89.698
1383.48	49.105
1387.03	150.772
1390.57	284.101
1394.11	309.232
1397.65	387.949
1401.19	324.255
1404.72	310.605
1408.26	206.577
1411.79	175.481
1415.32	161.559
1418.85	106.396
1422.37	86.154
1425.9	216.649
1429.42	233.572
1432.94	399.517
1436.46	451.322
1439.98	462.804
1443.5	363.396
1447.01	422.333
1450.53	132.11
1454.04	234.229
1457.55	165.376
1461.05	145.655
1464.56	222.736
1468.07	242.098
1471.57	716.548
1475.07	427.457
1478.57	465.558
1482.07	405.623
1485.56	373.61
1489.06	269.753
1492.55	33.202
1496.04	63.241
1499.53	61.826
1503.02	49.153
1506.5	157.969
1509.99	215.228
1513.47	319.471
1516.95	453.419
1520.43	437.479
