Measurement: Raman, 514 nm, ccw, Raman Data Processed
Mineral: Orthoclase
Rruff sample: R040055
Ideal chemistry: KAlSi_3_O_8_
Locality: Madagascar
Source: Bob Downs
Description: Pale yellow fragments
Measured chemistry: Light: K_0.96_(Al_0.96_Si_0.03_Fe_0.02_)Si_3.00_O_8_; dark: (K_0.90_Na_0.02_)(Al_0.91_Si_0.08_Fe_0.02_)Si_3.00_O_8
Pin_id: L00390
Orientation: Laser parallel to a* (1 0 0). Fiducial mark perpendicular to laser is parallel to -b [0 -1 0]
Raman shift (cm-1)	intensity
98.831	0
103.02	1310.95
107.207	5174.92
111.393	6234.23
115.576	5113.56
119.757	4018.12
123.936	2839.39
128.112	1142.5
132.287	266.864
136.46	207.066
140.63	2.841
144.799	165.363
148.965	141.361
153.13	483.101
157.292	609.551
161.452	595.662
165.611	610.816
169.767	474.37
173.921	545.141
178.073	468.249
182.222	681.155
186.37	154.68
190.516	140.54
194.66	441.25
198.801	431.181
202.941	244.912
207.079	10.049
211.214	39.424
215.348	139.243
219.479	275.239
223.608	96.677
227.736	68.233
231.861	38.736
235.984	55.215
240.105	79.549
244.224	313.711
248.342	265.067
252.457	443.788
256.57	891.88
260.681	1304.77
264.79	1521.56
268.896	2039.49
273.001	2618.12
277.104	3407.09
281.205	4014.93
285.304	3721.35
289.401	2804.55
293.495	1605.95
297.588	885.822
301.679	644.037
305.767	529.971
309.854	339.812
313.939	133.878
318.021	166.506
322.102	275.91
326.181	252.547
330.257	136.533
334.332	309.419
338.405	361.51
342.475	123.437
346.544	45.22
350.61	142.654
354.675	218.688
358.738	147.602
362.798	388.598
366.857	528.631
370.913	590.106
374.968	346.585
379.021	174.845
383.071	240.372
387.12	129.803
391.166	49.125
395.211	129.531
399.254	473.812
403.294	632.777
407.333	604.906
411.37	231.655
415.405	191.89
419.437	182.073
423.468	72.151
427.497	67.924
431.524	211.625
435.549	550.723
439.572	989.373
443.593	1627.62
447.611	2925.71
451.628	4434.18
455.644	4891.22
459.657	4317.99
463.668	4634.41
467.677	6720.19
471.684	10584.8
475.689	12108.6
479.692	9221.43
483.694	6065.7
487.693	4608.76
491.691	3481
495.686	3464.11
499.68	4767.87
503.671	8559.06
507.661	16829
511.648	28236.8
515.634	26967.6
519.618	15453.7
523.6	8172.64
527.58	4457.53
531.558	2707.45
535.534	2054.52
539.508	1512.94
543.48	1165.21
547.45	741.788
551.418	730.04
555.385	690.052
559.349	656.371
563.312	512.375
567.272	268.254
571.231	434.049
575.187	529.408
579.142	430.651
583.095	454.293
587.046	516.105
590.995	399.637
594.942	404.586
598.888	409.346
602.831	293.955
606.772	128.396
610.712	462.624
614.649	316.771
618.585	230.784
622.519	204.727
626.45	418.485
630.38	612.09
634.308	425.527
638.235	18.801
642.159	181.88
646.081	249.402
650.002	517.541
653.92	510.126
657.837	202.528
661.752	94.758
665.664	53.167
669.575	198.594
673.484	72.037
677.392	33.774
681.297	105.271
685.2	35.004
689.102	215.967
693.002	27.336
696.899	141.445
700.795	174.138
704.689	172.614
708.581	168.799
712.472	184.597
716.36	243.124
720.247	409.442
724.131	338.659
728.014	683.425
731.895	708.312
735.774	942.394
739.651	979.222
743.526	1287.63
747.4	1611.29
751.271	1555.86
755.141	1419.04
759.009	1197.25
762.875	1179.54
766.739	1300.38
770.601	1212.6
774.462	937.954
778.32	709.95
782.177	561.457
786.032	884.421
789.885	1095.17
793.736	1094.26
797.585	784.39
801.433	694.726
805.279	1054.89
809.122	1244.85
812.964	1153.54
816.804	1152.38
820.643	355.807
824.479	173.283
828.314	360.123
832.147	393.957
835.977	299.021
839.807	130.723
843.634	11.889
847.459	211.799
851.283	124.912
855.105	452.49
858.925	361.303
862.743	204.812
866.559	147.932
870.373	104.916
874.186	192.135
877.997	439.244
881.806	196.24
885.613	176.984
889.419	20.584
893.222	205.746
897.024	182.014
900.824	148.205
904.622	64.506
908.418	119.096
912.213	12.824
916.005	183.482
919.796	99.797
923.585	345.992
927.373	72.068
931.158	28.102
934.942	65.666
938.724	220.578
942.504	586.902
946.282	523.316
950.059	589.842
953.833	626.461
957.606	443.172
961.377	769.982
965.147	816.914
968.914	953.963
972.68	861.158
976.444	696.967
980.206	674.203
983.967	871.463
987.725	1129.34
991.482	1027.6
995.237	1162.35
998.99	1161.75
1002.74	1148.43
1006.49	738.666
1010.24	939.143
1013.99	1010.11
1017.73	1221.38
1021.47	1169.81
1025.21	950.359
1028.95	447.93
1032.69	659.873
1036.42	571.863
1040.16	973.299
1043.89	864.082
1047.62	555.891
1051.35	659.225
1055.08	319.299
1058.8	677.889
1062.53	591.971
1066.25	921.746
1069.97	917.609
1073.68	822.746
1077.4	812.727
1081.11	889.07
1084.83	1143.36
1088.54	1709.61
1092.25	1756.06
1095.95	1883.71
1099.66	1981.21
1103.36	1758.08
1107.07	1855.09
1110.77	2163.04
1114.47	2790.97
1118.16	3768.59
1121.86	4046.33
1125.55	4104.19
1129.24	3592.19
1132.93	2990.59
1136.62	2910.24
1140.31	2840.85
1143.99	2379.95
1147.68	2560.77
1151.36	1919.46
1155.04	1438.07
1158.71	986.369
1162.39	829.82
1166.07	511.658
1169.74	740.26
1173.41	728.85
1177.08	988.229
1180.75	618.699
1184.41	349.043
1188.08	26.502
1191.74	105.504
1195.4	55.398
1199.06	426.742
1202.71	487.713
1206.37	305.369
1210.02	253.557
1213.68	334.344
1217.33	136.453
1220.98	129.074
1224.62	258.154
1228.27	340.303
1231.91	568.781
1235.55	790.121
1239.19	1016.03
1242.83	572.264
1246.47	338.629
1250.1	275.246
1253.74	157.543
1257.37	332.551
1261	688.516
1264.63	614.354
1268.25	839.334
1271.88	865.025
1275.5	679.961
1279.12	84.139
1282.74	48.203
1286.36	101.357
1289.98	263.814
1293.59	665.412
1297.21	1266.56
1300.82	606.928
1304.43	596.436
1308.04	185.166
1311.64	423.029
1315.25	1880.47
1318.85	257.516
1322.45	293.748
1326.05	439.359
1329.65	494.41
1333.24	638.83
1336.84	579.219
1340.43	372.086
1344.03	64.385
1347.61	488.473
1351.2	80.4
1354.79	5.123
1358.37	449.775
1361.96	519.137
1365.54	753.807
1369.12	932.377
1372.69	439.121
1376.27	335.553
1379.85	321.762
1383.42	198.566
1386.99	176.277
1390.56	294.838
1394.13	442.49
1397.7	980.268
1401.26	1047.55
1404.82	919.814
1408.38	902.355
1411.94	875.189
1415.5	697.568
1419.06	250.924
1422.62	233.539
1426.17	523.639
1429.72	390.881
1433.27	903.707
1436.82	948.643
1440.37	1381.39
1443.91	2049.88
1447.45	1754.05
1450.99	1575.83
1454.54	1246
1458.07	1123.87
1461.61	924.236
1465.15	803.375
1468.68	550.781
1472.21	1081.88
1475.74	1275.77
1479.27	1259.59
1482.8	1364.45
1486.32	1111.68
1489.85	1102.43
1493.37	1002.94
1496.89	567.324
1500.41	234.457
1503.93	64.135
1507.44	42.898
1510.96	122.949
1514.47	268.658
1517.98	134.553
1521.49	569.668
