Measurement: Raman, 514 nm, ccw, Raman Data Processed
Mineral: Orthoclase
Rruff sample: R040055
Ideal chemistry: KAlSi_3_O_8_
Locality: Madagascar
Source: Bob Downs
Description: Pale yellow fragments
Measured chemistry: Light: K_0.96_(Al_0.96_Si_0.03_Fe_0.02_)Si_3.00_O_8_; dark: (K_0.90_Na_0.02_)(Al_0.91_Si_0.08_Fe_0.02_)Si_3.00_O_8
Pin_id: M00468
Orientation: Laser parallel to (1 0 1). Fiducial mark perpendicular to laser is parallel to b [0 1 0]
Raman shift (cm-1)	intensity
51.562	0
55.785	121.176
60.005	106.812
64.224	57.068
68.44	0.726
72.654	241.134
76.866	632.589
81.076	507.16
85.284	400.147
89.489	825.714
93.693	1544.53
97.894	1980.04
102.093	1733.74
106.29	1744.68
110.485	2695.25
114.678	4781.77
118.868	5595.82
123.057	3920.95
127.243	3262.05
131.427	4036.58
135.609	6375.48
139.789	7493.4
143.966	7909.5
148.142	11235.3
152.316	18711.3
156.487	20968.4
160.656	13496.4
164.823	6964.7
168.988	4242.19
173.151	2927.87
177.312	1938.7
181.471	1311.63
185.627	1052.67
189.781	751.801
193.934	416.042
198.084	308.39
202.232	161.381
206.378	26.068
210.522	117.937
214.664	44.827
218.803	4.098
222.941	54.796
227.076	12.219
231.21	67.184
235.341	123.541
239.47	25.483
243.597	322.751
247.722	651.268
251.845	975.875
255.966	1336.01
260.085	2079.8
264.202	2955.73
268.316	3793.84
272.429	5200
276.539	7881.21
280.647	9372.49
284.754	7843.83
288.858	5164.23
292.96	3275.7
297.06	2093.96
301.158	1278.78
305.254	792.432
309.348	628.109
313.44	465.898
317.529	324.8
321.617	346.805
325.702	295.898
329.786	316.073
333.867	314.328
337.947	229.661
342.024	231.069
346.1	153.552
350.173	87.103
354.244	127.728
358.313	443.454
362.38	843.301
366.445	951.322
370.508	833.536
374.569	621.105
378.628	387.434
382.685	241.166
386.74	153.052
390.793	156.495
394.844	85.395
398.892	44.83
402.939	4.2
406.984	110.783
411.026	57.431
415.067	93.93
419.106	126.453
423.142	43.277
427.177	18.679
431.209	161.637
435.24	468.653
439.268	1150.72
443.295	2272.85
447.319	3557.03
451.342	4643.26
455.362	4929.54
459.38	4903.87
463.397	5681.26
467.411	8336.7
471.424	13810.2
475.434	16263.8
479.442	11487.4
483.449	6941.03
487.453	5216.73
491.456	4700.49
495.456	5038.29
499.454	6986.13
503.451	11880
507.445	24574
511.437	41977.5
515.428	34383.3
519.416	16900
523.403	8750.85
527.387	5190.88
531.37	3431.91
535.35	2394
539.329	1712.62
543.305	1416.05
547.28	1213.2
551.252	897.107
555.223	704.843
559.191	617.563
563.158	571.283
567.123	540.99
571.085	459.744
575.046	409.553
579.005	463.054
582.962	451.197
586.916	420.214
590.869	308.086
594.82	291.949
598.769	371.774
602.716	343.559
606.661	278.314
610.604	251.017
614.545	268.667
618.484	279.259
622.421	419.789
626.357	344.255
630.29	263.653
634.221	220.981
638.151	168.236
642.078	120.414
646.004	143.513
649.927	109.529
653.849	163.461
657.769	218.305
661.686	124.059
665.602	96.718
669.516	30.438
673.428	24.138
677.338	37.082
681.246	3.329
685.152	81.647
689.056	7.85
692.959	58.451
696.859	14.62
700.758	51.058
704.654	85.073
708.549	165.457
712.441	208.414
716.332	241.179
720.221	286.935
724.108	264.949
727.993	358.095
731.876	410.12
735.757	498.497
739.636	705.016
743.514	702.341
747.389	741.135
751.263	751.865
755.134	980.229
759.004	1138.17
762.872	1194.16
766.738	1223.17
770.602	1194.83
774.464	997.326
778.324	830.663
782.183	651.84
786.039	442.856
789.894	461.713
793.746	539.41
797.597	543.948
801.446	560.329
805.293	542.553
809.138	526.621
812.981	514.535
816.823	353.295
820.662	214.85
824.5	103.845
828.336	83.183
832.169	92.847
836.001	89.077
839.831	36.559
843.66	78.682
847.486	4.11
851.31	41.566
855.133	35.545
858.954	87.246
862.773	98.093
866.59	22.825
870.405	50.553
874.218	11.114
878.029	100.804
881.839	36.195
885.647	2.02
889.452	42.327
893.256	25.893
897.058	71.652
900.859	81.363
904.657	65.29
908.454	33.149
912.248	60.918
916.041	26.611
919.832	39.25
923.621	73.838
927.409	34.479
931.194	95.886
934.978	136.355
938.76	143.797
942.54	158.215
946.318	209.606
950.094	357.977
953.868	491.334
957.641	540.688
961.412	587.055
965.181	659.418
968.948	771.807
972.713	741.207
976.477	808.322
980.238	817.438
983.998	763.315
987.756	755.715
991.512	729.889
995.267	747.541
999.019	892.334
1002.77	917.709
1006.52	707.825
1010.27	614.4
1014.01	533.117
1017.75	535.619
1021.5	564.7
1025.24	509.68
1028.97	446.212
1032.71	376.624
1036.44	323.489
1040.18	339.702
1043.91	342.49
1047.64	357.639
1051.36	269.39
1055.09	307.82
1058.81	207.582
1062.54	218.707
1066.26	353.718
1069.97	504.651
1073.69	662.865
1077.4	806.165
1081.12	925.549
1084.83	1037.32
1088.54	1160.44
1092.24	1283.13
1095.95	1481.91
1099.65	1725.31
1103.36	2023.28
1107.06	2317.13
1110.76	2495.31
1114.45	3026.08
1118.15	3626.53
1121.84	4062.92
1125.53	4455.5
1129.22	4490.14
1132.91	4193.8
1136.6	3824.58
1140.28	3262.38
1143.96	2931.54
1147.64	2439.02
1151.32	2153.24
1155	1925.98
1158.67	1566.92
1162.35	1323.27
1166.02	1041.98
1169.69	851.256
1173.36	731.846
1177.03	698.483
1180.69	629.542
1184.35	572.851
1188.01	434.762
1191.67	259.968
1195.33	161.077
1198.99	95.963
1202.64	30.933
1206.3	136.614
1209.95	150.53
1213.6	175.389
1217.24	139.527
1220.89	61.24
1224.53	2.925
1228.17	12.869
1231.81	13.277
1235.45	70.736
1239.09	122.791
1242.72	164.529
1246.36	158.753
1249.99	146.715
1253.62	8.679
1257.25	11.18
1260.88	53.94
1264.5	54.168
1268.12	132.622
1271.74	174.198
1275.36	188.715
1278.98	176.049
1282.6	101.602
1286.21	17.081
1289.83	32.787
1293.44	67.865
1297.05	40.177
1300.65	7.323
1304.26	109.665
1307.86	116.817
1311.47	178.801
1315.07	136.602
1318.66	44.294
1322.26	7.877
1325.86	26.675
1329.45	15.61
1333.04	64.774
1336.63	27.783
1340.22	224.64
1343.81	216.362
1347.4	146.926
1350.98	48.494
1354.56	7.87
1358.14	14.903
1361.72	9.339
1365.3	15.496
1368.87	133.542
1372.45	199.552
1376.02	268.229
1379.59	254.566
1383.16	239.198
1386.72	163.73
1390.29	131.68
1393.85	85.435
1397.41	41.875
1400.97	69.034
1404.53	103.292
1408.09	214.292
1411.64	260.061
1415.19	256.486
1418.75	305.818
1422.3	280.187
1425.85	155.497
1429.39	85.067
1432.94	104.82
1436.48	133.908
1440.02	116.554
1443.56	217.504
1447.1	390.716
1450.63	407.635
1454.17	480.214
1457.7	445.293
1461.23	430.695
1464.76	326.119
1468.29	206.628
1471.82	139.755
1475.34	124.217
1478.87	76.934
1482.39	99.484
1485.91	191.194
1489.43	261.571
1492.94	279.369
1496.46	305.804
1499.97	286.173
1503.48	286.799
1506.99	284.906
1510.5	175.979
1514.01	89.67
1517.51	1.804
1521.02	0.036
