Measurement: Raman, 514 nm, ccw, Raman Data Processed
Mineral: Orthoclase
Rruff sample: R040055
Ideal chemistry: KAlSi_3_O_8_
Locality: Madagascar
Source: Bob Downs
Description: Pale yellow fragments
Measured chemistry: Light: K_0.96_(Al_0.96_Si_0.03_Fe_0.02_)Si_3.00_O_8_; dark: (K_0.90_Na_0.02_)(Al_0.91_Si_0.08_Fe_0.02_)Si_3.00_O_8
Pin_id: M00468
Orientation: Laser parallel to (1 0 1). Fiducial mark perpendicular to laser is parallel to b [0 1 0]
Raman shift (cm-1)	intensity
51.562	0
55.785	28.79
60.005	163.433
64.224	268.082
68.44	263.518
72.654	453.396
76.866	787.128
81.076	497.12
85.284	124.881
89.489	473.572
93.693	1183.01
97.894	1524.61
102.093	1644.3
106.29	2105.15
110.485	2856.27
114.678	4896.6
118.868	4455.87
123.057	3047.98
127.243	2072.61
131.427	2188.57
135.609	3357.99
139.789	4042.22
143.966	4356.59
148.142	6420.63
152.316	10917.2
156.487	11933.6
160.656	7660.63
164.823	3793.77
168.988	2380.88
173.151	1817.89
177.312	1197.76
181.471	717.37
185.627	850.759
189.781	1285.04
193.934	2203.74
198.084	1862.81
202.232	780.418
206.378	258.818
210.522	131.229
214.664	74.649
218.803	45.122
222.941	126.679
227.076	130.139
231.21	35.516
235.341	6.057
239.47	52.89
243.597	196.952
247.722	497.473
251.845	815.025
255.966	1187.3
260.085	1866.45
264.202	2485.34
268.316	2986.53
272.429	3897.19
276.539	5751.32
280.647	7067.97
284.754	5867.19
288.858	3766.01
292.96	2451.44
297.06	1536.35
301.158	794.065
305.254	485.314
309.348	407.146
313.44	286.217
317.529	191.033
321.617	185.685
325.702	145.156
329.786	107.426
333.867	21.483
337.947	92.323
342.024	158.954
346.1	122.37
350.173	19.448
354.244	107.455
358.313	375.106
362.38	646.652
366.445	736.115
370.508	588.224
374.569	536.134
378.628	320.109
382.685	154.717
386.74	165.099
390.793	261.203
394.844	295.704
398.892	340.21
402.939	534.812
406.984	618.413
411.026	344.04
415.067	6.811
419.106	18.649
423.142	56.403
427.177	47.436
431.209	207.022
435.24	416.427
439.268	1123.66
443.295	2176.73
447.319	3441.63
451.342	4565.38
455.362	4888.98
459.38	4596.42
463.397	4737.72
467.411	6189.91
471.424	9832.98
475.434	11644.9
479.442	8416.84
483.449	5248.78
487.453	4031.44
491.456	3684.83
495.456	4052.64
499.454	5652.67
503.451	9856.9
507.445	20796.1
511.437	35932.3
515.428	29693.2
519.416	14813.1
523.403	7459.94
527.387	4506.56
531.37	3020.32
535.35	1974.32
539.329	1472.12
543.305	1174.32
547.28	982.941
551.252	760.546
555.223	537.733
559.191	543.86
563.158	541.128
567.123	576.431
571.085	553.722
575.046	551.988
579.005	761.431
582.962	793.712
586.916	623.557
590.869	358.103
594.82	301.132
598.769	327.079
602.716	314.932
606.661	258.689
610.604	163.354
614.545	227.921
618.484	246.389
622.421	414.757
626.357	241.023
630.29	171.188
634.221	115.258
638.151	171.232
642.078	208.102
646.004	154.88
649.927	77.586
653.849	147.222
657.769	205.784
661.686	176.268
665.602	31.674
669.516	25.009
673.428	18.259
677.338	57.459
681.246	7.497
685.152	82.888
689.056	57.02
692.959	4.693
696.859	14.422
700.758	59.226
704.654	79.289
708.549	110.456
712.441	266.468
716.332	376.885
720.221	449.609
724.108	395.419
727.993	437.162
731.876	646.56
735.757	921.345
739.636	1150.29
743.514	1262.49
747.389	1228.45
751.263	1292.63
755.134	1380.01
759.004	1575.13
762.872	1529.4
766.738	1393.18
770.602	1413.79
774.464	1245.13
778.324	1217.29
782.183	1022.28
786.039	937.105
789.894	929.614
793.746	1160.67
797.597	1325.47
801.446	1393.24
805.293	1350.9
809.138	1295.67
812.981	1199.06
816.823	840.811
820.662	547.173
824.5	260.298
828.336	132.644
832.169	82.627
836.001	90.555
839.831	80.604
843.66	94.56
847.486	23.659
851.31	49.244
855.133	2.182
858.954	104.054
862.773	130.185
866.59	35.646
870.405	39.957
874.218	42.889
878.029	112.93
881.839	27.726
885.647	16.809
889.452	20.43
893.256	37.506
897.058	39.585
900.859	44.838
904.657	128.772
908.454	67.319
912.248	35.808
916.041	13.62
919.832	0.283
923.621	79.103
927.409	169.459
931.194	117.783
934.978	145.079
938.76	250.356
942.54	117.617
946.318	260.867
950.094	523.107
953.868	719.339
957.641	777.563
961.412	747.783
965.181	819.029
968.948	869.301
972.713	1009.59
976.477	1089.9
980.238	1129.12
983.998	1191.18
987.756	1170.52
991.512	1237.91
995.267	1216.83
999.019	1332.64
1002.77	1440.73
1006.52	1260.63
1010.27	971.148
1014.01	848.831
1017.75	844.551
1021.5	872.973
1025.24	823.001
1028.97	850.502
1032.71	749.588
1036.44	663.266
1040.18	571.264
1043.91	549.816
1047.64	643.668
1051.36	665.812
1055.09	624.514
1058.81	467.326
1062.54	466.072
1066.26	433.429
1069.97	631.605
1073.69	807.558
1077.4	983.237
1081.12	1209.82
1084.83	1198.32
1088.54	1239.14
1092.24	1423.74
1095.95	1638.73
1099.65	1892.81
1103.36	2121.95
1107.06	2240.19
1110.76	2426.5
1114.45	2698
1118.15	2931.61
1121.84	3297.69
1125.53	3561.33
1129.22	3720.19
1132.91	3495.03
1136.6	3223.43
1140.28	2776.37
1143.96	2487.66
1147.64	1983.43
1151.32	1755.75
1155	1588.52
1158.67	1343.55
1162.35	1128.86
1166.02	947.366
1169.69	754.352
1173.36	576.012
1177.03	476.755
1180.69	559.857
1184.35	411.225
1188.01	378.148
1191.67	278.896
1195.33	207.263
1198.99	52.581
1202.64	13.604
1206.3	9.622
1209.95	68.181
1213.6	125.17
1217.24	134.443
1220.89	71.357
1224.53	64.401
1228.17	4.684
1231.81	4.231
1235.45	17.047
1239.09	15.47
1242.72	89.476
1246.36	105.473
1249.99	187.581
1253.62	94.132
1257.25	50.206
1260.88	9.687
1264.5	68.244
1268.12	96.736
1271.74	129.027
1275.36	120.132
1278.98	190.099
1282.6	127.502
1286.21	76.196
1289.83	11.781
1293.44	19.943
1297.05	41.878
1300.65	26.087
1304.26	17.419
1307.86	78.027
1311.47	169.206
1315.07	156.211
1318.66	90.03
1322.26	33.702
1325.86	4.807
1329.45	46.485
1333.04	2.606
1336.63	45.463
1340.22	107.155
1343.81	162.697
1347.4	135.085
1350.98	128.26
1354.56	8.696
1358.14	26.015
1361.72	54.786
1365.3	27.955
1368.87	36.43
1372.45	106.397
1376.02	151.264
1379.59	251.283
1383.16	262.293
1386.72	177.435
1390.29	216.452
1393.85	117.797
1397.41	68.856
1400.97	27.149
1404.53	8.56
1408.09	116.163
1411.64	222.028
1415.19	225.216
1418.75	375.788
1422.3	363.98
1425.85	285.265
1429.39	166.503
1432.94	182.462
1436.48	146.338
1440.02	136.63
1443.56	179.796
1447.1	271.85
1450.63	460.458
1454.17	466.521
1457.7	518.277
1461.23	474.207
1464.76	429.207
1468.29	302.332
1471.82	225.575
1475.34	191.267
1478.87	84.344
1482.39	174.284
1485.91	119.403
1489.43	143.89
1492.94	240.714
1496.46	186.091
1499.97	338.697
1503.48	232.114
1506.99	245.24
1510.5	236.145
1514.01	163.77
1517.51	126.114
1521.02	0.634
