Measurement: Raman, 514 nm, ccw, Raman Data Processed
Mineral: Orthoclase
Rruff sample: R040055
Ideal chemistry: KAlSi_3_O_8_
Locality: Madagascar
Source: Bob Downs
Description: Pale yellow fragments
Measured chemistry: Light: K_0.96_(Al_0.96_Si_0.03_Fe_0.02_)Si_3.00_O_8_; dark: (K_0.90_Na_0.02_)(Al_0.91_Si_0.08_Fe_0.02_)Si_3.00_O_8
Pin_id: L00124
Orientation: Laser parallel to b* (0 1 0). Fiducial mark perpendicular to laser is parallel to c [0 0 1]
Raman shift (cm-1)	intensity
53.228	0
57.445	129.476
61.659	154.577
65.871	331.845
70.081	79.639
74.288	43.532
78.494	26.912
82.697	158.827
86.898	283.703
91.097	761.399
95.293	1787.01
99.488	2826.7
103.68	3238.49
107.87	3378.83
112.057	3877.78
116.243	5545.98
120.426	6326.08
124.608	5926.82
128.787	5611.01
132.963	7347.46
137.138	11465
141.311	14693.9
145.481	15313.4
149.649	19063.1
153.815	27223.3
157.979	31615.8
162.14	25481.7
166.3	16049.6
170.457	9828.32
174.612	6597.93
178.765	4764.45
182.915	3797.89
187.064	3039.23
191.21	2439.48
195.355	2003.64
199.497	1749.69
203.637	1440.63
207.774	1281.43
211.91	1229.1
216.043	1283.63
220.175	1168.76
224.304	1134.52
228.431	1190.64
232.556	1335.46
236.678	1261.36
240.799	1424.7
244.917	1766.06
249.034	2268
253.148	2911.17
257.26	3799.69
261.37	5214.27
265.477	6630.37
269.583	8323.45
273.686	11211.3
277.788	14901.6
281.887	17392.6
285.984	16434.5
290.079	12457
294.172	8280.31
298.263	5367.23
302.351	3618.8
306.438	2647.99
310.522	1965.79
314.604	1540.2
318.684	1265.23
322.762	1238.84
326.838	1262
330.912	1191.67
334.984	1142.85
339.053	1186.52
343.121	1098.68
347.186	1036.33
351.25	984.453
355.311	1153.06
359.37	1170.18
363.427	1061.9
367.482	879.156
371.535	629.057
375.585	443.587
379.634	143.718
383.68	107.46
387.725	47.895
391.767	11.938
395.808	55.473
399.846	286.624
403.882	195.338
407.916	248.683
411.948	83.516
415.978	164.25
420.006	156.977
424.031	227.927
428.055	233.312
432.077	184.081
436.096	100.148
440.114	570.741
444.129	1105.69
448.142	1906.98
452.154	2893.6
456.163	3151.54
460.17	3145.79
464.175	3033.35
468.178	4504.19
472.179	7501.32
476.178	10143.7
480.175	8416.38
484.17	5729.29
488.163	4505.44
492.153	4083.82
496.142	4079.48
500.129	5323.5
504.113	9248.27
508.096	18513.4
512.077	34228.1
516.055	37407.1
520.032	22164.8
524.006	11087
527.978	6086.12
531.949	3620.16
535.917	2441.15
539.883	1772.43
543.848	1435.67
547.81	1168.16
551.77	760.299
555.728	608.104
559.685	532.961
563.639	482.607
567.591	471.307
571.541	378.048
575.489	419.038
579.435	374.938
583.38	336.996
587.322	252.855
591.262	124.48
595.2	177.31
599.136	351.154
603.07	283.011
607.002	262.916
610.932	199.81
614.86	288.671
618.786	381.492
622.71	465.257
626.632	485.959
630.552	526.588
634.471	511.143
638.387	466.621
642.301	284.007
646.213	175.295
650.123	109.48
654.031	183.555
657.937	119.509
661.842	45.321
665.744	91.972
669.644	3.484
673.542	5.25
677.438	23.644
681.333	18.896
685.225	80.893
689.115	28.569
693.004	4.827
696.89	5.68
700.775	47.146
704.657	38.818
708.538	9.133
712.416	104.761
716.293	196.235
720.167	233.575
724.04	240.042
727.911	286.867
731.78	473.084
735.646	604.363
739.511	648.656
743.374	813.771
747.235	775.445
751.094	821.769
754.951	936.497
758.806	1010.46
762.659	1006.76
766.511	1030.11
770.36	1057.27
774.207	1057.76
778.053	940.507
781.896	820.06
785.738	763.415
789.577	764.331
793.415	970.292
797.251	1143.06
801.084	1171.63
804.916	1327.01
808.746	1531.15
812.574	1442.95
816.4	1078.17
820.224	783.714
824.047	460.345
827.867	310.55
831.685	218.129
835.502	257.329
839.316	379.092
843.129	315.102
846.94	148.361
850.749	119.775
854.556	77.665
858.361	27.394
862.164	120.367
865.965	117.443
869.764	32.312
873.562	83.916
877.357	53.366
881.151	0.997
884.942	60.216
888.732	59.342
892.52	31.338
896.306	60.754
900.09	13.998
903.872	35.668
907.653	97.241
911.431	44.685
915.208	90.98
918.982	31.775
922.755	21.594
926.526	95.542
930.295	85.659
934.062	201.802
937.827	170.929
941.59	158.03
945.352	148.114
949.112	275.193
952.869	458.279
956.625	582.375
960.379	598.514
964.131	583.688
967.881	687.896
971.63	754.142
975.376	812.439
979.121	979.829
982.864	1093.4
986.605	1138.14
990.344	1052.16
994.081	1040.5
997.816	1296.19
1001.55	1389.16
1005.28	1533.44
1009.01	1469.66
1012.74	1455
1016.47	1277.63
1020.19	1313.38
1023.91	1232.71
1027.63	1337.32
1031.35	1325.74
1035.07	1233.68
1038.78	1010.51
1042.49	846.605
1046.21	753.793
1049.92	649.012
1053.62	766.351
1057.33	594.812
1061.03	517.669
1064.73	383.821
1068.44	352.693
1072.13	490.654
1075.83	647.594
1079.53	781.855
1083.22	952.442
1086.91	1026.49
1090.6	1083.65
1094.29	1078.5
1097.97	1080.51
1101.66	1337.69
1105.34	1474.59
1109.02	1537.52
1112.7	1665.84
1116.37	1870.47
1120.05	1977.37
1123.72	2095.95
1127.39	2197.7
1131.06	2375.31
1134.73	2318.62
1138.39	2263.65
1142.06	2170.57
1145.72	1694.78
1149.38	1354.15
1153.04	1262.3
1156.69	1084.11
1160.35	829.062
1164	969.999
1167.65	819.849
1171.3	701.684
1174.95	527.229
1178.6	398.001
1182.24	220.975
1185.88	176.966
1189.52	216.172
1193.16	253.662
1196.8	157.208
1200.43	187.658
1204.07	57.724
1207.7	37.365
1211.33	11.076
1214.96	97.769
1218.58	69.94
1222.21	124.629
1225.83	183.406
1229.45	138.891
1233.07	244.4
1236.69	77.561
1240.3	55.151
1243.92	11.064
1247.53	49.236
1251.14	183.661
1254.75	282.933
1258.35	333.21
1261.96	198.841
1265.56	105.055
1269.16	88.149
1272.76	1.645
1276.36	107.184
1279.96	137.349
1283.55	189.295
1287.14	168.885
1290.73	166.075
1294.32	124.034
1297.91	181.888
1301.5	40.491
1305.08	64.312
1308.66	89.589
1312.24	124.791
1315.82	164.859
1319.4	245.611
1322.97	307.059
1326.55	373.205
1330.12	235.044
1333.69	105.591
1337.26	61.875
1340.82	55.922
1344.39	3.503
1347.95	84.745
1351.51	212.379
1355.07	350.679
1358.63	460.394
1362.18	425.439
1365.74	363.805
1369.29	132.475
1372.84	33.509
1376.39	5.241
1379.94	173.811
1383.48	219.229
1387.03	311.782
1390.57	429.796
1394.11	479.441
1397.65	574.3
1401.19	265.315
1404.72	361.352
1408.26	223.196
1411.79	73.363
1415.32	196.433
1418.85	248.836
1422.37	183.594
1425.9	311.824
1429.42	392.792
1432.94	514.189
1436.46	539.725
1439.98	619.924
1443.5	502.117
1447.01	481.858
1450.53	157.696
1454.04	211.499
1457.55	180.445
1461.05	267.733
1464.56	373.485
1468.07	466.875
1471.57	552.151
1475.07	591.816
1478.57	700.806
1482.07	557.543
1485.56	548.213
1489.06	194.894
1492.55	201.287
1496.04	0.091
1499.53	29.396
1503.02	89.525
1506.5	284.331
1509.99	331.836
1513.47	434.869
1516.95	574.893
1520.43	371.852
