Measurement: Raman, 514 nm, ccw, Raman Data Processed
Mineral: Orthoclase
Rruff sample: R040055
Ideal chemistry: KAlSi_3_O_8_
Locality: Madagascar
Source: Bob Downs
Description: Pale yellow fragments
Measured chemistry: Light: K_0.96_(Al_0.96_Si_0.03_Fe_0.02_)Si_3.00_O_8_; dark: (K_0.90_Na_0.02_)(Al_0.91_Si_0.08_Fe_0.02_)Si_3.00_O_8
Pin_id: L00124
Orientation: Laser parallel to b* (0 1 0). Fiducial mark perpendicular to laser is parallel to c [0 0 1]
Raman shift (cm-1)	intensity
53.228	0
57.445	114.813
61.659	170.369
65.871	338.09
70.081	117.061
74.288	87.077
78.494	108.101
82.697	219.308
86.898	371.939
91.097	908.789
95.293	2175.9
99.488	3289.38
103.68	3486.17
107.87	3617.7
112.057	3933.03
116.243	5651.79
120.426	6529.63
124.608	6039.26
128.787	5554.47
132.963	7093.07
137.138	11543.9
141.311	15166.1
145.481	15989
149.649	20331.9
153.815	30345.4
157.979	35401.2
162.14	27790.6
166.3	17052.3
170.457	10334.9
174.612	6848.39
178.765	4910.87
182.915	3805.3
187.064	2985.68
191.21	2347.01
195.355	1869.29
199.497	1554.5
203.637	1309.63
207.774	1117.66
211.91	1059.59
216.043	1129.43
220.175	1063.79
224.304	995.5
228.431	1044.15
232.556	1167.5
236.678	1109.53
240.799	1264.88
244.917	1671.29
249.034	2203.22
253.148	2771.7
257.26	3741.84
261.37	5146.8
265.477	6730.28
269.583	8351.37
273.686	11114.7
277.788	15009.3
281.887	18164.8
285.984	17141.1
290.079	12818.1
294.172	8585.85
298.263	5541.3
302.351	3699.42
306.438	2721.18
310.522	1994.58
314.604	1506.62
318.684	1225.28
322.762	1317.57
326.838	1270.42
330.912	1164.81
334.984	1060.73
339.053	1067.31
343.121	1042.09
347.186	1073.51
351.25	1044.9
355.311	1136.83
359.37	1277.75
363.427	1206.24
367.482	1048.38
371.535	816.176
375.585	509.654
379.634	202.782
383.68	91.539
387.725	67.013
391.767	15.937
395.808	23.322
399.846	40.845
403.882	213.643
407.916	393.119
411.948	154.092
415.978	134.468
420.006	154.885
424.031	206.581
428.055	248.792
432.077	145.477
436.096	58.797
440.114	538.397
444.129	1174.36
448.142	2011.67
452.154	3096.33
456.163	3342.31
460.17	3102.6
464.175	3230.21
468.178	4598.1
472.179	8093.28
476.178	10870.7
480.175	9068.46
484.17	6351.58
488.163	4890.64
492.153	4318.09
496.142	4268.06
500.129	5581.1
504.113	9410.42
508.096	18789.7
512.077	35851.8
516.055	40124.2
520.032	23750.9
524.006	11886
527.978	6413.1
531.949	3921.92
535.917	2615.23
539.883	1901.34
543.848	1565.65
547.81	1229.75
551.77	830.158
555.728	587.786
559.685	598.391
563.639	589.218
567.591	573.065
571.541	425.982
575.489	358.285
579.435	436.537
583.38	358.494
587.322	267.417
591.262	244.039
595.2	271.798
599.136	303.666
603.07	288.544
607.002	225.389
610.932	258.18
614.86	329.909
618.786	432.572
622.71	462.157
626.632	414.656
630.552	553.063
634.471	597.369
638.387	466.567
642.301	308.651
646.213	140.615
650.123	67.45
654.031	201.139
657.937	186.685
661.842	103.074
665.744	44.305
669.644	84.319
673.542	83.1
677.438	19.563
681.333	6.129
685.225	41.107
689.115	81.719
693.004	22.77
696.89	4.938
700.775	38.541
704.657	49.143
708.538	56.556
712.416	168.284
716.293	193.644
720.167	294.626
724.04	313.526
727.911	390.244
731.78	480.463
735.646	594.835
739.511	684.864
743.374	835.448
747.235	772.928
751.094	848.707
754.951	878.209
758.806	1003.85
762.659	1033.98
766.511	1176.87
770.36	1170.74
774.207	1133.14
778.053	971.297
781.896	848.215
785.738	828.891
789.577	833.328
793.415	1001.52
797.251	1178.49
801.084	1241.21
804.916	1383.39
808.746	1661.65
812.574	1556.53
816.4	1208.08
820.224	742.498
824.047	417.091
827.867	294.402
831.685	190.495
835.502	169.53
839.316	95.709
843.129	88.805
846.94	56.591
850.749	48.92
854.556	23.858
858.361	8.874
862.164	35.56
865.965	61.615
869.764	72.421
873.562	3.217
877.357	36.349
881.151	22.805
884.942	0.21
888.732	62.609
892.52	47.325
896.306	40.906
900.09	25.631
903.872	29.674
907.653	4.188
911.431	48.773
915.208	66.726
918.982	13.514
922.755	23.29
926.526	75.011
930.295	111.912
934.062	146.323
937.827	72.931
941.59	202.505
945.352	260.047
949.112	375.559
952.869	404.05
956.625	470.553
960.379	697.062
964.131	688.562
967.881	758.079
971.63	796.6
975.376	928.159
979.121	1100.76
982.864	1209.48
986.605	1265.05
990.344	1224.27
994.081	1342.12
997.816	1455.76
1001.55	1641.4
1005.28	1647.82
1009.01	1487.98
1012.74	1587.18
1016.47	1423.91
1020.19	1480
1023.91	1384.77
1027.63	1353.83
1031.35	1313.35
1035.07	1244.79
1038.78	1160.57
1042.49	967.742
1046.21	827.729
1049.92	821.046
1053.62	777.081
1057.33	648.084
1061.03	532.166
1064.73	527.737
1068.44	509.469
1072.13	606.285
1075.83	721.987
1079.53	873.814
1083.22	1015.88
1086.91	1064.39
1090.6	1242.73
1094.29	1247.88
1097.97	1219.61
1101.66	1434.32
1105.34	1619.53
1109.02	1640.27
1112.7	1893.17
1116.37	2097.96
1120.05	2360.12
1123.72	2539.03
1127.39	2566.1
1131.06	2633.12
1134.73	2668.72
1138.39	2414.31
1142.06	2282.91
1145.72	1963.78
1149.38	1662.5
1153.04	1380.62
1156.69	1113.89
1160.35	1012.15
1164	1037.12
1167.65	841.253
1171.3	685.965
1174.95	612.253
1178.6	477.534
1182.24	445.027
1185.88	230.086
1189.52	197.144
1193.16	167.976
1196.8	101.021
1200.43	220.226
1204.07	193.716
1207.7	1.906
1211.33	32.609
1214.96	12.093
1218.58	24.06
1222.21	74.259
1225.83	112.689
1229.45	92.22
1233.07	271.821
1236.69	158.472
1240.3	28.087
1243.92	21.223
1247.53	51.324
1251.14	137.268
1254.75	140.205
1258.35	177.075
1261.96	180.092
1265.56	190.543
1269.16	235.06
1272.76	96.503
1276.36	43.411
1279.96	59.317
1283.55	11.905
1287.14	134.264
1290.73	246.165
1294.32	134.79
1297.91	156.115
1301.5	24.577
1305.08	60.657
1308.66	88.424
1312.24	25.493
1315.82	67.185
1319.4	199.63
1322.97	262.822
1326.55	231.72
1330.12	271.365
1333.69	196.719
1337.26	105.803
1340.82	16.656
1344.39	22.73
1347.95	63.228
1351.51	191.784
1355.07	253.311
1358.63	311.727
1362.18	379.741
1365.74	370.377
1369.29	259.313
1372.84	31.04
1376.39	98.391
1379.94	90.234
1383.48	24.623
1387.03	204.349
1390.57	194.372
1394.11	465.139
1397.65	431.911
1401.19	381.942
1404.72	387.086
1408.26	217.67
1411.79	112.365
1415.32	184.884
1418.85	112.762
1422.37	170.417
1425.9	170.131
1429.42	359.544
1432.94	442.99
1436.46	523.128
1439.98	582.167
1443.5	471.848
1447.01	395.189
1450.53	149.868
1454.04	180.649
1457.55	189.114
1461.05	237.423
1464.56	240.084
1468.07	334.124
1471.57	422.804
1475.07	531.274
1478.57	607.712
1482.07	503.273
1485.56	435.167
1489.06	533.355
1492.55	125.109
1496.04	27.2
1499.53	7.04
1503.02	38.094
1506.5	179.239
1509.99	114.408
1513.47	313.559
1516.95	449.667
1520.43	0
