Measurement: Raman, 514 nm, ccw, Raman Data Processed
Mineral: Orthoclase
Rruff sample: R040055
Ideal chemistry: KAlSi_3_O_8_
Locality: Madagascar
Source: Bob Downs
Description: Pale yellow fragments
Measured chemistry: Light: K_0.96_(Al_0.96_Si_0.03_Fe_0.02_)Si_3.00_O_8_; dark: (K_0.90_Na_0.02_)(Al_0.91_Si_0.08_Fe_0.02_)Si_3.00_O_8
Pin_id: M00411
Orientation: Laser parallel to -c* (0 0 -1). Fiducial mark perpendicular to laser is parallel to a [1 0 0]
Raman shift (cm-1)	intensity
98.251	0
102.428	1.709
106.604	500.674
110.777	2523.68
114.949	3410.34
119.119	5002.56
123.286	4121.15
127.452	2189.11
131.615	1078.8
135.777	674.142
139.937	379.248
144.094	449.271
148.25	1222.03
152.403	2479.27
156.555	2213.17
160.705	1388.26
164.853	899.094
168.998	712.725
173.142	454.103
177.284	336.413
181.424	210.821
185.562	133.745
189.698	8.851
193.831	63.274
197.963	88.982
202.093	107.119
206.221	233.113
210.347	80.381
214.472	17.129
218.594	35.016
222.714	147.379
226.832	199.883
230.948	250.478
235.063	219.652
239.175	395.284
243.286	640.663
247.394	1000.08
251.501	1405.52
255.605	2202
259.708	3108.5
263.808	3931.91
267.907	4537.37
272.004	5107.31
276.099	6301.79
280.192	7140
284.283	6578.45
288.372	4779.94
292.459	2904.22
296.544	1527.03
300.627	912.419
304.709	578.442
308.788	329.094
312.865	164.474
316.941	77.777
321.015	104.894
325.086	31.565
329.156	96.43
333.224	90.766
337.29	23.438
341.354	37.683
345.416	0.681
349.476	40.137
353.534	281.764
357.591	419.803
361.645	473.807
365.698	584.07
369.748	486.639
373.797	310.696
377.844	228.291
381.889	181.769
385.932	321.058
389.973	442.028
394.012	735.942
398.049	1196.83
402.084	1794.72
406.118	1634.61
410.15	833.501
414.179	342.4
418.207	232.304
422.233	178.214
426.257	247.131
430.279	491.026
434.299	922.832
438.318	1814.52
442.334	3206.08
446.349	5674.5
450.361	8381.77
454.372	8778.92
458.381	7395.93
462.388	6042.81
466.394	6419.57
470.397	8256.22
474.398	9432.75
478.398	7678.35
482.396	5666.17
486.391	4887.37
490.385	4521.07
494.377	4790.08
498.368	6813.43
502.356	12591.7
506.342	24855.4
510.327	42165
514.31	41522.9
518.291	24032.2
522.27	12347.7
526.247	7013.76
530.222	4515.83
534.196	3102.43
538.167	2581.96
542.137	1892.84
546.105	1405.93
550.071	1096.92
554.035	872.903
557.998	882.909
561.958	669.932
565.917	586.054
569.874	509.177
573.829	589.387
577.782	624.677
581.733	564.026
585.683	488.359
589.63	495.756
593.576	561.209
597.52	422.659
601.462	392.129
605.402	335.628
609.341	367.127
613.277	345.693
617.212	261.263
621.145	206.815
625.076	311.349
629.006	313.865
632.933	209.364
636.859	209.852
640.783	44.417
644.705	124.135
648.625	360.095
652.543	236.366
656.46	242.87
660.375	78.569
664.288	20.446
668.199	156.416
672.108	88.353
676.016	40.836
679.921	158.272
683.825	138.219
687.727	44.591
691.628	18.286
695.526	4.645
699.423	41.954
703.318	175.522
707.211	269.044
711.102	553.694
714.992	699.052
718.879	595.274
722.765	757.443
726.649	1091.67
730.532	1464.81
734.412	1799.54
738.291	2228.93
742.168	2643.65
746.043	2871.43
749.916	3007.29
753.788	2892.16
757.658	2805.68
761.526	2537.83
765.392	2579.91
769.257	2627.89
773.119	2442.26
776.98	2169.55
780.839	2070.75
784.697	2231.87
788.552	2678.91
792.406	3138.86
796.258	3456.74
800.108	3424.53
803.957	3559.23
807.804	3903.84
811.649	3778.37
815.492	2521.79
819.333	1233
823.173	585.233
827.011	359.891
830.847	377.807
834.681	324.95
838.514	121.082
842.345	38.029
846.174	28.564
850.001	85.079
853.827	181.112
857.651	234.672
861.473	83.188
865.293	53.343
869.112	15.023
872.928	4.851
876.744	66.129
880.557	62.992
884.369	46.602
888.178	33.001
891.987	11.755
895.793	82.417
899.598	81.47
903.401	117.415
907.202	22.295
911.001	75.857
914.799	6.874
918.595	108.585
922.389	38.176
926.182	210.738
929.972	180.317
933.761	189.906
937.549	114.505
941.334	334.142
945.118	540.791
948.9	870.458
952.681	893.146
956.459	898.854
960.236	966.599
964.012	1050.38
967.785	1150.18
971.557	1180.08
975.327	1107.06
979.095	1174.11
982.862	1159.26
986.627	1466.6
990.39	1612.24
994.152	1686.96
997.912	1541.98
1001.67	1546.25
1005.43	1309.01
1009.18	1236.5
1012.93	1256.06
1016.68	1218.6
1020.43	1324.87
1024.18	1243.49
1027.93	1070.38
1031.67	955.417
1035.42	883.554
1039.16	1019.84
1042.9	1208.25
1046.63	1241.5
1050.37	1161.14
1054.11	995.674
1057.84	817.959
1061.57	933.722
1065.3	940.469
1069.03	945.374
1072.75	1004.29
1076.47	1038.02
1080.2	1104.91
1083.92	1284.75
1087.64	1458.5
1091.36	1684.35
1095.07	1788.53
1098.79	1795.97
1102.5	1800.21
1106.21	1757.38
1109.92	1531.21
1113.62	1477.85
1117.33	1701.4
1121.04	1977.6
1124.74	1948.06
1128.44	1703.69
1132.14	1623.54
1135.83	1473.18
1139.53	1575.61
1143.22	1551.22
1146.92	1365.52
1150.61	1196.41
1154.3	961.776
1157.98	819.732
1161.67	471.282
1165.35	385.922
1169.04	350.914
1172.72	444.946
1176.4	446.234
1180.07	415.525
1183.75	243.656
1187.42	240.769
1191.1	63.783
1194.77	69
1198.44	43.623
1202.1	225.116
1205.77	346.824
1209.43	253.094
1213.1	211.349
1216.76	158.521
1220.42	0.652
1224.07	25.617
1227.73	80.147
1231.38	203.296
1235.04	279.637
1238.69	278.969
1242.34	348.815
1245.99	118.428
1249.63	188.236
1253.28	10.833
1256.92	82.966
1260.56	270.417
1264.2	258.973
1267.84	268.033
1271.48	369.141
1275.11	301.871
1278.74	143.12
1282.38	15.19
1286.01	16.482
1289.63	31.551
1293.26	146.897
1296.89	231.787
1300.51	224.423
1304.13	313.7
1307.75	245.5
1311.37	179.942
1314.99	16.031
1318.6	22.148
1322.22	3.375
1325.83	32.601
1329.44	176.518
1333.05	167.084
1336.66	221.754
1340.26	242.727
1343.87	171.296
1347.47	98.755
1351.07	3.712
1354.67	55.9
1358.27	73.74
1361.86	122.361
1365.46	243.07
1369.05	331.081
1372.64	265.292
1376.23	177.41
1379.82	231.563
1383.41	128.388
1386.99	17.554
1390.57	5.57
1394.16	145.087
1397.74	155.953
1401.32	339.406
1404.89	363
1408.47	419.209
1412.04	280.972
1415.61	264.303
1419.18	218.148
1422.75	192
1426.32	62.461
1429.89	43.063
1433.45	179.649
1437.01	240.829
1440.58	430.075
1444.13	507.902
1447.69	641.587
1451.25	582.958
1454.81	537.977
1458.36	293.062
1461.91	260.264
1465.46	235.564
1469.01	220.603
1472.56	136.754
1476.1	219.175
1479.64	274.673
1483.19	430.405
1486.73	437.968
1490.27	366.716
1493.81	436.074
1497.34	326.557
1500.88	199.1
1504.41	204.293
1507.94	0.143
1511.47	36.735
1515	53.859
1518.53	0.983
