Measurement: Raman, 514 nm, ccw, Raman Data Processed
Mineral: Orthoclase
Rruff sample: R040055
Ideal chemistry: KAlSi_3_O_8_
Locality: Madagascar
Source: Bob Downs
Description: Pale yellow fragments
Measured chemistry: Light: K_0.96_(Al_0.96_Si_0.03_Fe_0.02_)Si_3.00_O_8_; dark: (K_0.90_Na_0.02_)(Al_0.91_Si_0.08_Fe_0.02_)Si_3.00_O_8
Pin_id: L00390
Orientation: Laser parallel to a* (1 0 0). Fiducial mark perpendicular to laser is parallel to -b [0 -1 0]
Raman shift (cm-1)	intensity
100.227	0
104.416	325.8
108.603	1474.93
112.787	2904.52
116.97	5599.63
121.15	5913.03
125.328	3593.98
129.504	1896.98
133.678	1132.77
137.85	530.869
142.02	195.52
146.188	621.387
150.354	1857.18
154.517	2637.09
158.679	1979.21
162.839	1413.57
166.996	737.005
171.152	658.559
175.305	579.066
179.456	318.62
183.605	137.774
187.752	67.343
191.898	67.974
196.041	30.386
200.182	197.986
204.321	195.114
208.457	59.112
212.592	58.854
216.725	14.071
220.856	24.702
224.984	241.836
229.111	197.138
233.236	182.954
237.358	486.674
241.479	499.231
245.597	611.669
249.713	1133.47
253.828	1675.37
257.94	2447.37
262.05	3336.14
266.159	4324.31
270.265	4790.2
274.369	5220.33
278.471	6631.85
282.572	7473.6
286.67	6114.95
290.766	3775.68
294.86	2155.26
298.952	1413.52
303.042	750.705
307.13	426.996
311.216	212.396
315.3	175.593
319.382	275.614
323.462	26.605
327.54	89.631
331.616	106.772
335.69	7.101
339.762	8.711
343.832	35.721
347.9	149.561
351.965	163.984
356.029	273.646
360.091	360.758
364.151	644.857
368.209	414.657
372.265	262.42
376.319	106.184
380.371	241.249
384.421	162.033
388.469	241.688
392.515	475.365
396.559	1059.28
400.601	1483.18
404.641	1617.05
408.679	1210.9
412.715	564.738
416.749	228.564
420.781	67.662
424.811	64.027
428.839	389.442
432.866	722.746
436.89	1035.81
440.912	2008.59
444.932	4061.08
448.951	6773.29
452.967	8595.21
456.981	7926.86
460.994	6828.27
465.004	6149.43
469.013	6750.37
473.019	8750.82
477.024	9109.73
481.026	6877.3
485.027	5201.76
489.026	4290.85
493.023	4212.72
497.017	5170.4
501.01	8169.98
505.001	15278.9
508.99	30548.1
512.977	46668.6
516.962	35689.9
520.945	18028.4
524.927	9239.1
528.906	5748.25
532.883	4082.02
536.858	2734.35
540.832	2229.99
544.803	1639.09
548.773	1225.83
552.741	1287.27
556.706	1018.42
560.67	699.047
564.632	649.535
568.592	919.908
572.55	630.193
576.506	720.476
580.46	564.129
584.412	540.54
588.363	810.132
592.311	650.008
596.258	559.753
600.202	439.363
604.145	538.862
608.086	668.328
612.024	457.715
615.961	197.099
619.896	426.525
623.829	985.938
627.761	1055.26
631.69	654.466
635.617	173.575
639.543	462.607
643.466	611.683
647.388	790.847
651.308	710.1
655.226	269.382
659.142	338.712
663.056	258.048
666.968	357.431
670.879	196.689
674.787	164.258
678.694	95.836
682.598	171.844
686.501	1.174
690.402	95.012
694.301	219.578
698.198	54.842
702.093	319.34
705.987	413.068
709.878	76.592
713.768	359.959
717.656	733.191
721.542	776.291
725.426	1223.79
729.308	1247.48
733.188	1366.32
737.067	1848.97
740.943	2611.55
744.818	2998.63
748.691	2891.33
752.562	2623.57
756.431	2676.92
760.298	2816.12
764.163	2928.02
768.027	2730.67
771.888	2378.14
775.748	2072.72
779.606	2189.76
783.462	2361.6
787.317	2642.9
791.169	2563.99
795.019	3045.02
798.868	3485.95
802.715	3786.78
806.56	3927.52
810.403	3908.16
814.245	2928.71
818.084	1899.17
821.922	1029.26
825.758	773.672
829.592	527.77
833.424	243.459
837.254	181.791
841.082	29.971
844.909	401.135
848.734	371.807
852.557	247.561
856.378	325.605
860.197	449.965
864.015	259.174
867.831	419.393
871.645	389.674
875.457	260.018
879.267	19.648
883.075	279.314
886.882	180.699
890.687	220.779
894.49	202.355
898.291	181.268
902.09	161.705
905.888	232.369
909.683	3.242
913.477	254.184
917.269	275.213
921.06	76.225
924.848	272.826
928.635	142.105
932.42	138.613
936.203	369.492
939.984	360.521
943.764	391.713
947.541	413.088
951.317	744.65
955.091	826.398
958.864	1208.33
962.634	1160.46
966.403	1092.79
970.17	895.314
973.935	658.045
977.698	831.059
981.46	1214.38
985.22	1328.19
988.978	1442.47
992.734	1277.25
996.488	1132.76
1000.24	1528.69
1003.99	1755.11
1007.74	1451.97
1011.49	1479.22
1015.23	1266.74
1018.98	834.516
1022.72	882.498
1026.46	1150.69
1030.2	1203.73
1033.93	1267.4
1037.67	1215.16
1041.4	745.689
1045.13	713.135
1048.86	901.428
1052.59	1140.95
1056.32	1480.83
1060.04	945.078
1063.77	999.543
1067.49	801.295
1071.2	652.252
1074.92	727.02
1078.64	1193.82
1082.35	1687.49
1086.06	1880.64
1089.78	2064.14
1093.48	1547.93
1097.19	1372.99
1100.89	1478.09
1104.6	1673.04
1108.3	2298.17
1112	1982.84
1115.7	1658.9
1119.39	1604.19
1123.09	1139.41
1126.78	1424.75
1130.47	1460.22
1134.16	1796.52
1137.85	1893.88
1141.54	1980.79
1145.22	1848.47
1148.9	1084.95
1152.58	763.113
1156.26	490.646
1159.94	609.49
1163.62	820.561
1167.29	936.582
1170.96	702.832
1174.63	578.996
1178.3	135.391
1181.97	65.297
1185.63	35.656
1189.3	271.637
1192.96	3.092
1196.62	360.971
1200.28	335.541
1203.93	353.125
1207.59	9.598
1211.24	171.406
1214.89	209.758
1218.54	534.537
1222.19	713.053
1225.84	768.057
1229.48	929.93
1233.13	671.176
1236.77	532.85
1240.41	46.734
1244.05	69.961
1247.68	225.021
1251.32	828.289
1254.95	1002.12
1258.58	1195.66
1262.21	980.082
1265.84	872.193
1269.46	394.199
1273.09	445.832
1276.71	278.281
1280.33	489.623
1283.95	880.357
1287.57	1071
1291.18	959.898
1294.8	948.086
1298.41	615.668
1302.02	82.49
1305.63	28.477
1309.24	443.227
1312.84	577.209
1316.45	720.73
1320.05	913.699
1323.65	1185.76
1327.25	777.182
1330.85	497.094
1334.44	66.588
1338.04	241.951
1341.63	176.568
1345.22	171.293
1348.81	468.822
1352.4	730.713
1355.98	876.637
1359.57	631.391
1363.15	746.039
1366.73	259.246
1370.31	157.809
1373.89	346.477
1377.46	24.355
1381.04	277.383
1384.61	704.49
1388.18	897.881
1391.75	1061.64
1395.32	1193.79
1398.88	1046.8
1402.45	858.414
1406.01	326.873
1409.57	305.062
1413.13	330.762
1416.69	250.135
1420.24	588.678
1423.8	816.213
1427.35	1304.07
1430.9	1420.73
1434.45	1351.88
1438	1442.53
1441.55	1399.02
1445.09	1123.39
1448.63	907.234
1452.18	1153.54
1455.71	1194.01
1459.25	1477.96
1462.79	1536.09
1466.32	1562.51
1469.86	1689.98
1473.39	1740.14
1476.92	1408.88
1480.45	991.938
1483.97	744.621
1487.5	470.314
1491.02	1.4
1494.54	7
1498.06	247.043
1501.58	447.188
1505.1	652.73
1508.62	723.52
1512.13	835.994
1515.64	889.625
1519.15	921.756
1522.66	0
