Measurement: Raman, 514 nm, ccw, Raman Data Processed
Mineral: Orthoclase
Rruff sample: R040055
Ideal chemistry: KAlSi_3_O_8_
Locality: Madagascar
Source: Bob Downs
Description: Pale yellow fragments
Measured chemistry: Light: K_0.96_(Al_0.96_Si_0.03_Fe_0.02_)Si_3.00_O_8_; dark: (K_0.90_Na_0.02_)(Al_0.91_Si_0.08_Fe_0.02_)Si_3.00_O_8
Pin_id: M00411
Orientation: Laser parallel to -c* (0 0 -1). Fiducial mark perpendicular to laser is parallel to a [1 0 0]
Raman shift (cm-1)	intensity
98.251	0
102.428	13.594
106.604	887.813
110.777	2880.61
114.949	3348.73
119.119	4076.65
123.286	3194.61
127.452	1820.16
131.615	1911.77
135.777	2832.22
139.937	3592
144.094	3440.74
148.25	4928.66
152.403	7726.07
156.555	9160.32
160.705	7504.8
164.853	5067.5
168.998	4711.33
173.142	4914.83
177.284	4387.48
181.424	2819.73
185.562	1902.61
189.698	2343.25
193.831	4095.13
197.963	3807.34
202.093	1599.87
206.221	371.234
210.347	150.747
214.472	55.659
218.594	166.628
222.714	159.302
226.832	83.656
230.948	126.396
235.063	199.359
239.175	76.146
243.286	441.985
247.394	757.734
251.501	1116.34
255.605	2027.71
259.708	3146.47
263.808	4044.49
267.907	4995.12
272.004	6430.88
276.099	8280.16
280.192	9441.57
284.283	8604.22
288.372	6267.56
292.459	3581.29
296.544	1893.1
300.627	1012.61
304.709	547.781
308.788	353.602
312.865	46.082
316.941	73.202
321.015	110.827
325.086	24.874
329.156	105.649
333.224	59.008
337.29	49.969
341.354	10.575
345.416	23.613
349.476	8.882
353.534	172.925
357.591	206.716
361.645	138.25
365.698	272.607
369.748	218.852
373.797	103.826
377.844	10.335
381.889	58.47
385.932	174.367
389.973	187.154
394.012	325.167
398.049	779.131
402.084	1417.51
406.118	1362.38
410.15	582.928
414.179	258.254
418.207	118.339
422.233	65.065
426.257	54.178
430.279	236.969
434.299	719.5
438.318	1475.71
442.334	2477.57
446.349	4302.05
450.361	6566.13
454.372	6800.41
458.381	5703.69
462.388	4876.54
466.394	5779.02
470.397	8231.05
474.398	9742.27
478.398	7651.94
482.396	5664.98
486.391	4805.62
490.385	4413.56
494.377	4495.08
498.368	6482.96
502.356	11865.6
506.342	23502.3
510.327	39441.5
514.31	39300.9
518.291	22651.6
522.27	11876.5
526.247	6661.6
530.222	4053.31
534.196	2713.49
538.167	2303.53
542.137	1812.64
546.105	1241.9
550.071	942.94
554.035	855.057
557.998	913.75
561.958	784.035
565.917	661.086
569.874	645.914
573.829	970.501
577.782	1361.46
581.733	1023.34
585.683	747.654
589.63	587.356
593.576	762.882
597.52	527.187
601.462	389.302
605.402	408.266
609.341	352.034
613.277	478.642
617.212	334.062
621.145	238.267
625.076	439.249
629.006	482.006
632.933	514.542
636.859	357.884
640.783	204.101
644.705	231.328
648.625	390.61
652.543	454.927
656.46	260.252
660.375	25.4
664.288	2.139
668.199	191.023
672.108	148.02
676.016	63.638
679.921	145.106
683.825	157.229
687.727	13.743
691.628	152.394
695.526	90.879
699.423	15.269
703.318	168.05
707.211	180.194
711.102	508.948
714.992	523.404
718.879	475.947
722.765	696.787
726.649	1003.98
730.532	1347.44
734.412	1545.6
738.291	1971.41
742.168	2008.24
746.043	2388.34
749.916	2474.87
753.788	2388.12
757.658	2214.31
761.526	2201.01
765.392	2373.23
769.257	2622.24
773.119	2319
776.98	1855.12
780.839	1800.37
784.697	1975.48
788.552	2270.44
792.406	2715.16
796.258	2879.15
800.108	2793.67
803.957	3058.1
807.804	3352.39
811.649	3266.56
815.492	2346.78
819.333	1128.56
823.173	389.301
827.011	314.29
830.847	442.63
834.681	497.807
838.514	292.503
842.345	50.54
846.174	123.744
850.001	86.15
853.827	281.661
857.651	412.921
861.473	203.615
865.293	113.881
869.112	61.874
872.928	230.291
876.744	152.381
880.557	204.401
884.369	36.306
888.178	161.87
891.987	39.712
895.793	211.344
899.598	283.093
903.401	374.873
907.202	96.683
911.001	201.45
914.799	130.2
918.595	151.915
922.389	253.608
926.182	335.268
929.972	236.97
933.761	88.729
937.549	300.562
941.334	462.474
945.118	854.462
948.9	1046.54
952.681	1148.73
956.459	1031.01
960.236	1083.39
964.012	1365.87
967.785	1588.46
971.557	1671.31
975.327	1664.31
979.095	1527.51
982.862	1600.92
986.627	2074.59
990.39	2296.37
994.152	2390.55
997.912	2246.73
1001.67	2281.63
1005.43	2009.94
1009.18	1765.57
1012.93	1711.36
1016.68	1819.84
1020.43	1972.69
1024.18	1747.59
1027.93	1530.79
1031.67	1227.64
1035.42	1178.18
1039.16	1465.19
1042.9	1552.66
1046.63	1384.32
1050.37	1271.94
1054.11	960.709
1057.84	798.833
1061.57	797.114
1065.3	1060.23
1069.03	1251.45
1072.75	1217.18
1076.47	1165.73
1080.2	1195.75
1083.92	1375.93
1087.64	1656.43
1091.36	1916.38
1095.07	2266.74
1098.79	2148.62
1102.5	1989.88
1106.21	1890.58
1109.92	1732.06
1113.62	1623.27
1117.33	2072.27
1121.04	2553.58
1124.74	2574.89
1128.44	2286.09
1132.14	2087.46
1135.83	1888.88
1139.53	2000.88
1143.22	2006.15
1146.92	1948.63
1150.61	1720.95
1154.3	1359.77
1157.98	1101.33
1161.67	615.453
1165.35	701.495
1169.04	583.835
1172.72	718.57
1176.4	858.092
1180.07	721.148
1183.75	412.531
1187.42	318.93
1191.1	86.773
1194.77	229.387
1198.44	44.122
1202.1	468.734
1205.77	429.534
1209.43	439.719
1213.1	377.787
1216.76	267.77
1220.42	72.912
1224.07	8.167
1227.73	232.136
1231.38	525.499
1235.04	526.817
1238.69	525.1
1242.34	462.551
1245.99	200.301
1249.63	337.752
1253.28	25.226
1256.92	132.157
1260.56	289.888
1264.2	606.579
1267.84	442.548
1271.48	608.374
1275.11	433.641
1278.74	248.113
1282.38	62.208
1286.01	13.671
1289.63	79.499
1293.26	312.355
1296.89	554.246
1300.51	455.037
1304.13	595.203
1307.75	414.604
1311.37	193.456
1314.99	1.8
1318.6	70.371
1322.22	96.837
1325.83	103.504
1329.44	309.598
1333.05	445.049
1336.66	505.933
1340.26	457.114
1343.87	248.945
1347.47	153.728
1351.07	110.097
1354.67	76.837
1358.27	68.643
1361.86	254.503
1365.46	355.235
1369.05	606.11
1372.64	448.283
1376.23	359.817
1379.82	389.61
1383.41	327.023
1386.99	175.248
1390.57	193.744
1394.16	281.274
1397.74	567.927
1401.32	683.199
1404.89	753.166
1408.47	806.74
1412.04	777.16
1415.61	568.785
1419.18	364.633
1422.75	261.643
1426.32	117.764
1429.89	194.498
1433.45	206.637
1437.01	522
1440.58	947.516
1444.13	1019.07
1447.69	961.658
1451.25	991.381
1454.81	1048.55
1458.36	855.088
1461.91	445.869
1465.46	354.229
1469.01	364.979
1472.56	443.633
1476.1	512.824
1479.64	634.088
1483.19	850.004
1486.73	1057.39
1490.27	895.219
1493.81	725.213
1497.34	588.764
1500.88	526.893
1504.41	169.291
1507.94	12.232
1511.47	0.287
1515	1.359
