Measurement: Raman, 514 nm, ccw, Raman Data Processed
Mineral: Painite
Rruff sample: R060957
Ideal chemistry: CaZrAl_9_O_15_(BO_3_)
Locality: Ohngaing Village, Mogok, Burma
Source: Marcus Origlieri
Description: Single crystal, reddish-brown to orangish prism section, several prism forms, small transparent areas.
Pin_id: M01433
Orientation: Laser parallel to c* (0 0 1). Fiducial mark perpendicular to laser is parallel to a [1 0 0]
Raman shift (cm-1)	intensity
163.03	0
167.95	334.629
172.867	1938.89
177.781	6539.28
182.692	18905.1
187.6	4061.35
192.506	709.988
197.409	333.422
202.309	563.449
207.206	1786.47
212.101	2662.2
216.993	5438.73
221.882	9549.9
226.768	4851.42
231.652	1424.32
236.533	543.363
241.411	14.3828
246.286	228.121
251.159	218.457
256.028	124.609
260.895	716.266
265.76	265.262
270.621	198.457
275.48	142.941
280.336	452.414
285.189	1238.99
290.04	1195.52
294.887	1071.39
299.732	1569.19
304.575	3557.61
309.414	5701.81
314.251	3146.73
319.085	833.672
323.916	5.86328
328.745	217.207
333.571	134.246
338.394	214.481
343.214	1383.26
348.032	3218.63
352.847	5132.38
357.659	2274.49
362.468	619.469
367.275	466.894
372.079	1081.06
376.88	3084.97
381.679	6589.61
386.475	4408.07
391.268	4103.57
396.058	9237.91
400.846	13407.3
405.631	5168.71
410.413	2422.32
415.192	836.352
419.969	201.769
424.743	345.301
429.515	928.676
434.283	5051.63
439.049	6912.26
443.813	2328.3
448.573	2306.32
453.331	2029.25
458.086	3942.85
462.838	10338
467.588	22282.6
472.335	15676.5
477.08	8900.08
481.821	5105.02
486.56	2302.4
491.296	2109.57
496.03	1607.59
500.761	739.602
505.489	1216.64
510.214	2528.72
514.937	2445.83
519.657	2352.95
524.375	4816.09
529.089	9395.31
533.801	12260.9
538.511	17957.7
543.218	13020.4
547.922	4721.92
552.623	1731.77
557.321	645.562
562.017	1139.06
566.711	3354.92
571.401	7471.54
576.089	9333.5
580.775	6968.91
585.457	8138.78
590.137	12729.1
594.814	9701.73
599.489	4561.77
604.161	1500.14
608.83	1491.84
613.497	3070.16
618.161	6428.32
622.822	6578.02
627.481	3419.96
632.137	1868.11
636.79	1587.45
641.441	2275.95
646.089	4856.66
650.734	7539.61
655.377	7246.8
660.017	3967.28
664.654	1474
669.289	197.93
673.921	403.508
678.551	523.676
683.177	595.856
687.802	245.309
692.423	393.738
697.042	1023.92
701.658	2566.74
706.272	4106.5
710.883	6418.05
715.491	11131
720.097	14599.5
724.7	11055.1
729.301	6836.11
733.898	4738.4
738.494	4409.94
743.086	4663.67
747.676	4202.69
752.263	4798.33
756.848	5263.57
761.43	6022.46
766.01	7391.65
770.586	9215.94
775.161	11461
779.732	14629.9
784.301	20023.5
788.868	26204.6
793.431	28413.4
797.992	25644.7
802.551	21582.3
807.107	18153.6
811.66	15266.7
816.211	12712.5
820.759	9550.36
825.304	6580.71
829.847	5052.02
834.388	4315.43
838.925	4632.65
843.46	4994.02
847.993	4521.91
852.523	3870.3
857.05	3141.17
861.575	2184.47
866.097	1829.2
870.616	1079.32
875.133	745.846
879.647	441.756
884.159	516.996
888.668	453.227
893.175	451.973
897.679	327.103
902.18	394.85
906.679	187.113
911.175	481.231
915.669	315.332
920.16	233.228
924.648	144.807
929.134	7.17773
933.617	120.686
938.098	212.041
942.576	70.8769
947.052	101.832
951.525	174.062
955.995	82.9121
960.463	67.8457
964.928	9.58594
969.391	146.44
973.851	920.316
978.309	1731.15
982.764	4833.93
987.216	13821.7
991.666	17834.4
996.114	6456.12
1000.56	2221.09
1005	829.09
1009.44	525.057
1013.88	239.982
1018.31	93.5215
1022.74	197.826
1027.17	34.8418
1031.6	193.863
1036.03	308.697
1040.45	621.883
1044.87	1181.81
1049.28	1488.56
1053.7	1256.81
1058.11	1293.95
1062.52	1675.99
1066.92	1525.3
1071.33	1639.75
1075.73	1425.44
1080.13	1484.08
1084.53	1357.19
1088.92	1330.85
1093.31	1350.46
1097.7	1414.83
1102.09	1202.34
1106.47	1470.64
1110.85	1371.41
1115.23	1153.68
1119.61	1395.18
1123.98	1135.6
1128.35	1271.63
1132.72	960.609
1137.08	1243.1
1141.45	1041.02
1145.81	958.51
1150.17	1028.48
1154.52	875.672
1158.88	703.258
1163.23	889.766
1167.58	661.412
1171.92	570.396
1176.27	693.918
1180.61	384.482
1184.94	366.231
1189.28	372.25
1193.61	470.857
1197.94	321.955
1202.27	335.494
1206.6	374.553
1210.92	540.482
1215.24	162.08
1219.56	265.299
1223.88	303.289
1228.19	132.795
1232.5	135.643
1236.81	181.859
1241.12	134.361
1245.42	3.89453
1249.72	6.92383
1254.02	57.2891
1258.31	72.3574
1262.61	19.6973
1266.9	187.994
1271.19	42.0293
1275.47	103.519
1279.76	335.043
1284.04	449.723
1288.32	583.236
1292.59	798.578
1296.87	1013.69
1301.14	1301.16
1305.4	1799.5
1309.67	2374.61
1313.93	3783.93
1318.2	4685.98
1322.45	3402.32
1326.71	2583.78
1330.96	1949.58
1335.22	1187.72
1339.46	1120.19
1343.71	680.971
1347.95	642.055
1352.2	874.438
1356.44	704.047
1360.67	832.59
1364.91	730.174
1369.14	709.144
1373.37	533.604
1377.59	625.17
1381.82	85.2148
1386.04	992.338
1390.26	790.082
1394.48	75.4727
1398.69	42.082
1402.9	191.768
1407.11	210.529
1411.32	174.094
1415.52	288.619
1419.72	280.033
1423.92	247.445
1428.12	380.227
1432.32	39.9004
1436.51	139.164
1440.7	22.457
1444.89	152.467
1449.07	104.5
1453.25	140.785
1457.43	107.301
1461.61	214.022
1465.79	515.756
1469.96	466.307
1474.13	437.144
1478.3	242.201
1482.46	128.621
1486.63	112.674
1490.79	301.906
1494.95	147.234
1499.1	53.416
1503.26	198.565
1507.41	260.438
1511.56	233.262
1515.7	439.242
1519.85	150.107
1523.99	310.527
1528.13	241.17
1532.26	124.309
1536.4	253.775
1540.53	202.787
1544.66	108.158
1548.79	71.3008
1552.91	67.5059
1557.03	89.418
1561.15	360.603
