Measurement: Raman, 514 nm, ccw, Raman Data Processed
Mineral: Painite
Rruff sample: R060957
Ideal chemistry: CaZrAl_9_O_15_(BO_3_)
Locality: Ohngaing Village, Mogok, Burma
Source: Marcus Origlieri
Description: Single crystal, reddish-brown to orangish prism section, several prism forms, small transparent areas.
Pin_id: M01433
Orientation: Laser parallel to c* (0 0 1). Fiducial mark perpendicular to laser is parallel to a [1 0 0]
Raman shift (cm-1)	intensity
163.03	0
167.95	260.285
172.867	2280.03
177.781	6682.58
182.692	17021.2
187.6	3805.77
192.506	532.854
197.409	161.363
202.309	637.102
207.206	1630.49
212.101	2688.27
216.993	5574.26
221.882	8517.43
226.768	3579.5
231.652	1149.63
236.533	192.047
241.411	18.2598
246.286	4.58203
251.159	387.498
256.028	123.408
260.895	942.205
265.76	499.551
270.621	527.736
275.48	329.768
280.336	592.467
285.189	886.037
290.04	639.223
294.887	824.852
299.732	1307.47
304.575	3087.47
309.414	4066.94
314.251	2535.21
319.085	541.49
323.916	16.959
328.745	112.393
333.571	24.6602
338.394	647.889
343.214	1624.32
348.032	3412.15
352.847	4571.7
357.659	2062.2
362.468	508.344
367.275	525.871
372.079	1363.92
376.88	2604.47
381.679	4717.48
386.475	3739.69
391.268	4415.45
396.058	9620.67
400.846	12329.7
405.631	4588.52
410.413	2125.05
415.192	312.338
419.969	194.281
424.743	238.435
429.515	934.553
434.283	5042.21
439.049	5706.99
443.813	2048.78
448.573	1699.28
453.331	1837.43
458.086	4225.99
462.838	10658.8
467.588	20766.9
472.335	13990.5
477.08	8346.38
481.821	4404.23
486.56	2024
491.296	1617.31
496.03	1047.23
500.761	492.883
505.489	1342.32
510.214	1857.53
514.937	1888.53
519.657	2369.29
524.375	4672.84
529.089	7846.28
533.801	10873.1
538.511	16855.4
543.218	11573.8
547.922	4142.66
552.623	1458.34
557.321	705.15
562.017	983.521
566.711	2761.49
571.401	6953.21
576.089	7652.81
580.775	5667.81
585.457	7287.21
590.137	10890
594.814	7912.13
599.489	3495.61
604.161	1401.4
608.83	1318.49
613.497	2477.03
618.161	5364.21
622.822	4873.74
627.481	2308.52
632.137	1171.53
636.79	1421.74
641.441	2497.14
646.089	4815.74
650.734	7552.62
655.377	6744.74
660.017	3410.29
664.654	1408.22
669.289	169.516
673.921	494.213
678.551	321.699
683.177	405.463
687.802	196.787
692.423	215.414
697.042	921.279
701.658	2114.92
706.272	3549.83
710.883	6082.63
715.491	10500.9
720.097	13500.7
724.7	9567.93
729.301	5455.53
733.898	3560.49
738.494	2939.77
743.086	3036.35
747.676	3081.26
752.263	3461.56
756.848	3983.39
761.43	4494.85
766.01	5658.91
770.586	6809.21
775.161	8583.86
779.732	10856.4
784.301	15449.8
788.868	19567.2
793.431	20868.5
797.992	18662.2
802.551	16613.6
807.107	13865.6
811.66	11507.9
816.211	9590.27
820.759	6900.2
825.304	4957.41
829.847	3709.76
834.388	3444.81
838.925	3514.38
843.46	3699.88
847.993	3690.85
852.523	2965.28
857.05	2186.14
861.575	1503.39
866.097	1102.02
870.616	876.994
875.133	745.291
879.647	578.654
884.159	429.205
888.668	324.389
893.175	350.416
897.679	442.922
902.18	379.797
906.679	94.8496
911.175	120.477
915.669	254.074
920.16	108.475
924.648	19.4922
929.134	81.8965
933.617	178.731
938.098	79.3086
942.576	43.3906
947.052	62.1289
951.525	107.299
955.995	60.875
960.463	65.7793
964.928	70.3477
969.391	286.148
973.851	779.799
978.309	1611.42
982.764	4183.05
987.216	11073.7
991.666	12826.4
996.114	4537
1000.56	1440.74
1005	730.459
1009.44	477.178
1013.88	99.8516
1018.31	53.2559
1022.74	200.272
1027.17	61.416
1031.6	242.648
1036.03	27.791
1040.45	523.377
1044.87	841.652
1049.28	1124.69
1053.7	1122.91
1058.11	1260.17
1062.52	1284.37
1066.92	1214.32
1071.33	1331.89
1075.73	1219.93
1080.13	1146.24
1084.53	1074.52
1088.92	1100.37
1093.31	980.894
1097.7	1219.74
1102.09	1023.46
1106.47	1017.3
1110.85	938.15
1115.23	917.797
1119.61	951.113
1123.98	892.211
1128.35	955.322
1132.72	742.354
1137.08	780.799
1141.45	770.527
1145.81	878.773
1150.17	806.125
1154.52	749.193
1158.88	531.416
1163.23	637.279
1167.58	798.967
1171.92	400.809
1176.27	407.227
1180.61	399.717
1184.94	533.064
1189.28	210.357
1193.61	430.631
1197.94	362.469
1202.27	161.744
1206.6	235.684
1210.92	406.342
1215.24	344.766
1219.56	159.102
1223.88	399.078
1228.19	81.5762
1232.5	1.4668
1236.81	60.2734
1241.12	109.811
1245.42	14.8281
1249.72	143.606
1254.02	167.652
1258.31	77.8184
1262.61	147.81
1266.9	61.2559
1271.19	139.629
1275.47	274.32
1279.76	375.176
1284.04	573.748
1288.32	674.789
1292.59	566.547
1296.87	1022.44
1301.14	1473.36
1305.4	1589.18
1309.67	2083.39
1313.93	3253.39
1318.2	4307.5
1322.45	3027.65
1326.71	2423.13
1330.96	1687.94
1335.22	1104.07
1339.46	849.514
1343.71	630.254
1347.95	670.283
1352.2	631.471
1356.44	963.848
1360.67	845.219
1364.91	795.729
1369.14	807.523
1373.37	530.008
1377.59	440.637
1381.82	349.051
1386.04	114.666
1390.26	49.207
1394.48	136.807
1398.69	87.7422
1402.9	92.1289
1407.11	148.596
1411.32	332.643
1415.52	178.685
1419.72	46.9883
1423.92	196.912
1428.12	172.385
1432.32	83.6523
1436.51	113.775
1440.7	9.57422
1444.89	110.277
1449.07	133.283
1453.25	280.562
1457.43	79.1016
1461.61	301.859
1465.79	276.49
1469.96	338.35
1474.13	289.537
1478.3	308.553
1482.46	156.543
1486.63	110.555
1490.79	164.086
1494.95	71.4277
1499.1	158.736
1503.26	123.732
1507.41	249.096
1511.56	245.209
1515.7	26.9395
1519.85	127.32
1523.99	95.7481
1528.13	302.199
1532.26	376.285
1536.4	410.566
1540.53	163.664
1544.66	197.5
1548.79	212.699
1552.91	324.422
1557.03	178.537
1561.15	158.996
