Measurement: Raman, 514 nm, ccw, Raman Data Processed
Mineral: Painite
Rruff sample: R060957
Ideal chemistry: CaZrAl_9_O_15_(BO_3_)
Locality: Ohngaing Village, Mogok, Burma
Source: Marcus Origlieri
Description: Single crystal, reddish-brown to orangish prism section, several prism forms, small transparent areas.
Pin_id: M01225
Orientation: Laser parallel to -a* (-1 0 0). Fiducial mark perpendicular to laser is parallel to c [0 0 1]
Raman shift (cm-1)	intensity
163.03	0
167.95	346.835
172.867	2007.11
177.781	4242.08
182.692	8507.93
187.6	3055.05
192.506	326.295
197.409	178.915
202.309	239.403
207.206	697.36
212.101	1803.98
216.993	3859.64
221.882	5932.16
226.768	3720.24
231.652	1197.88
236.533	413.164
241.411	9.15723
246.286	21.5537
251.159	87.1231
256.028	85.6856
260.895	245.465
265.76	202.966
270.621	217.899
275.48	15.3447
280.336	337.703
285.189	604.278
290.04	502.762
294.887	613.352
299.732	1279.53
304.575	2342.85
309.414	3376.93
314.251	1833.89
319.085	554.436
323.916	76.0068
328.745	5.96777
333.571	36.25
338.394	255.538
343.214	1066.34
348.032	2101.57
352.847	2865.87
357.659	1517.3
362.468	550.253
367.275	777.063
372.079	1158.76
376.88	2080.33
381.679	3286.71
386.475	2482.8
391.268	2976.13
396.058	5439.05
400.846	6961.78
405.631	2603.54
410.413	655.945
415.192	37.3047
419.969	191.993
424.743	354.272
429.515	534.883
434.283	1728.98
439.049	2582.47
443.813	1503.33
448.573	1980.15
453.331	1635.92
458.086	2439.51
462.838	5448.85
467.588	9782.95
472.335	7510.61
477.08	4886.7
481.821	2914.22
486.56	1430.62
491.296	1082.92
496.03	808.128
500.761	304.321
505.489	224.523
510.214	391.731
514.937	648.946
519.657	1328.17
524.375	2901.53
529.089	5177.65
533.801	7115.29
538.511	9785.63
543.218	7420.63
547.922	3028.14
552.623	1034.9
557.321	649.678
562.017	837.76
566.711	1731.43
571.401	3144.61
576.089	3648.66
580.775	3419.52
585.457	4919.18
590.137	6875.63
594.814	5499.86
599.489	2574.87
604.161	1167.63
608.83	752.141
613.497	1023.45
618.161	1905.54
622.822	1984.34
627.481	1304.85
632.137	801.046
636.79	933.954
641.441	1703.56
646.089	3041.88
650.734	4377.08
655.377	4159.02
660.017	2202.75
664.654	826.491
669.289	470.231
673.921	86.2129
678.551	331.803
683.177	335.009
687.802	219.644
692.423	8.90332
697.042	389.633
701.658	967.838
706.272	1866.93
710.883	3432.65
715.491	6103.64
720.097	7845.9
724.7	6197.38
729.301	3657.09
733.898	2361.98
738.494	2216.05
743.086	2155.27
747.676	2576.61
752.263	2891.07
756.848	3246.64
761.43	3859.31
766.01	4910.28
770.586	6091.46
775.161	7416.15
779.732	10245.6
784.301	14244.6
788.868	18545.2
793.431	19567.1
797.992	17353
802.551	14228.3
807.107	11817.4
811.66	9728.43
816.211	8074.66
820.759	6106.39
825.304	4172.12
829.847	3090.47
834.388	2898.24
838.925	2795.47
843.46	3004.43
847.993	2921.1
852.523	2481.46
857.05	1849.5
861.575	1360.2
866.097	929.548
870.616	659.538
875.133	525.158
879.647	304.914
884.159	380.237
888.668	202.476
893.175	227.379
897.679	149.097
902.18	125.484
906.679	99.3213
911.175	84.5088
915.669	9.97266
920.16	13.2119
924.648	53.5596
929.134	22.5781
933.617	74.4746
938.098	81.999
942.576	3.92676
947.052	20.873
951.525	39.2471
955.995	28.4502
960.463	87.1436
964.928	127.564
969.391	429.526
973.851	770.006
978.309	1487.03
982.764	4447.58
987.216	10398.6
991.666	11612.2
996.114	4739.37
1000.56	1662.11
1005	776.474
1009.44	518.4
1013.88	258.886
1018.31	279.912
1022.74	131.473
1027.17	132.519
1031.6	209.002
1036.03	109.758
1040.45	247.674
1044.87	362.682
1049.28	443.86
1053.7	615.661
1058.11	448.997
1062.52	469.443
1066.92	518.137
1071.33	563.463
1075.73	323.93
1080.13	477.64
1084.53	354.679
1088.92	440.422
1093.31	397.358
1097.7	278.41
1102.09	363.711
1106.47	359.151
1110.85	385.713
1115.23	278.024
1119.61	262.641
1123.98	307.277
1128.35	240.127
1132.72	346.788
1137.08	338.483
1141.45	213.095
1145.81	329.326
1150.17	255.078
1154.52	247.611
1158.88	313.324
1163.23	189.043
1167.58	165.852
1171.92	80.5732
1176.27	236.001
1180.61	251.586
1184.94	112.358
1189.28	215.355
1193.61	25.501
1197.94	153.017
1202.27	75.1201
1206.6	22.665
1210.92	79.5
1215.24	53.7236
1219.56	130.237
1223.88	15.0293
1228.19	57.9629
1232.5	66.9121
1236.81	18.1113
1241.12	47.8691
1245.42	20.9443
1249.72	67.0977
1254.02	87.3125
1258.31	53.5254
1262.61	124.394
1266.9	11.6025
1271.19	88.6894
1275.47	79.8897
1279.76	154.094
1284.04	330.232
1288.32	341.116
1292.59	489.885
1296.87	641.436
1301.14	804.496
1305.4	834.564
1309.67	1057.84
1313.93	1884.29
1318.2	2191.77
1322.45	1569.75
1326.71	1137.57
1330.96	945.356
1335.22	777.23
1339.46	473.188
1343.71	487.229
1347.95	386.915
1352.2	248.115
1356.44	483.368
1360.67	395.543
1364.91	434.102
1369.14	496.293
1373.37	334.563
1377.59	270.33
1381.82	177.862
1386.04	138.739
1390.26	185.662
1394.48	87.8701
1398.69	13.0488
1402.9	32.666
1407.11	91.6064
1411.32	59.6728
1415.52	141.949
1419.72	53.1309
1423.92	30.3154
1428.12	14.0859
1432.32	123.263
1436.51	70.1846
1440.7	111.21
1444.89	10.5459
1449.07	14.8467
1453.25	72.1982
1457.43	102.677
1461.61	97.3174
1465.79	272.154
1469.96	307.07
1474.13	236.149
1478.3	151.744
1482.46	223.71
1486.63	130.799
1490.79	155.907
1494.95	77.0205
1499.1	65.8096
1503.26	60.2022
1507.41	143.619
1511.56	110.57
1515.7	131.913
1519.85	113.411
1523.99	106.406
1528.13	125.592
1532.26	86.4951
1536.4	218.745
1540.53	210.185
1544.66	215.897
1548.79	107.848
1552.91	259.304
1557.03	61.4707
1561.15	31.9102
