Measurement: Raman, 514 nm, ccw, Raman Data Processed
Mineral: Painite
Rruff sample: R060957
Ideal chemistry: CaZrAl_9_O_15_(BO_3_)
Locality: Ohngaing Village, Mogok, Burma
Source: Marcus Origlieri
Description: Single crystal, reddish-brown to orangish prism section, several prism forms, small transparent areas.
Pin_id: M01225
Orientation: Laser parallel to -a* (-1 0 0). Fiducial mark perpendicular to laser is parallel to c [0 0 1]
Raman shift (cm-1)	intensity
163.03	0
167.95	133.176
172.867	562.336
177.781	1172.21
182.692	2073.54
187.6	732.256
192.506	136.322
197.409	445.735
202.309	891.171
207.206	1756.61
212.101	1961.01
216.993	2983.47
221.882	5042.73
226.768	4255.94
231.652	1644.96
236.533	496.69
241.411	162.731
246.286	80.7383
251.159	10.5918
256.028	102.916
260.895	383.708
265.76	220.917
270.621	283.505
275.48	527.986
280.336	777.535
285.189	996.943
290.04	842.258
294.887	532.726
299.732	804.386
304.575	938.269
309.414	1036.54
314.251	418.909
319.085	50.5762
323.916	105.546
328.745	145.717
333.571	133.603
338.394	150.348
343.214	214.393
348.032	380.166
352.847	592.775
357.659	231.238
362.468	173.799
367.275	414.803
372.079	1070.34
376.88	2877.48
381.679	4422.26
386.475	2654.87
391.268	1482.39
396.058	2230.12
400.846	3155.51
405.631	2926.39
410.413	2844.99
415.192	8606.29
419.969	54.5508
424.743	376.791
429.515	2322.03
434.283	5100.28
439.049	5242.53
443.813	2961.78
448.573	2671.02
453.331	2104.24
458.086	3283.34
462.838	7273.85
467.588	11233.5
472.335	6499.36
477.08	2362.34
481.821	1812.45
486.56	1940.18
491.296	2773.63
496.03	2451.1
500.761	2110.63
505.489	3131.91
510.214	4179.94
514.937	4033.44
519.657	4616.36
524.375	7875.44
529.089	9795.16
533.801	7498.14
538.511	4848.87
543.218	2955.14
547.922	1282.38
552.623	546.568
557.321	401.731
562.017	1063.85
566.711	2836.93
571.401	6007.94
576.089	6677.88
580.775	3790.74
585.457	2954.5
590.137	3429.15
594.814	2452.67
599.489	1301.05
604.161	1141.31
608.83	1839.7
613.497	4767.48
618.161	8300.93
622.822	7928.84
627.481	4462.94
632.137	1993.89
636.79	914.609
641.441	726.076
646.089	837.41
650.734	914.623
655.377	837.766
660.017	249.779
664.654	15.4199
669.289	356.203
673.921	285.242
678.551	504.269
683.177	22.8477
687.802	541.854
692.423	1517.6
697.042	1849.93
701.658	2103.68
706.272	2351.81
710.883	1976.3
715.491	2094.12
720.097	2602.25
724.7	1990.67
729.301	1145.34
733.898	1164.25
738.494	1064.81
743.086	1214.53
747.676	1400.74
752.263	1505.31
756.848	1668.73
761.43	1828.31
766.01	2442.73
770.586	3258.89
775.161	3929.29
779.732	4711.75
784.301	5698.12
788.868	6984.52
793.431	7359.23
797.992	6634.6
802.551	5653.38
807.107	4739.28
811.66	4052.31
816.211	3543.89
820.759	2422.91
825.304	1821.62
829.847	1292.82
834.388	1436.19
838.925	1455.85
843.46	1514.08
847.993	1552.98
852.523	1132.52
857.05	672.688
861.575	453.467
866.097	348.846
870.616	316.804
875.133	101.893
879.647	24.0996
884.159	187.08
888.668	16.6133
893.175	141.454
897.679	127.648
902.18	121.335
906.679	290.679
911.175	184.428
915.669	80.4453
920.16	16.665
924.648	108.84
929.134	80.1113
933.617	46.8877
938.098	8.19336
942.576	3.87012
947.052	112.926
951.525	181.843
955.995	103.848
960.463	52.4004
964.928	70.5488
969.391	170.876
973.851	232.59
978.309	496.712
982.764	1535.24
987.216	3936.25
991.666	4226.67
996.114	1664.53
1000.56	622.865
1005	224.624
1009.44	313.809
1013.88	120.028
1018.31	58.8857
1022.74	46.7363
1027.17	60.8242
1031.6	39.5986
1036.03	274.93
1040.45	491.097
1044.87	800.477
1049.28	814.059
1053.7	969.354
1058.11	787.029
1062.52	688.074
1066.92	779.608
1071.33	757.97
1075.73	804.035
1080.13	1031.07
1084.53	811.633
1088.92	715.85
1093.31	793.998
1097.7	720.535
1102.09	708.035
1106.47	708.894
1110.85	826.434
1115.23	778.67
1119.61	700.158
1123.98	569.312
1128.35	608.971
1132.72	660.119
1137.08	385.709
1141.45	412.94
1145.81	432.869
1150.17	575.031
1154.52	578.969
1158.88	482.312
1163.23	560.078
1167.58	323.965
1171.92	439.857
1176.27	553.883
1180.61	304.094
1184.94	381.664
1189.28	337.559
1193.61	214.926
1197.94	226.631
1202.27	309.898
1206.6	174.691
1210.92	266.897
1215.24	84.541
1219.56	300.531
1223.88	193.088
1228.19	263.137
1232.5	274.492
1236.81	26.8789
1241.12	187.998
1245.42	194.103
1249.72	41.5996
1254.02	24.9941
1258.31	164.799
1262.61	97.5586
1266.9	114.193
1271.19	11.1895
1275.47	176.238
1279.76	23.1758
1284.04	324.26
1288.32	416.543
1292.59	184.596
1296.87	318.199
1301.14	491.805
1305.4	476.879
1309.67	500.328
1313.93	737.088
1318.2	685.146
1322.45	504.508
1326.71	466.498
1330.96	194.449
1335.22	375.693
1339.46	271.225
1343.71	320.043
1347.95	214.998
1352.2	218.426
1356.44	231.246
1360.67	264.117
1364.91	299.688
1369.14	153.135
1373.37	189.482
1377.59	23.373
1381.82	135.039
1386.04	36.293
1390.26	74.4023
1394.48	32.5898
1398.69	129.559
1402.9	3.08203
1407.11	167.996
1411.32	58.2207
1415.52	35.752
1419.72	61.0117
1423.92	59.3828
1428.12	26.5977
1432.32	252.603
1436.51	229.459
1440.7	62.4961
1444.89	290.426
1449.07	126.633
1453.25	161.154
1457.43	391.982
1461.61	146.117
1465.79	230.545
1469.96	244.397
1474.13	305.231
1478.3	32.8535
1482.46	197.26
1486.63	22.5254
1490.79	195.935
1494.95	111.781
1499.1	16.1035
1503.26	5.98633
1507.41	261.326
1511.56	132.481
1515.7	38.6035
1519.85	86.7383
1523.99	192.549
1528.13	44.9766
1532.26	221.994
1536.4	131.221
1540.53	193.293
1544.66	282.519
1548.79	230.699
1552.91	397.887
1557.03	313.441
1561.15	97.0156
