Measurement: Raman, 514 nm, ccw, Raman Data Processed
Mineral: Painite
Rruff sample: R060957
Ideal chemistry: CaZrAl_9_O_15_(BO_3_)
Locality: Ohngaing Village, Mogok, Burma
Source: Marcus Origlieri
Description: Single crystal, reddish-brown to orangish prism section, several prism forms, small transparent areas.
Pin_id: M01225
Orientation: Laser parallel to -a* (-1 0 0). Fiducial mark perpendicular to laser is parallel to c [0 0 1]
Raman shift (cm-1)	intensity
171.638	0
176.552	152.389
181.464	149.342
186.373	133.551
191.28	124.881
196.183	213.768
201.084	568.281
205.982	838.525
210.878	1906.09
215.77	5107.31
220.66	10571
225.547	11992.2
230.431	5462.42
235.313	1787.11
240.192	651.221
245.068	153.941
249.941	18.7285
254.811	228.519
259.679	425.225
264.544	145.594
269.406	434.17
274.265	855.822
279.122	1459.54
283.976	2444.38
288.827	1786.69
293.676	879.75
298.521	653.43
303.364	1094.14
308.205	1170.54
313.042	449.129
317.877	159.705
322.709	27.9375
327.538	124.426
332.365	124.186
337.188	24.4004
342.009	109.965
346.828	231.748
351.643	168.424
356.456	151.846
361.266	540.402
366.074	898.344
370.878	2532.04
375.68	6784.67
380.479	12467.5
385.276	9281.41
390.07	2824.74
394.861	884.256
399.649	314.887
404.435	241.848
409.218	38.3926
413.998	100.644
418.775	82.9297
423.55	114.643
428.322	134.656
433.091	455.084
437.858	1506.76
442.622	3122.45
447.383	5779.81
452.142	3651.64
456.898	1275.01
461.651	1147.56
466.401	1461.66
471.149	1420.14
475.894	1364.75
480.636	2020.64
485.376	4426.05
490.113	7316.69
494.847	6726.88
499.578	3742.65
504.307	3012.04
509.033	3741.08
513.757	5556.56
518.478	10230.6
523.196	19648.4
527.911	28407
532.624	22522.4
537.334	11078.9
542.041	5407.14
546.746	2789.27
551.448	1521.17
556.147	897.049
560.844	609.732
565.538	467.748
570.229	742.891
574.918	1308.42
579.604	1444.9
584.287	2352.35
588.967	3829.79
593.645	3980.22
598.321	1994.65
602.993	1377.1
607.663	1516.78
612.33	2643.86
616.995	5212.6
621.657	8630.08
626.316	8998.77
630.973	5009.61
635.627	2195.78
640.278	864.062
644.927	355.529
649.573	201.195
654.216	100.074
658.857	174.197
663.495	128.391
668.131	377.986
672.763	169.312
677.393	251.969
682.021	610.574
686.646	1569.3
691.268	3497.28
695.888	3937.49
700.504	2582.82
705.119	1848.43
709.73	1264.43
714.339	1191.41
718.946	1082.21
723.55	1335.59
728.151	1378.23
732.749	1863.4
737.345	2101.3
741.938	2202.69
746.529	2322.22
751.117	1975.66
755.702	2089.01
760.285	2235.31
764.865	2496.97
769.442	2990.87
774.017	3656.19
778.59	3971.67
783.159	4461.99
787.726	5237.52
792.291	5592.23
796.852	5312.76
801.412	5066.82
805.968	4588.49
810.522	4635.61
815.073	4542.25
819.622	3496.52
824.168	2420.61
828.712	1674.18
833.253	1739.84
837.791	1852.87
842.327	2085.91
846.86	1903.73
851.39	1669.43
855.918	1162.97
860.444	711.346
864.966	230.51
869.487	351.449
874.004	309.129
878.519	71.5918
883.031	32.7422
887.541	99.8164
892.048	53.4277
896.553	87.1445
901.055	48.752
905.554	19.1328
910.051	108.559
914.545	67.6641
919.037	217.184
923.526	11.8164
928.013	57.2324
932.497	63.707
936.978	14.0762
941.457	32.4219
945.933	37.6934
950.407	99.9981
954.878	77.5293
959.346	40.1504
963.812	98.6152
968.276	353.494
972.736	252.514
977.195	249.764
981.65	812.375
986.103	1779.36
990.554	2704.71
995.002	1348.44
999.447	388.549
1003.89	219.045
1008.33	88.9316
1012.77	16.375
1017.2	8.50391
1021.64	136.402
1026.07	105.592
1030.49	177.059
1034.92	222.258
1039.34	551.842
1043.76	875.84
1048.18	966.201
1052.59	1196.64
1057.01	1235.04
1061.41	946.07
1065.82	1046.63
1070.23	1107.48
1074.63	1214.07
1079.03	1179.85
1083.43	1049.83
1087.82	1154.56
1092.21	1181.15
1096.6	945.068
1100.99	1191.84
1105.37	1025.49
1109.76	871.051
1114.13	999.686
1118.51	787.26
1122.88	910.828
1127.26	636.604
1131.63	737.24
1135.99	996.922
1140.36	903.137
1144.72	827.469
1149.08	778.129
1153.43	627.938
1157.79	574.113
1162.14	549.926
1166.49	386.516
1170.84	563.047
1175.18	625.01
1179.52	569.365
1183.86	617.213
1188.2	428.565
1192.53	248.426
1196.86	408.812
1201.19	196.213
1205.52	367.935
1209.84	243.164
1214.16	154.094
1218.48	142.791
1222.8	504.41
1227.11	365.606
1231.42	277.947
1235.73	249.481
1240.04	152.596
1244.34	107.648
1248.64	90.168
1252.94	160.133
1257.24	16.8027
1261.54	350.469
1265.83	204.182
1270.12	18.877
1274.4	266.965
1278.69	509.256
1282.97	317.281
1287.25	425.156
1291.52	210.815
1295.8	436.742
1300.07	223.912
1304.34	163.822
1308.61	233.555
1312.87	32.8125
1317.13	265.545
1321.39	320.203
1325.65	138.875
1329.9	87.0137
1334.15	129.566
1338.4	183.504
1342.65	175.769
1346.89	275.443
1351.14	52.5801
1355.38	30.6973
1359.61	78.3281
1363.85	102.344
1368.08	137.4
1372.31	116.719
1376.54	31.6055
1380.76	31.6621
1384.98	54.3828
1389.2	42.2441
1393.42	14.1016
1397.64	20.0098
1401.85	61.1602
1406.06	41.4102
1410.27	48.6895
1414.47	208.348
1418.67	264.443
1422.88	233.586
1427.07	390.17
1431.27	235.594
1435.46	298.31
1439.65	77.1504
1443.84	14.9551
1448.03	140.914
1452.21	265.672
1456.39	327.918
1460.57	324.303
1464.74	277.525
1468.92	418.635
1473.09	396.682
1477.26	268.824
1481.42	239.283
1485.59	110.279
1489.75	97.0547
1493.91	210.652
1498.06	66.8125
1502.22	233.185
1506.37	169.275
1510.52	29.6328
1514.67	50.9746
1518.81	44.2402
1522.95	176.381
1527.09	29.0645
1531.23	57.543
1535.36	107.566
1539.5	70.7734
1543.63	100.512
1547.75	269.881
1551.88	134.207
1556	141.246
1560.12	1.23438
