Measurement: Raman, 514 nm, ccw, Raman Data Processed
Mineral: Painite
Rruff sample: R060957
Ideal chemistry: CaZrAl_9_O_15_(BO_3_)
Locality: Ohngaing Village, Mogok, Burma
Source: Marcus Origlieri
Description: Single crystal, reddish-brown to orangish prism section, several prism forms, small transparent areas.
Pin_id: M01433
Orientation: Laser parallel to c* (0 0 1). Fiducial mark perpendicular to laser is parallel to a [1 0 0]
Raman shift (cm-1)	intensity
163.03	0
167.95	336.344
172.867	2186.22
177.781	7668.99
182.692	22460.1
187.6	4049.86
192.506	614.269
197.409	294.85
202.309	284.932
207.206	1053.09
212.101	2743.71
216.993	6815.53
221.882	11763.2
226.768	5083.1
231.652	1637.84
236.533	522.502
241.411	34.0137
246.286	2.08789
251.159	371.07
256.028	19.4316
260.895	807.949
265.76	637.982
270.621	357.67
275.48	399.932
280.336	478.512
285.189	938.398
290.04	882.856
294.887	785.996
299.732	1430.29
304.575	3385.71
309.414	4986.02
314.251	3714.69
319.085	1098.85
323.916	134.773
328.745	243.033
333.571	246.959
338.394	935.75
343.214	2049.42
348.032	4169.97
352.847	6035.12
357.659	3018.77
362.468	1011.3
367.275	993.275
372.079	1211.67
376.88	2638.42
381.679	4467.44
386.475	3384.86
391.268	4932.44
396.058	11502
400.846	15199.9
405.631	4934.66
410.413	1096.76
415.192	139.56
419.969	400.471
424.743	284.961
429.515	412.305
434.283	3831.99
439.049	4551.22
443.813	2071.97
448.573	2998.22
453.331	2343.93
458.086	3959.85
462.838	9870.81
467.588	20347.8
472.335	15163.7
477.08	9836.72
481.821	5538.2
486.56	2115.95
491.296	1623.1
496.03	1001.68
500.761	149.789
505.489	150.461
510.214	385.688
514.937	790.481
519.657	1682.83
524.375	3898.75
529.089	7724.43
533.801	12276.7
538.511	20567.3
543.218	15195.2
547.922	5497.34
552.623	2099.75
557.321	1119.89
562.017	1299.96
566.711	2533.1
571.401	5505.86
576.089	6064.24
580.775	5415.91
585.457	7961.9
590.137	12657.2
594.814	9732.77
599.489	4044.61
604.161	1666.7
608.83	681.035
613.497	916.672
618.161	1948.62
622.822	2215.78
627.481	1440.16
632.137	1007.74
636.79	1371.51
641.441	3067.49
646.089	5811.63
650.734	9487.05
655.377	8419.81
660.017	4546.05
664.654	1944.52
669.289	657.375
673.921	82.8184
678.551	393.428
683.177	414.408
687.802	346.766
692.423	64.8672
697.042	719.231
701.658	1546.64
706.272	3148.61
710.883	6663.73
715.491	12563.5
720.097	17041.8
724.7	12016.6
729.301	6581.92
733.898	4201.71
738.494	3649.94
743.086	3591.6
747.676	3659.3
752.263	3950.44
756.848	4373.06
761.43	4892.64
766.01	6129
770.586	7801.83
775.161	9335.76
779.732	12704.3
784.301	17460.5
788.868	22900.2
793.431	24696.8
797.992	22107.5
802.551	19369.3
807.107	16139.9
811.66	13231.9
816.211	11171.1
820.759	8172.56
825.304	5732.22
829.847	4445.79
834.388	3911.56
838.925	3970.99
843.46	4392.03
847.993	4098.65
852.523	3568.8
857.05	2803.45
861.575	2012.24
866.097	1590.16
870.616	1163.15
875.133	631.451
879.647	673.967
884.159	270.338
888.668	522.418
893.175	291.508
897.679	355.545
902.18	303.961
906.679	328.56
911.175	89.6152
915.669	152.602
920.16	62.4512
924.648	25.0547
929.134	88.0606
933.617	138.949
938.098	10.6406
942.576	100.307
947.052	52.8125
951.525	108.617
955.995	100.103
960.463	2.41797
964.928	28.3965
969.391	437.133
973.851	768.51
978.309	1624.79
982.764	4845.97
987.216	13061
991.666	15026
996.114	5346.95
1000.56	2240.87
1005	625.758
1009.44	343.572
1013.88	173.246
1018.31	46.6328
1022.74	85.8164
1027.17	12.3359
1031.6	65.1016
1036.03	284.981
1040.45	515.512
1044.87	998.736
1049.28	1239.44
1053.7	1347.42
1058.11	1369.52
1062.52	1414.86
1066.92	1469.96
1071.33	1599.82
1075.73	1461.68
1080.13	1450.76
1084.53	1410.1
1088.92	1217.36
1093.31	1239.07
1097.7	1335.02
1102.09	954.359
1106.47	1259.28
1110.85	1224.44
1115.23	1135.56
1119.61	949.967
1123.98	1238.63
1128.35	910.311
1132.72	1220.6
1137.08	1137.29
1141.45	752.342
1145.81	958.189
1150.17	849.979
1154.52	783.6
1158.88	601.754
1163.23	595.453
1167.58	652.328
1171.92	653.756
1176.27	722.031
1180.61	509.336
1184.94	471.822
1189.28	331.643
1193.61	943.99
1197.94	85.8926
1202.27	171.244
1206.6	334.852
1210.92	218.935
1215.24	40.8281
1219.56	92.4922
1223.88	31.0781
1228.19	95.4434
1232.5	46.2344
1236.81	212.277
1241.12	33.2832
1245.42	287.15
1249.72	233.041
1254.02	31.2012
1258.31	32.4824
1262.61	74.0215
1266.9	19.9453
1271.19	355.996
1275.47	139.58
1279.76	245.67
1284.04	366.315
1288.32	842.979
1292.59	1193.4
1296.87	977.389
1301.14	1686.04
1305.4	1687.05
1309.67	2386.57
1313.93	3938.99
1318.2	5457.33
1322.45	3855.79
1326.71	2468.27
1330.96	2049.43
1335.22	1455.95
1339.46	985.838
1343.71	670.068
1347.95	621.639
1352.2	546.203
1356.44	834.625
1360.67	818.894
1364.91	856.471
1369.14	721.523
1373.37	582.176
1377.59	345.148
1381.82	89.332
1386.04	105.502
1390.26	55.8789
1394.48	186.463
1398.69	133.828
1402.9	22.5215
1407.11	251.293
1411.32	287.861
1415.52	183.502
1419.72	49.6758
1423.92	186.82
1428.12	17.8613
1432.32	185.037
1436.51	78.6465
1440.7	47.3398
1444.89	9.55664
1449.07	22.543
1453.25	98.8418
1457.43	182.424
1461.61	255.275
1465.79	310.391
1469.96	483.685
1474.13	355.266
1478.3	292.562
1482.46	167.162
1486.63	191.238
1490.79	54.7012
1494.95	134.477
1499.1	209.588
1503.26	134.893
1507.41	224.789
1511.56	321.93
1515.7	250.457
1519.85	208.094
1523.99	260.457
1528.13	263.103
1532.26	299.066
1536.4	400.144
1540.53	135.486
1544.66	497.58
1548.79	167.385
1552.91	433.121
1557.03	159.445
1561.15	334.58
