Measurement: Raman, 514 nm, ccw, Raman Data Processed
Mineral: Paravauxite
Rruff sample: R040179
Ideal chemistry: Fe^2+^Al_2_(PO_4_)_2_(OH)_2_8H_2_O
Locality: Mina Siglo XX, Llallagua, Bolivia
Source: University of Arizona Mineral Museum
Description: Colorless short prismatic crystals in subparallel groups
Measured chemistry: (Fe_0.93_Mg_0.03_Mn_0.02_)Al_1.94_(P_2.05_O_4_)_2_((OH)_0.99_F_0.01_)_2_Â·8H_2_O
Pin_id: M00447
Orientation: Laser parallel to (1 1 0). Fiducial mark perpendicular to laser is parallel to -c [0 0 -1]
Raman shift (cm-1)	intensity
117.494	0
121.683	98.225
125.87	930.784
130.055	1833.82
134.237	2174.43
138.417	2052.01
142.596	1481.93
146.771	1016.15
150.945	584.921
155.117	117.34
159.286	45.782
163.453	67.447
167.618	81.628
171.781	168.86
175.941	283.083
180.1	362.092
184.256	387.061
188.41	505.806
192.562	421.627
196.711	933.898
200.859	931.944
205.004	858.614
209.147	1114.44
213.288	1379.53
217.427	1293.91
221.564	990.9
225.698	1203.24
229.83	1823.38
233.96	3072.06
238.088	3138.73
242.214	2223.76
246.338	1394.99
250.459	948.418
254.579	658.751
258.696	698.784
262.811	778.427
266.924	1187.64
271.035	1896.42
275.143	3124.78
279.25	5042.73
283.354	6333.25
287.456	4509.93
291.556	2917.73
295.654	2035.72
299.75	1453.6
303.843	1041.3
307.935	658.229
312.024	545.018
316.111	561.583
320.196	427.856
324.279	172.46
328.36	30.794
332.439	14.787
336.516	103.279
340.59	82.732
344.662	92.366
348.733	22.947
352.801	70.548
356.867	9.577
360.931	38.35
364.992	52.227
369.052	250.955
373.11	269.28
377.165	327.236
381.218	404.929
385.27	612.312
389.319	748.935
393.366	984.175
397.411	1468.17
401.454	2371.25
405.495	3103.57
409.533	2875.43
413.57	2287
417.604	2448.35
421.637	3369.48
425.667	5610.38
429.695	8961.06
433.721	11331.5
437.745	9191.77
441.767	5631.81
445.787	3351.62
449.805	2231.14
453.821	1530.32
457.834	1149.15
461.846	1017.64
465.856	905.784
469.863	1023.59
473.868	991.08
477.872	958.234
481.873	745.077
485.872	579.533
489.869	527.999
493.864	449.229
497.857	294.905
501.848	229.239
505.837	234.638
509.824	115.599
513.809	22.947
517.792	146.601
521.772	95.271
525.751	198.263
529.728	326.784
533.702	501.752
537.675	619.199
541.645	684.156
545.613	877.93
549.58	1061.53
553.544	1099.56
557.507	1532.2
561.467	2087.22
565.425	2709.25
569.381	3421.26
573.335	4133.39
577.288	4855.17
581.238	5246.54
585.186	5927.63
589.132	5918.55
593.076	5869.3
597.018	5839.88
600.958	5360.29
604.896	5020.54
608.832	4630.62
612.766	4070.63
616.698	3250.4
620.628	2680
624.556	1789.65
628.482	1380.46
632.405	980.161
636.327	830.859
640.247	610.024
644.165	720.503
648.081	660.46
651.995	579.298
655.907	461.002
659.817	310.236
663.725	348.299
667.63	200.116
671.534	174.046
675.436	96.125
679.336	15.73
683.234	56.842
687.13	74.855
691.024	194.439
694.916	51.902
698.806	114.17
702.694	22.363
706.58	70.805
710.464	178.673
714.346	22.979
718.226	214.53
722.105	121.877
725.981	173.939
729.855	261.05
733.727	118.041
737.597	214.923
741.466	241.7
745.332	248.375
749.196	304.953
753.059	311.436
756.919	257.828
760.778	234.133
764.634	250.351
768.489	206.484
772.341	222.535
776.192	88.51
780.041	54.407
783.887	21.281
787.732	75.91
791.575	21.519
795.416	57.026
799.255	102.438
803.092	42.252
806.927	67.111
810.76	2.223
814.591	132.51
818.421	257.197
822.248	61.673
826.073	66.054
829.897	249.688
833.718	21.249
837.538	135.437
841.356	3.938
845.171	43.462
848.985	32.925
852.797	172.248
856.607	84.461
860.415	117.204
864.221	4.557
868.025	25.674
871.828	58.916
875.628	107.957
879.426	85.16
883.223	87.896
887.018	60.703
890.81	63.973
894.601	257.26
898.39	170.566
902.177	273.994
905.962	147.471
909.745	351.002
913.526	314.621
917.306	378.283
921.083	471.93
924.859	495.732
928.632	479.52
932.404	883.105
936.174	525.449
939.942	779.191
943.708	821.398
947.472	1005.44
951.235	998.086
954.995	1327.67
958.754	1276.7
962.51	1875.55
966.265	1949.98
970.018	2544.48
973.769	3725.55
977.518	5280.78
981.265	8384.43
985.011	14839.3
988.754	24244.5
992.496	27877.7
996.236	20533
999.974	13552.8
1003.71	8282.78
1007.44	4719.17
1011.18	3145.33
1014.91	2021.97
1018.63	1558.29
1022.36	1125.34
1026.09	757.746
1029.81	715.137
1033.53	612.693
1037.25	280.416
1040.97	518.303
1044.68	476.354
1048.4	499.01
1052.11	721.777
1055.82	820.355
1059.53	954.609
1063.23	673.859
1066.94	423.02
1070.64	426.283
1074.34	335.867
1078.04	255.676
1081.74	165.717
1085.43	426.02
1089.12	386.365
1092.82	320.035
1096.51	446.875
1100.19	388
1103.88	358.324
1107.56	341.217
1111.25	312.346
1114.93	303.025
1118.61	243.232
1122.28	393.184
1125.96	23.137
1129.63	203.52
1133.3	64.227
1136.97	275.303
1140.64	226.936
1144.31	58.9
1147.97	191.18
1151.63	293.863
1155.29	446.908
1158.95	220.27
1162.61	623.777
1166.26	677.395
1169.92	611.168
1173.57	595.082
1177.22	539.273
1180.87	333.736
1184.51	108.488
1188.15	63.537
1191.8	118.803
1195.44	75.576
1199.08	50.498
1202.71	57.109
1206.35	104.275
1209.98	181.975
1213.61	49.793
1217.24	138.98
1220.87	88.352
1224.5	148.4
1228.12	259.205
1231.75	277.182
1235.37	307.812
1238.99	272.711
1242.6	268.066
1246.22	100.498
1249.83	20.264
1253.44	16.184
1257.05	296.758
1260.66	413.77
1264.27	136.037
1267.87	67.424
