Measurement: Raman, 514 nm, ccw, Raman Data Processed
Mineral: Paravauxite
Rruff sample: R040179
Ideal chemistry: Fe^2+^Al_2_(PO_4_)_2_(OH)_2_8H_2_O
Locality: Mina Siglo XX, Llallagua, Bolivia
Source: University of Arizona Mineral Museum
Description: Colorless short prismatic crystals in subparallel groups
Measured chemistry: (Fe_0.93_Mg_0.03_Mn_0.02_)Al_1.94_(P_2.05_O_4_)_2_((OH)_0.99_F_0.01_)_2_Â·8H_2_O
Pin_id: M00447
Orientation: Laser parallel to (1 1 0). Fiducial mark perpendicular to laser is parallel to -c [0 0 -1]
Raman shift (cm-1)	intensity
121.683	0
125.87	178.019
130.055	362.911
134.237	686.917
138.417	998.913
142.596	1187.03
146.771	902.988
150.945	455.011
155.117	64.125
159.286	140.134
163.453	1932.96
167.618	3598.99
171.781	2420.25
175.941	1507.21
180.1	1387.71
184.256	1285.98
188.41	1241.33
192.562	1202.7
196.711	2100.7
200.859	1515.76
205.004	570.249
209.147	348.849
213.288	218.348
217.427	110.042
221.564	47.932
225.698	26.496
229.83	789.115
233.96	1932.32
238.088	2177.67
242.214	1547.94
246.338	898.133
250.459	481.029
254.579	323.556
258.696	357.872
262.811	460.975
266.924	639.703
271.035	1275
275.143	2074.88
279.25	3694.33
283.354	5233.37
287.456	4702.83
291.556	4607.88
295.654	4785.72
299.75	4414.9
303.843	3204.82
307.935	2025.03
312.024	1285.39
316.111	765.741
320.196	471.936
324.279	141.248
328.36	67.828
332.439	9.056
336.516	12.65
340.59	75.18
344.662	136.635
348.733	120.224
352.801	92.9
356.867	35.548
360.931	52.916
364.992	207.077
369.052	326.645
373.11	338.916
377.165	471.833
381.218	668.376
385.27	897.062
389.319	1113.99
393.366	1072.54
397.411	1459.44
401.454	1854.59
405.495	2028.32
409.533	1841.28
413.57	1603.89
417.604	1616.22
421.637	1818.27
425.667	2240.04
429.695	3181.53
433.721	3892.74
437.745	3353.67
441.767	2284.33
445.787	1614.72
449.805	1334.84
453.821	1284.64
457.834	1424.07
461.846	1593.1
465.856	2081.75
469.863	2580.03
473.868	3007.95
477.872	3115.64
481.873	3012.71
485.872	2698.23
489.869	2389.79
493.864	2086.58
497.857	1825.44
501.848	1616.33
505.837	1425.02
509.824	1266.84
513.809	1067.44
517.792	1086.76
521.772	1103.77
525.751	1134.73
529.728	1506.7
533.702	1672.29
537.675	2139.97
541.645	2396.77
545.613	2649.43
549.58	2792.15
553.544	2706.61
557.507	3026.94
561.467	3142.29
565.425	3392.42
569.381	3471.88
573.335	3450.88
577.288	2899.68
581.238	2438.14
585.186	2126.39
589.132	1894.31
593.076	1561.97
597.018	1549.37
600.958	1346.51
604.896	1143.39
608.832	1010.2
612.766	927.109
616.698	663.234
620.628	551.143
624.556	318.384
628.482	251.142
632.405	297.123
636.327	315.857
640.247	275.121
644.165	282.132
648.081	379.107
651.995	237.622
655.907	127.057
659.817	77.155
663.725	42.395
667.63	87.366
671.534	2.5
675.436	7.56
679.336	107.574
683.234	3.096
687.13	79.048
691.024	74.394
694.916	12.512
698.806	10.244
702.694	2.773
706.58	5.101
710.464	167.21
714.346	30.872
718.226	40.775
722.105	122.264
725.981	183.621
729.855	244.861
733.727	115.986
737.597	67.006
741.466	127.923
745.332	318.744
749.196	289.476
753.059	210.124
756.919	90.694
760.778	1.194
764.634	8.378
768.489	81.97
772.341	22.265
776.192	37.528
780.041	117.429
783.887	7.587
787.732	7.768
791.575	101.749
795.416	81.332
799.255	69.618
803.092	100.254
806.927	158.993
810.76	127.433
814.591	234.72
818.421	250.426
822.248	106.018
826.073	218.02
829.897	222.135
833.718	274.96
837.538	305.973
841.356	306.919
845.171	208.017
848.985	228.765
852.797	202.29
856.607	282.641
860.415	370.907
864.221	238.132
868.025	264.832
871.828	382.402
875.628	262.477
879.426	302.727
883.223	213.296
887.018	283.953
890.81	364.774
894.601	245.817
898.39	577.01
902.177	568.363
905.962	419.962
909.745	581.725
913.526	643.519
917.306	705.287
921.083	897.616
924.859	1050.21
928.632	1069.39
932.404	1086.18
936.174	1138.07
939.942	1310.66
943.708	1450.65
947.472	1789.9
951.235	1668.71
954.995	1968.69
958.754	2103.16
962.51	2787.26
966.265	3012.17
970.018	3846.86
973.769	5262.3
977.518	7088.03
981.265	10534.2
985.011	18081.6
988.754	29223
992.496	33831.6
996.236	25240.4
999.974	16928.5
1003.71	10276.9
1007.44	5525.55
1011.18	3464.47
1014.91	2403.68
1018.63	1623.17
1022.36	1172.97
1026.09	703.039
1029.81	453.361
1033.53	465.781
1037.25	278.66
1040.97	530.514
1044.68	372.846
1048.4	535.113
1052.11	713.811
1055.82	896.082
1059.53	1069.09
1063.23	821.17
1066.94	484.012
1070.64	338.664
1074.34	61.699
1078.04	39.818
1081.74	93.461
1085.43	147.434
1089.12	361.664
1092.82	279.311
1096.51	550.707
1100.19	545.426
1103.88	440.121
1107.56	414.695
1111.25	429.188
1114.93	333.695
1118.61	388.268
1122.28	542.861
1125.96	27.482
1129.63	22.193
1133.3	222.963
1136.97	131.93
1140.64	57.234
1144.31	42.986
1147.97	69.346
1151.63	266.092
1155.29	213.227
1158.95	20.74
1162.61	318.609
1166.26	376.74
1169.92	515.191
1173.57	453.803
1177.22	202.537
1180.87	341.418
1184.51	70.486
1188.15	10.191
1191.8	29.436
1195.44	99.367
1199.08	139.633
1202.71	220.279
1206.35	321.355
1209.98	112.91
1213.61	32.705
1217.24	61.461
1220.87	57.336
1224.5	64.168
1228.12	205.932
1231.75	144.258
1235.37	249.473
1238.99	416.305
1242.6	125.125
1246.22	69.846
1249.83	32.164
1253.44	141.141
1257.05	133.238
1260.66	442.279
1264.27	268.682
1267.87	423.424
1271.48	333.395
1275.08	257.133
1278.68	155.223
1282.28	12.023
1285.87	1.129
