Measurement: Raman, 514 nm, ccw, Raman Data Processed
Mineral: Paravauxite
Rruff sample: R040179
Ideal chemistry: Fe^2+^Al_2_(PO_4_)_2_(OH)_2_8H_2_O
Locality: Mina Siglo XX, Llallagua, Bolivia
Source: University of Arizona Mineral Museum
Description: Colorless short prismatic crystals in subparallel groups
Measured chemistry: (Fe_0.93_Mg_0.03_Mn_0.02_)Al_1.94_(P_2.05_O_4_)_2_((OH)_0.99_F_0.01_)_2_Â·8H_2_O
Pin_id: M00312
Orientation: Laser parallel to a* (1 0 0). Fiducial mark perpendicular to laser is parallel to b [0 1 0]
Raman shift (cm-1)	intensity
107.995	0
112.168	238.56
116.339	471.541
120.508	1429.96
124.675	2150.5
128.84	2514.2
133.003	2620.62
137.164	2286.97
141.323	1684.75
145.48	1323.73
149.635	783.854
153.788	194.591
157.939	29.534
162.088	147.851
166.235	409.505
170.38	313.49
174.523	519.592
178.664	957.495
182.803	1281.35
186.94	1234.43
191.076	985.924
195.209	1425.6
199.34	991.306
203.47	1022.54
207.597	1720.52
211.722	2158.35
215.846	1895.47
219.967	1622.13
224.087	1743.19
228.204	2774.65
232.32	4783.75
236.434	5597.13
240.545	3984.32
244.655	2191.57
248.763	1308.84
252.869	1065.99
256.973	766.914
261.075	665.586
265.175	916.01
269.273	1452.19
273.369	2134.43
277.463	3415.54
281.556	5052.02
285.646	4081.42
289.734	2862.68
293.821	2315.19
297.905	2098.56
301.988	1482.5
306.069	866.836
310.147	428.373
314.224	326.996
318.299	100.62
322.372	34.917
326.443	50.977
330.512	35.006
334.579	94.993
338.645	144.892
342.708	137.816
346.769	101.644
350.829	77.376
354.887	54.878
358.942	9.525
362.996	193.583
367.048	285.319
371.098	232.748
375.146	519.889
379.192	676.719
383.236	702.886
387.279	667.721
391.319	751.049
395.358	963.224
399.394	1234.79
403.429	1596.11
407.462	1617.24
411.493	1688.2
415.522	2048.99
419.549	2689.61
423.575	4200.06
427.598	7080.31
431.619	9520.33
435.639	7980.14
439.657	4929.81
443.673	2949.28
447.687	2128.49
451.699	1367.41
455.709	1016.02
459.717	804.314
463.724	782.308
467.728	669.98
471.731	557.375
475.732	394.39
479.731	431.035
483.728	281.133
487.723	244.422
491.716	225.79
495.708	254.258
499.697	228.488
503.685	107.219
507.671	44.503
511.655	21.755
515.637	106.108
519.617	284.38
523.596	202.421
527.572	275.433
531.547	552.128
535.52	725.059
539.491	739.555
543.46	893.615
547.427	1249.01
551.393	1438.82
555.356	1903.31
559.318	2352.46
563.278	3036.55
567.236	3799.99
571.192	3734.91
575.147	2935.19
579.099	2450.6
583.05	2594.09
586.999	2793.32
590.946	2632.16
594.891	2400.39
598.834	2127.67
602.776	1695.59
606.715	1564.92
610.653	1302.27
614.589	931.481
618.523	700.146
622.456	520.618
626.386	455.872
630.315	831.936
634.242	968.544
638.167	1123.31
642.09	1509.89
646.012	1520.08
649.931	1306.95
653.849	1185.48
657.765	689.256
661.679	730.367
665.592	583.457
669.502	304.014
673.411	329.205
677.318	124.092
681.223	172.86
685.126	227.71
689.028	142.221
692.927	80.766
696.825	62.97
700.721	56.354
704.616	109.436
708.508	122.098
712.399	104.938
716.288	23.136
720.175	118.36
724.06	179.58
727.944	40.471
731.825	78.905
735.705	48.646
739.584	21.304
743.46	281.051
747.334	260.609
751.207	159.974
755.078	19.172
758.947	11.803
762.815	127.004
766.68	215.641
770.544	44.069
774.406	57.719
778.267	39.78
782.125	7.871
785.982	65.269
789.837	92.517
793.69	40.379
797.542	103.456
801.391	56.804
805.239	149.659
809.085	135.933
812.93	142.062
816.772	148.113
820.613	54.078
824.452	229.964
828.29	155.776
832.125	81.092
835.959	35.854
839.791	100.589
843.621	270.919
847.45	247.458
851.277	416.426
855.102	188.445
858.925	129.154
862.746	35.037
866.566	357.209
870.384	358.287
874.2	322.312
878.015	163.621
881.828	82.293
885.639	289.861
889.448	370.188
893.256	364.248
897.061	429.018
900.865	403.266
904.668	287.943
908.468	352.803
912.267	596.15
916.064	660.922
919.86	705.725
923.653	838.062
927.445	627.176
931.236	719.424
935.024	948.023
938.811	1133.28
942.596	1237.68
946.379	1361.07
950.161	1200.72
953.94	1713.23
957.719	1929.26
961.495	2570.32
965.27	2966.17
969.043	3322.07
972.814	4427.49
976.583	6284.6
980.351	9699.63
984.117	17057
987.882	27993.2
991.644	31461
995.405	22789
999.165	15374.6
1002.92	9613.18
1006.68	5772.05
1010.43	3901.19
1014.18	2581.55
1017.93	1981.39
1021.68	1271.57
1025.43	1142.06
1029.18	943.191
1032.92	1164.61
1036.66	1056.03
1040.4	1087.84
1044.14	890.496
1047.88	915.125
1051.62	960.615
1055.35	1314.93
1059.08	1538.8
1062.81	991.711
1066.54	724.389
1070.27	586.764
1073.99	179.084
1077.72	180.057
1081.44	340.002
1085.16	431.514
1088.88	603.422
1092.59	725.939
1096.31	539.023
1100.02	392.57
1103.73	516.57
1107.44	521.088
1111.15	666.047
1114.86	601.514
1118.57	627.461
1122.27	563.523
1125.97	139.939
1129.67	176.754
1133.37	63.951
1137.07	301.51
1140.76	399.252
1144.45	217.195
1148.15	225.5
1151.84	214.283
1155.53	43.795
1159.21	205.893
1162.9	335.215
1166.58	387.117
1170.26	639.828
1173.94	533.367
1177.62	427.812
1181.3	345.791
1184.97	241.666
1188.65	238.74
1192.32	177.166
1195.99	200.68
1199.66	354.189
1203.33	553.207
1206.99	384.447
1210.65	246.744
1214.32	50.01
1217.98	1.701
1221.64	80.574
1225.29	0
