Measurement: Raman, 514 nm, ccw, Raman Data Processed
Mineral: Paravauxite
Rruff sample: R040179
Ideal chemistry: Fe^2+^Al_2_(PO_4_)_2_(OH)_2_8H_2_O
Locality: Mina Siglo XX, Llallagua, Bolivia
Source: University of Arizona Mineral Museum
Description: Colorless short prismatic crystals in subparallel groups
Measured chemistry: (Fe_0.93_Mg_0.03_Mn_0.02_)Al_1.94_(P_2.05_O_4_)_2_((OH)_0.99_F_0.01_)_2_Â·8H_2_O
Pin_id: M00217
Orientation: Laser parallel to (0 1 1). Fiducial mark perpendicular to laser is parallel to a [1 0 0]
Raman shift (cm-1)	intensity
54.966	0
59.164	104.723
63.36	22.19
67.554	149.77
71.747	991.301
75.937	2507.61
80.125	3586.11
84.311	3325.72
88.496	2892.13
92.678	2872.63
96.858	2665.1
101.036	2707.59
105.212	2999.94
109.387	3737.9
113.559	4374.71
117.729	4145.81
121.897	3473.81
126.063	3463.91
130.228	3933.17
134.39	4361.87
138.55	4729.92
142.709	4677.89
146.865	4516.64
151.019	3919.97
155.171	3326.27
159.322	3103.74
163.47	3569.51
167.617	4259.64
171.761	4035.17
175.904	3864.1
180.044	3574.43
184.183	3129.12
188.319	2974.16
192.454	3530.96
196.586	4499.14
200.717	4313.69
204.846	3526.7
208.972	3294.08
213.097	2584.34
217.22	2028.16
221.341	1878.36
225.46	1956.28
229.577	2570.73
233.692	3363.95
237.805	3518.89
241.916	2933.58
246.025	1832.63
250.132	1301.75
254.237	1184.47
258.34	1013.31
262.442	923.421
266.541	1056.9
270.639	1253.64
274.734	1569.57
278.828	2093.62
282.919	2515.73
287.009	2776.18
291.097	2582.92
295.183	2628.88
299.266	2431.64
303.348	1948.15
307.428	1374.4
311.507	842.111
315.583	495.181
319.657	365.701
323.729	154.961
327.8	102.054
331.868	65.428
335.935	103.198
339.999	102.396
344.062	55.049
348.123	85.071
352.182	196.534
356.239	168.459
360.294	128.935
364.347	66.854
368.398	57.978
372.448	99.271
376.495	315.146
380.54	424.888
384.584	341.416
388.626	428.885
392.666	469.413
396.704	733.847
400.74	943.098
404.774	1289.1
408.806	1205.83
412.836	1059.2
416.865	1345.18
420.891	2121.75
424.916	2927.87
428.939	5085.53
432.959	6516.72
436.978	5957.4
440.996	3992.58
445.011	2211.22
449.024	1581.31
453.036	1139.84
457.045	1026.81
461.053	1351.25
465.059	1871.1
469.063	2327.36
473.065	2973.05
477.065	2992.17
481.063	3154.68
485.06	2787.57
489.054	2272.1
493.047	1896.68
497.038	1561.54
501.027	1187.77
505.014	986.653
508.999	641.354
512.982	425.158
516.964	365.355
520.944	360.002
524.921	260.705
528.897	289.105
532.871	655.571
536.844	794.604
540.814	925.004
544.783	1185.64
548.749	1226.29
552.714	1327.79
556.677	1501.56
560.638	1747.89
564.597	1929.23
568.555	2061.37
572.511	2102.28
576.464	2115.18
580.416	1933.04
584.366	1925.86
588.315	1959.61
592.261	2231.3
596.206	2281.06
600.148	2381.57
604.089	2523.99
608.028	2905.29
611.965	2918.46
615.901	2525.82
619.834	2425.24
623.766	2206.34
627.696	1534.09
631.624	1023.16
635.551	896.172
639.475	782.379
643.398	388.172
647.318	251.876
651.237	104.729
655.155	151.401
659.07	57.238
662.984	25.772
666.895	9.653
670.805	75.244
674.713	79.693
678.62	51.307
682.524	3.016
686.427	54.633
690.328	130.429
694.227	8.421
698.124	33.393
702.02	67.983
705.913	161.619
709.805	243.738
713.695	17.614
717.584	208.05
721.47	239.017
725.355	290.57
729.238	414.788
733.119	296.674
736.998	192.224
740.876	390.441
744.752	207.326
748.626	375.878
752.498	273.096
756.368	247.981
760.237	418.539
764.104	164.773
767.969	5.685
771.832	267.177
775.693	217.288
779.553	130.035
783.411	144.41
787.267	118.348
791.122	125.859
794.974	6.005
798.825	149.709
802.674	12.104
806.522	150.935
810.367	115.209
814.211	149.762
818.053	152.235
821.893	121.603
825.732	193.866
829.568	15.533
833.403	154.68
837.236	104.601
841.068	169.333
844.898	4.377
848.726	61.486
852.552	61.664
856.376	32.423
860.199	77.525
864.02	139.688
867.839	15.298
871.656	90.352
875.472	72.328
879.286	75.01
883.098	137.715
886.909	169.94
890.717	291.122
894.524	248.268
898.33	141.387
902.133	260.492
905.935	315.444
909.735	462.605
913.533	409.627
917.33	383.734
921.124	458.828
924.918	635.695
928.709	909.683
932.499	841.793
936.286	868.358
940.073	1165.49
943.857	1297.74
947.64	1315.43
951.421	1399.91
955.2	1441.5
958.978	1794.06
962.753	2043.1
966.527	2460.73
970.3	3026.12
974.071	3867.41
977.84	5816.04
981.607	8622.92
985.372	14424.2
989.136	23970.3
992.898	31547.7
996.659	26034.5
1000.42	17051.9
1004.17	10010
1007.93	5940.59
1011.68	3542.91
1015.43	2294.51
1019.18	1374.47
1022.93	1042.6
1026.68	809.973
1030.42	440.502
1034.17	276.214
1037.91	264.197
1041.65	163.312
1045.39	188.543
1049.12	209.352
1052.86	323.465
1056.59	744.519
1060.33	1093.7
1064.06	883.064
1067.78	537.46
1071.51	110.814
1075.23	33.549
1078.96	85.953
1082.68	66.766
1086.4	135.419
1090.12	230.086
1093.83	459.537
1097.55	662.463
1101.26	734.729
1104.97	820.2
1108.68	643.084
1112.39	582.354
1116.1	369.6
1119.8	449.393
1123.5	246.238
1127.2	279.4
1130.9	9.359
1134.6	248.811
1138.3	258.176
1141.99	174.902
1145.69	407.375
1149.38	408.777
1153.07	527.631
1156.76	780.904
1160.44	995.877
1164.13	1237.23
1167.81	1591.44
1171.49	1378.16
1175.17	1154.76
1178.85	878.375
1182.52	543.26
1186.2	381.139
1189.87	314.961
1193.54	153.75
1197.21	77.186
1200.88	27.893
1204.55	368.141
1208.21	69.557
1211.88	44.217
1215.54	72.688
1219.2	21.27
1222.86	43.715
1226.51	130.609
1230.17	45.215
1233.82	58.623
1237.47	123.643
1241.12	19.324
1244.77	191.293
1248.42	56.549
1252.06	215.314
1255.71	43.67
1259.35	4.369
1262.99	13.555
1266.63	122.875
1270.26	121.807
1273.9	170.047
1277.53	124.65
1281.16	148.639
1284.8	63.707
1288.42	74.15
1292.05	60.99
1295.68	101.232
1299.3	84.832
1302.92	38.16
1306.55	9.178
1310.16	220.854
1313.78	41.318
1317.4	84.836
1321.01	66.615
1324.62	53.535
1328.24	205.684
1331.85	49.328
1335.45	102.48
1339.06	55.182
1342.66	323.641
1346.27	158.545
1349.87	219.984
1353.47	368.873
1357.07	331.814
1360.66	338.799
1364.26	269.846
1367.85	323.584
1371.44	171.902
1375.04	146.123
1378.62	176.6
1382.21	426.713
1385.8	364.973
1389.38	244.439
1392.96	392.533
1396.54	299.641
1400.12	359.104
1403.7	279.156
1407.28	234.35
1410.85	259.129
1414.42	390.08
1417.99	371.592
1421.56	444.078
1425.13	246.664
1428.7	351.246
1432.26	288.258
1435.83	401.125
1439.39	450.908
1442.95	414.607
1446.51	468.818
1450.06	425.738
1453.62	549.074
1457.17	548.371
1460.73	512.465
1464.28	304.971
1467.83	333.596
1471.37	339.912
1474.92	489.559
1478.46	298.217
1482.01	202.057
1485.55	249.023
1489.09	215.549
1492.63	98.945
1496.16	423.586
1499.7	39.557
1503.23	172.965
1506.76	100.512
1510.29	120.861
1513.82	153.045
1517.35	0.455
