Measurement: Raman, 514 nm, ccw, Raman Data Processed
Mineral: Paravauxite
Rruff sample: R040179
Ideal chemistry: Fe^2+^Al_2_(PO_4_)_2_(OH)_2_8H_2_O
Locality: Mina Siglo XX, Llallagua, Bolivia
Source: University of Arizona Mineral Museum
Description: Colorless short prismatic crystals in subparallel groups
Measured chemistry: (Fe_0.93_Mg_0.03_Mn_0.02_)Al_1.94_(P_2.05_O_4_)_2_((OH)_0.99_F_0.01_)_2_Â·8H_2_O
Pin_id: M00109
Orientation: Laser parallel to c* (0 0 1). Fiducial mark perpendicular to laser is parallel to a [1 0 0]
Raman shift (cm-1)	intensity
54.966	0
59.164	100.036
63.36	28.954
67.554	203.865
71.747	1020.96
75.937	1854.14
80.125	2049.37
84.311	1831.32
88.496	1483.32
92.678	1382.87
96.858	1216.36
101.036	1272.09
105.212	1261.17
109.387	1482.52
113.559	1719.47
117.729	2245.56
121.897	2336.48
126.063	2385.03
130.228	2178.91
134.39	1963.37
138.55	1884.88
142.709	1651.64
146.865	1440.4
151.019	1108.88
155.171	849.428
159.322	1091.25
163.47	2364.49
167.617	3468.21
171.761	3585.48
175.904	3326.31
180.044	2719.72
184.183	1740.7
188.319	1409.28
192.454	2508.46
196.586	3986.09
200.717	3531.38
204.846	1859.71
208.972	1151.33
213.097	589.981
217.22	587.138
221.341	1012.66
225.46	1840.82
229.577	3444.92
233.692	5260.47
237.805	5495.4
241.916	3794.99
246.025	2107.92
250.132	1146.96
254.237	863.925
258.34	730.657
262.442	599.026
266.541	759.916
270.639	998.237
274.734	1561.92
278.828	2756.9
282.919	4188.14
287.009	5084.57
291.097	5912.17
295.183	6756.86
299.266	6420.59
303.348	4907.4
307.428	3245.4
311.507	1952.64
315.583	1116.06
319.657	583.547
323.729	267.039
327.8	26.474
331.868	21.168
335.935	103.916
339.999	172.834
344.062	247.06
348.123	261.759
352.182	312.009
356.239	60.792
360.294	231.167
364.347	631.84
368.398	1303.76
372.448	2149.15
376.495	2927.43
380.54	3288.67
384.584	3146.9
388.626	2722.38
392.666	2510.24
396.704	2616.33
400.74	2801.61
404.774	2785.95
408.806	2596.38
412.836	2499.68
416.865	2450.86
420.891	2391.86
424.916	2594.68
428.939	2940.06
432.959	3038.19
436.978	2639.99
440.996	2242.43
445.011	2161.5
449.024	2710.19
453.036	3553.51
457.045	4924.55
461.053	7041.21
465.059	9960.98
469.063	13266.2
473.065	16425.1
477.065	17503.2
481.063	17762
485.06	16252.3
489.054	14120
493.047	11666.9
497.038	9930.85
501.027	8034.65
505.014	6144.95
508.999	4598.98
512.982	3364.66
516.964	2602.44
520.944	2126.93
524.921	1811.82
528.897	1816.86
532.871	2294.55
536.844	2737.67
540.814	3027.63
544.783	3167.84
548.749	2963.28
552.714	2755.9
556.677	2568.25
560.638	2693.09
564.597	3417.56
568.555	4853.6
572.511	7146.84
576.464	9139.06
580.416	9566.76
584.366	8502.08
588.315	6909.2
592.261	5498.15
596.206	3696.01
600.148	2443.34
604.089	1469.95
608.028	779.652
611.965	271.247
615.901	49.447
619.834	9.71
623.766	144.25
627.696	11.092
631.624	63.237
635.551	30.574
639.475	212.24
643.398	238.231
647.318	337.078
651.237	310.534
655.155	395.612
659.07	226.358
662.984	151.924
666.895	87.416
670.805	69.84
674.713	15.044
678.62	60.558
682.524	31.818
686.427	19.747
690.328	37.706
694.227	45.581
698.124	4.604
702.02	26.547
705.913	101.498
709.805	46.579
713.695	63.666
717.584	53.285
721.47	94.35
725.355	131.564
729.238	218.171
733.119	225.104
736.998	156.479
740.876	214.358
744.752	251.688
748.626	149.697
752.498	117.161
756.368	206.149
760.237	149.663
764.104	50.311
767.969	63.896
771.832	89.2
775.693	42.612
779.553	22.715
783.411	15.222
787.267	34.211
791.122	12.236
794.974	28.39
798.825	18.61
802.674	59.579
806.522	235.24
810.367	147.603
814.211	147.678
818.053	243.475
821.893	336.35
825.732	420.43
829.568	393.431
833.403	421.484
837.236	470.243
841.068	385.554
844.898	406.935
848.726	398.331
852.552	418.295
856.376	408.096
860.199	355.373
864.02	378.631
867.839	422.66
871.656	360.519
875.472	403.368
879.286	319.114
883.098	344.397
886.909	318.376
890.717	461.797
894.524	434.612
898.33	462.527
902.133	527.521
905.935	572.413
909.735	768.07
913.533	757.211
917.33	1041.24
921.124	1162.81
924.918	1234.86
928.709	1495.92
932.499	1740.58
936.286	1939.79
940.073	2130.47
943.857	2408.94
947.64	2304.45
951.421	2516.84
955.2	2685.71
958.978	3113.91
962.753	3644.47
966.527	4388.47
970.3	5303.85
974.071	7015.63
977.84	9800.9
981.607	14735.6
985.372	24881.1
989.136	40569.1
992.898	53173.8
996.659	44845
1000.42	30951.8
1004.17	18925.2
1007.93	11104.2
1011.68	6559.81
1015.43	4394.13
1019.18	2968.13
1022.93	2098.7
1026.68	1627.9
1030.42	1188.6
1034.17	976.725
1037.91	839.319
1041.65	902.314
1045.39	998.668
1049.12	1256.38
1052.86	1872.44
1056.59	2875.86
1060.33	3403.63
1064.06	2647
1067.78	1511.07
1071.51	812.662
1075.23	484.174
1078.96	279.15
1082.68	196.479
1086.4	136.899
1090.12	238.065
1093.83	207.179
1097.55	238.334
1101.26	304.597
1104.97	374.071
1108.68	331.67
1112.39	414.178
1116.1	288.168
1119.8	411.004
1123.5	320.434
1127.2	394.626
1130.9	441.01
1134.6	563.8
1138.3	828.373
1141.99	811.964
1145.69	1070.65
1149.38	1375.69
1153.07	1769.99
1156.76	2243.65
1160.44	3027.04
1164.13	3776.42
1167.81	4391.28
1171.49	4047.5
1175.17	3072.68
1178.85	2177.58
1182.52	1252.24
1186.2	909.082
1189.87	496.372
1193.54	293.966
1197.21	183.056
1200.88	33.977
1204.55	106.231
1208.21	28.958
1211.88	140.039
1215.54	75.192
1219.2	43.994
1222.86	37.587
1226.51	9.911
1230.17	148.464
1233.82	60.73
1237.47	6.406
1241.12	46.945
1244.77	19.065
1248.42	74.652
1252.06	22.228
1255.71	97.895
1259.35	122.961
1262.99	37.735
1266.63	63.27
1270.26	1.95
1273.9	85.21
1277.53	8.088
1281.16	125.058
1284.8	112.765
1288.42	83.027
1292.05	43.145
1295.68	100.592
1299.3	119.263
1302.92	99.064
1306.55	142.14
1310.16	176.775
1313.78	51.944
1317.4	159.673
1321.01	119.954
1324.62	172.938
1328.24	125.354
1331.85	55.382
1335.45	303.04
1339.06	146.243
1342.66	140.262
1346.27	166.57
1349.87	173.57
1353.47	171.334
1357.07	288.191
1360.66	282.27
1364.26	137.316
1367.85	173.686
1371.44	236.477
1375.04	178.041
1378.62	159.317
1382.21	190.637
1385.8	249.204
1389.38	222.551
1392.96	153.826
1396.54	231.422
1400.12	212.117
1403.7	150.46
1407.28	109.667
1410.85	153.52
1414.42	203.662
1417.99	180.544
1421.56	184.675
1425.13	141.908
1428.7	173.61
1432.26	111.552
1435.83	120.186
1439.39	138.252
1442.95	216.849
1446.51	289.562
1450.06	100.129
1453.62	284.392
1457.17	220.438
1460.73	206.802
1464.28	194.278
1467.83	86.643
1471.37	160.691
1474.92	66.346
1478.46	76.158
1482.01	39.042
1485.55	85.236
1489.09	124.639
1492.63	124.498
1496.16	116.735
1499.7	141.467
1503.23	32.681
1506.76	88.578
1510.29	73.144
1513.82	75.417
1517.35	23.893
1520.88	70.409
1524.4	10.441
