Measurement: Raman, 514 nm, ccw, Raman Data Processed
Mineral: Paravauxite
Rruff sample: R040179
Ideal chemistry: Fe^2+^Al_2_(PO_4_)_2_(OH)_2_8H_2_O
Locality: Mina Siglo XX, Llallagua, Bolivia
Source: University of Arizona Mineral Museum
Description: Colorless short prismatic crystals in subparallel groups
Measured chemistry: (Fe_0.93_Mg_0.03_Mn_0.02_)Al_1.94_(P_2.05_O_4_)_2_((OH)_0.99_F_0.01_)_2_Â·8H_2_O
Pin_id: M00447
Orientation: Laser parallel to (1 1 0). Fiducial mark perpendicular to laser is parallel to -c [0 0 -1]
Raman shift (cm-1)	intensity
121.683	0
125.87	178.295
130.055	550.101
134.237	954.661
138.417	1166.07
142.596	1391.25
146.771	1099.64
150.945	468.927
155.117	27.935
159.286	63.307
163.453	961.688
167.618	1931.36
171.781	1001.85
175.941	732.375
180.1	367.954
184.256	479.918
188.41	579.613
192.562	905.696
196.711	1837.67
200.859	1546.62
205.004	592.898
209.147	427.198
213.288	350.339
217.427	232.637
221.564	5.311
225.698	30.771
229.83	593.818
233.96	1409.89
238.088	1581.64
242.214	1007.27
246.338	516.041
250.459	206.822
254.579	122.832
258.696	136.261
262.811	180.374
266.924	454.057
271.035	947.259
275.143	1679.97
279.25	2882.21
283.354	3863.63
287.456	3416.07
291.556	3033.76
295.654	2904.4
299.75	2646.46
303.843	1909.29
307.935	1132.5
312.024	795.848
316.111	489.173
320.196	242.325
324.279	15.07
328.36	2.532
332.439	90.691
336.516	19.599
340.59	149.381
344.662	130.224
348.733	88.462
352.801	95.316
356.867	59.292
360.931	94.095
364.992	100.281
369.052	194.178
373.11	297.593
377.165	240.651
381.218	643.331
385.27	625.511
389.319	774.96
393.366	845.348
397.411	1184.05
401.454	1631.07
405.495	1906.87
409.533	1761.8
413.57	1486.31
417.604	1555.32
421.637	1844.09
425.667	2657.71
429.695	3891.02
433.721	4834.04
437.745	4176.77
441.767	2769.21
445.787	1841.36
449.805	1563.22
453.821	1334.76
457.834	1315.9
461.846	1386.65
465.856	1887.02
469.863	2177
473.868	2376.58
477.872	2475.7
481.873	2394.13
485.872	2073.68
489.869	1834.37
493.864	1510.1
497.857	1300.44
501.848	1062.07
505.837	939.047
509.824	752.209
513.809	695.32
517.792	758.154
521.772	719.809
525.751	803.157
529.728	872.18
533.702	1194.31
537.675	1565.58
541.645	1654.66
545.613	1942.85
549.58	2006.33
553.544	2011.74
557.507	2053.76
561.467	2358.03
565.425	2602.35
569.381	2913.85
573.335	2944.95
577.288	2856.68
581.238	2546.94
585.186	2257.02
589.132	2066.67
593.076	1986.16
597.018	1831.39
600.958	1774.2
604.896	1532.84
608.832	1521.36
612.766	1310.12
616.698	1228.1
620.628	961.224
624.556	679.255
628.482	603.971
632.405	572.695
636.327	542.535
640.247	459.788
644.165	398.867
648.081	468.312
651.995	269.867
655.907	333.193
659.817	202.421
663.725	120.786
667.63	7.965
671.534	24.782
675.436	72.321
679.336	59.444
683.234	73.547
687.13	23.006
691.024	19.236
694.916	45.007
698.806	9.639
702.694	35.433
706.58	100.301
710.464	234.975
714.346	19.449
718.226	46.249
722.105	107.793
725.981	201.693
729.855	115.455
733.727	89.066
737.597	62.546
741.466	105.91
745.332	159.167
749.196	142.321
753.059	275.379
756.919	108.344
760.778	31.226
764.634	154.022
768.489	66.731
772.341	59.361
776.192	8.17
780.041	125.83
783.887	33.739
787.732	68.251
791.575	190.17
795.416	151.981
799.255	66.307
803.092	64.736
806.927	56.703
810.76	1.986
814.591	238.527
818.421	179.137
822.248	97.348
826.073	108.973
829.897	273.326
833.718	150.455
837.538	215.166
841.356	230.711
845.171	60.617
848.985	218.326
852.797	295.402
856.607	163.068
860.415	153.566
864.221	191.74
868.025	62.127
871.828	188.486
875.628	189.611
879.426	170.666
883.223	221.828
887.018	72.121
890.81	133.719
894.601	205.59
898.39	367.584
902.177	319.627
905.962	312
909.745	254.496
913.526	566.994
917.306	399.744
921.083	662.078
924.859	845.117
928.632	722.33
932.404	738.227
936.174	790.041
939.942	1043.77
943.708	984.576
947.472	1267.93
951.235	1176.29
954.995	1367.75
958.754	1610.12
962.51	1928.06
966.265	2140.63
970.018	2644.5
973.769	3520.03
977.518	4905.87
981.265	7442.05
985.011	13018.7
988.754	21168.7
992.496	24517.1
996.236	18105.9
999.974	12083.8
1003.71	7311.98
1007.44	4020.45
1011.18	2509.15
1014.91	1688.11
1018.63	1147.32
1022.36	806.799
1026.09	396.562
1029.81	166.574
1033.53	276.838
1037.25	167.367
1040.97	378.152
1044.68	459.664
1048.4	413.35
1052.11	604.947
1055.82	806.773
1059.53	958.871
1063.23	791.236
1066.94	333.816
1070.64	202.74
1074.34	105.934
1078.04	49.336
1081.74	43.062
1085.43	107.162
1089.12	281.58
1092.82	279.062
1096.51	361.332
1100.19	326.223
1103.88	511.436
1107.56	342.68
1111.25	358.223
1114.93	234.07
1118.61	310.174
1122.28	546.514
1125.96	62.711
1129.63	148.896
1133.3	104.777
1136.97	121.752
1140.64	169.477
1144.31	35.312
1147.97	51.684
1151.63	248.469
1155.29	255.67
1158.95	133.287
1162.61	341.328
1166.26	339.791
1169.92	528.596
1173.57	287.482
1177.22	346.781
1180.87	226.309
1184.51	156.205
1188.15	26.498
1191.8	32.83
1195.44	21.762
1199.08	229.506
1202.71	231.135
1206.35	263.166
1209.98	95.264
1213.61	100.541
1217.24	59.695
1220.87	83.152
1224.5	147.209
1228.12	301.852
1231.75	537.104
1235.37	483.01
1238.99	388.18
1242.6	374.727
1246.22	289.047
1249.83	66.285
1253.44	122.15
1257.05	194.748
1260.66	486.201
1264.27	446.104
1267.87	470.818
1271.48	503.426
1275.08	369.203
1278.68	304.469
1282.28	3.76
1285.87	0
