Measurement: Raman, 514 nm, ccw, Raman Data Processed
Mineral: Paravauxite
Rruff sample: R040179
Ideal chemistry: Fe^2+^Al_2_(PO_4_)_2_(OH)_2_8H_2_O
Locality: Mina Siglo XX, Llallagua, Bolivia
Source: University of Arizona Mineral Museum
Description: Colorless short prismatic crystals in subparallel groups
Measured chemistry: (Fe_0.93_Mg_0.03_Mn_0.02_)Al_1.94_(P_2.05_O_4_)_2_((OH)_0.99_F_0.01_)_2_Â·8H_2_O
Pin_id: M00312
Orientation: Laser parallel to a* (1 0 0). Fiducial mark perpendicular to laser is parallel to b [0 1 0]
Raman shift (cm-1)	intensity
105.212	0
109.387	308.663
113.559	1431.4
117.729	905.536
121.897	651.266
126.063	1018.26
130.228	1657.21
134.39	2353.27
138.55	2778.45
142.709	3366.43
146.865	2952.9
151.019	1814.86
155.171	846.584
159.322	779.594
163.47	1950.38
167.617	2488.45
171.761	1251.83
175.904	631.347
180.044	528.815
184.183	695.959
188.319	1178.06
192.454	2212.14
196.586	3605.27
200.717	2128.1
204.846	702.883
208.972	99.726
213.097	151.347
217.22	110.911
221.341	4.19
225.46	490.883
229.577	1602.93
233.692	2851.06
237.805	2372.67
241.916	1234.13
246.025	507.507
250.132	267.894
254.237	95.211
258.34	63.428
262.442	142.534
266.541	516.512
270.639	816.301
274.734	1748.98
278.828	3719.1
282.919	4413.26
287.009	3070
291.097	2788.48
295.183	2968.15
299.266	2568.66
303.348	1769.69
307.428	1261.03
311.507	992.545
315.583	674.134
319.657	285.733
323.729	47.238
327.8	133.833
331.868	125.599
335.935	344.711
339.999	104.66
344.062	1.606
348.123	119.7
352.182	104.731
356.239	136.691
360.294	204.689
364.347	168.37
368.398	199.795
372.448	443.972
376.495	584.13
380.54	620.156
384.584	620.658
388.626	890.896
392.666	1259.8
396.704	1567.93
400.74	2045.85
404.774	2483.67
408.806	1811.33
412.836	1288.79
416.865	1166.09
420.891	1443.33
424.916	2129.7
428.939	3066.54
432.959	3243.2
436.978	2339.79
440.996	1556.2
445.011	1022.37
449.024	638.279
453.036	683.929
457.045	659.249
461.053	914.216
465.059	858.806
469.063	1063.05
473.065	1166.96
477.065	1230.48
481.063	1023.6
485.06	765.522
489.054	539.889
493.047	496.553
497.038	306.916
501.027	201.896
505.014	167.61
508.999	374.507
512.982	420.656
516.964	602.63
520.944	700.046
524.921	1000.37
528.897	1403.39
532.871	1897.24
536.844	2093.67
540.814	2495.39
544.783	2984.96
548.749	3177.76
552.714	3215.38
556.677	3209.29
560.638	3713.91
564.597	3963.99
568.555	4230.89
572.511	3716.73
576.464	3727.24
580.416	3923.42
584.366	3639.27
588.315	3463.96
592.261	3228.17
596.206	3301.78
600.148	3271.06
604.089	3361.3
608.028	3255.81
611.965	2984.84
615.901	2807.19
619.834	2671.34
623.766	2193.02
627.696	1634.4
631.624	1355.11
635.551	957.203
639.475	927.311
643.398	639.479
647.318	379.032
651.237	258.76
655.155	338.224
659.07	426.319
662.984	196.103
666.895	86.051
670.805	33.505
674.713	76.684
678.62	96.666
682.524	13.707
686.427	14.509
690.328	15.708
694.227	102.685
698.124	110.712
702.02	68.443
705.913	144.142
709.805	67.314
713.695	48.986
717.584	204.8
721.47	40.196
725.355	55.327
729.238	49.765
733.119	174.73
736.998	258.837
740.876	292.703
744.752	116.366
748.626	69.846
752.498	163.157
756.368	306.294
760.237	89.228
764.104	108.054
767.969	4.33
771.832	43.43
775.693	78.614
779.553	50.529
783.411	232.146
787.267	46.434
791.122	14.835
794.974	63.99
798.825	117.029
802.674	227.971
806.522	78.834
810.367	10.368
814.211	39.603
818.053	298.104
821.893	197.012
825.732	213.737
829.568	132.684
833.403	58.859
837.236	217.854
841.068	382.196
844.898	297.048
848.726	112.635
852.552	0.899
856.376	147.001
860.199	334.621
864.02	425.316
867.839	314.363
871.656	197.257
875.472	252.98
879.286	362.604
883.098	198.554
886.909	418.705
890.717	448.195
894.524	207.879
898.33	178.518
902.133	269.354
905.935	541.02
909.735	760.836
913.533	771.137
917.33	554.428
921.124	756.254
924.918	856.072
928.709	1348.28
932.499	1350.39
936.286	1442.74
940.073	1363.78
943.857	1136.78
947.64	1407.61
951.421	1831.07
955.2	1864.74
958.978	2028.61
962.753	2072.51
966.527	2576.82
970.3	3511.39
974.071	4656.55
977.84	7021.85
981.607	11079.5
985.372	17728.3
989.136	26148
992.898	25244.7
996.659	18341.8
1000.42	12599.2
1004.17	7396.99
1007.93	4205.11
1011.68	2323.62
1015.43	1612.65
1019.18	992.191
1022.93	822.207
1026.68	772.639
1030.42	743.182
1034.17	394.072
1037.91	575.521
1041.65	411.176
1045.39	433.516
1049.12	768.211
1052.86	1284.86
1056.59	2068.68
1060.33	1872.19
1064.06	1104.41
1067.78	726.012
1071.51	546.275
1075.23	527.041
1078.96	558.564
1082.68	400.633
1086.4	563.262
1090.12	316.412
1093.83	440.111
1097.55	394.346
1101.26	649.064
1104.97	724.125
1108.68	629.695
1112.39	285.799
1116.1	102.434
1119.8	20.422
1123.5	187.213
1127.2	155.348
1130.9	163.846
1134.6	72.584
1138.3	71.57
1141.99	8.934
1145.69	281.359
1149.38	2.566
1153.07	174.691
1156.76	317.756
1160.44	581.801
1164.13	506.887
1167.81	432.402
1171.49	199.732
1175.17	180.414
1178.85	74.922
1182.52	143.213
1186.2	432.592
1189.87	352.906
1193.54	443.928
1197.21	309.668
1200.88	80.262
1204.55	73.434
1208.21	58.215
1211.88	131.408
