Measurement: Raman, 514 nm, ccw, Raman Data Processed
Mineral: Paravauxite
Rruff sample: R040179
Ideal chemistry: Fe^2+^Al_2_(PO_4_)_2_(OH)_2_8H_2_O
Locality: Mina Siglo XX, Llallagua, Bolivia
Source: University of Arizona Mineral Museum
Description: Colorless short prismatic crystals in subparallel groups
Measured chemistry: (Fe_0.93_Mg_0.03_Mn_0.02_)Al_1.94_(P_2.05_O_4_)_2_((OH)_0.99_F_0.01_)_2_Â·8H_2_O
Pin_id: M00217
Orientation: Laser parallel to (0 1 1). Fiducial mark perpendicular to laser is parallel to a [1 0 0]
Raman shift (cm-1)	intensity
54.966	0
59.164	99.741
63.36	11.863
67.554	5.341
71.747	406.606
75.937	1287.53
80.125	1963.82
84.311	2023.82
88.496	1970.18
92.678	2007.73
96.858	1930.67
101.036	1950.38
105.212	2111.08
109.387	2504.74
113.559	2754.71
117.729	2945.57
121.897	2772
126.063	2780.81
130.228	2755.38
134.39	2677.55
138.55	2803.81
142.709	2766.34
146.865	2602.82
151.019	2273.95
155.171	2034.07
159.322	2299.38
163.47	3734.97
167.617	5881.93
171.761	5963.27
175.904	5386.04
180.044	4774.23
184.183	3703.85
188.319	3019.91
192.454	3260.41
196.586	4415.83
200.717	4382.81
204.846	2986.55
208.972	2378.31
213.097	1635
217.22	1275.87
221.341	1148.28
225.46	1161.12
229.577	1456.62
233.692	1812.67
237.805	2070.92
241.916	1942.46
246.025	1630.52
250.132	1492.32
254.237	1552.84
258.34	1626.95
262.442	1708.5
266.541	1913.4
270.639	2126.08
274.734	2527.87
278.828	3404.32
282.919	4410.84
287.009	5543.44
291.097	6870.15
295.183	7854.89
299.266	7477.55
303.348	5918.09
307.428	4038.68
311.507	2564.41
315.583	1621.18
319.657	906.967
323.729	525.694
327.8	142.233
331.868	32.521
335.935	130.457
339.999	140.808
344.062	185.65
348.123	186.068
352.182	179.001
356.239	128.638
360.294	3.688
364.347	83.565
368.398	340.951
372.448	598.639
376.495	916.935
380.54	1206.98
384.584	1240.76
388.626	1253.44
392.666	1487.12
396.704	1754.72
400.74	1997.13
404.774	2062.28
408.806	1660.16
412.836	1549.68
416.865	1578.83
420.891	1533.59
424.916	1623.92
428.939	2055.82
432.959	2154.24
436.978	1998.19
440.996	1876.64
445.011	1619.77
449.024	2049.26
453.036	2782.91
457.045	3518.93
461.053	5142.25
465.059	7170.74
469.063	9495.58
473.065	12012.9
477.065	13247.3
481.063	13913.7
485.06	13164.5
489.054	11870
493.047	10273.1
497.038	8921.96
501.027	7485.27
505.014	6094.94
508.999	4725.2
512.982	3736.74
516.964	2902.24
520.944	2123.04
524.921	1476.67
528.897	1079.96
532.871	900.039
536.844	693.706
540.814	401.771
544.783	409.254
548.749	441.783
552.714	393.561
556.677	443.368
560.638	630.69
564.597	997.906
568.555	1240.92
572.511	1761.23
576.464	2110.86
580.416	1874.8
584.366	1348.69
588.315	819.521
592.261	590.277
596.206	286.951
600.148	134.532
604.089	9.992
608.028	2.184
611.965	87.99
615.901	25.284
619.834	220.559
623.766	182.967
627.696	76.223
631.624	49.626
635.551	60.905
639.475	161.098
643.398	238.427
647.318	269.088
651.237	337.253
655.155	408.95
659.07	242.845
662.984	156.747
666.895	155.703
670.805	44.657
674.713	55.486
678.62	78.091
682.524	27.609
686.427	99.141
690.328	39.489
694.227	11.337
698.124	1.625
702.02	80.429
705.913	128.15
709.805	155.654
713.695	4.126
717.584	159.22
721.47	301.002
725.355	210.497
729.238	287.747
733.119	377.74
736.998	244.488
740.876	391.001
744.752	273.282
748.626	255.328
752.498	243.148
756.368	330.741
760.237	255.036
764.104	201.676
767.969	89.109
771.832	207.094
775.693	90.131
779.553	57.544
783.411	102.547
787.267	62.508
791.122	75.429
794.974	72.178
798.825	19.23
802.674	88.091
806.522	208.318
810.367	157.422
814.211	216.426
818.053	315.354
821.893	393.207
825.732	388.266
829.568	302.673
833.403	407.276
837.236	398.916
841.068	428.067
844.898	423.613
848.726	299.982
852.552	567.609
856.376	413.939
860.199	487.228
864.02	404.494
867.839	410.192
871.656	426.67
875.472	403.226
879.286	354.043
883.098	482.633
886.909	343.949
890.717	495.016
894.524	514.485
898.33	422.438
902.133	595.809
905.935	739.292
909.735	751.896
913.533	802.646
917.33	1126.65
921.124	1105.72
924.918	1143.56
928.709	1360.84
932.499	1483.71
936.286	1686.9
940.073	1940.38
943.857	1989.14
947.64	2150.11
951.421	2317.32
955.2	2359.74
958.978	2625.47
962.753	3073.67
966.527	3621.9
970.3	4523.45
974.071	5658.28
977.84	7818.47
981.607	11736
985.372	19193.8
989.136	31712.9
992.898	42849.4
996.659	36662.2
1000.42	25043.3
1004.17	14862.8
1007.93	8814.65
1011.68	5118.8
1015.43	3361.31
1019.18	2266.1
1022.93	1537.16
1026.68	1166.5
1030.42	766.086
1034.17	459.885
1037.91	374.906
1041.65	318.139
1045.39	281.529
1049.12	213.123
1052.86	199.955
1056.59	378.938
1060.33	445.231
1064.06	334.399
1067.78	150.365
1071.51	92.018
1075.23	117.85
1078.96	13.461
1082.68	22.024
1086.4	50.841
1090.12	3.884
1093.83	78.814
1097.55	318.028
1101.26	287.217
1104.97	534.674
1108.68	401.909
1112.39	376.051
1116.1	444.642
1119.8	321.805
1123.5	299.213
1127.2	256.094
1130.9	332.587
1134.6	380.102
1138.3	421.742
1141.99	452.358
1145.69	363.994
1149.38	586.157
1153.07	714.71
1156.76	909.235
1160.44	1145.19
1164.13	1532.2
1167.81	1774.49
1171.49	1615.31
1175.17	1258.15
1178.85	869.759
1182.52	600.878
1186.2	409.812
1189.87	202.616
1193.54	119.769
1197.21	89.814
1200.88	120.113
1204.55	110.832
1208.21	166.11
1211.88	128.981
1215.54	5.521
1219.2	69.136
1222.86	13.486
1226.51	90.761
1230.17	134.703
1233.82	72.022
1237.47	86.697
1241.12	17.367
1244.77	14.739
1248.42	118.499
1252.06	81.118
1255.71	151.966
1259.35	46.729
1262.99	95.925
1266.63	152.607
1270.26	65.497
1273.9	84.856
1277.53	93.534
1281.16	155.633
1284.8	92.225
1288.42	146.251
1292.05	88.816
1295.68	95.952
1299.3	70.667
1302.92	132.936
1306.55	22.784
1310.16	31.173
1313.78	101.105
1317.4	189.557
1321.01	63.45
1324.62	29.048
1328.24	122.113
1331.85	100.718
1335.45	186.907
1339.06	141.733
1342.66	143.338
1346.27	198.078
1349.87	249.628
1353.47	334.858
1357.07	318.824
1360.66	286.971
1364.26	259.723
1367.85	155.746
1371.44	320.525
1375.04	306.123
1378.62	192.418
1382.21	309.508
1385.8	275.78
1389.38	132.236
1392.96	353.165
1396.54	243.075
1400.12	241.147
1403.7	302.247
1407.28	117.194
1410.85	301.276
1414.42	303.863
1417.99	319.942
1421.56	334.223
1425.13	262.882
1428.7	223.88
1432.26	143.535
1435.83	279.233
1439.39	279.158
1442.95	365.195
1446.51	227.496
1450.06	235.528
1453.62	455.65
1457.17	411.381
1460.73	401.637
1464.28	320.576
1467.83	338.656
1471.37	331.551
1474.92	229.578
1478.46	187.835
1482.01	216.654
1485.55	256.577
1489.09	186.683
1492.63	125.333
1496.16	244.854
1499.7	107.453
1503.23	156.254
1506.76	50.36
1510.29	174.406
1513.82	103.159
1517.35	14.734
1520.88	151.41
1524.4	0
