Measurement: Raman, 514 nm, ccw, Raman Data Processed
Mineral: Paravauxite
Rruff sample: R040179
Ideal chemistry: Fe^2+^Al_2_(PO_4_)_2_(OH)_2_8H_2_O
Locality: Mina Siglo XX, Llallagua, Bolivia
Source: University of Arizona Mineral Museum
Description: Colorless short prismatic crystals in subparallel groups
Measured chemistry: (Fe_0.93_Mg_0.03_Mn_0.02_)Al_1.94_(P_2.05_O_4_)_2_((OH)_0.99_F_0.01_)_2_Â·8H_2_O
Pin_id: M00226
Orientation: Laser parallel to b* (0 1 0). Fiducial mark perpendicular to laser is parallel to c [0 0 1]
Raman shift (cm-1)	intensity
116.097	0
120.287	383.089
124.475	1420.68
128.66	1678.81
132.843	1565.47
137.024	1360.86
141.203	1078.88
145.38	731.73
149.554	383.133
153.726	135.224
157.896	47.5
162.064	179.19
166.23	32.619
170.393	115.377
174.555	130.923
178.714	373.184
182.871	745.739
187.025	867.08
191.178	517.426
195.328	536.934
199.476	335.729
203.623	194.166
207.766	382.618
211.908	781.037
216.048	969.288
220.185	1169.25
224.32	1663.75
228.453	3263.12
232.584	6271.03
236.713	8080.51
240.839	6283.93
244.964	3646.02
249.086	2098.25
253.206	1330.59
257.324	793.016
261.439	715.453
265.553	627.866
269.665	420.259
273.774	592.638
277.881	1245.01
281.986	2157.65
286.089	2364.5
290.19	1573
294.288	1261.69
298.385	1350.03
302.479	1058.06
306.571	614.178
310.661	370.288
314.749	226.62
318.835	263.093
322.919	115.366
327	20.925
331.08	77.327
335.157	64.262
339.232	111.939
343.305	43.688
347.376	147.756
351.445	101.896
355.512	3.786
359.576	71.463
363.639	37.046
367.699	307.205
371.757	601.354
375.814	875.418
379.868	1099.4
383.92	1083.27
387.969	946.881
392.017	730.393
396.063	813.416
400.106	885.62
404.148	1087.55
408.187	1399.39
412.224	1271.28
416.26	1293.23
420.293	1455.2
424.324	2097.17
428.353	3049.26
432.379	4381.42
436.404	3973.53
440.427	2735.59
444.448	1727.59
448.466	1209.52
452.482	911.416
456.497	563.327
460.509	655.162
464.519	506.869
468.527	378.605
472.534	570.243
476.538	441.755
480.54	362.896
484.539	293.204
488.537	323.323
492.533	124.509
496.527	45.598
500.518	25.146
504.508	152.136
508.495	123.025
512.481	62.932
516.464	88.093
520.446	134.077
524.425	138.459
528.402	378.979
532.377	450.23
536.351	541.471
540.322	842.031
544.291	887.545
548.258	1016.4
552.223	1081.55
556.186	1237.46
560.147	1982.32
564.106	2447.51
568.063	2993.14
572.018	2908.97
575.97	2842.79
579.921	3111.72
583.87	3049.79
587.817	3183.77
591.761	3022.03
595.704	2830.41
599.645	2358.38
603.583	1896.28
607.52	1540.8
611.455	1051.5
615.387	763.848
619.318	510.564
623.247	549.293
627.173	587.277
631.098	924.461
635.02	1150.33
638.941	1706.24
642.859	1703.36
646.776	2011.33
650.691	2043.66
654.603	1747.87
658.514	1461.9
662.422	989.949
666.329	844.072
670.233	727.693
674.136	461.479
678.036	345.736
681.935	109.867
685.832	233.795
689.726	207.479
693.619	200.891
697.51	44.033
701.398	96.861
705.285	179.346
709.17	48.447
713.052	153.299
716.933	124.568
720.812	75.314
724.689	115.713
728.564	65.699
732.437	165.291
736.308	64.564
740.176	46.561
744.043	131.697
747.908	49.635
751.771	127.348
755.633	124.842
759.492	82.113
763.349	99.086
767.204	245.617
771.057	221.686
774.909	177.467
778.758	7.084
782.605	12.045
786.451	152.773
790.294	27.418
794.136	131.889
797.976	156.182
801.813	200.23
805.649	3.957
809.483	52.531
813.315	180.773
817.144	223.951
820.972	76.852
824.798	149.627
828.623	72.285
832.445	94.824
836.265	93.393
840.083	259.107
843.9	229.994
847.714	20.639
851.527	70.887
855.337	197.268
859.146	378.215
862.953	200.377
866.757	300.66
870.56	316.301
874.361	341.355
878.16	346.174
881.958	270.248
885.753	386.805
889.546	237.244
893.338	374.318
897.127	209.299
900.915	435.373
904.7	676.592
908.484	327.785
912.266	458.746
916.046	553.332
919.824	511.789
923.6	658.277
927.375	810.316
931.147	788.863
934.918	899.301
938.686	832.164
942.453	1074.3
946.218	1297
949.981	1558.01
953.742	1548.16
957.501	1883.3
961.258	2083.44
965.014	2356.59
968.767	3081.47
972.519	3645.41
976.269	5029.52
980.017	7223.81
983.762	11318.3
987.507	19494.6
991.249	27591.6
994.989	24576.7
998.728	17542
1002.46	11867.6
1006.2	6743.46
1009.93	4079.6
1013.66	2806.04
1017.39	1792.8
1021.12	1520
1024.85	1437.57
1028.57	1115.48
1032.29	873.771
1036.01	572.441
1039.73	631.455
1043.44	870.914
1047.16	900.775
1050.87	1241.03
1054.58	1418.27
1058.29	1119.22
1062	1199.69
1065.7	901.906
1069.4	565.973
1073.11	620.092
1076.81	504.1
1080.5	208.59
1084.2	310.865
1087.89	202.387
1091.59	162.854
1095.28	222.65
1098.96	313.287
1102.65	344.629
1106.34	336.582
1110.02	69.166
1113.7	102.225
1117.38	185.705
1121.06	179.645
1124.73	454.102
1128.41	39.092
1132.08	44.611
1135.75	99.34
1139.42	267.24
1143.08	384.346
1146.75	141.971
1150.41	339.828
1154.07	267.9
1157.73	326.166
1161.39	374.699
1165.05	453.633
1168.7	193.242
1172.35	463.717
1176	465.064
1179.65	357.291
1183.3	270.43
1186.94	444.51
1190.58	158.684
1194.22	43.912
1197.86	99.891
1201.5	257.449
1205.14	426.129
1208.77	266.27
1212.4	597.93
1216.03	671.631
1219.66	273.893
1223.29	213.707
1226.91	144.648
1230.54	97.885
1234.16	133.539
1237.78	86.676
