Measurement: Raman, 514 nm, ccw, Raman Data Processed
Mineral: Paravauxite
Rruff sample: R040179
Ideal chemistry: Fe^2+^Al_2_(PO_4_)_2_(OH)_2_8H_2_O
Locality: Mina Siglo XX, Llallagua, Bolivia
Source: University of Arizona Mineral Museum
Description: Colorless short prismatic crystals in subparallel groups
Measured chemistry: (Fe_0.93_Mg_0.03_Mn_0.02_)Al_1.94_(P_2.05_O_4_)_2_((OH)_0.99_F_0.01_)_2_Â·8H_2_O
Pin_id: M00109
Orientation: Laser parallel to c* (0 0 1). Fiducial mark perpendicular to laser is parallel to a [1 0 0]
Raman shift (cm-1)	intensity
54.966	0
59.164	33.751
63.36	13.497
67.554	15.732
71.747	512.16
75.937	1267.64
80.125	1578.69
84.311	1579.2
88.496	1315.17
92.678	1446.66
96.858	1465.07
101.036	1577.89
105.212	1474.46
109.387	1680.8
113.559	1771.34
117.729	2215.67
121.897	2397.51
126.063	2318.69
130.228	2157.57
134.39	1870.24
138.55	1825.9
142.709	1666.93
146.865	1349.99
151.019	1192.76
155.171	724.543
159.322	1140.55
163.47	2374.9
167.617	3561.66
171.761	3576.89
175.904	3371.61
180.044	2670.83
184.183	1677.55
188.319	1491.81
192.454	2611.59
196.586	4023.38
200.717	3272.13
204.846	1589.8
208.972	1030.31
213.097	494.753
217.22	554.641
221.341	801.179
225.46	1854.1
229.577	3541.67
233.692	5502.39
237.805	5449.63
241.916	3780.32
246.025	2108.18
250.132	1143
254.237	808.621
258.34	792.9
262.442	691.724
266.541	809.988
270.639	1092.61
274.734	1686.54
278.828	3038.71
282.919	4579.07
287.009	5293.6
291.097	6265.24
295.183	6912.94
299.266	6266.63
303.348	4740.35
307.428	2938.23
311.507	1761.35
315.583	996.594
319.657	496.88
323.729	109.136
327.8	14.31
331.868	35.385
335.935	39.665
339.999	68.896
344.062	159.413
348.123	271.353
352.182	227.862
356.239	100.833
360.294	137.918
364.347	642.343
368.398	1320.06
372.448	2128.35
376.495	2861.7
380.54	3234.18
384.584	3132.78
388.626	2652.67
392.666	2487.83
396.704	2542.22
400.74	2782.74
404.774	2929.35
408.806	2754.9
412.836	2475.28
416.865	2313.49
420.891	2211.47
424.916	2241.19
428.939	2712.61
432.959	2821.71
436.978	2354.47
440.996	2111.86
445.011	2007.87
449.024	2588.48
453.036	3493.69
457.045	4919.49
461.053	7087.62
465.059	9931.26
469.063	13311.7
473.065	16401.2
477.065	17499.2
481.063	17648.7
485.06	16207.2
489.054	13892.1
493.047	11851.8
497.038	9734.75
501.027	8104.32
505.014	6288.62
508.999	4569.15
512.982	3551.46
516.964	2731.03
520.944	2103.19
524.921	1914.92
528.897	1912.3
532.871	2481.11
536.844	2799.07
540.814	3131.69
544.783	3461.29
548.749	3325.57
552.714	3005.24
556.677	2825.21
560.638	2856.01
564.597	3513.03
568.555	4950.43
572.511	7009.56
576.464	8760.88
580.416	8980.14
584.366	8100.41
588.315	6453.35
592.261	5123.02
596.206	3477.77
600.148	2364.25
604.089	1450.53
608.028	727.354
611.965	336.187
615.901	100.715
619.834	11.84
623.766	91.052
627.696	36.8
631.624	24.87
635.551	9.405
639.475	269.2
643.398	349.345
647.318	362.098
651.237	438.461
655.155	408.451
659.07	251.098
662.984	254.516
666.895	191.817
670.805	7.084
674.713	53.008
678.62	12.39
682.524	15.02
686.427	27.6
690.328	84.762
694.227	93.284
698.124	16.869
702.02	79.116
705.913	54.201
709.805	32.335
713.695	55.431
717.584	55.487
721.47	107.576
725.355	73.036
729.238	190.917
733.119	103.216
736.998	139.996
740.876	140.283
744.752	198.094
748.626	138.439
752.498	107.317
756.368	167.729
760.237	135.69
764.104	22.181
767.969	1.828
771.832	53.643
775.693	49.62
779.553	28.364
783.411	55.663
787.267	16.6
791.122	21.772
794.974	34.196
798.825	15.828
802.674	81.533
806.522	160.933
810.367	111.04
814.211	191.862
818.053	258.411
821.893	324.693
825.732	389.97
829.568	367.004
833.403	526.662
837.236	473.029
841.068	451.937
844.898	374.177
848.726	356.486
852.552	352.834
856.376	317.315
860.199	356.673
864.02	353.473
867.839	278.164
871.656	207.304
875.472	263.449
879.286	261.407
883.098	315.326
886.909	314.414
890.717	403.354
894.524	379.882
898.33	385.746
902.133	496.688
905.935	502.384
909.735	677.656
913.533	778.991
917.33	1011.22
921.124	1146.37
924.918	1318.61
928.709	1545.15
932.499	1836.64
936.286	1943.33
940.073	2253.13
943.857	2357.56
947.64	2483.94
951.421	2622.24
955.2	2786.15
958.978	3225.42
962.753	3685.06
966.527	4361.09
970.3	5384.53
974.071	7036.36
977.84	9974.58
981.607	15419.2
985.372	26362.4
989.136	43477.1
992.898	53808.5
996.659	43759.5
1000.42	29683.3
1004.17	18073.9
1007.93	10490.2
1011.68	6358.15
1015.43	4121.82
1019.18	2828.14
1022.93	2051.07
1026.68	1507.6
1030.42	1104.6
1034.17	964.537
1037.91	873.916
1041.65	805.178
1045.39	930.81
1049.12	1232.81
1052.86	1896.17
1056.59	2872.59
1060.33	3437.66
1064.06	2579.71
1067.78	1470.73
1071.51	765.102
1075.23	461.375
1078.96	149.423
1082.68	247.357
1086.4	232.991
1090.12	195.688
1093.83	239.142
1097.55	264.784
1101.26	435.147
1104.97	531.387
1108.68	378.209
1112.39	402.198
1116.1	398.712
1119.8	400.472
1123.5	397.846
1127.2	410.408
1130.9	460.284
1134.6	519.041
1138.3	748.328
1141.99	773.202
1145.69	1019.66
1149.38	1375.27
1153.07	1665.11
1156.76	2203.31
1160.44	2930.79
1164.13	3727.93
1167.81	4184.21
1171.49	3932.87
1175.17	2919.71
1178.85	2015.72
1182.52	1226.83
1186.2	882.086
1189.87	448.85
1193.54	289.38
1197.21	115.776
1200.88	36.102
1204.55	156.729
1208.21	60.619
1211.88	62.879
1215.54	60.149
1219.2	70.867
1222.86	63.303
1226.51	72.581
1230.17	59.102
1233.82	24.878
1237.47	12.228
1241.12	56.154
1244.77	90.469
1248.42	95.114
1252.06	8.961
1255.71	3.915
1259.35	29.715
1262.99	39.154
1266.63	89.187
1270.26	14.92
1273.9	17.749
1277.53	31.108
1281.16	51.479
1284.8	71.364
1288.42	75.826
1292.05	26.872
1295.68	99.459
1299.3	82.636
1302.92	102.399
1306.55	130.753
1310.16	218.667
1313.78	133.164
1317.4	16.147
1321.01	62.849
1324.62	120.022
1328.24	154.792
1331.85	92.162
1335.45	113.135
1339.06	165.736
1342.66	137.718
1346.27	185.836
1349.87	291.674
1353.47	215.845
1357.07	236.762
1360.66	256.692
1364.26	204.269
1367.85	208.607
1371.44	176.175
1375.04	162.065
1378.62	285.645
1382.21	243.107
1385.8	210.162
1389.38	142.661
1392.96	244.197
1396.54	220.454
1400.12	233.349
1403.7	202.995
1407.28	164.841
1410.85	216.835
1414.42	292.184
1417.99	299.055
1421.56	254.048
1425.13	241.64
1428.7	252.9
1432.26	236.433
1435.83	245.045
1439.39	306.802
1442.95	254.386
1446.51	235.178
1450.06	289.84
1453.62	289.416
1457.17	326.071
1460.73	227.223
1464.28	212.243
1467.83	152.822
1471.37	181.805
1474.92	256.921
1478.46	240.707
1482.01	100.4
1485.55	153.412
1489.09	74.64
1492.63	174.134
1496.16	194.066
1499.7	93.561
1503.23	204.83
1506.76	121.898
1510.29	147.711
1513.82	123.21
1517.35	2.49
1520.88	52.576
1524.4	0.375
