Measurement: Raman, 514 nm, ccw, Raman Data Processed
Mineral: Paravauxite
Rruff sample: R040179
Ideal chemistry: Fe^2+^Al_2_(PO_4_)_2_(OH)_2_8H_2_O
Locality: Mina Siglo XX, Llallagua, Bolivia
Source: University of Arizona Mineral Museum
Description: Colorless short prismatic crystals in subparallel groups
Measured chemistry: (Fe_0.93_Mg_0.03_Mn_0.02_)Al_1.94_(P_2.05_O_4_)_2_((OH)_0.99_F_0.01_)_2_Â·8H_2_O
Pin_id: M00226
Orientation: Laser parallel to b* (0 1 0). Fiducial mark perpendicular to laser is parallel to c [0 0 1]
Raman shift (cm-1)	intensity
121.683	0
125.87	268.574
130.055	550.178
134.237	643.613
138.417	584.896
142.596	597.133
146.771	565.411
150.945	356.913
155.117	83.494
159.286	5.233
163.453	69.141
167.618	39.554
171.781	61.403
175.941	21.325
180.1	64.526
184.256	41.258
188.41	94.046
192.562	391.68
196.711	526.089
200.859	442.517
205.004	237.706
209.147	452.566
213.288	517.325
217.427	502.092
221.564	404.382
225.698	775.545
229.83	1563.7
233.96	2583.47
238.088	2488.79
242.214	1605.26
246.338	793.538
250.459	457.793
254.579	242.045
258.696	206.255
262.811	160.391
266.924	244.436
271.035	518.382
275.143	1122.22
279.25	2025.95
283.354	2889.57
287.456	2151.46
291.556	1362.75
295.654	865.816
299.75	689.728
303.843	484.11
307.935	178.757
312.024	113.563
316.111	28.312
320.196	13.119
324.279	62.068
328.36	2.271
332.439	16.902
336.516	50.879
340.59	45.943
344.662	17.846
348.733	8.979
352.801	32.688
356.867	66.305
360.931	11.899
364.992	34.351
369.052	245.149
373.11	300.062
377.165	453.938
381.218	557.653
385.27	561.395
389.319	434.438
393.366	397.21
397.411	559.825
401.454	752.249
405.495	1124.57
409.533	1226.69
413.57	918.688
417.604	880.556
421.637	1042.29
425.667	1663.93
429.695	2535.49
433.721	3246.92
437.745	2828.21
441.767	1879.34
445.787	1030.32
449.805	741.148
453.821	561.879
457.834	372.496
461.846	379.282
465.856	313.36
469.863	473.615
473.868	373.716
477.872	330.831
481.873	392.713
485.872	131.662
489.869	264.591
493.864	180.769
497.857	229.728
501.848	14.817
505.837	65.927
509.824	53.631
513.809	50.966
517.792	59.66
521.772	4.783
525.751	48.326
529.728	96.801
533.702	301.212
537.675	395.055
541.645	303.09
545.613	460.742
549.58	536.584
553.544	366.767
557.507	591.661
561.467	583.935
565.425	778.698
569.381	953.957
573.335	1008.12
577.288	1032.21
581.238	1125.57
585.186	1134.59
589.132	1233.02
593.076	1154.07
597.018	1076.19
600.958	1138.07
604.896	899.804
608.832	831.321
612.766	756.198
616.698	597.668
620.628	624.952
624.556	330.218
628.482	323.415
632.405	443.312
636.327	543.182
640.247	782.813
644.165	778.637
648.081	724.009
651.995	576.518
655.907	514.672
659.817	351.512
663.725	428.795
667.63	284.549
671.534	157.088
675.436	211.305
679.336	161.441
683.234	103.613
687.13	19.158
691.024	175.178
694.916	31.098
698.806	55.363
702.694	102.66
706.58	17.883
710.464	182.82
714.346	82.506
718.226	151.777
722.105	205.865
725.981	179.734
729.855	133.406
733.727	146.881
737.597	69.822
741.466	36.855
745.332	95.846
749.196	258.379
753.059	250.756
756.919	102.988
760.778	135.072
764.634	97.018
768.489	198.762
772.341	130.336
776.192	8.34
780.041	7.256
783.887	143.596
787.732	94.297
791.575	114.896
795.416	65.387
799.255	25.664
803.092	64.318
806.927	85.461
810.76	205.166
814.591	204.779
818.421	204.328
822.248	73.506
826.073	142.607
829.897	18.613
833.718	80.146
837.538	96.842
841.356	86.113
845.171	179.318
848.985	229.604
852.797	127.369
856.607	155.109
860.415	212.664
864.221	108.643
868.025	40.404
871.828	169.695
875.628	138.883
879.426	177.262
883.223	256.412
887.018	55.643
890.81	129.236
894.601	45.279
898.39	275.172
902.177	225.049
905.962	245.375
909.745	185.688
913.526	446.195
917.306	316.588
921.083	363.643
924.859	403.883
928.632	347.113
932.404	553.494
936.174	452.494
939.942	603.791
943.708	504.99
947.472	806.365
951.235	611.051
954.995	843.23
958.754	605.082
962.51	1207.01
966.265	927.824
970.018	1169.26
973.769	1761.34
977.518	2573.92
981.265	3736.17
985.011	6736.78
988.754	10865.7
992.496	12599.1
996.236	9162.77
999.974	6086.78
1003.71	3560.35
1007.44	2004.79
1011.18	1339.46
1014.91	1074.38
1018.63	699.543
1022.36	605
1026.09	410.686
1029.81	196.625
1033.53	422.814
1037.25	249.26
1040.97	495.816
1044.68	472.652
1048.4	542.791
1052.11	743.605
1055.82	581.818
1059.53	880.045
1063.23	698.332
1066.94	376.953
1070.64	405.67
1074.34	314.475
1078.04	293.295
1081.74	204.551
1085.43	243.006
1089.12	320.271
1092.82	597.412
1096.51	305.158
1100.19	343.367
1103.88	471.975
1107.56	140.965
1111.25	540.365
1114.93	280.029
1118.61	350.037
1122.28	440.438
1125.96	91.205
1129.63	142.342
1133.3	76.148
1136.97	155.719
1140.64	147.963
1144.31	90.42
1147.97	143.072
1151.63	366.037
1155.29	349.318
1158.95	132.869
1162.61	506.824
1166.26	471.424
1169.92	556.676
1173.57	682.592
1177.22	519.199
1180.87	306.527
1184.51	389.178
1188.15	5.135
1191.8	303.348
1195.44	62.307
1199.08	262.107
1202.71	282.779
1206.35	334.277
1209.98	197.123
1213.61	183.578
1217.24	40.924
1220.87	262.672
1224.5	11.67
1228.12	269.381
1231.75	53.25
