Measurement: Raman, 514 nm, ccw, Raman Data Processed
Mineral: Paravauxite
Rruff sample: R040179
Ideal chemistry: Fe^2+^Al_2_(PO_4_)_2_(OH)_2_8H_2_O
Locality: Mina Siglo XX, Llallagua, Bolivia
Source: University of Arizona Mineral Museum
Description: Colorless short prismatic crystals in subparallel groups
Measured chemistry: (Fe_0.93_Mg_0.03_Mn_0.02_)Al_1.94_(P_2.05_O_4_)_2_((OH)_0.99_F_0.01_)_2_Â·8H_2_O
Pin_id: M00226
Orientation: Laser parallel to b* (0 1 0). Fiducial mark perpendicular to laser is parallel to c [0 0 1]
Raman shift (cm-1)	intensity
118.891	0
123.079	432.016
127.265	768.812
131.449	1289.37
135.631	1584.48
139.81	1612.36
143.988	1568.52
148.163	1186.82
152.336	769.812
156.507	406.392
160.675	17.383
164.842	29.72
169.006	46.361
173.168	143.315
177.328	386.443
181.485	169.203
185.641	68.229
189.794	184.197
193.945	756.479
198.094	1248.61
202.241	990.564
206.385	942.077
210.528	883.435
214.668	974.797
218.806	840.795
222.942	850.065
227.076	1437.75
231.207	2770.56
235.337	3950.24
239.464	3320.43
243.589	1971.17
247.712	872.261
251.833	373.336
255.951	264.335
260.068	215.19
264.182	395.902
268.294	596.465
272.404	1106.87
276.512	2277.1
280.618	4097.16
284.721	4535.15
288.823	2901.74
292.922	1830.75
297.019	1220.92
301.114	871.766
305.207	503.066
309.298	114.443
313.387	216.033
317.473	32.239
321.558	20.336
325.64	148.069
329.72	117.915
333.798	4.968
337.874	73.147
341.948	160.209
346.019	46.386
350.089	89.389
354.156	93.483
358.222	178.173
362.285	400.828
366.346	380.064
370.405	472.005
374.462	692.314
378.516	842.336
382.569	891.963
386.62	691.126
390.668	659.374
394.714	897.345
398.759	1025.23
402.801	1543.06
406.841	2210.72
410.879	2008.22
414.915	1865.51
418.949	2082.58
422.98	3079.44
427.01	4776.09
431.037	7422.51
435.063	7788.7
439.086	5734.67
443.108	3410.4
447.127	1945.9
451.144	1121.21
455.159	946.312
459.172	881.164
463.183	515.78
467.192	380.18
471.198	474.303
475.203	368.141
479.206	368.898
483.206	388.531
487.205	454.822
491.201	215.786
495.196	158.444
499.188	82.235
503.178	88.888
507.166	70.066
511.153	8.837
515.137	51.476
519.119	41.744
523.099	232.923
527.077	235.703
531.053	318.886
535.027	546.857
538.998	464.077
542.968	463.172
546.936	500.459
550.902	718.672
554.865	664.794
558.827	888.814
562.786	947.679
566.744	1265.49
570.7	1500.44
574.653	1455.11
578.604	1629.55
582.554	1933.65
586.501	2186.86
590.447	2229.65
594.39	2311.98
598.331	2334.01
602.271	2515.56
606.208	2316.72
610.143	2387.47
614.077	1958.12
618.008	1858.48
621.937	1594.41
625.865	1404.12
629.79	1193.74
633.713	962.467
637.634	831.148
641.553	1049.71
645.471	1013.77
649.386	910.133
653.299	705.314
657.21	557.748
661.12	496.268
665.027	213.631
668.932	307.266
672.835	138.254
676.737	160.629
680.636	185.053
684.533	71.59
688.428	82.289
692.322	59.041
696.213	173.213
700.102	20.348
703.99	102.637
707.875	55.061
711.758	286.387
715.64	97.826
719.519	378.203
723.397	148.227
727.272	117.926
731.146	167.334
735.017	406.467
738.887	365.318
742.755	313.902
746.62	352.227
750.484	370.322
754.346	268.154
758.206	190.465
762.063	223.125
765.919	120.275
769.773	97.207
773.625	26.082
777.475	250.316
781.323	86.447
785.169	112.377
789.013	328.113
792.856	33.662
796.696	90.977
800.534	55.955
804.371	308.746
808.205	73.203
812.037	87.615
815.868	107.963
819.697	65.24
823.523	9.059
827.348	7.988
831.171	115.223
834.992	12.961
838.811	74.107
842.628	117.055
846.443	351.867
850.256	48.232
854.067	20.953
857.876	24.881
861.684	35.848
865.489	350.016
869.293	302.424
873.095	204.074
876.894	173.742
880.692	186.232
884.488	99.004
888.282	101.725
892.074	204.129
895.864	127.104
899.652	0.158
903.439	293.4
907.223	266.697
911.006	430.154
914.786	363.773
918.565	347.197
922.342	640.621
926.117	621.459
929.89	792.156
933.661	855.498
937.43	1049.13
941.198	1143.43
944.963	936.924
948.727	1104.76
952.488	1264.85
956.248	1353.46
960.006	1547.67
963.762	1512.24
967.516	2110.66
971.269	2635.92
975.019	3370.89
978.767	5215.65
982.514	8740.54
986.259	14835.8
990.002	22048.9
993.743	20985.3
997.482	13901.9
1001.22	8667.75
1004.95	4992.23
1008.69	3139.03
1012.42	1896.67
1016.15	1154.63
1019.88	734.754
1023.6	670.766
1027.33	429.49
1031.05	568.424
1034.77	417.566
1038.49	506.92
1042.21	276.49
1045.92	286.816
1049.63	618.945
1053.35	744.811
1057.05	1258.41
1060.76	950.707
1064.47	621.941
1068.17	273.049
1071.87	194.529
1075.57	279.57
1079.27	341.637
1082.97	496.811
1086.66	459.299
1090.36	382.193
1094.05	355.168
1097.73	558.01
1101.42	661.051
1105.11	787.705
1108.79	731.801
1112.47	615.127
1116.15	358.576
1119.83	182.441
1123.51	297.406
1127.18	280.842
1130.86	154.43
1134.53	435.811
1138.19	248.053
1141.86	211.711
1145.53	486.016
1149.19	250.717
1152.85	385.799
1156.51	531.25
1160.17	1107.07
1163.83	1023.25
1167.48	1239.71
1171.13	796.238
1174.78	483.049
1178.43	240.205
1182.08	197.549
1185.73	215.111
1189.37	262.982
1193.01	351.18
1196.65	509.551
1200.29	61.746
1203.93	32.729
1207.56	3.287
1211.19	114.947
1214.83	335.52
1218.45	276.639
1222.08	648.291
1225.71	370.482
1229.33	163.26
1232.95	86.668
1236.57	378.988
1240.19	285.91
1243.81	149.947
1247.42	259.604
1251.04	402.992
1254.65	623.18
1258.26	404.4
1261.87	75.48
1265.47	4.578
1269.08	50.424
1272.68	0.555
1276.28	127.219
1279.88	0
