Measurement: Raman, 514 nm, ccw, Raman Data Processed
Mineral: Paravauxite
Rruff sample: R040179
Ideal chemistry: Fe^2+^Al_2_(PO_4_)_2_(OH)_2_8H_2_O
Locality: Mina Siglo XX, Llallagua, Bolivia
Source: University of Arizona Mineral Museum
Description: Colorless short prismatic crystals in subparallel groups
Measured chemistry: (Fe_0.93_Mg_0.03_Mn_0.02_)Al_1.94_(P_2.05_O_4_)_2_((OH)_0.99_F_0.01_)_2_Â·8H_2_O
Pin_id: M00109
Orientation: Laser parallel to c* (0 0 1). Fiducial mark perpendicular to laser is parallel to a [1 0 0]
Raman shift (cm-1)	intensity
54.966	0
59.164	58.068
63.36	23.835
67.554	45.47
71.747	486.79
75.937	1170.12
80.125	1486.96
84.311	1444.65
88.496	1305.9
92.678	1365.52
96.858	1367.54
101.036	1439.47
105.212	1495.61
109.387	1926.95
113.559	2599.87
117.729	3635.97
121.897	4447.92
126.063	4154.52
130.228	2944.77
134.39	1989.03
138.55	1658.97
142.709	1287.49
146.865	1078.26
151.019	946.938
155.171	897.858
159.322	1662.97
163.47	3277.1
167.617	4510.61
171.761	3833.76
175.904	3292.58
180.044	3287.08
184.183	3260.33
188.319	2696.37
192.454	1858.21
196.586	1539.8
200.717	1133.45
204.846	941.499
208.972	1066.35
213.097	1044.66
217.22	1300.57
221.341	2364.08
225.46	4574.13
229.577	8785.73
233.692	13512.8
237.805	13381.9
241.916	9193.64
246.025	5223.73
250.132	3026.93
254.237	2060.04
258.34	1578.93
262.442	1395.47
266.541	1551.54
270.639	2289.06
274.734	4491.96
278.828	8903.19
282.919	12182.7
287.009	9308.42
291.097	6992.32
295.183	6410.42
299.266	5829.9
303.348	4292.94
307.428	2803.7
311.507	1517.24
315.583	674.296
319.657	142.431
323.729	91.554
327.8	93.651
331.868	154.706
335.935	31.698
339.999	50.609
344.062	70.605
348.123	230.073
352.182	182.985
356.239	164.292
360.294	40.962
364.347	219.057
368.398	610.434
372.448	1130.21
376.495	1739.73
380.54	1934.03
384.584	1861.13
388.626	1579.27
392.666	1604.48
396.704	1885.72
400.74	2275.91
404.774	2897.98
408.806	3023.94
412.836	2703.72
416.865	2303.29
420.891	1851.64
424.916	1700.09
428.939	1731.55
432.959	1718.06
436.978	1451.26
440.996	995.122
445.011	648.648
449.024	475.816
453.036	434.224
457.045	438.332
461.053	640.803
465.059	1030.78
469.063	1416.8
473.065	1749.2
477.065	1778.08
481.063	1669.13
485.06	1532.67
489.054	1183.59
493.047	1033.85
497.038	787.387
501.027	626.817
505.014	470.494
508.999	306.861
512.982	299.154
516.964	457.016
520.944	530.564
524.921	810.9
528.897	1202.41
532.871	1594.12
536.844	2109.43
540.814	2685.02
544.783	3115.68
548.749	3429.72
552.714	3709.23
556.677	4189.92
560.638	4922
564.597	5681.71
568.555	5677.95
572.511	4719.65
576.464	3127.32
580.416	2038.85
584.366	1521.47
588.315	1215.84
592.261	1102.49
596.206	795.646
600.148	645.201
604.089	436.943
608.028	288.321
611.965	77.192
615.901	87.187
619.834	137.066
623.766	258.108
627.696	154.04
631.624	37.195
635.551	337.033
639.475	748.831
643.398	1241.22
647.318	1407.72
651.237	1389.57
655.155	1304.3
659.07	1046.6
662.984	785.622
666.895	630.387
670.805	380.049
674.713	317.477
678.62	257.632
682.524	209.351
686.427	151.511
690.328	144.082
694.227	235.067
698.124	193.5
702.02	202.402
705.913	155.797
709.805	277.632
713.695	256.967
717.584	257.813
721.47	234.561
725.355	349
729.238	449.366
733.119	374.242
736.998	261.639
740.876	407.562
744.752	182.015
748.626	318.961
752.498	220.44
756.368	241.409
760.237	192.865
764.104	118.775
767.969	94.536
771.832	129.827
775.693	140.34
779.553	19.727
783.411	6.119
787.267	21.892
791.122	76.897
794.974	58.254
798.825	26.165
802.674	33.464
806.522	53.065
810.367	87.947
814.211	136.762
818.053	215.328
821.893	225.65
825.732	370.733
829.568	317.584
833.403	418.222
837.236	449.702
841.068	521.528
844.898	421.641
848.726	503.65
852.552	515.599
856.376	654.338
860.199	733.239
864.02	717.912
867.839	710.017
871.656	732.796
875.472	740.567
879.286	782.413
883.098	890.211
886.909	835.891
890.717	859.622
894.524	984.931
898.33	1049.01
902.133	1127.55
905.935	1202.21
909.735	1340.35
913.533	1365.11
917.33	1574.16
921.124	1664.64
924.918	1732.38
928.709	1933.46
932.499	2165.39
936.286	2286.48
940.073	2541.72
943.857	2734.35
947.64	2867.73
951.421	3335.16
955.2	3677.8
958.978	4338.79
962.753	4955.98
966.527	5893.38
970.3	7092.94
974.071	8948.69
977.84	12128.6
981.607	17881.9
985.372	29143.9
989.136	46271.7
992.898	56293.1
996.659	44507.1
1000.42	30487.9
1004.17	18393.9
1007.93	10746.2
1011.68	6448.78
1015.43	4142.59
1019.18	2794.63
1022.93	2033.94
1026.68	1509.51
1030.42	1017.3
1034.17	761.289
1037.91	624.494
1041.65	528.942
1045.39	496.618
1049.12	510.504
1052.86	686.599
1056.59	972.866
1060.33	1149.77
1064.06	855.019
1067.78	474.21
1071.51	251.522
1075.23	55.612
1078.96	85.162
1082.68	16.235
1086.4	6.545
1090.12	66.103
1093.83	148.525
1097.55	279.178
1101.26	304.414
1104.97	407.14
1108.68	247.029
1112.39	247.576
1116.1	195.293
1119.8	171.771
1123.5	80.08
1127.2	7.964
1130.9	53.427
1134.6	32.951
1138.3	50.019
1141.99	0.969
1145.69	16.682
1149.38	73.979
1153.07	83.245
1156.76	147.275
1160.44	252.859
1164.13	461.232
1167.81	503.514
1171.49	529.863
1175.17	400.763
1178.85	276.161
1182.52	271.167
1186.2	77.282
1189.87	137.173
1193.54	67.713
1197.21	23.516
1200.88	31.675
1204.55	92.841
1208.21	21.565
1211.88	23.183
1215.54	48.841
1219.2	33.204
1222.86	18.649
1226.51	0.486
1230.17	25.742
1233.82	42.617
1237.47	103.973
1241.12	0.032
1244.77	42.903
1248.42	55.39
1252.06	46.637
1255.71	18.78
1259.35	11.684
1262.99	80.05
1266.63	54.039
1270.26	18.378
1273.9	99.392
1277.53	5.907
1281.16	3.569
1284.8	57.868
1288.42	35.99
1292.05	17.626
1295.68	43.878
1299.3	0.061
1302.92	87.911
1306.55	28.455
1310.16	111.683
1313.78	35.41
1317.4	155.094
1321.01	61.271
1324.62	122.837
1328.24	105.731
1331.85	33.019
1335.45	52.982
1339.06	77.66
1342.66	158.069
1346.27	198.046
1349.87	189.16
1353.47	220.363
1357.07	249.301
1360.66	211.425
1364.26	214.971
1367.85	142.028
1371.44	135.906
1375.04	202.979
1378.62	153.64
1382.21	210.912
1385.8	118.704
1389.38	212.667
1392.96	234.599
1396.54	212.765
1400.12	213.713
1403.7	152.68
1407.28	147.125
1410.85	171.836
1414.42	275.931
1417.99	142.165
1421.56	226.656
1425.13	217.748
1428.7	265.559
1432.26	279.727
1435.83	233.128
1439.39	234.795
1442.95	173.462
1446.51	166.366
1450.06	229.457
1453.62	323.873
1457.17	298.784
1460.73	200.923
1464.28	250.109
1467.83	197.03
1471.37	173.216
1474.92	102.854
1478.46	84.162
1482.01	154.592
1485.55	142.248
1489.09	123.269
1492.63	112.039
1496.16	187.71
1499.7	59.335
1503.23	100.106
1506.76	148.536
1510.29	101.282
1513.82	78.246
1517.35	32.679
1520.88	0
