Measurement: Raman, 514 nm, ccw, Raman Data Processed
Mineral: Paravauxite
Rruff sample: R040179
Ideal chemistry: Fe^2+^Al_2_(PO_4_)_2_(OH)_2_8H_2_O
Locality: Mina Siglo XX, Llallagua, Bolivia
Source: University of Arizona Mineral Museum
Description: Colorless short prismatic crystals in subparallel groups
Measured chemistry: (Fe_0.93_Mg_0.03_Mn_0.02_)Al_1.94_(P_2.05_O_4_)_2_((OH)_0.99_F_0.01_)_2_Â·8H_2_O
Pin_id: M00217
Orientation: Laser parallel to (0 1 1). Fiducial mark perpendicular to laser is parallel to a [1 0 0]
Raman shift (cm-1)	intensity
54.966	0
59.164	167.145
63.36	56.578
67.554	80.525
71.747	830.09
75.937	2144.04
80.125	3027.15
84.311	2829.45
88.496	2555.64
92.678	2464.97
96.858	2397.66
101.036	2457.65
105.212	2741.63
109.387	3741.31
113.559	4584.86
117.729	4167.73
121.897	3321.49
126.063	3200.11
130.228	3485.32
134.39	3754.97
138.55	4045.45
142.709	3924.67
146.865	3725.47
151.019	3258.7
155.171	2827.78
159.322	2822.92
163.47	3790.28
167.617	5516.92
171.761	5651.9
175.904	5078.22
180.044	4614.88
184.183	3794.87
188.319	3525.15
192.454	3752.73
196.586	4961.86
200.717	4870.18
204.846	3718.96
208.972	3110.76
213.097	2398.35
217.22	1850.64
221.341	1613.31
225.46	1552.1
229.577	1828.42
233.692	2399.58
237.805	2594.38
241.916	2306.95
246.025	1780.89
250.132	1406.92
254.237	1423.8
258.34	1463.35
262.442	1469.42
266.541	1650.87
270.639	1873.59
274.734	2322.5
278.828	3087.53
282.919	4024.63
287.009	4716.75
291.097	5437.83
295.183	6172.8
299.266	5903.54
303.348	4774.01
307.428	3154.22
311.507	1989.72
315.583	1277.88
319.657	820.738
323.729	444.578
327.8	63.566
331.868	24.734
335.935	197.42
339.999	180.628
344.062	198.432
348.123	210.913
352.182	199.106
356.239	229.873
360.294	68.176
364.347	58.787
368.398	196.77
372.448	489.9
376.495	793.658
380.54	1033.24
384.584	973.58
388.626	1029.02
392.666	1293.67
396.704	1482.31
400.74	1839.73
404.774	2223.98
408.806	1910.99
412.836	1617.66
416.865	1722.97
420.891	2090.88
424.916	2640.37
428.939	4036.41
432.959	5081.99
436.978	4598.09
440.996	3525.69
445.011	2525.77
449.024	2303.33
453.036	2438.34
457.045	3012.81
461.053	4285.76
465.059	5806.18
469.063	7635.03
473.065	9448.31
477.065	10417
481.063	10920.5
485.06	10138.7
489.054	9046.44
493.047	7706.11
497.038	6342.25
501.027	5445.54
505.014	4376.46
508.999	3298.96
512.982	2577.07
516.964	2035.36
520.944	1402.2
524.921	967.021
528.897	594.667
532.871	636.621
536.844	532.652
540.814	502.429
544.783	690.005
548.749	732.505
552.714	859.454
556.677	1028.35
560.638	1377.34
564.597	1684
568.555	1973.34
572.511	2290.07
576.464	2489.47
580.416	2229.86
584.366	1766.25
588.315	1360.62
592.261	1178.96
596.206	920.264
600.148	959.514
604.089	836.701
608.028	979.836
611.965	932.565
615.901	901.2
619.834	791.752
623.766	465.905
627.696	420.539
631.624	183.664
635.551	47.619
639.475	155.638
643.398	153.311
647.318	152.396
651.237	196.637
655.155	227.011
659.07	31.526
662.984	110.946
666.895	29.488
670.805	130.959
674.713	49.794
678.62	115.212
682.524	40.44
686.427	9.471
690.328	48.614
694.227	2.798
698.124	21.953
702.02	3.74
705.913	140.312
709.805	11.198
713.695	137.272
717.584	95.984
721.47	203.201
725.355	106.019
729.238	295.524
733.119	316.721
736.998	166.629
740.876	293.247
744.752	206.576
748.626	285.619
752.498	234.374
756.368	189.846
760.237	320.033
764.104	82.94
767.969	41.554
771.832	76.83
775.693	169.738
779.553	9.678
783.411	107.548
787.267	32.517
791.122	115.38
794.974	18.803
798.825	106.893
802.674	99.356
806.522	545.469
810.367	151.04
814.211	180.22
818.053	173.299
821.893	249.586
825.732	314.2
829.568	355.788
833.403	332.815
837.236	259.247
841.068	341.51
844.898	289.425
848.726	232.426
852.552	260.921
856.376	240.924
860.199	239.431
864.02	248.577
867.839	152.954
871.656	210.239
875.472	258.846
879.286	137.943
883.098	317.389
886.909	232.841
890.717	452.303
894.524	453.78
898.33	332.277
902.133	471.807
905.935	502.374
909.735	664.025
913.533	684.775
917.33	985.186
921.124	1009.81
924.918	1124.53
928.709	1212.28
932.499	1324.57
936.286	1617.99
940.073	1742.34
943.857	1849.01
947.64	1860.08
951.421	2094.63
955.2	2193.17
958.978	2418.01
962.753	2867.79
966.527	3506.66
970.3	4375.89
974.071	5529.33
977.84	7864.22
981.607	11769.6
985.372	19254.6
989.136	31910.9
992.898	43440.8
996.659	38014.2
1000.42	25928.9
1004.17	15695.1
1007.93	9002.65
1011.68	5393.74
1015.43	3349.27
1019.18	2246.09
1022.93	1500.25
1026.68	1076.74
1030.42	725.477
1034.17	561.236
1037.91	353.632
1041.65	312.062
1045.39	263.908
1049.12	179.437
1052.86	283.463
1056.59	420.246
1060.33	669.611
1064.06	546.98
1067.78	244.254
1071.51	45.286
1075.23	33.04
1078.96	62.195
1082.68	1.533
1086.4	4.561
1090.12	19.427
1093.83	193.801
1097.55	346.912
1101.26	499.301
1104.97	574.644
1108.68	495.062
1112.39	595.35
1116.1	555.032
1119.8	263.794
1123.5	325.158
1127.2	310.702
1130.9	155.649
1134.6	291.492
1138.3	305.173
1141.99	273.663
1145.69	437.265
1149.38	557.751
1153.07	731.886
1156.76	1090.66
1160.44	1291.09
1164.13	1653.18
1167.81	1996.08
1171.49	1828.13
1175.17	1521.74
1178.85	1085.29
1182.52	602.146
1186.2	508.318
1189.87	352.884
1193.54	280.718
1197.21	61.764
1200.88	82.513
1204.55	155.124
1208.21	100.583
1211.88	28.831
1215.54	64.61
1219.2	76.48
1222.86	50.188
1226.51	26.367
1230.17	56.979
1233.82	44.54
1237.47	45.923
1241.12	33.503
1244.77	37.292
1248.42	86.606
1252.06	50.804
1255.71	96
1259.35	16.258
1262.99	33.995
1266.63	99.106
1270.26	58.433
1273.9	73.034
1277.53	61.913
1281.16	140.19
1284.8	82.836
1288.42	90.906
1292.05	27.518
1295.68	72.533
1299.3	24.885
1302.92	159.15
1306.55	81.725
1310.16	89.79
1313.78	65.273
1317.4	15.216
1321.01	27.627
1324.62	18.52
1328.24	4.617
1331.85	18.729
1335.45	272.086
1339.06	125.037
1342.66	160.41
1346.27	130.458
1349.87	326.517
1353.47	256.636
1357.07	248.58
1360.66	373.239
1364.26	311.792
1367.85	205.371
1371.44	291.921
1375.04	217.888
1378.62	242.442
1382.21	170.844
1385.8	318.93
1389.38	329.506
1392.96	384.32
1396.54	323.668
1400.12	288.074
1403.7	290.915
1407.28	309.681
1410.85	338.321
1414.42	462.018
1417.99	343.524
1421.56	239.048
1425.13	303.413
1428.7	298.563
1432.26	310.736
1435.83	319.98
1439.39	414.575
1442.95	378.91
1446.51	386.363
1450.06	420.98
1453.62	497.42
1457.17	523.361
1460.73	344.252
1464.28	294.604
1467.83	205.363
1471.37	420.738
1474.92	258.619
1478.46	154.498
1482.01	186.588
1485.55	272.771
1489.09	160.389
1492.63	258.762
1496.16	418.33
1499.7	147.322
1503.23	226.715
1506.76	102.189
1510.29	252.654
1513.82	27.33
1517.35	109.346
1520.88	0
