Measurement: Raman, 514 nm, ccw, Raman Data Processed
Mineral: Paravauxite
Rruff sample: R040179
Ideal chemistry: Fe^2+^Al_2_(PO_4_)_2_(OH)_2_8H_2_O
Locality: Mina Siglo XX, Llallagua, Bolivia
Source: University of Arizona Mineral Museum
Description: Colorless short prismatic crystals in subparallel groups
Measured chemistry: (Fe_0.93_Mg_0.03_Mn_0.02_)Al_1.94_(P_2.05_O_4_)_2_((OH)_0.99_F_0.01_)_2_Â·8H_2_O
Pin_id: M00312
Orientation: Laser parallel to a* (1 0 0). Fiducial mark perpendicular to laser is parallel to b [0 1 0]
Raman shift (cm-1)	intensity
105.212	0
109.387	88.59
113.559	555.757
117.729	922.18
121.897	1658.44
126.063	2138.96
130.228	2506.15
134.39	2374.3
138.55	2030.05
142.709	1819.94
146.865	1184.33
151.019	567.143
155.171	110.48
159.322	145.312
163.47	566.193
167.617	812.65
171.761	683.641
175.904	907.182
180.044	1120.18
184.183	1355.88
188.319	1160.38
192.454	1183.02
196.586	1214.72
200.717	1026.12
204.846	1147.49
208.972	1648.96
213.097	1820.58
217.22	1683.34
221.341	1341.98
225.46	1731.18
229.577	3143.6
233.692	5033.17
237.805	4717.57
241.916	2870.12
246.025	1722.9
250.132	1145.75
254.237	768.525
258.34	659.206
262.442	863.783
266.541	1096.25
270.639	1482.27
274.734	2534.32
278.828	4403.24
282.919	5186.05
287.009	4141.43
291.097	2928.6
295.183	2577.06
299.266	2026.47
303.348	1266.56
307.428	837.117
311.507	457.976
315.583	146.028
319.657	81.199
323.729	46.246
327.8	20.308
331.868	144.258
335.935	175.116
339.999	149.164
344.062	159.205
348.123	154.581
352.182	34.311
356.239	47.59
360.294	168.339
364.347	123.738
368.398	218.876
372.448	463.765
376.495	578.422
380.54	682.521
384.584	665.521
388.626	747.064
392.666	1027.31
396.704	1076.74
400.74	1226.01
404.774	1635.24
408.806	1774.34
412.836	1723.28
416.865	1932.07
420.891	2930.69
424.916	4609.11
428.939	7117.33
432.959	7885.37
436.978	5783.37
440.996	3721.23
445.011	2278.93
449.024	1356.38
453.036	983.559
457.045	940.484
461.053	767.144
465.059	593.568
469.063	569.71
473.065	405.521
477.065	501.021
481.063	436.184
485.06	187.943
489.054	244.395
493.047	231.832
497.038	170.084
501.027	175.239
505.014	142.316
508.999	56.818
512.982	99.752
516.964	111.761
520.944	161.653
524.921	296.061
528.897	478.429
532.871	660.661
536.844	664.731
540.814	818.22
544.783	1155.69
548.749	1361.72
552.714	1508.07
556.677	1786.94
560.638	2621.32
564.597	3402
568.555	3645
572.511	2893.77
576.464	2397.92
580.416	2525.87
584.366	2613.23
588.315	2329.99
592.261	2186.59
596.206	1932.8
600.148	2011.69
604.089	1647.51
608.028	1293.51
611.965	898.901
615.901	649.638
619.834	625.038
623.766	623.941
627.696	619.632
631.624	707.213
635.551	953.018
639.475	1232.33
643.398	1379.57
647.318	1189.86
651.237	1023.35
655.155	786.372
659.07	729.497
662.984	557.101
666.895	359.05
670.805	230.258
674.713	153.221
678.62	116.103
682.524	199.36
686.427	91.866
690.328	5.937
694.227	155.897
698.124	22.589
702.02	14.143
705.913	50.901
709.805	39.271
713.695	90.806
717.584	158.324
721.47	22.947
725.355	25.395
729.238	56.529
733.119	161.166
736.998	278.617
740.876	215.835
744.752	62.832
748.626	79.615
752.498	96.194
756.368	152.55
760.237	38.659
764.104	54.565
767.969	79.72
771.832	54.343
775.693	70.694
779.553	35.403
783.411	229.835
787.267	35.978
791.122	52.046
794.974	48.375
798.825	15
802.674	178.181
806.522	51.212
810.367	35.934
814.211	113.258
818.053	309.146
821.893	141.434
825.732	123.586
829.568	115.42
833.403	15.178
837.236	45.992
841.068	195.627
844.898	412.729
848.726	73.584
852.552	137.355
856.376	81.477
860.199	153.857
864.02	362.689
867.839	376.633
871.656	180.137
875.472	145.162
879.286	314.023
883.098	79.561
886.909	369.705
890.717	430.131
894.524	260.867
898.33	221.549
902.133	312.73
905.935	424.129
909.735	632.818
913.533	673.725
917.33	484.848
921.124	680.561
924.918	568.113
928.709	953.168
932.499	1070.3
936.286	1150.9
940.073	1176.5
943.857	985.434
947.64	1361.93
951.421	1587.94
955.2	1970.65
958.978	2400.9
962.753	2359.06
966.527	2966.06
970.3	3809.63
974.071	5129.91
977.84	7673.79
981.607	11827.8
985.372	19031.5
989.136	28397.8
992.898	27672.4
996.659	20147.1
1000.42	13932.1
1004.17	8258.94
1007.93	4994.48
1011.68	3021.6
1015.43	2087.73
1019.18	1494.07
1022.93	1480.93
1026.68	1188.09
1030.42	1299.5
1034.17	927.199
1037.91	1005.18
1041.65	674.361
1045.39	582.842
1049.12	817.852
1052.86	1113.54
1056.59	1217.56
1060.33	1113.31
1064.06	945.43
1067.78	561.26
1071.51	330.877
1075.23	441.523
1078.96	482.562
1082.68	493.875
1086.4	485.49
1090.12	287.439
1093.83	379.16
1097.55	520.611
1101.26	681.959
1104.97	913.373
1108.68	694.893
1112.39	716.467
1116.1	208.1
1119.8	133.85
1123.5	216.262
1127.2	167.832
1130.9	298.494
1134.6	300.611
1138.3	113.867
1141.99	117.562
1145.69	321.678
1149.38	63.785
1153.07	141.209
1156.76	216.545
1160.44	502.301
1164.13	518.434
1167.81	364.646
1171.49	160.84
1175.17	82.785
1178.85	23.934
1182.52	161.021
1186.2	228.467
1189.87	436.318
1193.54	414.639
1197.21	403.48
1200.88	37.277
1204.55	97.469
1208.21	60.854
1211.88	100.158
1215.54	458.105
1219.2	447.027
1222.86	779.547
1226.51	562.744
1230.17	214.688
1233.82	155.422
1237.47	377.311
1241.12	310.455
1244.77	352.525
1248.42	464.459
1252.06	701.521
1255.71	394.221
1259.35	493.246
1262.99	38.156
1266.63	45.158
1270.26	256.711
1273.9	37.02
1277.53	0
