Measurement: Raman, 532 nm, ccw, Raman Data Processed
Mineral: Partheite
Rruff sample: R130077
Ideal chemistry: Ca_2_(Si_4_Al_4_)O_15_(OH)_2_4H_2_O
Locality: Denezhkin Kamen, Urals Region, Russia
Source: Biljana Lazic
Description: Prismatic crystals. Data from Lazic et al (2012)
Raman shift (cm-1)	intensity
112.834	110.516
116.141	347.032
119.449	1786.3
122.756	2996.06
126.064	2073.58
129.371	680.721
132.679	100.112
135.986	54.694
139.294	571.702
142.601	1859.59
145.908	3214.22
149.216	2386.35
152.523	2812.23
155.831	3897.62
159.138	3313.63
162.446	2485.51
165.753	3025.27
169.061	6555.28
172.368	2461.16
175.676	1066.79
178.983	921.674
182.291	1112.56
185.598	656.566
188.906	254.824
192.213	195.207
195.52	442.59
198.828	967.723
202.135	754.606
205.443	454.989
208.75	245.248
212.058	363.381
215.365	879.014
218.673	2493.15
221.98	2292.15
225.288	1008.29
228.595	625.296
231.903	788.804
235.21	786.188
238.518	252.946
241.825	151.454
245.132	248.337
248.44	453.345
251.747	563.478
255.055	473.111
258.362	465.494
261.67	532.627
264.977	221.885
268.285	31.719
271.592	73.9288
274.9	149.139
278.207	251.348
281.515	378.433
284.822	649.018
288.13	1026.35
291.437	997.938
294.744	1093.77
298.052	1473.61
301.359	2582.94
304.667	4154.15
307.974	4471.61
311.282	4963.7
314.589	4081.66
317.897	2863.12
321.204	2135.2
324.512	1574.54
327.819	1186.87
331.127	843.206
334.434	655.791
337.741	544.125
341.049	466.085
344.356	372.92
347.664	407.005
350.971	451.465
354.279	581.299
357.586	676.009
360.894	789.719
364.201	855.804
367.509	893.014
370.816	777.224
374.124	649.558
377.431	432.268
380.739	258.853
384.046	270.063
387.353	402.023
390.661	704.233
393.968	1064.19
397.276	1345.15
400.583	1493.49
403.891	1003.95
407.198	597.532
410.506	546.492
413.813	768.076
417.121	1098.16
420.428	738.121
423.736	458.831
427.043	270.291
430.351	296.375
433.658	295.585
436.965	423.795
440.273	758.88
443.58	1324.84
446.888	2255.67
450.195	1745.63
453.503	847.469
456.81	460.179
460.118	342.639
463.425	462.099
466.733	555.184
470.04	662.893
473.348	703.353
476.655	847.063
479.962	740.773
483.27	776.108
486.577	994.068
489.885	1396.28
493.192	2231.11
496.5	3942.32
499.807	7051.91
503.115	6904.87
506.422	3899.95
509.73	2284.66
513.037	1580
516.345	1244.58
519.652	1036.29
522.96	963.126
526.267	968.086
529.574	1043.17
532.882	1205.38
536.189	1433.34
539.497	1731.92
542.804	2177.01
546.112	2597.84
549.419	2851.43
552.727	2552.39
556.034	2109.97
559.342	1681.68
562.649	1213.64
565.957	858.979
569.264	641.563
572.572	591.648
575.879	414.108
579.186	371.193
582.494	375.153
585.801	306.238
589.109	321.697
592.416	285.907
595.724	309.117
599.031	254.952
602.339	262.662
605.646	296.871
608.954	315.581
612.261	398.041
615.569	449.126
618.876	530.836
622.184	585.046
625.491	698.63
628.798	807.59
632.106	968.425
635.413	997.26
638.721	873.97
642.028	806.805
645.336	576.889
648.643	418.974
651.951	359.309
655.258	301.269
658.566	210.854
661.873	186.689
665.181	156.524
668.488	127.733
671.795	152.818
675.103	126.653
678.41	163.113
681.718	179.948
685.025	171.532
688.333	248.242
691.64	293.202
694.948	352.912
698.255	435.747
701.563	546.457
704.87	714.291
708.178	964.001
711.485	1447.71
714.793	1922.3
718.1	1650.76
721.407	1078.59
724.715	763.05
728.022	677.135
731.33	640.345
734.637	661.305
737.945	725.515
741.252	733.349
744.56	713.309
747.867	575.769
751.175	511.354
754.482	485.189
757.79	397.524
761.097	483.983
764.405	546.818
767.712	582.028
771.019	718.738
774.327	825.073
777.634	851.658
780.942	649.367
784.249	528.202
787.557	296.912
790.864	219.497
794.172	137.082
797.479	65.4166
800.787	76.0015
804.094	91.3363
807.402	77.0461
810.709	44.9985
814.016	46.6145
817.324	38.9806
820.631	10.2216
823.939	118.838
827.246	73.9535
830.554	44.4794
833.861	26.6155
837.169	45.0016
840.476	51.3877
843.784	77.5237
847.091	67.6598
850.399	60.1158
853.706	73.9314
857.014	98.4971
860.321	65.5398
863.628	68.4126
866.936	25.9198
870.243	66.4148
873.551	52.6598
876.858	65.1548
880.166	62.7748
883.473	93.359
886.781	46.4673
890.088	53.5754
893.396	45.6798
896.703	46.1769
900.011	106.299
903.318	46.6709
906.626	86.9962
909.933	85.5743
913.24	102.277
916.548	126.731
919.855	255.559
923.163	352.012
926.47	742.34
929.778	1455.79
933.085	1120.62
936.393	484.824
939.7	272.903
943.008	224.981
946.315	216.934
949.623	284.387
952.93	426.84
956.237	778.793
959.545	1287.37
962.852	926.95
966.16	646.528
969.467	511.856
972.775	738.059
976.082	1284.51
979.39	1604.72
982.697	1295.54
986.005	899.372
989.312	658.45
992.62	540.903
995.927	476.106
999.235	327.685
1002.54	260.763
1005.85	145.966
1009.16	151.794
1012.46	145.497
1015.77	183.45
1019.08	187.904
1022.39	172.857
1025.69	220.185
1029	261.013
1032.31	405.091
1035.62	564.919
1038.92	708.872
1042.23	753.326
1045.54	1061.78
1048.85	926.482
1052.15	590.06
1055.46	380.888
1058.77	227.466
1062.08	197.295
1065.38	122.623
1068.69	119.451
1072	103.904
1075.31	87.8573
1078.61	106.686
1081.92	94.3887
1085.23	112.092
1088.54	123.42
1091.84	168.623
1095.15	264.326
1098.46	351.779
1101.77	347.358
1105.07	243.811
1108.38	144.514
1111.69	121.717
1115	58.1703
1118.3	87.7484
1121.61	69.8265
1124.92	98.4048
1128.23	60.4829
1131.53	97.4984
1134.84	61.0341
1138.15	54.3196
1141.46	90.8552
1144.76	58.5159
1148.07	55.9264
1151.38	84.0818
1154.69	48.7472
1157.99	79.5376
1161.3	57.9529
1164.61	58.6185
1167.92	64.3617
1171.22	79.4386
1174.53	55.5154
1177.84	48.5923
1181.15	77.2942
1184.45	68.246
1187.76	106.596
1191.07	58.6622
1195.32	71.64
1198.63	64.9559
1201.93	70.5811
1205.24	53.4562
1208.55	55.0813
1211.86	158.956
1215.16	57.476
1218.47	58.0518
1221.78	95.2526
1225.09	72.6614
1228.39	68.1774
1231.7	76.5684
1235.01	89.4594
1238.32	62.6005
1241.62	31.9916
1244.93	84.0076
1248.24	95.0236
1251.55	39.0397
1254.85	84.6807
1258.16	80.8217
1261.47	86.3378
1264.78	61.9022
1268.08	79.0549
1271.39	71.5826
1274.7	79.8604
1278.01	93.6382
1281.31	63.3129
1284.62	67.381
1287.93	175.699
1291.24	89.6421
1294.54	84.8351
1297.85	47.5282
