Measurement: Raman, 514 nm, ccw, Raman Data Processed
Mineral: Pectolite
Rruff sample: R050396
Ideal chemistry: NaCa_2_Si_3_O_8_(OH)
Locality: Jeffrey Quarry, Asbestos, Quebec, Canada
Source: Marcus Origlieri
Description: Colorless to gray columnar blocky crystals
Measured chemistry: Na_1.00_Ca_2.00_Si_3.00_O_8_(OH)
Pin_id: L01945
Orientation: Laser parallel to (1 1 0). Fiducial mark perpendicular to laser is parallel to c [0 0 1]
Raman shift (cm-1)	intensity
164.62	0
168.313	23.7148
172.005	172.943
175.695	8.39062
179.384	423.705
183.071	443.223
186.757	326.986
190.44	215.221
194.123	233.41
197.803	275.182
201.483	309.266
205.16	240.514
208.836	318.695
212.51	255.643
216.183	347.277
219.854	309.596
223.524	214.465
227.192	250.785
230.858	217.492
234.523	281.674
238.186	213.435
241.848	92.7773
245.508	7.14648
249.166	154.549
252.823	228.047
256.479	168.674
260.132	327.756
263.784	229.096
267.435	444.475
271.084	670.33
274.731	758.969
278.377	692.019
282.021	679.059
285.664	603.102
289.305	413.852
292.945	327.867
296.583	155.727
300.219	241.361
303.854	218.789
307.487	470.582
311.119	473.904
314.749	490.394
318.377	408.852
322.004	306.027
325.629	192.09
329.253	198.424
332.876	6.74609
336.496	102.897
340.115	178.184
343.733	174.602
347.349	216.506
350.963	137.365
354.576	97.2402
358.187	370.252
361.797	214.973
365.405	155.076
369.012	109.039
372.617	26.8965
376.22	187.727
379.822	120.301
383.423	159.557
387.022	86.5352
390.619	17.4688
394.215	109.492
397.809	241.402
401.401	80.2891
404.992	120.686
408.582	103.35
412.17	90.2539
415.756	191.791
419.341	378.342
422.924	24.1289
426.506	196.963
430.086	141.723
433.665	32.3105
437.242	64.7734
440.818	41.2148
444.392	59.0254
447.964	4.82617
451.535	40.7871
455.105	225.748
458.672	110.418
462.239	178.213
465.804	150.34
469.367	139.565
472.928	116.998
476.489	92.7676
480.047	110.293
483.604	106.969
487.16	245.195
490.714	156.803
494.266	113.926
497.817	131.832
501.367	319.356
504.915	115.643
508.461	285.68
512.006	365.475
515.549	44.9863
519.091	106.086
522.631	299.916
526.17	262.488
529.707	228.914
533.243	314.375
536.777	119.309
540.31	80.8379
543.841	72.8633
547.37	97.8203
550.898	92.8398
554.425	29.8633
557.95	193.357
561.473	78.5332
564.995	80.1269
568.516	178.193
572.035	193.394
575.552	29.2695
579.068	69.7695
582.583	19.4473
586.095	180.123
589.607	52.957
593.117	98.2578
596.625	93.0137
600.132	219.717
603.637	223.881
607.141	207.619
610.643	293.803
614.144	79.0234
617.643	249.676
621.141	100.711
624.637	286.68
628.132	393.258
631.625	398.121
635.117	429.863
638.607	652.404
642.096	851.465
645.583	1540.94
649.069	1867.68
652.553	2306.59
656.036	1666.87
659.517	938.68
662.997	433.994
666.475	437.262
669.952	403.502
673.427	333.248
676.901	298.543
680.373	398.107
683.844	210.408
687.313	568.82
690.781	349.703
694.247	124.615
697.712	374.135
701.175	432.44
704.637	365.615
708.097	262.738
711.556	436.809
715.014	339.248
718.469	346.199
721.924	111.365
725.377	187.184
728.828	272.109
732.278	327.523
735.726	233.578
739.173	56.3984
742.619	1.18359
746.063	50.459
749.505	165.82
752.946	65.5781
756.386	177.356
759.824	110.324
763.26	120.971
766.695	241.172
770.129	275.449
773.561	57.8008
776.992	126.578
780.421	134.602
783.849	165.25
787.275	83.3262
790.7	146.147
794.123	146.408
797.545	221.244
800.965	175.894
804.384	208.252
807.802	272.852
811.217	218.754
814.632	150.9
818.045	135.971
821.456	427.967
824.867	18.0508
828.275	332.873
831.682	140.918
835.088	296.457
838.492	514.535
841.895	56.2148
845.296	102.914
848.696	405.231
852.094	305.543
855.491	435.414
858.887	202.227
862.281	265.766
865.673	267.234
869.064	642.441
872.454	332.051
875.842	300.641
879.229	151.031
882.614	235.434
885.998	372.762
889.38	31.8164
892.761	225.644
896.14	279.641
899.518	178.203
902.895	138.41
906.27	97.6367
909.644	175.254
913.016	183.414
916.387	362.16
919.756	37.6289
923.124	293.996
926.49	189.477
929.855	268.738
933.219	311.543
936.581	63.0703
939.941	148.5
943.301	322.812
946.658	231.5
950.015	104.266
953.369	248.758
956.723	356.441
960.075	222.316
963.425	533.547
966.774	713.723
970.122	834.5
973.468	875.012
976.813	752.742
980.156	941.109
983.498	519.816
986.839	463.066
990.178	187.106
993.516	465.625
996.852	540.676
1000.19	485.113
1003.52	317.219
1006.85	224.109
1010.18	220.742
1013.51	445.106
1016.84	426.504
1020.16	492.902
1023.49	675.644
1026.81	855.223
1030.13	562.453
1033.46	422.356
1036.78	465.504
1040.09	349.012
1043.41	191.644
1046.72	148.231
1050.04	250.773
1053.35	150.223
1056.66	32.2148
1059.97	176.566
1063.28	63.8477
1066.58	185.215
1069.89	144.781
1073.19	452.746
1076.49	660.504
1079.79	371.273
1083.09	510.715
1086.39	697.144
1089.69	438.902
1092.98	352.219
1096.28	349.164
1099.57	490.43
1102.86	520.969
1106.15	50.6914
1109.43	272.391
1112.72	234.016
1116.01	0.921875
