Measurement: Raman, 514 nm, ccw, Raman Data Processed
Mineral: Pectolite
Rruff sample: R060101
Ideal chemistry: NaCa_2_Si_3_O_8_(OH)
Locality: West Patterson, New Jersey, USA
Source: University of Arizona Mineral Museum
Description: Tufts of white acicular sprays
Measured chemistry: Na_1.02_Ca_2.00_Si_2.99_O_8_(OH)
Pin_id: L01710
Orientation: Laser parallel to -a* (-1 0 0). Fiducial mark perpendicular to laser is parallel to b [0 1 0]
Raman shift (cm-1)	intensity
148.596	0
151.063	28.7771
153.53	18.0813
155.995	36.0834
158.46	32.889
160.925	19.062
163.388	5.94336
165.851	7.56311
168.313	0.683838
170.775	1.21728
173.235	64.3215
175.695	7.54627
178.155	23.7634
180.613	17.9517
183.071	40.1987
185.528	39.4797
187.985	48.9753
190.44	73.5193
192.896	37.3031
195.35	79.4871
197.803	50.8616
200.256	72.4038
202.709	133.074
205.16	116.148
207.611	62.2722
210.061	64.1959
212.51	39.7123
214.959	67.55
217.407	52.2399
219.854	101.31
222.301	64.6597
224.747	85.0319
227.192	101.874
229.636	68.9619
232.08	70.0883
234.523	42.9895
236.965	47.3972
239.407	28.5298
241.848	62.0172
244.288	31.2443
246.728	24.1686
249.166	31.0121
251.604	35.8989
254.042	27.7743
256.479	25.5598
258.915	65.4602
261.35	41.1937
263.784	31.7714
266.218	45.8339
268.651	79.805
271.084	44.2941
273.516	18.5663
275.947	41.3975
278.377	49.8281
280.807	22.855
283.236	3.14929
285.664	94.8618
288.092	16.1094
290.518	40.5812
292.945	2.31445
295.37	12.4603
297.795	18.2291
300.219	2.08057
302.642	43.4221
305.065	45.5436
307.487	2.39087
309.908	60.4202
312.329	12.9217
314.749	52.1404
317.168	23.1278
319.586	70.9879
322.004	47.5145
324.421	31.3444
326.838	55.5277
329.253	73.7716
331.668	6.36572
334.083	23.1074
336.496	54.4608
338.909	59.813
341.321	41.5463
343.733	34.4255
346.144	75.3412
348.554	54.2814
350.963	47.9205
353.372	85.5293
355.78	84.2321
358.187	36.6896
360.594	44.1012
363	60.4543
365.405	35.4905
367.81	36.4131
370.214	71.1333
372.617	21.4462
375.019	127.099
377.421	90.7516
379.822	90.2876
382.223	63.5288
384.622	98.396
387.022	55.5012
389.42	63.2683
391.818	15.7869
394.215	121.155
396.611	36.7175
399.006	68.4612
401.401	50.1877
403.795	49.8398
406.189	92.1687
408.582	142.123
410.974	133.08
413.365	105.301
415.756	105.024
418.146	153.504
420.536	53.5535
422.924	103.415
425.312	86.2573
427.7	65.1367
430.086	36.2346
432.472	58.154
434.858	59.7825
437.242	15.281
439.626	44.1377
442.009	62.6992
444.392	50.2593
446.774	23.8503
449.155	65.4604
451.535	94.6565
453.915	101.447
456.294	22.727
458.672	48.5996
461.05	102.528
463.427	82.738
465.804	0.778076
468.179	53.0991
470.554	138.366
472.928	25.7329
475.302	18.5427
477.675	3.10059
480.047	42.8818
482.419	117.754
484.79	69.5356
487.16	62.6873
489.529	83.4409
491.898	39.2517
494.266	83.9475
496.634	73.0718
499.001	52.6609
501.367	91.6965
503.732	71.3533
506.097	54.8982
508.461	43.2214
510.825	63.2346
513.187	79.2629
515.549	97.8848
517.911	79.8101
520.271	70.6028
522.631	37.9082
524.991	73.0569
527.349	19.9946
529.707	56.9248
532.065	77.1594
534.421	48.7009
536.777	83.334
539.132	47.2544
541.487	32.8181
543.841	33.4375
546.194	50.7327
548.547	48.9773
550.898	110.198
553.25	20.3328
555.6	51.4907
557.95	53.5652
560.299	29.5254
562.648	123.937
564.995	40.3674
567.343	43.4446
569.689	18.9539
572.035	42.4036
574.38	112.494
576.724	30.9185
579.068	79.6558
581.411	122.197
583.754	28.1396
586.095	72.2268
588.437	2.85767
590.777	76.1797
593.117	61.7371
595.456	50.2202
597.794	17.3506
600.132	85.0059
602.469	19.157
604.805	125.105
607.141	21.7378
609.476	56.2649
611.81	9.04395
614.144	77.6462
616.477	115.648
618.809	82.6894
621.141	137.683
623.472	118.499
625.802	72.1445
628.132	112.297
630.461	112.852
632.789	79.5703
635.117	93.0005
637.444	137.221
639.77	184.727
642.096	278.736
644.421	365.604
646.745	461.903
649.069	607.821
651.392	655.037
653.714	573.865
656.036	545.427
658.357	371.599
660.677	274.75
662.997	199.1
665.316	122.852
667.634	198.614
669.952	91.2656
672.269	118.525
674.585	109.236
676.901	127.647
679.216	40.1377
681.53	200.517
683.844	129.689
686.157	49.0903
688.469	155.94
690.781	158.09
693.092	13.3745
695.402	123.699
697.712	134.511
700.021	88.3745
702.329	103.018
704.637	128.998
706.944	82.6035
709.251	64.1514
711.556	105.996
713.861	74.0801
716.166	48.8569
718.469	69.229
720.773	24.7051
723.075	92.9155
725.377	9.70605
727.678	140.991
729.978	185.836
732.278	37.8926
734.577	34.1577
736.876	91.1143
739.173	1.75391
741.47	16.75
743.767	74.5884
746.063	140.257
748.358	21.9663
750.652	80.082
752.946	53.6611
755.239	172.584
757.532	12.2363
759.824	65.4385
762.115	53.894
764.406	84.709
766.695	91.3428
768.985	29.165
771.273	24.8843
773.561	107.238
775.848	130.352
778.135	58.5659
780.421	96.5337
782.706	39.6352
784.991	147.847
787.275	94.0449
789.558	226.241
791.841	109.142
794.123	196.474
796.404	135.717
798.685	124.295
800.965	117.65
803.245	102.228
805.523	65.0508
807.802	104.555
810.079	40.6538
812.356	221.001
814.632	119.557
816.907	90.4956
819.182	114.002
821.456	221.832
823.73	75.5317
826.003	18.0171
828.275	208.266
830.547	197.254
832.818	0.69043
835.088	53.373
837.358	79.6484
839.627	204.466
841.895	55.5508
844.163	233.812
846.43	222.982
848.696	255.179
850.962	203.226
853.227	185.364
855.491	115.255
857.755	183.306
860.018	170.802
862.281	159.667
864.543	108.205
866.804	183.238
869.064	2.7168
871.324	135.958
873.583	27.3291
875.842	170.745
878.1	215.155
880.357	97.1484
882.614	59.9775
884.87	37.6533
887.125	45.9902
889.38	29.7734
891.634	125.94
893.888	0.498047
896.14	80.5811
898.393	28.7939
900.644	11.1611
902.895	215.91
905.145	18.8262
907.395	5.72363
909.644	105.647
911.892	52.2588
914.14	8.56836
916.387	26.9268
918.633	122.44
920.879	87.0752
923.124	44.4082
925.368	156.803
927.612	100.209
929.855	195.007
932.098	116.564
934.339	139.231
936.581	108.139
938.821	227.325
941.061	173.441
943.301	169.353
945.539	207.119
947.777	213.519
950.015	260.34
952.251	168.997
954.487	248.21
956.723	176.53
958.958	242.684
961.192	119.026
963.425	186.89
965.658	174.415
967.89	309.126
970.122	255.208
972.353	338.014
974.583	332.587
976.813	281.053
979.042	218.606
981.271	91.5107
983.498	81.7852
985.726	167.852
987.952	58.4541
990.178	88.7041
992.403	108.619
994.628	130.829
996.852	172.269
999.075	36.8301
1001.3	49.291
1003.52	146.946
1005.74	189.377
1007.96	84.4727
1010.18	21.957
1012.4	223.795
1014.62	109.648
1016.84	149.175
1019.06	322.111
1021.27	173.992
1023.49	411.862
1025.71	283.277
1027.92	307.108
1030.13	46.4053
1032.35	196.078
1034.56	167.795
1036.78	115.41
1038.99	0.564453
