Measurement: Raman, 514 nm, ccw, Raman Data Processed
Mineral: Pectolite
Rruff sample: R050396
Ideal chemistry: NaCa_2_Si_3_O_8_(OH)
Locality: Jeffrey Quarry, Asbestos, Quebec, Canada
Source: Marcus Origlieri
Description: Colorless to gray columnar blocky crystals
Measured chemistry: Na_1.00_Ca_2.00_Si_3.00_O_8_(OH)
Pin_id: L00632
Orientation: Laser parallel to (-1 0 -1). Fiducial mark perpendicular to laser is parallel to b [0 1 0]
Raman shift (cm-1)	intensity
112.742	0
116.458	8.07324
120.173	77.2602
123.885	179.536
127.596	159.966
131.306	555.389
135.014	837.417
138.72	840.446
142.425	1028.41
146.128	888.62
149.83	956.592
153.53	911.853
157.228	572.938
160.925	315.578
164.62	310.601
168.313	158.889
172.005	182.404
175.695	222.111
179.384	274.897
183.071	379.66
186.757	633.298
190.44	602.181
194.123	604.218
197.803	875.614
201.483	1447.45
205.16	1207.77
208.836	770.573
212.51	746.871
216.183	1070.66
219.854	1286.03
223.524	1591.13
227.192	1114.96
230.858	675.724
234.523	236.916
238.186	88.4053
241.848	115.177
245.508	42.2383
249.166	224.545
252.823	352.084
256.479	442.944
260.132	373.365
263.784	411.45
267.435	500.569
271.084	425.767
274.731	331.906
278.377	265.857
282.021	243.472
285.664	139.681
289.305	159.376
292.945	285.514
296.583	143.046
300.219	108.941
303.854	157.181
307.487	237.723
311.119	279.539
314.749	413.614
318.377	474.417
322.004	594.968
325.629	727.155
329.253	536.939
332.876	298.506
336.496	231.882
340.115	96.1172
343.733	54.4228
347.349	106.223
350.963	273.383
354.576	324.1
358.187	424.889
361.797	492.74
365.405	409.799
369.012	502.557
372.617	560.969
376.22	823.948
379.822	736.143
383.423	552.224
387.022	220.362
390.619	374.168
394.215	160.638
397.809	381.896
401.401	524.959
404.992	597.105
408.582	1090.86
412.17	1964.37
415.756	2049.72
419.341	1318.64
422.924	660.597
426.506	402.825
430.086	258.577
433.665	231.324
437.242	151.969
440.818	26.6338
444.392	41.7266
447.964	139.19
451.535	46.1914
455.105	120.769
458.672	203.21
462.239	104.15
465.804	53.6416
469.367	73.9922
472.928	22.2832
476.489	21.876
480.047	59.3428
483.604	101.24
487.16	40.3467
490.714	52.6357
494.266	177.653
497.817	262.441
501.367	273.981
504.915	122.274
508.461	240.307
512.006	225.067
515.549	210.537
519.091	228.723
522.631	258.62
526.17	222.216
529.707	212.497
533.243	96.4629
536.777	1.09082
540.31	78.25
543.841	38.8897
547.37	30.9189
550.898	65.4824
554.425	19.1504
557.95	7.21191
561.473	93.1328
564.995	25.6016
568.516	78.0303
572.035	89.9961
575.552	23.0088
579.068	158.494
582.583	91.7012
586.095	103.309
589.607	97.9512
593.117	167.901
596.625	173.511
600.132	171.124
603.637	196.49
607.141	253.181
610.643	303.313
614.144	432.437
617.643	478.28
621.141	562.674
624.637	552.511
628.132	795.5
631.625	1149.02
635.117	1465.81
638.607	2124.62
642.096	3932.21
645.583	6565.84
649.069	11281.4
652.553	14905.6
656.036	10321.5
659.517	4687.89
662.997	2186.34
666.475	1322.85
669.952	969.682
673.427	570.367
676.901	725.697
680.373	743.257
683.844	879.139
687.313	1171.8
690.781	901.735
694.247	570.059
697.712	312.111
701.175	201.384
704.637	310.925
708.097	35.5303
711.556	249.632
715.014	194.983
718.469	64.1709
721.924	77.8535
725.377	20.4072
728.828	244.519
732.278	24.1924
735.726	53.0703
739.173	84.2412
742.619	64.0312
746.063	154.082
749.505	221.685
752.946	227.586
756.386	238.209
759.824	241.941
763.26	92.9863
766.695	296.127
770.129	106.772
773.561	104.051
776.992	237.272
780.421	185.006
783.849	128.826
787.275	225.072
790.7	220.594
794.123	153.293
797.545	74.3106
800.965	281.451
804.384	264.404
807.802	137.676
811.217	74.5938
814.632	225.219
818.045	233.449
821.456	299.957
824.867	157.449
828.275	133.424
831.682	212.768
835.088	283.611
838.492	60.3262
841.895	392.777
845.296	325.852
848.696	218.742
852.094	409.113
855.491	223.418
858.887	383.512
862.281	201.268
865.673	133.381
869.064	324.543
872.454	284.244
875.842	88.7031
879.229	179.213
882.614	121.461
885.998	48.2988
889.38	65.0703
892.761	145.572
896.14	77.6289
899.518	3.43945
902.895	2.5
906.27	64.4453
909.644	344.67
913.016	400.043
916.387	386.342
919.756	290.07
923.124	224.955
926.49	301.846
929.855	291.769
933.219	374.885
936.581	153.006
939.941	550.498
943.301	197.992
946.658	407.25
950.015	469.164
953.369	423.014
956.723	455.996
960.075	722.055
963.425	1045.63
966.774	1380.85
970.122	2047.37
973.468	1880.29
976.813	1779.46
980.156	1319.61
983.498	950
986.839	618.988
990.178	773.344
993.516	652.394
996.852	773.231
1000.19	738.205
1003.52	720.916
1006.85	584.029
1010.18	562.518
1013.51	569.754
1016.84	986.779
1020.16	1819.46
1023.49	2592.61
1026.81	3295.15
1030.13	2298.81
1033.46	1272.6
1036.78	707.838
1040.09	399.93
1043.41	466.935
1046.72	392.865
1050.04	268.76
1053.35	13.8555
1056.66	86.1699
1059.97	194.715
1063.28	2.41406
1066.58	190.754
1069.89	82.2656
1073.19	178.117
1076.49	41.0996
1079.79	341.004
1083.09	257.609
1086.39	7.87891
1089.69	150.951
1092.98	80.6719
1096.28	209.518
1099.57	195.912
1102.86	100.301
1106.15	76.0762
1109.43	99.0137
1112.72	136.256
1116.01	143.457
1119.29	310.562
1122.57	285.094
1125.85	301.268
1129.13	247.955
1132.41	291.619
1135.69	0.240234
1138.96	152.834
1142.24	186.381
1145.51	184.176
1148.78	170.707
1152.05	217.807
1155.32	16.8008
1158.59	241.068
1161.85	192.797
1165.11	202.393
1168.38	150.941
