Measurement: Raman, 514 nm, ccw, Raman Data Processed
Mineral: Pectolite
Rruff sample: R050396
Ideal chemistry: NaCa_2_Si_3_O_8_(OH)
Locality: Jeffrey Quarry, Asbestos, Quebec, Canada
Source: Marcus Origlieri
Description: Colorless to gray columnar blocky crystals
Measured chemistry: Na_1.00_Ca_2.00_Si_3.00_O_8_(OH)
Pin_id: M00143
Orientation: Laser parallel to -b* (0 -1 0). Fiducial mark perpendicular to laser is parallel to c [0 0 1]
Raman shift (cm-1)	intensity
135.014	0
138.72	150.225
142.425	433.037
146.128	468.191
149.83	584.234
153.53	206.584
157.228	42.3613
160.925	28.625
164.62	235.631
168.313	65.1719
172.005	11.207
175.695	139.252
179.384	216.879
183.071	175.443
186.757	361.773
190.44	189.475
194.123	252.75
197.803	70.5449
201.483	200.666
205.16	341.459
208.836	256.92
212.51	249.652
216.183	383.359
219.854	251.193
223.524	466.236
227.192	223.26
230.858	469.352
234.523	275.535
238.186	207.879
241.848	378.957
245.508	139.269
249.166	128.6
252.823	209.879
256.479	243.023
260.132	444.168
263.784	242.359
267.435	529.611
271.084	388.705
274.731	402.871
278.377	243.603
282.021	350.904
285.664	252.412
289.305	306.672
292.945	167.836
296.583	139.375
300.219	353.022
303.854	173.393
307.487	444.33
311.119	294.537
314.749	361.148
318.377	436.865
322.004	131.449
325.629	252.051
329.253	202.781
332.876	348.629
336.496	330.764
340.115	170.432
343.733	131.91
347.349	226.238
350.963	218.019
354.576	16.7305
358.187	32.709
361.797	370.801
365.405	205.353
369.012	222.541
372.617	106.853
376.22	274.945
379.822	327.549
383.423	266.434
387.022	141.291
390.619	7.96484
394.215	64.9121
397.809	255.852
401.401	315.557
404.992	16.8828
408.582	78.8926
412.17	200.027
415.756	26.502
419.341	181.158
422.924	76.4883
426.506	136.346
430.086	54.0664
433.665	110.818
437.242	40.4746
440.818	188.441
444.392	19.2422
447.964	116.904
451.535	174.711
455.105	158.861
458.672	308.277
462.239	64.4512
465.804	89.0098
469.367	277.348
472.928	100.084
476.489	2.74609
480.047	358.734
483.604	258.238
487.16	301.664
490.714	187.543
494.266	201.281
497.817	72.3184
501.367	218.25
504.915	188.816
508.461	318.42
512.006	261.846
515.549	115.383
519.091	112.547
522.631	426.324
526.17	229.906
529.707	219.754
533.243	226.445
536.777	274.742
540.31	196.418
543.841	94.543
547.37	12.8398
550.898	36.9785
554.425	219.232
557.95	190.834
561.473	69.1738
564.995	190.264
568.516	56.5566
572.035	260.236
575.552	126.022
579.068	63.8711
582.583	71.9922
586.095	232.102
589.607	239.67
593.117	17.2344
596.625	14.5508
600.132	173.512
603.637	226.922
607.141	53.9941
610.643	81.832
614.144	251.424
617.643	251.16
621.141	51.8301
624.637	350.691
628.132	258.908
631.625	173.291
635.117	319.857
638.607	529.498
642.096	861.42
645.583	1369.83
649.069	2091.92
652.553	2126.46
656.036	1500.37
659.517	697.072
662.997	608.269
666.475	350.357
669.952	494.82
673.427	208.852
676.901	248.277
680.373	306.283
683.844	553.037
687.313	454.578
690.781	378.385
694.247	295.719
697.712	134.678
701.175	77.2441
704.637	214.684
708.097	191.807
711.556	369.107
715.014	116.49
718.469	176.482
721.924	98.4922
725.377	63.0469
728.828	140.273
732.278	364.949
735.726	152.422
739.173	84.2676
742.619	132.277
746.063	238.469
749.505	86.3516
752.946	198.422
756.386	222.441
759.824	171.055
763.26	6.89062
766.695	169.451
770.129	164.537
773.561	212.103
776.992	68.3047
780.421	80.3457
783.849	159.84
787.275	49.5215
790.7	76.2676
794.123	172.17
797.545	307.014
800.965	275.848
804.384	301.098
807.802	288.643
811.217	100.103
814.632	167.148
818.045	294.691
821.456	233.508
824.867	222.209
828.275	194.043
831.682	233.621
835.088	285.945
838.492	177.578
841.895	308.815
845.296	6.08203
848.696	242.94
852.094	81.9004
855.491	104.078
858.887	189.346
862.281	89.4453
865.673	68.1738
869.064	260.873
872.454	6.0957
875.842	308.246
879.229	194.721
882.614	17.1484
885.998	142.135
889.38	103.201
892.761	321.588
896.14	325.188
899.518	24.7188
902.895	29.8711
906.27	329.83
909.644	101.984
913.016	170.906
916.387	130.801
919.756	148.098
923.124	320.82
926.49	65.0312
929.855	55.9727
933.219	42.5859
936.581	236.574
939.941	247.254
943.301	29.9375
946.658	118.676
950.015	151.637
953.369	170.481
956.723	248.254
960.075	744.57
963.425	826.562
966.774	802.367
970.122	1238.84
973.468	1185.32
976.813	1035.06
980.156	929.586
983.498	537.234
986.839	546.707
990.178	666.852
993.516	475.57
996.852	506.035
1000.19	654.41
1003.52	586.801
1006.85	463.031
1010.18	533.469
1013.51	422.836
1016.84	547.973
1020.16	1052.11
1023.49	1186.43
1026.81	958.41
1030.13	740.586
1033.46	636.828
1036.78	209.273
1040.09	311.57
1043.41	281.648
1046.72	159.457
1050.04	181.922
1053.35	182.414
1056.66	118.828
1059.97	186.531
1063.28	307.168
1066.58	126.152
1069.89	140.699
1073.19	252.691
1076.49	183.606
1079.79	16.9922
1083.09	192.004
1086.39	280.031
1089.69	278.769
1092.98	307.211
1096.28	337.051
1099.57	303.043
1102.86	293.551
1106.15	182.781
1109.43	53.6523
1112.72	145.941
1116.01	110.617
1119.29	264.031
1122.57	393.977
1125.85	337.856
1129.13	203.75
1132.41	300.738
1135.69	306.051
1138.96	293.402
1142.24	613.519
1145.51	523.961
1148.78	312.949
1152.05	206.883
1155.32	369.102
1158.59	364.598
1161.85	142.418
1165.11	257.195
1168.38	350.09
1171.64	349.027
1174.9	184.512
1178.16	307.106
1181.41	124.918
1184.67	224.344
1187.92	582.469
1191.18	250.441
1194.43	301.367
1197.68	121.848
1200.93	9.50391
