Measurement: Raman, 514 nm, ccw, Raman Data Processed
Mineral: Pectolite
Rruff sample: R050396
Ideal chemistry: NaCa_2_Si_3_O_8_(OH)
Locality: Jeffrey Quarry, Asbestos, Quebec, Canada
Source: Marcus Origlieri
Description: Colorless to gray columnar blocky crystals
Measured chemistry: Na_1.00_Ca_2.00_Si_3.00_O_8_(OH)
Pin_id: M00439
Orientation: Laser parallel to -c* (0 0 -1). Fiducial mark perpendicular to laser is parallel to a [1 0 0]
Raman shift (cm-1)	intensity
125.299	0
129	70.5879
132.7	157.101
136.399	419.221
140.096	742.645
143.791	1149.04
147.485	1750.34
151.178	2139.34
154.869	1368.44
158.558	517.591
162.246	92.2375
165.932	35.7451
169.617	4.86377
173.3	10.571
176.982	8.58887
180.662	143.989
184.341	274.556
188.018	252.166
191.694	120.713
195.368	79.0242
199.04	184.111
202.711	211.106
206.381	175.806
210.049	68.2141
213.716	81.7124
217.381	127.274
221.044	173.234
224.706	254.24
228.367	232.264
232.026	147.336
235.683	138.628
239.339	38.7739
242.993	31.2607
246.646	19.4116
250.298	1.05493
253.947	199.35
257.596	220.517
261.243	331.18
264.888	194.469
268.532	351.445
272.174	398.046
275.815	400.88
279.454	315.197
283.092	164.566
286.728	21.1179
290.363	18.8237
293.996	5.63647
297.628	79.0632
301.258	123.419
304.887	392.455
308.514	720.987
312.14	1193.41
315.764	1873.88
319.387	2013.65
323.008	1635.79
326.628	1298.16
330.246	737.389
333.862	326.097
337.478	227.613
341.091	207.609
344.703	407.883
348.314	685.133
351.923	954.591
355.531	1511.49
359.137	1847.4
362.742	1231.98
366.345	1142.22
369.947	1517.15
373.547	2310.76
377.145	3414.36
380.743	3492.57
384.338	1581.79
387.932	847.024
391.525	479.96
395.116	387.239
398.706	650.246
402.294	1057.88
405.881	1552.2
409.466	2334.45
413.05	3027.77
416.632	2698.82
420.213	1538.56
423.792	723.269
427.37	398.647
430.946	255.151
434.521	33.4282
438.094	45.4551
441.666	11.8174
445.236	34.6792
448.805	33.25
452.372	56.3174
455.938	37.4082
459.502	50.4438
463.065	74.4053
466.627	124.936
470.187	51.7222
473.745	93.313
477.302	63.6274
480.857	53.6294
484.411	62.001
487.964	94.0147
491.515	13.4463
495.064	174.602
498.612	277.214
502.159	366.406
505.704	145.184
509.247	74.5132
512.789	94.3667
516.33	56.7197
519.869	7.40088
523.407	69.9263
526.943	70.709
530.478	110.047
534.011	252.936
537.543	259.373
541.073	309.752
544.602	267.805
548.129	157.596
551.655	84.6045
555.179	113.293
558.702	11.7358
562.223	75.0371
565.743	8.55371
569.262	14.8208
572.779	21.9321
576.294	76.1055
579.808	88.5391
583.321	117.325
586.832	119.636
590.341	145.484
593.85	194.363
597.356	51.7978
600.862	151.622
604.365	196.566
607.868	115.001
611.368	274.9
614.868	255.856
618.366	432.933
621.862	472.677
625.357	514.898
628.85	627.069
632.342	851.922
635.833	1118.86
639.322	1892.89
642.81	3633.65
646.296	5889.12
649.78	8843.12
653.264	10737.2
656.745	6956.92
660.226	3293.19
663.704	1570.73
667.182	1044.92
670.658	645.069
674.132	360.709
677.605	338.89
681.077	247.214
684.547	236.167
688.015	333.738
691.483	113.856
694.948	150.579
698.413	140.043
701.875	23.9785
705.337	161.821
708.797	75.7939
712.255	91.6426
715.712	69.707
719.167	13.4004
722.621	18.9043
726.074	45.3428
729.525	19.9668
732.975	29.7607
736.423	45.3359
739.87	14.0957
743.315	59.8984
746.759	164.095
750.202	58.7656
753.643	83.3789
757.082	154.029
760.52	137.139
763.957	67.2666
767.392	72.5361
770.826	238.45
774.258	56.0225
777.689	136.684
781.118	110.755
784.546	25.8916
787.973	120.02
791.398	82.9805
794.822	109.074
798.244	137.999
801.665	173.726
805.084	309.627
808.502	234.224
811.918	210.668
815.333	128.723
818.747	40.0889
822.159	170.282
825.569	19.4561
828.979	222.834
832.386	63.1699
835.793	238.697
839.198	236.57
842.601	197.516
846.003	243.116
849.404	190.641
852.803	200.016
856.2	237.985
859.597	211.536
862.992	242.113
866.385	241.8
869.777	117.772
873.167	48.6377
876.557	155.19
879.944	81.9824
883.33	108.306
886.715	89.2119
890.099	114.258
893.481	152.693
896.861	191.638
900.24	202.708
903.618	323.26
906.994	743.701
910.369	794.006
913.742	652.841
917.114	218.486
920.485	252.145
923.854	144.6
927.221	64.8164
930.588	76.7607
933.952	33.9912
937.316	5.32519
940.678	30.1406
944.038	167.423
947.397	170.251
950.755	308.258
954.111	365.512
957.466	530.354
960.819	1007.2
964.171	1526.62
967.522	1941.6
970.871	2292.97
974.219	2324.27
977.565	2017.24
980.91	1829.95
984.253	1718.65
987.595	1686.42
990.936	1986.98
994.275	2535.68
997.613	2350.57
1000.95	2424.14
1004.28	2919.11
1007.62	2465.98
1010.95	1892.2
1014.28	2031.61
1017.61	3155.9
1020.94	4729.26
1024.26	6157.24
1027.59	5614.52
1030.91	3535.62
1034.23	1905.69
1037.56	994.031
1040.88	647.879
1044.19	320.953
1047.51	164.045
1050.83	278.328
1054.14	0.478516
1057.45	92.0723
1060.76	144.139
1064.07	22.9707
1067.38	90.9316
1070.69	89.6504
1073.99	232.504
1077.3	235.713
1080.6	198.086
1083.9	262.158
1087.2	227.994
1090.5	53.5371
1093.79	18.0195
1097.09	181.924
1100.38	32.2051
1103.68	111.488
1106.97	103.227
1110.26	0.113281
1113.55	118.113
1116.83	120.879
1120.12	243.537
1123.4	78.0508
1126.68	168.623
1129.97	205.973
1133.25	51.1094
1136.53	61.1426
1139.8	22.5156
1143.08	144.635
1146.35	441.172
1149.63	411.16
1152.9	304.496
1156.17	379.803
1159.44	173.361
1162.7	294.117
1165.97	227.709
1169.23	173.877
1172.5	379.209
1175.76	474.731
1179.02	398.873
1182.28	302.994
1185.54	127.793
1188.79	189.5
1192.05	123.031
1195.3	378.49
1198.55	302.873
1201.81	127.397
1205.05	410.951
1208.3	389.785
1211.55	143.518
1214.79	318.369
1218.04	513.467
1221.28	148.879
1224.52	152.102
1227.76	79.2363
1231	170.383
1234.24	277.768
1237.47	395.76
1240.7	218.824
1243.94	245.481
1247.17	194.211
1250.4	9.58203
