Measurement: Raman, 514 nm, ccw, Raman Data Processed
Mineral: Pectolite
Rruff sample: R060101
Ideal chemistry: NaCa_2_Si_3_O_8_(OH)
Locality: West Patterson, New Jersey, USA
Source: University of Arizona Mineral Museum
Description: Tufts of white acicular sprays
Measured chemistry: Na_1.02_Ca_2.00_Si_2.99_O_8_(OH)
Pin_id: L00538
Orientation: Laser parallel to (0 -1 -1). Fiducial mark perpendicular to laser is parallel to -a [-1 0 0]
Raman shift (cm-1)	intensity
121.41	0
125.123	30.6612
128.833	1.76611
132.542	14.239
136.25	43.8273
139.955	51.3191
143.66	127.972
147.362	63.3761
151.063	108.631
154.762	93.8545
158.46	69.4171
162.156	56.2871
165.851	11.9683
169.544	10.5785
173.235	36.2366
176.925	23.9974
180.613	14.1328
184.3	56.2263
187.985	44.136
191.668	78.7814
195.35	85.3053
199.03	95.6964
202.709	96.4591
206.386	71.8431
210.061	103.727
213.735	87.269
217.407	142.088
221.078	127.302
224.747	106.651
228.414	99.4722
232.08	91.3412
235.744	39.4252
239.407	21.3516
243.068	48.7373
246.728	38.2576
250.386	21.5813
254.042	31.2374
257.697	33.7576
261.35	1.45947
265.001	78.9636
268.651	20.6449
272.3	86.8611
275.947	79.0792
279.592	5.65552
283.236	40.1985
286.878	51.1404
290.518	39.3945
294.157	11.6616
297.795	24.5964
301.431	18.1487
305.065	9.04517
308.698	0.83374
312.329	122.015
315.958	142.023
319.586	175.363
323.213	59.136
326.838	65.2141
330.461	53.3713
334.083	47.2112
337.703	48.8691
341.321	42.1228
344.938	71.5794
348.554	60.9626
352.168	62.6392
355.78	76.3352
359.391	98.4868
363	3.02393
366.608	76.4473
370.214	73.0437
373.818	38.0552
377.421	68.7087
381.023	57.9168
384.622	14.7441
388.221	64.6995
391.818	56.9812
395.413	22.5764
399.006	80.356
402.598	110.477
406.189	7.6228
409.778	103.644
413.365	100.779
416.951	47.0303
420.536	94.8149
424.118	62.7988
427.7	126.981
431.279	50.1025
434.858	13.0464
438.434	25.9353
442.009	21.6419
445.583	13.4751
449.155	10.1218
452.725	37.7378
456.294	10.7812
459.861	38.273
463.427	68.084
466.991	116.828
470.554	90.9104
474.115	57.0449
477.675	79.5203
481.233	85.9045
484.79	41.5354
488.345	21.6467
491.898	60.6235
495.45	92.948
499.001	21.532
502.55	96.8071
506.097	137.691
509.643	73.3865
513.187	78.2681
516.73	23.8298
520.271	0.793457
523.811	89.6924
527.349	24.9824
530.886	28.7925
534.421	40.1011
537.955	48.1138
541.487	68.207
545.017	51.3857
548.547	76.5767
552.074	98.665
555.6	57.6025
559.125	66.6133
562.648	36.1938
566.169	44.981
569.689	94.7949
573.207	35.2812
576.724	123.198
580.24	29.5601
583.754	85.9805
587.266	33.792
590.777	14.5303
594.286	40.4116
597.794	75.9394
601.3	49.5098
604.805	73.8945
608.309	72.6494
611.81	52.9141
615.311	59.6435
618.809	121.348
622.307	99.3027
625.802	204.095
629.297	115.795
632.789	134.016
636.281	156.996
639.77	214.188
643.259	307.657
646.745	650.428
650.231	897.53
653.714	937.198
657.197	539.199
660.677	366.376
664.157	222.491
667.634	172.423
671.111	67.0234
674.585	31.1079
678.059	138.846
681.53	96.1216
685.001	111.036
688.469	213.216
691.937	120.724
695.402	25.1148
698.867	155.15
702.329	72.0659
705.791	107.634
709.251	135.559
712.709	165.389
716.166	120.596
719.621	169.647
723.075	98.3735
726.527	116.056
729.978	23.7764
733.428	111.559
736.876	87.9761
740.322	89.0078
743.767	72.7539
747.21	48.4727
750.652	57.3633
754.093	84.1055
757.532	168.117
760.969	70.9219
764.406	99.5381
767.84	59.7607
771.273	34.1133
774.705	64.6484
778.135	106.095
781.564	48.9404
784.991	196.348
788.417	82.8682
791.841	179.155
795.264	259.634
798.685	162.382
802.105	93.9834
805.523	190.209
808.94	194.856
812.356	182.785
815.77	203.18
819.182	203.999
822.593	130.913
826.003	163.836
829.411	169.712
832.818	150.708
836.223	138.436
839.627	84.8047
843.029	66.168
846.43	71.8174
849.829	8.58105
853.227	255.332
856.623	75.0019
860.018	112.436
863.412	68.2246
866.804	166.518
870.194	70.8232
873.583	226.718
876.971	114.702
880.357	0.00293
883.742	161.815
887.125	4.35059
890.507	118.721
893.888	89.7988
897.267	140.616
900.644	4.63281
904.02	76.7588
907.395	148.508
910.768	184.785
914.14	26.458
917.51	99.751
920.879	88.9834
924.246	89.5225
927.612	82.1533
930.976	111.176
934.339	27.1562
937.701	123.875
941.061	116.322
944.42	126.955
947.777	169.568
951.133	48.001
954.487	170.815
957.84	31.5479
961.192	62.7158
964.542	145.475
967.89	250.791
971.238	253.815
974.583	302.367
977.928	284.705
981.271	160.68
984.612	6.58008
987.952	56.7129
991.291	84.4336
994.628	201.435
997.964	104.973
1001.3	61.6641
1004.63	391.127
1007.96	206.065
1011.29	150.258
1014.62	73.6309
1017.95	378.99
1021.27	311.565
1024.6	392.797
1027.92	379.416
1031.24	190.312
1034.56	229.613
1037.88	140.144
1041.2	167.752
1044.51	166.31
1047.83	254.156
1051.14	93.6914
1054.45	181.072
1057.76	131.158
1061.07	282.746
1064.38	97.6172
1067.68	109.693
1070.99	159.406
1074.29	291.059
1077.59	52.4492
1080.89	289.367
1084.19	120.557
1087.49	165.435
1090.79	174.035
1094.08	191.041
1097.37	77.6465
1100.66	178.519
1103.95	194.492
1107.24	82.0801
1110.53	187.117
1113.82	3.90625
1117.1	248.049
