Measurement: Raman, 514 nm, ccw, Raman Data Processed
Mineral: Pectolite
Rruff sample: R050396
Ideal chemistry: NaCa_2_Si_3_O_8_(OH)
Locality: Jeffrey Quarry, Asbestos, Quebec, Canada
Source: Marcus Origlieri
Description: Colorless to gray columnar blocky crystals
Measured chemistry: Na_1.00_Ca_2.00_Si_3.00_O_8_(OH)
Pin_id: M00091
Orientation: Laser parallel to (0 -1 -1). Fiducial mark perpendicular to laser is parallel to a [1 0 0]
Raman shift (cm-1)	intensity
115.22	0
118.935	33.9717
122.648	2.83496
126.36	69.3057
130.07	210.007
133.778	559.803
137.485	951.476
141.19	1173.29
144.894	1121.78
148.596	1023.5
152.296	530.519
155.995	251.079
159.692	105.752
163.388	19.6675
167.082	71.3794
170.775	14.5986
174.465	91.4746
178.155	103.597
181.842	107.043
185.528	209.203
189.213	125.926
192.896	62.6025
196.577	150.291
200.256	107.019
203.934	88.354
207.611	1.08838
211.286	82.0435
214.959	10.6196
218.631	117.739
222.301	134.392
225.969	86.0649
229.636	77.1094
233.302	112.866
236.965	175.91
240.628	18.6562
244.288	63.1855
247.947	82.5727
251.604	40.7578
255.26	153.772
258.915	100.595
262.567	151.458
266.218	187.295
269.868	241.244
273.516	315.343
277.162	334.377
280.807	258.818
284.45	91.5552
288.092	5.97021
291.732	108.19
295.37	35.2036
299.007	137.546
302.642	123.891
306.276	290.798
309.908	356.129
313.539	486.41
317.168	581.081
320.795	393.547
324.421	339.3
328.046	120.556
331.668	89.0718
335.289	29.1406
338.909	30.7148
342.527	8.5332
346.144	77.376
349.759	180.896
353.372	314.454
356.984	293.904
360.594	326.041
364.203	298.448
367.81	472.781
371.415	683.168
375.019	991.553
378.622	961.48
382.223	579.044
385.822	182.133
389.42	200.896
393.016	244.323
396.611	275.696
400.204	270.119
403.795	521.382
407.386	793.999
410.974	904.763
414.561	784.205
418.146	432.99
421.73	325.359
425.312	103.445
428.893	98.0488
432.472	121.528
436.05	1.37061
439.626	70.6543
443.201	38.8579
446.774	44.1377
450.345	15.1123
453.915	27.8276
457.483	70.5967
461.05	39.1733
464.615	78.6533
468.179	31.4287
471.741	26.9556
475.302	91.1675
478.861	45.7583
482.419	115.194
485.975	140.262
489.529	158.573
493.082	140.152
496.634	208.605
500.184	238.648
503.732	129.314
507.279	150.597
510.825	155.475
514.368	59.7578
517.911	161.912
521.451	153.459
524.991	79.5703
528.528	234.241
532.065	59.4775
535.599	61.46
539.132	116.417
542.664	247.73
546.194	183.175
549.723	61.2793
553.25	70.5439
556.775	118.616
560.299	80.0928
563.822	16.1201
567.343	74.8232
570.862	75.4824
574.38	16.999
577.896	87.4941
581.411	25.4258
584.925	36.8565
588.437	86.2852
591.947	103.003
595.456	94.1562
598.963	110.239
602.469	34.4414
605.973	123.757
609.476	87.8945
612.977	280.229
616.477	183.648
619.975	115.901
623.472	127.12
626.967	318.677
630.461	392.603
633.953	593.587
637.444	780.732
640.933	1285.37
644.421	2229.61
647.907	3324.27
651.392	3513.18
654.875	2739.73
658.357	1327.1
661.837	739.545
665.316	454.328
668.793	309.821
672.269	224.956
675.743	269.801
679.216	193.369
682.687	213.673
686.157	150.319
689.625	70.9209
693.092	65.4678
696.557	103.679
700.021	42.2773
703.483	123.262
706.944	82.9707
710.403	186.986
713.861	205.587
717.318	107.125
720.773	47.4121
724.226	72.2647
727.678	261.589
731.128	49.6895
734.577	6.69531
738.025	45.3379
741.47	99.665
744.915	25.0537
748.358	195.165
751.799	186.8
755.239	127.188
758.678	9.64648
762.115	13.7695
765.551	112.423
768.985	118.446
772.417	128.381
775.848	195.15
779.278	143.744
782.706	148.897
786.133	327.562
789.558	148.792
792.982	232.435
796.404	59.3799
799.825	203.359
803.245	57.3799
806.663	286.221
810.079	356.188
813.494	187.804
816.907	205.734
820.319	61.9619
823.73	269.851
827.139	244.589
830.547	46.8262
833.953	226.366
837.358	37.4531
840.761	5.75391
844.163	227.562
847.563	182.119
850.962	134.303
854.359	92.2207
857.755	156.215
861.15	167.971
864.543	111.492
867.934	114.746
871.324	149.764
874.713	129.084
878.1	195.203
881.486	3.55859
884.87	68.209
888.253	171.016
891.634	35.8418
895.014	27.8379
898.393	4.81836
901.77	43.625
905.145	220.769
908.519	227
911.892	337.906
915.263	128.455
918.633	264.453
922.001	183.43
925.368	206.238
928.734	334.555
932.098	205.848
935.46	308.185
938.821	81.1269
942.181	21.6406
945.539	121.08
948.896	325.312
952.251	522.979
955.605	525.107
958.958	565.195
962.309	818.068
965.658	1008.12
969.006	1223.38
972.353	1241.97
975.698	1234.36
979.042	1069.03
982.385	933.381
985.726	932.467
989.065	1094.37
992.403	907.967
995.74	1004.1
999.075	1101.08
1002.41	1181.91
1005.74	1086.17
1009.07	635.623
1012.4	795.088
1015.73	1038.77
1019.06	1415.47
1022.38	1894.38
1025.71	1760.06
1029.03	1121.5
1032.35	679.076
1035.67	456.922
1038.99	318.092
1042.3	482.07
1045.62	218.301
1048.93	176.461
1052.24	215.566
1055.56	90.3106
1058.87	129.973
1062.17	88.7734
1065.48	126.353
1068.79	3.74609
1072.09	78.6484
1075.39	221.629
1078.69	48.5098
1081.99	54.5859
1085.29	64.9688
1088.59	216.74
1091.88	203.525
1095.18	273.627
1098.47	206.988
1101.76	21.0352
1105.05	51.666
1108.34	271.178
1111.63	316.56
1114.91	361.551
1118.2	366.32
1121.48	366.644
1124.76	276.268
1128.04	306.568
1131.32	344.647
1134.6	361.84
1137.87	351.885
1141.15	253.502
1144.42	230.357
1147.69	84.416
1150.96	231.791
1154.23	77.8867
1157.5	139.023
1160.76	172.147
1164.03	19.6016
1167.29	483.629
1170.55	201.754
1173.81	284.449
1177.07	241.379
1180.33	184.098
1183.58	133.762
1186.84	179.352
1190.09	230.227
1193.34	96.8672
1196.6	24.6211
1199.84	209.488
1203.09	28.1211
1206.34	0
