Measurement: Raman, 514 nm, ccw, Raman Data Processed
Mineral: Pectolite
Rruff sample: R050396
Ideal chemistry: NaCa_2_Si_3_O_8_(OH)
Locality: Jeffrey Quarry, Asbestos, Quebec, Canada
Source: Marcus Origlieri
Description: Colorless to gray columnar blocky crystals
Measured chemistry: Na_1.00_Ca_2.00_Si_3.00_O_8_(OH)
Pin_id: L01067
Orientation: Laser parallel to a* (1 0 0). Fiducial mark perpendicular to laser is parallel to -b [0 -1 0]
Raman shift (cm-1)	intensity
118.935	0
122.648	91.8359
126.36	96.5947
130.07	95.436
133.778	494.344
137.485	816.125
141.19	1122.03
144.894	913.898
148.596	902.989
152.296	575.188
155.995	315.988
159.692	182.707
163.388	89.394
167.082	96.8144
170.775	50.8721
174.465	157.48
178.155	193.761
181.842	253.605
185.528	451.225
189.213	237.951
192.896	213.153
196.577	83.3442
200.256	105.409
203.934	36.6318
207.611	45.9785
211.286	117.727
214.959	181.568
218.631	313.61
222.301	284.647
225.969	401.64
229.636	258.687
233.302	321.312
236.965	267.533
240.628	170.788
244.288	86.7295
247.947	113.649
251.604	76.3184
255.26	165.168
258.915	194.16
262.567	239.928
266.218	302.901
269.868	484.448
273.516	568.334
277.162	483.361
280.807	381.617
284.45	178.037
288.092	80.2432
291.732	56.5938
295.37	206.116
299.007	249.536
302.642	185.339
306.276	201.389
309.908	352.665
313.539	440.884
317.168	418.221
320.795	394.882
324.421	406.941
328.046	298.416
331.668	171.737
335.289	43.7715
338.909	20.583
342.527	85.8447
346.144	8.16211
349.759	20.7637
353.372	3.01172
356.984	80.4414
360.594	36.1074
364.203	88.0156
367.81	5.26758
371.415	303.069
375.019	79.8398
378.622	365.176
382.223	115.523
385.822	124.347
389.42	138.342
393.016	179.63
396.611	119.314
400.204	50.5078
403.795	96.4668
407.386	22.8936
410.974	217.618
414.561	92.9141
418.146	92.8447
421.73	62.8613
425.312	106.815
428.893	118.203
432.472	111.409
436.05	64.1406
439.626	17.249
443.201	169.725
446.774	132.827
450.345	119.557
453.915	12.6924
457.483	135.109
461.05	141.199
464.615	205.507
468.179	238.531
471.741	254.848
475.302	145.632
478.861	402.447
482.419	401.631
485.975	354.819
489.529	202.296
493.082	317.619
496.634	272.481
500.184	357.826
503.732	275.029
507.279	177.109
510.825	281.24
514.368	359.089
517.911	354.486
521.451	249.705
524.991	469.568
528.528	356.933
532.065	119.249
535.599	24.9902
539.132	54.5625
542.664	127.207
546.194	97.1045
549.723	54.4385
553.25	62.3789
556.775	68.6992
560.299	9.08984
563.822	32.2402
567.343	155.609
570.862	38.9492
574.38	41.4502
577.896	33.5557
581.411	211.741
584.925	17.5098
588.437	85.5625
591.947	92.459
595.456	143.468
598.963	3.32519
602.469	167.669
605.973	110.662
609.476	129.565
612.977	166.656
616.477	206.598
619.975	273.626
623.472	310.523
626.967	429.94
630.461	503.119
633.953	595.152
637.444	712.556
640.933	1012.26
644.421	1875.92
647.907	2986.19
651.392	3858.82
654.875	3075.11
658.357	1692.61
661.837	694.492
665.316	456.111
668.793	453.766
672.269	301.861
675.743	364.648
679.216	582.613
682.687	638.482
686.157	749.803
689.625	580.623
693.092	402.867
696.557	272.096
700.021	271.322
703.483	302.781
706.944	283.584
710.403	227.965
713.861	27.6387
717.318	40.9551
720.773	130.725
724.226	69.4062
727.678	72.3691
731.128	166.438
734.577	214.129
738.025	255.385
741.47	32.6816
744.915	162.486
748.358	128.967
751.799	169.873
755.239	228.631
758.678	143.938
762.115	71.9356
765.551	133.352
768.985	193.287
772.417	147.1
775.848	52.5059
779.278	112.043
782.706	212.801
786.133	205.592
789.558	165.644
792.982	141.707
796.404	217.693
799.825	102.611
803.245	60.416
806.663	109.789
810.079	177.91
813.494	143.305
816.907	339.463
820.319	300.652
823.73	16.3965
827.139	220.84
830.547	200.463
833.953	209.131
837.358	1.43555
840.761	6.1875
844.163	85.9414
847.563	2.51953
850.962	100.16
854.359	112.066
857.755	146.066
861.15	133.541
864.543	140.772
867.934	334.074
871.324	8.7832
874.713	86.3945
878.1	72.3242
881.486	78.7441
884.87	200.635
888.253	67.9805
891.634	172.182
895.014	148.488
898.393	276.768
901.77	222.273
905.145	157.91
908.519	126.455
911.892	51.3613
915.263	8.64648
918.633	273.588
922.001	12.2168
925.368	38.3867
928.734	40.0703
932.098	151.508
935.46	10.3145
938.821	24.0625
942.181	99.1094
945.539	216.381
948.896	348.557
952.251	192.449
955.605	376.19
958.958	713.066
962.309	917.143
965.658	1357.98
969.006	2017.8
972.353	2033.87
975.698	1866.27
979.042	1530.18
982.385	1269.08
985.726	906.809
989.065	823.1
992.403	450.422
995.74	952.432
999.075	726.443
1002.41	668.258
1005.74	591.338
1009.07	582.639
1012.4	706.527
1015.73	422.273
1019.06	825.543
1022.38	896.941
1025.71	946.768
1029.03	735.621
1032.35	856.658
1035.67	345.74
1038.99	267.035
1042.3	82.1113
1045.62	33.127
1048.93	123.262
1052.24	87.3691
1055.56	123.201
1058.87	61.084
1062.17	83.0918
1065.48	259.514
1068.79	8.13477
1072.09	196.369
1075.39	250.463
1078.69	11.0488
1081.99	66.0703
1085.29	149.744
