Measurement: Raman, 514 nm, ccw, Raman Data Processed
Mineral: Pectolite
Rruff sample: R060101
Ideal chemistry: NaCa_2_Si_3_O_8_(OH)
Locality: West Patterson, New Jersey, USA
Source: University of Arizona Mineral Museum
Description: Tufts of white acicular sprays
Measured chemistry: Na_1.02_Ca_2.00_Si_2.99_O_8_(OH)
Pin_id: M00210
Orientation: Laser parallel to -b* (0 -1 0). Fiducial mark perpendicular to laser is parallel to c [0 0 1]
Raman shift (cm-1)	intensity
118.935	0
122.648	0.930298
126.36	24.3311
130.07	64.3801
133.778	87.9003
137.485	130.846
141.19	235.87
144.894	203.055
148.596	226.47
152.296	176.499
155.995	76.3156
159.692	24.2124
163.388	96.692
167.082	10.6417
170.775	25.1156
174.465	29.0863
178.155	57.4864
181.842	54.8408
185.528	109.788
189.213	73.2345
192.896	12.152
196.577	70.1804
200.256	17.741
203.934	58.0256
207.611	62.1282
211.286	33.4126
214.959	101.03
218.631	72.144
222.301	45.7073
225.969	42.0151
229.636	49.6296
233.302	25.6562
236.965	28.9463
240.628	29.2822
244.288	24.8738
247.947	63.8083
251.604	50.2241
255.26	18.7717
258.915	48.2056
262.567	54.7949
266.218	84.4153
269.868	139.541
273.516	94.5952
277.162	77.5925
280.807	13.7556
284.45	54.5288
288.092	26.5186
291.732	40.3706
295.37	21.9509
299.007	9.76074
302.642	13.9817
306.276	88.8008
309.908	92.7844
313.539	132.394
317.168	158.676
320.795	130.545
324.421	72.9119
328.046	51.9793
331.668	37.647
335.289	57.083
338.909	21.5964
342.527	43.1519
346.144	73.71
349.759	77.5635
353.372	100.542
356.984	79.2898
360.594	48.644
364.203	144.269
367.81	100.138
371.415	194.835
375.019	292.317
378.622	284.291
382.223	174.983
385.822	83.981
389.42	48.9983
393.016	21.3457
396.611	10.4075
400.204	93.1428
403.795	171.363
407.386	230.188
410.974	278.784
414.561	236.602
418.146	178.218
421.73	59.5767
425.312	60.2407
428.893	77.5281
432.472	29.5049
436.05	22.804
439.626	92.4678
443.201	31.5574
446.774	64.6997
450.345	47.6279
453.915	79.8623
457.483	33.6895
461.05	132.132
464.615	81.3115
468.179	84.4907
471.741	54.9746
475.302	24.0391
478.861	67.3696
482.419	69.6885
485.975	11.0044
489.529	78.8071
493.082	118.281
496.634	101.61
500.184	121.394
503.732	58.5996
507.279	28.5527
510.825	24.7622
514.368	165.034
517.911	62.9775
521.451	79.3916
524.991	74.2109
528.528	4.59619
532.065	84.6807
535.599	4.11084
539.132	26.5952
542.664	65.0474
546.194	2.68945
549.723	104.484
553.25	18.9058
556.775	47.2466
560.299	20.8096
563.822	71.936
567.343	55.7197
570.862	69.4351
574.38	32.8413
577.896	85.3521
581.411	26.4531
584.925	112.718
588.437	65.7085
591.947	21.8189
595.456	54.3325
598.963	68.3003
602.469	75.1841
605.973	44.1826
609.476	78.1523
612.977	62.3662
616.477	25.8413
619.975	25.0269
623.472	160.751
626.967	153.091
630.461	188.503
633.953	274.921
637.444	292.951
640.933	299.117
644.421	657.475
647.907	904.317
651.392	1021.1
654.875	821.081
658.357	415.795
661.837	164.991
665.316	161.858
668.793	237.506
672.269	156.782
675.743	171.109
679.216	230.453
682.687	141.936
686.157	82.8062
689.625	131.16
693.092	185.194
696.557	103.596
700.021	99.5205
703.483	153.261
706.944	73.0088
710.403	87.3711
713.861	98.3428
717.318	17.667
720.773	41.5977
724.226	88.9385
727.678	27.1895
731.128	152.914
734.577	195.178
738.025	138.046
741.47	71.46
744.915	85.4053
748.358	76.3799
751.799	83.7451
755.239	159.355
758.678	32.4736
762.115	117.14
765.551	111.17
768.985	49.9775
772.417	149.262
775.848	13.8594
779.278	115.133
782.706	170.322
786.133	148.262
789.558	82.8018
792.982	90.8574
796.404	94.8828
799.825	170.732
803.245	267.46
806.663	217.996
810.079	194.876
813.494	299.471
816.907	295.354
820.319	118.088
823.73	335.285
827.139	162.292
830.547	188.75
833.953	25.1631
837.358	3.12891
840.761	103.699
844.163	200.493
847.563	206.122
850.962	134.074
854.359	115.228
857.755	172.546
861.15	172.279
864.543	330.859
867.934	93.3643
871.324	170.317
874.713	150.732
878.1	163.191
881.486	145.741
884.87	85.6084
888.253	183.535
891.634	29.9521
895.014	265.381
898.393	127.149
901.77	224.98
905.145	198.189
908.519	230.724
911.892	170.419
915.263	150.723
918.633	156.545
922.001	111.565
925.368	127.765
928.734	289.117
932.098	202.185
935.46	76.3652
938.821	58.6875
942.181	7.75
945.539	41.1992
948.896	0.501953
952.251	227.445
955.605	162.418
958.958	252.875
962.309	254.494
965.658	419.67
969.006	454.402
972.353	334.035
975.698	149.955
979.042	175.543
982.385	181.602
985.726	161.674
989.065	176.787
992.403	391.041
995.74	348.74
999.075	343.393
1002.41	355
1005.74	355.398
1009.07	220.83
1012.4	337.652
1015.73	360.232
1019.06	487.082
1022.38	730.547
1025.71	629.514
1029.03	477.67
1032.35	360.852
1035.67	240.748
1038.99	150.727
1042.3	87.2481
1045.62	259.459
1048.93	52.4355
1052.24	35.5742
1055.56	107.139
1058.87	16.6016
1062.17	2.64844
1065.48	49.9727
1068.79	11.125
1072.09	92.5039
1075.39	119.746
1078.69	406.268
1081.99	217.783
1085.29	223.543
1088.59	196.203
1091.88	133.783
1095.18	194.478
1098.47	146.055
1101.76	173.75
1105.05	38.6387
1108.34	267.074
1111.63	281.17
1114.91	197.471
1118.2	89.8613
1121.48	78.6231
1124.76	212.389
1128.04	204.16
1131.32	228.654
1134.6	79.2715
1137.87	0.71875
