Measurement: Raman, 514 nm, ccw, Raman Data Processed
Mineral: Pectolite
Rruff sample: R050396
Ideal chemistry: NaCa_2_Si_3_O_8_(OH)
Locality: Jeffrey Quarry, Asbestos, Quebec, Canada
Source: Marcus Origlieri
Description: Colorless to gray columnar blocky crystals
Measured chemistry: Na_1.00_Ca_2.00_Si_3.00_O_8_(OH)
Pin_id: M00143
Orientation: Laser parallel to -b* (0 -1 0). Fiducial mark perpendicular to laser is parallel to c [0 0 1]
Raman shift (cm-1)	intensity
128.833	0
132.542	3.3418
136.25	494.685
139.955	1616.06
143.66	2185.89
147.362	1267.25
151.063	618.521
154.762	280.482
158.46	103.012
162.156	0.253906
165.851	33.668
169.544	33.875
173.235	32.0801
176.925	29.6465
180.613	263.113
184.3	200.334
187.985	125.18
191.668	108.682
195.35	171.379
199.03	253.978
202.709	111.309
206.386	368.701
210.061	56.2871
213.735	130.482
217.407	204.367
221.078	323.062
224.747	199.631
228.414	286.643
232.08	121.113
235.744	379.09
239.407	166.373
243.068	31.8145
246.728	205.539
250.386	236.787
254.042	294.682
257.697	97.625
261.35	255.818
265.001	255.328
268.651	463.978
272.3	393.822
275.947	313.41
279.592	279.584
283.236	370.537
286.878	426.279
290.518	84.0723
294.157	112.684
297.795	126.867
301.431	214.482
305.065	68.3144
308.698	194.648
312.329	202.352
315.958	314.008
319.586	267.607
323.213	248.428
326.838	144.201
330.461	211.148
334.083	246.502
337.703	89.9277
341.321	234.168
344.938	60.0527
348.554	166.334
352.168	228.037
355.78	172.607
359.391	249.025
363	261.703
366.608	205.705
370.214	234.807
373.818	404.195
377.421	204.703
381.023	209.58
384.622	231.334
388.221	186.584
391.818	236.162
395.413	208.465
399.006	172.986
402.598	240.01
406.189	190.984
409.778	224.486
413.365	112.387
416.951	205.81
420.536	154.234
424.118	47.6465
427.7	129.441
431.279	74.5566
434.858	207
438.434	124.588
442.009	175.135
445.583	124.492
449.155	187.182
452.725	89.3398
456.294	51.7441
459.861	351.856
463.427	158.641
466.991	135.906
470.554	238.336
474.115	169.666
477.675	90.668
481.233	344.609
484.79	71.166
488.345	57.75
491.898	384.469
495.45	179.565
499.001	56.3496
502.55	94.7969
506.097	218.994
509.643	231.918
513.187	443.816
516.73	250.148
520.271	352.144
523.811	319.914
527.349	100.602
530.886	305.31
534.421	32.8184
537.955	134.779
541.487	354.518
545.017	193.279
548.547	116.539
552.074	50.9355
555.6	181.652
559.125	77.3496
562.648	239.547
566.169	7.23633
569.689	63.3984
573.207	11.9941
576.724	230.287
580.24	382.281
583.754	210.547
587.266	119.356
590.777	232.94
594.286	240.205
597.794	298.727
601.3	288.1
604.805	283.516
608.309	165.084
611.81	212.945
615.311	54.6797
618.809	154.106
622.307	202.211
625.802	379.402
629.297	371.195
632.789	304.426
636.281	641.4
639.77	826.664
643.259	790.941
646.745	1121.49
650.231	1514.9
653.714	1412.68
657.197	713.129
660.677	579.078
664.157	375.023
667.634	239.533
671.111	416.219
674.585	374.533
678.059	204.455
681.53	89.4121
685.001	419.965
688.469	338.728
691.937	187.728
695.402	43.7559
698.867	444.773
702.329	55.0605
705.791	197.777
709.251	163.096
712.709	231.565
716.166	182.025
719.621	113.754
723.075	114.824
726.527	62.0801
729.978	351.488
733.428	437.982
736.876	195.701
740.322	9.30859
743.767	33.918
747.21	59.3184
750.652	280.881
754.093	190.848
757.532	24.7559
760.969	195.459
764.406	237.803
767.84	230.199
771.273	294.606
774.705	316.691
778.135	158.156
781.564	76.9766
784.991	37.2969
788.417	38.2344
791.841	211.137
795.264	134.457
798.685	80.7188
802.105	244.422
805.523	116.223
808.94	32.0273
812.356	182.031
815.77	294.055
819.182	42.5273
822.593	146.875
826.003	262.559
829.411	259.172
832.818	363.625
836.223	119.027
839.627	245.394
843.029	82.0039
846.43	75.6172
849.829	81.7891
853.227	176.785
856.623	371.941
860.018	266.019
863.412	97.7344
866.804	250.992
870.194	81.5156
873.583	230.18
876.971	112.598
880.357	127.516
883.742	205.785
887.125	36.1992
890.507	174.629
893.888	252.793
897.267	119.738
900.644	50.3203
904.02	325.086
907.395	161.797
910.768	110.106
914.14	10.5938
917.51	71.8672
920.879	233.289
924.246	73.0938
927.612	239.457
930.976	115.805
934.339	106.082
937.701	146.238
941.061	109.934
944.42	290.023
947.777	201.82
951.133	337.363
954.487	292.102
957.84	15.0273
961.192	455.508
964.542	502.656
967.89	516.121
971.238	550.641
974.583	514.688
977.928	328.699
981.271	447.727
984.612	441.996
987.952	202.984
991.291	389.336
994.628	498.531
997.964	283.953
1001.3	537.773
1004.63	485.918
1007.96	663.477
1011.29	271.453
1014.62	374.688
1017.95	621.269
1021.27	690.441
1024.6	608.059
1027.92	817.949
1031.24	354.066
1034.56	235.648
1037.88	163.629
1041.2	227.34
1044.51	55.9727
1047.83	9.30859
1051.14	62.9375
1054.45	159.09
1057.76	97.125
1061.07	196.262
1064.38	71.3164
1067.68	89.1289
1070.99	56.2461
1074.29	391.883
1077.59	179.227
1080.89	390.867
1084.19	149.188
1087.49	509.609
1090.79	217.652
1094.08	151.844
1097.37	41.3516
1100.66	188.027
1103.95	405.914
1107.24	118.629
1110.53	92.543
1113.82	291.727
1117.1	360.84
1120.38	378.926
1123.67	180.109
1126.95	265.617
1130.23	409.371
1133.5	340.168
1136.78	195.445
1140.05	465.32
1143.33	203.391
1146.6	435.539
1149.87	533.258
1153.14	430.894
1156.41	266.527
1159.67	347.195
1162.94	320.918
1166.2	602.562
1169.46	505.562
1172.72	254.547
1175.98	165.668
1179.24	267.547
1182.5	93.3477
1185.75	116.144
1189.01	320.66
