Measurement: Raman, 514 nm, ccw, Raman Data Processed
Mineral: Pectolite
Rruff sample: R060101
Ideal chemistry: NaCa_2_Si_3_O_8_(OH)
Locality: West Patterson, New Jersey, USA
Source: University of Arizona Mineral Museum
Description: Tufts of white acicular sprays
Measured chemistry: Na_1.02_Ca_2.00_Si_2.99_O_8_(OH)
Pin_id: L01710
Orientation: Laser parallel to -a* (-1 0 0). Fiducial mark perpendicular to laser is parallel to b [0 1 0]
Raman shift (cm-1)	intensity
137.485	0
139.955	39.4496
142.425	45.212
144.894	47.8828
147.362	79.7139
149.83	77.4163
152.296	79.5846
154.762	80.3068
157.228	55.3765
159.692	51.6814
162.156	4.09033
164.62	47.8068
167.082	59.7672
169.544	57.5415
172.005	65.0054
174.465	63.1002
176.925	40.8143
179.384	41.267
181.842	55.3812
184.3	112.928
186.757	76.7686
189.213	49.2427
191.668	55.0321
194.123	44.985
196.577	41.9274
199.03	42.0909
201.483	2.92078
203.934	34.9656
206.386	28.1981
208.836	31.9331
211.286	34.3624
213.735	49.5546
216.183	20.798
218.631	58.5035
221.078	41.9585
223.524	77.4219
225.969	82.2382
228.414	10.2835
230.858	35.5027
233.302	44.1879
235.744	48.6372
238.186	27.472
240.628	21.2289
243.068	44.7856
245.508	90.547
247.947	57.7034
250.386	62.0947
252.823	33.7766
255.26	35.4001
257.697	78.1269
260.132	90.5
262.567	25.9578
265.001	70.1628
267.435	64.7117
269.868	126.498
272.3	71.0305
274.731	93.6018
277.162	79.3857
279.592	153.557
282.021	88.7319
284.45	68.4893
286.878	25.7956
289.305	2.48853
291.732	29.0513
294.157	41.2175
296.583	74.1716
299.007	94.1982
301.431	44.1367
303.854	81.5969
306.276	62.925
308.698	67.5625
311.119	86.8689
313.539	121.969
315.958	96.1335
318.377	107.795
320.795	122.29
323.213	108.23
325.629	82.0727
328.046	152.997
330.461	87.751
332.876	60.3081
335.289	71.0491
337.703	83.1365
340.115	45.2676
342.527	45.7297
344.938	69.3518
347.349	48.4092
349.759	34.3501
352.168	67.4468
354.576	49.1106
356.984	47.5527
359.391	147.972
361.797	74.6616
364.203	69.9385
366.608	17.9773
369.012	52.5815
371.415	91.7678
373.818	59.3484
376.22	103.351
378.622	57.2244
381.023	81.4221
383.423	117.564
385.822	14.2263
388.221	42.085
390.619	57.0247
393.016	86.5476
395.413	117.202
397.809	22.5022
400.204	27.0176
402.598	27.1502
404.992	62.012
407.386	44.0322
409.778	32.4961
412.17	52.9998
414.561	130.613
416.951	29.3506
419.341	24.4199
421.73	75.8013
424.118	109.308
426.506	12.616
428.893	85.6482
431.279	73.842
433.665	4.04468
436.05	84.3938
438.434	153.059
440.818	106.223
443.201	53.6006
445.583	103.983
447.964	74.1362
450.345	151.065
452.725	67.6592
455.105	77.9541
457.483	77.0644
459.861	154.488
462.239	83.5532
464.615	182.114
466.991	115.289
469.367	119.807
471.741	118.814
474.115	105.958
476.489	92.9482
478.861	100.722
481.233	81.6074
483.604	131.839
485.975	89.8442
488.345	97.4883
490.714	63.9873
493.082	124.16
495.45	131.5
497.817	161.852
500.184	149.701
502.55	28.415
504.915	56.6338
507.279	81.2847
509.643	132.505
512.006	137.808
514.368	111.101
516.73	97.7949
519.091	174.722
521.451	158.586
523.811	29.5947
526.17	105.19
528.528	84.5601
530.886	115.29
533.243	235.277
535.599	141.817
537.955	157.523
540.31	74.165
542.664	73.9263
545.017	71.3857
547.37	40.4946
549.723	89.1719
552.074	69.2183
554.425	83.1431
556.775	74.1348
559.125	130.875
561.473	70.0454
563.822	37.8315
566.169	7.5
568.516	41.7241
570.862	46.9336
573.207	79.0449
575.552	105.007
577.896	25.2007
580.24	15.1348
582.583	54.0688
584.925	78.1191
587.266	117.98
589.607	118.166
591.947	138.087
594.286	20.0903
596.625	143.916
598.963	200.92
601.3	32.043
603.637	25.2236
605.973	103.961
608.309	33.3345
610.643	25.3306
612.977	57.227
615.311	13.1562
617.643	81.0142
619.975	96.6875
622.307	158.542
624.637	122.554
626.967	106.406
629.297	74.6397
631.625	171.602
633.953	120.668
636.281	90.5786
638.607	109.716
640.933	126.424
643.259	276.542
645.583	233.965
647.907	392.76
650.231	533.122
652.553	639.202
654.875	468.86
657.197	388.506
659.517	223.522
661.837	180.358
664.157	312.492
666.475	168.284
668.793	139.966
671.111	195.486
673.427	90.335
675.743	132.824
678.059	153.327
680.373	199.602
682.687	185.968
685.001	225.744
687.313	202.841
689.625	126.579
691.937	94.2998
694.247	219.357
696.557	42.0215
698.867	0.599609
701.175	147.612
703.483	133.773
705.791	113.283
708.097	110.291
710.403	50.7676
712.709	40.6357
715.014	0.646484
717.318	208.31
719.621	105.631
721.924	108.473
724.226	160.618
726.527	128.734
728.828	129.344
731.128	126.618
733.428	93.6494
735.726	115.688
738.025	163.094
740.322	87.7939
742.619	169.714
744.915	76.96
747.21	211.503
749.505	79.9727
751.799	228.69
754.093	217.77
756.386	145.477
758.678	270.825
760.969	1.67383
763.26	126.731
765.551	264.418
767.84	153.093
770.129	181.608
772.417	165.205
774.705	65.0068
776.992	185.866
779.278	97.2002
781.564	141.674
783.849	217.977
786.133	274.256
788.417	193.991
790.7	212.166
792.982	132.624
795.264	236.36
797.545	136.194
799.825	193.894
802.105	144.797
804.384	120.402
806.663	279.215
808.94	166.415
811.217	111.827
813.494	237.434
815.77	231.272
818.045	145.846
820.319	68.9805
822.593	53.3379
824.867	163.898
827.139	89.0371
829.411	174.768
831.682	96.2754
833.953	105.643
836.223	26.041
838.492	223.777
840.761	205.876
843.029	154.408
845.296	197.341
847.563	173.35
849.829	200.915
852.094	152.573
854.359	64.8076
856.623	153.01
858.887	99.3359
861.15	67.3633
863.412	233.463
865.673	139.527
867.934	340.494
870.194	108.184
872.454	113.478
874.713	42.7012
876.971	25.1309
879.229	115.801
881.486	195.287
883.742	27.8867
885.998	55.8965
888.253	249.106
890.507	242.318
892.761	119.549
895.014	35.3203
897.267	27.5176
899.518	15.9473
901.77	21.9258
904.02	15.2617
906.27	83.166
908.519	288.098
910.768	91.5996
913.016	36.9121
915.263	67.5664
917.51	18.6289
919.756	200.688
922.001	233.83
924.246	202.059
926.49	93.9394
928.734	193.541
930.976	150.85
933.219	2.99023
935.46	189.684
937.701	161.99
939.941	153.463
942.181	108.906
944.42	364.557
946.658	344.897
948.896	253.109
951.133	259.219
953.369	131.397
955.605	363.779
957.84	309.219
960.075	248.266
962.309	456.815
964.542	395.586
966.774	494.062
969.006	452.658
971.238	449.346
973.468	525.098
975.698	261.797
977.928	673.381
980.156	283.619
982.385	198.941
984.612	443.709
986.839	241.404
989.065	273.572
991.291	422.236
993.516	132.088
995.74	273.773
997.964	149.969
1000.19	91.0918
1002.41	79.8984
1004.63	313.531
1006.85	139.658
1009.07	36.9609
1011.29	73.6445
1013.51	253.361
1015.73	274.748
1017.95	181.293
1020.16	90.1269
1022.38	321.992
1024.6	117.654
1026.81	129.125
1029.03	12.959
1031.24	0.585938
1033.46	12.6465
