Measurement: Raman, 514 nm, ccw, Raman Data Processed
Mineral: Pectolite
Rruff sample: R060101
Ideal chemistry: NaCa_2_Si_3_O_8_(OH)
Locality: West Patterson, New Jersey, USA
Source: University of Arizona Mineral Museum
Description: Tufts of white acicular sprays
Measured chemistry: Na_1.02_Ca_2.00_Si_2.99_O_8_(OH)
Pin_id: M00210
Orientation: Laser parallel to -b* (0 -1 0). Fiducial mark perpendicular to laser is parallel to c [0 0 1]
Raman shift (cm-1)	intensity
127.596	0
131.306	78.9117
135.014	179.005
138.72	308.265
142.425	445.856
146.128	266.075
149.83	268.409
153.53	170.915
157.228	102.693
160.925	37.7566
164.62	0.688354
168.313	68.2963
172.005	39.8569
175.695	46.9457
179.384	24.4956
183.071	34.0354
186.757	89.0867
190.44	75.0825
194.123	63.8091
197.803	17.5754
201.483	33.4761
205.16	20.9993
208.836	64.2876
212.51	0.028564
216.183	95.6094
219.854	40.2004
223.524	13.2405
227.192	92.4905
230.858	86.9824
234.523	60.7363
238.186	31.5645
241.848	2.71069
245.508	2.69678
249.166	6.85376
252.823	13.2014
256.479	30.2244
260.132	30.5112
263.784	37.2256
267.435	33.1426
271.084	114.427
274.731	71.9768
278.377	116.163
282.021	53.5903
285.664	85.2839
289.305	25.8037
292.945	74.5496
296.583	92.7783
300.219	3.39795
303.854	72.6394
307.487	74.9546
311.119	23.6079
314.749	94.9898
318.377	134.304
322.004	118.508
325.629	91.8623
329.253	69.1785
332.876	31.3274
336.496	57.1113
340.115	84.7122
343.733	19.9822
347.349	0.261963
350.963	65.885
354.576	31.7749
358.187	89.1103
361.797	114.536
365.405	31.6558
369.012	45.6167
372.617	122.445
376.22	156.897
379.822	119.79
383.423	34.5278
387.022	42.3408
390.619	61.7293
394.215	98.7061
397.809	82.0991
401.401	49.8965
404.992	71.9827
408.582	71.2744
412.17	83.6894
415.756	86.1282
419.341	14.1304
422.924	140.962
426.506	92.656
430.086	69.2158
433.665	68.0264
437.242	41.1631
440.818	15.6758
444.392	84.7568
447.964	101.648
451.535	101.93
455.105	34.3428
458.672	127.761
462.239	67.8652
465.804	136.452
469.367	129.178
472.928	110.096
476.489	51.5293
480.047	99.5884
483.604	34.2642
487.16	152.121
490.714	145.869
494.266	134.263
497.817	75.5977
501.367	124.27
504.915	115.023
508.461	137.583
512.006	134.605
515.549	105.441
519.091	168.715
522.631	129.047
526.17	134.786
529.707	64.7144
533.243	89.0449
536.777	53.0581
540.31	12.2329
543.841	93.5083
547.37	46.4858
550.898	4.12451
554.425	19.8159
557.95	51.8901
561.473	114.94
564.995	122.758
568.516	83.4673
572.035	15.8227
575.552	87.0166
579.068	47.7148
582.583	14.3237
586.095	84.6016
589.607	47.2764
593.117	31.1694
596.625	61.313
600.132	29.0561
603.637	71.6626
607.141	13.9312
610.643	73.5952
614.144	70.9766
617.643	116.883
621.141	74.7158
624.637	127.228
628.132	130.986
631.625	172.822
635.117	138.43
638.607	109.472
642.096	363.111
645.583	448.493
649.069	636.27
652.553	674.66
656.036	383.72
659.517	267.699
662.997	157.186
666.475	274.977
669.952	216.949
673.427	74.5845
676.901	153.15
680.373	65.1602
683.844	262.4
687.313	192.991
690.781	158.495
694.247	74.2363
697.712	21.2949
701.175	6.87793
704.637	123.721
708.097	121.917
711.556	27.3066
715.014	21.335
718.469	65.5772
721.924	75.2412
725.377	151.068
728.828	57.0283
732.278	42.3935
735.726	89.8262
739.173	86.1826
742.619	26.1436
746.063	107.576
749.505	29.8096
752.946	153.474
756.386	97.3164
759.824	177.523
763.26	26.2715
766.695	25.2598
770.129	235.61
773.561	187.398
776.992	80.21
780.421	114.822
783.849	137.593
787.275	57.624
790.7	123.39
794.123	124.751
797.545	192.451
800.965	69.708
804.384	186.976
807.802	163.938
811.217	149.73
814.632	164.726
818.045	112.094
821.456	178.523
824.867	239.5
828.275	160.712
831.682	172.872
835.088	116.852
838.492	205.497
841.895	57.044
845.296	222.573
848.696	105.739
852.094	139.325
855.491	175.212
858.887	263.123
862.281	88.9336
865.673	207.105
869.064	210.452
872.454	114.001
875.842	196.868
879.229	177.969
882.614	42.9688
885.998	196.348
889.38	109.714
892.761	115.289
896.14	22.0391
899.518	114.122
902.895	20.6025
906.27	59.0869
909.644	61.3115
913.016	45.4805
916.387	38.1182
919.756	34.294
923.124	51.1309
926.49	22.4238
929.855	80.1387
933.219	152.565
936.581	102.611
939.941	110.008
943.301	119.377
946.658	213.482
950.015	203.381
953.369	397.025
956.723	41.4316
960.075	198.359
963.425	297.758
966.774	363.742
970.122	392.152
973.468	520.553
976.813	332.734
980.156	350.451
983.498	221.953
986.839	291.734
990.178	316.826
993.516	373.334
996.852	413.877
1000.19	258.559
1003.52	324.301
1006.85	212.461
1010.18	246.938
1013.51	173.728
1016.84	180.508
1020.16	345.697
1023.49	377.65
1026.81	419.428
1030.13	143.342
1033.46	222.678
1036.78	252.59
1040.09	88.5723
1043.41	167.762
1046.72	129.662
1050.04	97.5664
1053.35	51.8496
1056.66	129.023
1059.97	137.99
1063.28	30.5332
1066.58	47.3457
1069.89	127.652
1073.19	161.283
1076.49	225.533
1079.79	220.098
1083.09	40.9238
1086.39	121.01
1089.69	91.875
1092.98	484.902
1096.28	371.557
1099.57	132.83
1102.86	308.137
1106.15	127.766
1109.43	50.8047
1112.72	340.221
1116.01	199.949
1119.29	151.481
1122.57	162.01
1125.85	301.469
1129.13	393.832
1132.41	204.611
1135.69	422.717
1138.96	329.555
1142.24	368.084
1145.51	364.545
1148.78	274.627
1152.05	197.463
1155.32	118.568
1158.59	351.998
1161.85	316.375
1165.11	228.369
1168.38	280.467
1171.64	452.266
1174.9	329.426
1178.16	156.557
1181.41	145.164
1184.67	265.371
1187.92	353.49
1191.18	11.4238
1194.43	278.111
1197.68	0
