Measurement: Raman, 514 nm, ccw, Raman Data Processed
Mineral: Pectolite
Rruff sample: R060101
Ideal chemistry: NaCa_2_Si_3_O_8_(OH)
Locality: West Patterson, New Jersey, USA
Source: University of Arizona Mineral Museum
Description: Tufts of white acicular sprays
Measured chemistry: Na_1.02_Ca_2.00_Si_2.99_O_8_(OH)
Pin_id: L01384
Orientation: Laser parallel to (-1 -1 0). Fiducial mark perpendicular to laser is parallel to c [0 0 1]
Raman shift (cm-1)	intensity
112.742	0
116.458	46.178
120.173	30.7498
123.885	18.2892
127.596	45.9221
131.306	29.417
135.014	20.3695
138.72	36.5022
142.425	114.2
146.128	93.853
149.83	57.8158
153.53	80.9853
157.228	32.5355
160.925	36.5529
164.62	57.0449
168.313	5.66821
172.005	36.4032
175.695	10.7011
179.384	45.7676
183.071	78.2896
186.757	56.4813
190.44	44.5994
194.123	60.4304
197.803	53.3252
201.483	56.5419
205.16	57.1904
208.836	21.0624
212.51	72.0772
216.183	87.3398
219.854	32.9612
223.524	34.0714
227.192	25.8835
230.858	70.1295
234.523	64.0051
238.186	57.4735
241.848	21.1174
245.508	15.4556
249.166	35.2456
252.823	26.2268
256.479	39.9808
260.132	58.1519
263.784	5.39111
267.435	5.87659
271.084	22.3217
274.731	106.693
278.377	52.9589
282.021	28.4943
285.664	10.713
289.305	16.4321
292.945	63.6382
296.583	14.9845
300.219	49.801
303.854	70.5769
307.487	84.6609
311.119	86.49
314.749	84.8112
318.377	93.9043
322.004	104.923
325.629	55.7754
329.253	58.2688
332.876	21.5342
336.496	37.8977
340.115	60.2346
343.733	73.2605
347.349	74.1182
350.963	90.4978
354.576	80.5537
358.187	61.0703
361.797	54.3826
365.405	44.9646
369.012	17.6619
372.617	63.0444
376.22	16.8023
379.822	99.3
383.423	58.0276
387.022	8.87769
390.619	50.4263
394.215	89.3362
397.809	51.3098
401.401	13.0415
404.992	2.00806
408.582	69.333
412.17	20.8669
415.756	79.2876
419.341	81.6904
422.924	34.7109
426.506	83.0828
430.086	60.2983
433.665	123.57
437.242	93.3613
440.818	60.5017
444.392	94.6531
447.964	35.7707
451.535	35.3904
455.105	29.2993
458.672	29.5808
462.239	104.085
465.804	42.2629
469.367	30.2295
472.928	134.238
476.489	109.484
480.047	62.0232
483.604	8.53809
487.16	32.7759
490.714	74.9099
494.266	64.3396
497.817	99.6562
501.367	119.691
504.915	162.844
508.461	66.2485
512.006	137.019
515.549	32.6575
519.091	101.593
522.631	63.5981
526.17	114.664
529.707	79.1321
533.243	86.2749
536.777	61.1565
540.31	43.5225
543.841	17.6763
547.37	99.1138
550.898	105.691
554.425	19.5449
557.95	83.0127
561.473	25.8335
564.995	40.8418
568.516	45.4228
572.035	0.138184
575.552	98.1172
579.068	61.1377
582.583	30.2295
586.095	0.272461
589.607	44.7402
593.117	34.2891
596.625	48.5254
600.132	40.6528
603.637	67.4453
607.141	40.814
610.643	2.14209
614.144	122.971
617.643	30.8037
621.141	10.9385
624.637	139.477
628.132	84.1406
631.625	175.845
635.117	137.385
638.607	160.601
642.096	257.92
645.583	324.426
649.069	429.912
652.553	533.933
656.036	347.097
659.517	163.81
662.997	135.202
666.475	91.7192
669.952	112.87
673.427	99.9971
676.901	149.914
680.373	120.767
683.844	121.02
687.313	54.6992
690.781	83.3267
694.247	37.085
697.712	30.2129
701.175	112.992
704.637	145.878
708.097	54.148
711.556	167.541
715.014	2.8169
718.469	125.414
721.924	9.67236
725.377	14.5376
728.828	45.8413
732.278	91.1299
735.726	111.049
739.173	97.3311
742.619	186.927
746.063	72.7022
749.505	134.671
752.946	60.4346
756.386	46.7051
759.824	71.3711
763.26	80.4023
766.695	105.174
770.129	111.428
773.561	114.121
776.992	96.084
780.421	188.581
783.849	19.8242
787.275	161.015
790.7	221.873
794.123	147.051
797.545	152.326
800.965	241.726
804.384	196.48
807.802	179.394
811.217	161.359
814.632	239.921
818.045	212.094
821.456	122.978
824.867	154.699
828.275	97.7978
831.682	193.652
835.088	152.76
838.492	146.644
841.895	113.56
845.296	68.0195
848.696	158.991
852.094	174.508
855.491	3.52148
858.887	221.499
862.281	202.169
865.673	157.029
869.064	55.8555
872.454	120.344
875.842	111.708
879.229	193.238
882.614	215.652
885.998	30.8174
889.38	95.042
892.761	149.185
896.14	214.916
899.518	59.335
902.895	147.846
906.27	8.39941
909.644	66.4375
913.016	3.70117
916.387	90.5342
919.756	66.1611
923.124	48.3945
926.49	163.408
929.855	137.325
933.219	49.4102
936.581	172.385
939.941	35.1592
943.301	129.475
946.658	53.5488
950.015	157.001
953.369	101.501
956.723	160.658
960.075	5.37012
963.425	200.541
966.774	248.764
970.122	272.911
973.468	205.915
976.813	247.629
980.156	29.5742
983.498	90.1231
986.839	74.5312
990.178	162.004
993.516	265.213
996.852	268.543
1000.19	119.25
1003.52	117.83
1006.85	103.891
1010.18	420.455
1013.51	45.248
1016.84	215.953
1020.16	135.383
1023.49	231.666
1026.81	224.631
1030.13	177.287
1033.46	36.2051
1036.78	126.043
1040.09	177.262
1043.41	149.639
1046.72	44.7188
1050.04	30.1484
1053.35	56.6582
1056.66	170.283
1059.97	85.0293
1063.28	25.416
1066.58	62.4785
1069.89	149.025
1073.19	69.0449
1076.49	111.689
1079.79	131.312
1083.09	215.445
1086.39	175.938
1089.69	123.459
1092.98	307.08
1096.28	169.738
1099.57	84.4551
1102.86	120.531
1106.15	1.19531
