Measurement: Raman, 514 nm, ccw, Raman Data Processed
Mineral: Pectolite
Rruff sample: R050396
Ideal chemistry: NaCa_2_Si_3_O_8_(OH)
Locality: Jeffrey Quarry, Asbestos, Quebec, Canada
Source: Marcus Origlieri
Description: Colorless to gray columnar blocky crystals
Measured chemistry: Na_1.00_Ca_2.00_Si_3.00_O_8_(OH)
Pin_id: M00143
Orientation: Laser parallel to -b* (0 -1 0). Fiducial mark perpendicular to laser is parallel to c [0 0 1]
Raman shift (cm-1)	intensity
127.596	0
131.306	227.088
135.014	249.699
138.72	642.014
142.425	1172.46
146.128	855.805
149.83	623.156
153.53	504.111
157.228	297.178
160.925	30.3535
164.62	42.8926
168.313	216.119
172.005	226.506
175.695	218.769
179.384	134.76
183.071	224.32
186.757	279.272
190.44	336.531
194.123	124.84
197.803	239.066
201.483	272.082
205.16	408.174
208.836	150.553
212.51	430.484
216.183	107.99
219.854	234.303
223.524	517.359
227.192	298.275
230.858	184.004
234.523	276.045
238.186	177.928
241.848	173.389
245.508	281.301
249.166	317.637
252.823	154.9
256.479	440.35
260.132	311.938
263.784	177.703
267.435	298.121
271.084	404.361
274.731	407.367
278.377	409.898
282.021	298.682
285.664	220.881
289.305	417.94
292.945	21.7559
296.583	143.389
300.219	111.611
303.854	193.182
307.487	224.752
311.119	226
314.749	317.334
318.377	223.5
322.004	220.664
325.629	393.912
329.253	277.018
332.876	142.1
336.496	196.232
340.115	87.5996
343.733	221.231
347.349	17.459
350.963	127.545
354.576	159.283
358.187	315.273
361.797	324.885
365.405	139.912
369.012	262.711
372.617	370.647
376.22	486.137
379.822	644.826
383.423	128.279
387.022	125.713
390.619	65.2578
394.215	232.258
397.809	261.596
401.401	139.047
404.992	199.957
408.582	294.342
412.17	446.902
415.756	185.922
419.341	321.023
422.924	226.34
426.506	187.049
430.086	114.939
433.665	9.41406
437.242	95.3984
440.818	148.318
444.392	43.3828
447.964	232.49
451.535	38.4238
455.105	37.4355
458.672	88.6113
462.239	98.1758
465.804	248.174
469.367	116.15
472.928	96.1934
476.489	288.082
480.047	212.66
483.604	134.777
487.16	4.31836
490.714	229.398
494.266	268.002
497.817	51.5762
501.367	197.9
504.915	214.973
508.461	166.801
512.006	154.543
515.549	156.842
519.091	226.853
522.631	202.582
526.17	189.027
529.707	373.264
533.243	89.9121
536.777	164.75
540.31	169.353
543.841	242.912
547.37	260.43
550.898	168.072
554.425	184.066
557.95	169.551
561.473	273.596
564.995	222.826
568.516	75.2773
572.035	152.049
575.552	113.266
579.068	206.865
582.583	106.533
586.095	176.986
589.607	181.631
593.117	109.154
596.625	69.1484
600.132	104.295
603.637	30.3281
607.141	86.4121
610.643	155.465
614.144	199.912
617.643	399.75
621.141	280.586
624.637	399.023
628.132	157.738
631.625	314.918
635.117	483.025
638.607	527.127
642.096	932.055
645.583	1168.73
649.069	1921
652.553	2010.37
656.036	1288.99
659.517	586.539
662.997	545.451
666.475	412.213
669.952	257.91
673.427	272.662
676.901	444.221
680.373	59.2363
683.844	205.549
687.313	254.096
690.781	309.221
694.247	257.764
697.712	166.379
701.175	53.4395
704.637	214.943
708.097	448.182
711.556	276.305
715.014	57.6777
718.469	103.078
721.924	194.393
725.377	282.647
728.828	267.473
732.278	413.959
735.726	242.291
739.173	35.1504
742.619	230.33
746.063	160.584
749.505	294.16
752.946	146.223
756.386	302.603
759.824	56.3711
763.26	439.598
766.695	404.156
770.129	521.76
773.561	194.211
776.992	87.5273
780.421	288.81
783.849	333.777
787.275	256.961
790.7	42.9082
794.123	309.393
797.545	153.889
800.965	149.519
804.384	291.287
807.802	292.363
811.217	143.859
814.632	390.703
818.045	264.623
821.456	128.221
824.867	157.59
828.275	216.467
831.682	101.787
835.088	416.684
838.492	172.926
841.895	294.492
845.296	313.664
848.696	110.109
852.094	338.014
855.491	300.377
858.887	166.994
862.281	32.9395
865.673	167.519
869.064	242.91
872.454	22.1738
875.842	157.457
879.229	180.219
882.614	358.457
885.998	167.195
889.38	321.725
892.761	25.3281
896.14	454.471
899.518	429.789
902.895	91.2734
906.27	304.315
909.644	288.338
913.016	354.416
916.387	367.766
919.756	137.703
923.124	230.25
926.49	133.379
929.855	49.832
933.219	125.316
936.581	408.969
939.941	180.914
943.301	10.7031
946.658	306.234
950.015	317.731
953.369	126.102
956.723	257.945
960.075	516.047
963.425	515.621
966.774	560.465
970.122	653.922
973.468	658.055
976.813	607.422
980.156	759.547
983.498	495.352
986.839	432.043
990.178	526.922
993.516	601.039
996.852	439.215
1000.19	472.848
1003.52	907.277
1006.85	834.746
1010.18	570.152
1013.51	645.035
1016.84	627.894
1020.16	988.902
1023.49	1089.18
1026.81	785.242
1030.13	687.746
1033.46	321.344
1036.78	249.856
1040.09	249.297
1043.41	377.785
1046.72	381.117
1050.04	319.07
1053.35	387.926
1056.66	299.91
1059.97	260.984
1063.28	342.984
1066.58	17.6953
1069.89	31.625
1073.19	262.242
1076.49	236.34
1079.79	643.207
1083.09	19.3359
1086.39	433.746
1089.69	121.176
1092.98	244.574
1096.28	87.7773
1099.57	272.797
1102.86	85.5
1106.15	190.309
1109.43	386.043
1112.72	304.055
1116.01	350.832
1119.29	575.246
1122.57	346.566
1125.85	406.18
1129.13	180.941
1132.41	228.606
1135.69	586.852
1138.96	90.6719
1142.24	288.805
1145.51	314.902
1148.78	309.793
1152.05	352.031
1155.32	264.144
1158.59	292.836
1161.85	57.5977
1165.11	196.945
1168.38	180.086
1171.64	399.094
1174.9	366.231
1178.16	196.066
1181.41	1.25391
1184.67	14.4922
1187.92	3.51953
