Measurement: Raman, 514 nm, ccw, Raman Data Processed
Mineral: Pectolite
Rruff sample: R060101
Ideal chemistry: NaCa_2_Si_3_O_8_(OH)
Locality: West Patterson, New Jersey, USA
Source: University of Arizona Mineral Museum
Description: Tufts of white acicular sprays
Measured chemistry: Na_1.02_Ca_2.00_Si_2.99_O_8_(OH)
Pin_id: M00258
Orientation: Laser parallel to c* (0 0 1). Fiducial mark perpendicular to laser is parallel to a [1 0 0]
Raman shift (cm-1)	intensity
115.22	0
118.935	63.6786
122.648	65.7331
126.36	14.0133
130.07	15.1337
133.778	73.2018
137.485	78.1177
141.19	81.9705
144.894	128.29
148.596	213.756
152.296	148.218
155.995	119.552
159.692	43.5815
163.388	5.92163
167.082	42.8446
170.775	23.9319
174.465	34.0756
178.155	39.8079
181.842	51.9934
185.528	63.167
189.213	34.1016
192.896	35.7874
196.577	50.2808
200.256	44.0116
203.934	18.1589
207.611	12.8345
211.286	75.9324
214.959	34.8957
218.631	53.8644
222.301	43.5277
225.969	79.4979
229.636	41.568
233.302	53.1302
236.965	56.5043
240.628	11.2946
244.288	31.0505
247.947	44.4269
251.604	32.8005
255.26	60.3569
258.915	74.5001
262.567	37.0455
266.218	11.8444
269.868	59.5332
273.516	62.0537
277.162	122.808
280.807	65.9121
284.45	63.1707
288.092	23.5254
291.732	18.7664
295.37	22.0134
299.007	32.4646
302.642	26.1753
306.276	26.5295
309.908	9.3667
313.539	93.5725
317.168	38.3523
320.795	50.3799
324.421	90.6555
328.046	99.8581
331.668	66.8579
335.289	73.5112
338.909	77.0017
342.527	28.0593
346.144	47.4517
349.759	78.7266
353.372	96.1643
356.984	64.4795
360.594	73.6077
364.203	51.0068
367.81	76.5505
371.415	137.893
375.019	218.339
378.622	250.236
382.223	213.425
385.822	144.805
389.42	79.8882
393.016	64.3728
396.611	68.8301
400.204	112.64
403.795	139.951
407.386	225.183
410.974	253.668
414.561	264.671
418.146	166.778
421.73	127.597
425.312	70.6106
428.893	62.3296
432.472	86.1531
436.05	71.8369
439.626	38.686
443.201	9.86499
446.774	24.3428
450.345	40.103
453.915	58.7915
457.483	68.6179
461.05	2.1626
464.615	23.1865
468.179	56.2251
471.741	14.3372
475.302	70.4939
478.861	14.2349
482.419	56.7007
485.975	76.8206
489.529	50.6819
493.082	83.4871
496.634	100.857
500.184	55.0161
503.732	38.874
507.279	45.6709
510.825	17.0723
514.368	72.2886
517.911	46.5772
521.451	3.47705
524.991	41.6802
528.528	129.532
532.065	31.459
535.599	42.2661
539.132	54.543
542.664	63.3369
546.194	56.4224
549.723	61.3296
553.25	96.8198
556.775	83.769
560.299	71.7617
563.822	113.939
567.343	61.9741
570.862	25.394
574.38	39.7983
577.896	61.2739
581.411	81.8091
584.925	43.5698
588.437	38.2275
591.947	71.2886
595.456	32.5732
598.963	41.8804
602.469	62.1196
605.973	130.438
609.476	83.7476
612.977	119.721
616.477	46.8223
619.975	89.2324
623.472	61.6655
626.967	32.0317
630.461	150.033
633.953	118.596
637.444	205.309
640.933	196.152
644.421	333.688
647.907	619.49
651.392	725.329
654.875	577.633
658.357	342.713
661.837	235.784
665.316	87.3774
668.793	155.245
672.269	108.821
675.743	82.7485
679.216	168.08
682.687	32.0625
686.157	28.2598
689.625	72.7368
693.092	87.1221
696.557	192.456
700.021	8.98096
703.483	5.40332
706.944	44.0727
710.403	91.0752
713.861	117.237
717.318	144.102
720.773	138.426
724.226	63.419
727.678	30.4561
731.128	154.916
734.577	130.09
738.025	19.4854
741.47	106.046
744.915	35.0029
748.358	105.01
751.799	45.0518
755.239	98.3164
758.678	136.254
762.115	2.12793
765.551	149.833
768.985	39.956
772.417	93.1943
775.848	41.4775
779.278	170.692
782.706	211.432
786.133	53.4883
789.558	105.769
792.982	85.2383
796.404	0.723633
799.825	33.373
803.245	92.1553
806.663	91.3672
810.079	208.454
813.494	105.751
816.907	170.091
820.319	213.026
823.73	113.794
827.139	181.384
830.547	42.2236
833.953	79.3135
837.358	110.027
840.761	101.858
844.163	96.4189
847.563	180.061
850.962	35.5147
854.359	218.046
857.755	231.773
861.15	123.667
864.543	117.138
867.934	60.4834
871.324	72.0195
874.713	77.8311
878.1	192.949
881.486	131.526
884.87	149.44
888.253	83.2402
891.634	140.359
895.014	18.498
898.393	136.8
901.77	106.284
905.145	78.0293
908.519	75.8584
911.892	137.894
915.263	223.477
918.633	42.668
922.001	46.1113
925.368	60.8877
928.734	177.387
932.098	92.2549
935.46	236.743
938.821	128.858
942.181	100.201
945.539	116.652
948.896	18.4648
952.251	111.783
955.605	267.244
958.958	251.223
962.309	241.383
965.658	266.488
969.006	304.82
972.353	360.543
975.698	394.809
979.042	236.658
982.385	304.977
985.726	199.639
989.065	222.508
992.403	192.309
995.74	277.195
999.075	364.506
1002.41	442.885
1005.74	356.125
1009.07	248.365
1012.4	181.182
1015.73	122.635
1019.06	282.039
1022.38	441.262
1025.71	495.332
1029.03	221.621
1032.35	159.027
1035.67	132.25
1038.99	11.1699
1042.3	350.824
1045.62	40.7676
1048.93	58.5273
1052.24	20.1172
1055.56	65.6172
1058.87	161.426
1062.17	2.57422
1065.48	213.209
1068.79	281.461
1072.09	6.92773
1075.39	173.758
1078.69	205.648
1081.99	89.3184
1085.29	158.26
1088.59	134.066
1091.88	48.8027
1095.18	13.6426
1098.47	112.201
1101.76	125.182
1105.05	67.6641
1108.34	213.273
1111.63	264.875
1114.91	154.941
1118.2	140.31
1121.48	93.7207
1124.76	267.352
1128.04	182.924
1131.32	384.795
1134.6	302.975
1137.87	450.492
1141.15	443.412
1144.42	327.533
1147.69	165.701
1150.96	318.496
1154.23	261.941
1157.5	228.512
1160.76	264.371
1164.03	359.818
1167.29	369.553
1170.55	298.065
1173.81	220.348
1177.07	336.785
1180.33	443.557
1183.58	387.83
1186.84	201.303
1190.09	240.932
1193.34	241.51
1196.6	174.988
1199.84	271.295
1203.09	25.4355
1206.34	139.287
1209.58	163.053
1212.83	17.1836
