Measurement: Raman, 514 nm, ccw, Raman Data Processed
Mineral: Pectolite
Rruff sample: R060101
Ideal chemistry: NaCa_2_Si_3_O_8_(OH)
Locality: West Patterson, New Jersey, USA
Source: University of Arizona Mineral Museum
Description: Tufts of white acicular sprays
Measured chemistry: Na_1.02_Ca_2.00_Si_2.99_O_8_(OH)
Pin_id: L01710
Orientation: Laser parallel to -a* (-1 0 0). Fiducial mark perpendicular to laser is parallel to b [0 1 0]
Raman shift (cm-1)	intensity
148.596	0
151.063	24.9535
153.53	51.6493
155.995	36.6508
158.46	51.2051
160.925	45.4685
163.388	67.4529
165.851	41.6281
168.313	71.0927
170.775	47.8995
173.235	29.0831
175.695	63.3717
178.155	77.7588
180.613	49.2128
183.071	44.5802
185.528	122.104
187.985	77.0513
190.44	75.8043
192.896	55.5306
195.35	58.4117
197.803	56.6786
200.256	83.2283
202.709	137.855
205.16	69.861
207.611	57.7927
210.061	65.2188
212.51	81.4893
214.959	55.4697
217.407	108.012
219.854	97.6002
222.301	116.35
224.747	85.8873
227.192	93.0315
229.636	105.482
232.08	90.1146
234.523	20.6232
236.965	21.0132
239.407	29.2025
241.848	57.9285
244.288	74.147
246.728	81.0272
249.166	63.9143
251.604	40.067
254.042	59.5461
256.479	68.8713
258.915	69.5888
261.35	19.2886
263.784	37.67
266.218	83.0028
268.651	107.803
271.084	113.609
273.516	85.3291
275.947	98.8357
278.377	112.365
280.807	139.842
283.236	68.9196
285.664	53.7512
288.092	22.5929
290.518	2.72595
292.945	7.71118
295.37	36.8292
297.795	68.5413
300.219	53.7765
302.642	55.4756
305.065	33.2393
307.487	41.5977
309.908	33.8518
312.329	32.5727
314.749	56.0156
317.168	87.2534
319.586	86.2024
322.004	71.1953
324.421	82.8997
326.838	55.7949
329.253	95.7451
331.668	70.5413
334.083	18.3589
336.496	74.7129
338.909	31.4497
341.321	80.5007
343.733	58.2881
346.144	30.9302
348.554	1.5437
350.963	2.95923
353.372	19.4265
355.78	67.1243
358.187	36.9395
360.594	23.0273
363	39.6782
365.405	73.5181
367.81	86.5456
370.214	17.918
372.617	80.8057
375.019	68.6731
377.421	18.3469
379.822	76.7297
382.223	81.2068
384.622	3.99658
387.022	16.5046
389.42	55.9368
391.818	57.4946
394.215	84.9807
396.611	80.9707
399.006	111.99
401.401	58.8733
403.795	5.64111
406.189	83.6018
408.582	76.0449
410.974	71.7144
413.365	57.3699
415.756	46.8181
418.146	62.4143
420.536	91.5523
422.924	83.1848
425.312	103.438
427.7	86.4702
430.086	18.2576
432.472	16.5405
434.858	33.8193
437.242	42.6873
439.626	8.27173
442.009	89.97
444.392	114.542
446.774	27.738
449.155	39.821
451.535	86.1604
453.915	89.6074
456.294	101.309
458.672	81.4473
461.05	128.353
463.427	73.3662
465.804	4.72217
468.179	83.7092
470.554	24.5325
472.928	86.2937
475.302	40.5203
477.675	93.4172
480.047	21.0115
482.419	83.2068
484.79	122.487
487.16	39.1641
489.529	104.614
491.898	69.103
494.266	54.3469
496.634	36.7349
499.001	96.8386
501.367	81.7861
503.732	69.04
506.097	125.226
508.461	72.1748
510.825	71.5122
513.187	40.9336
515.549	29.854
517.911	97.6646
520.271	62.4404
522.631	3.01904
524.991	112.689
527.349	125.712
529.707	112.401
532.065	92.8794
534.421	54.3852
536.777	49.2578
539.132	59.5459
541.487	91.814
543.841	73.5708
546.194	2.73047
548.547	92.1172
550.898	28.1836
553.25	67.2437
555.6	141.527
557.95	49.7031
560.299	118.358
562.648	130.575
564.995	75.3188
567.343	34.4575
569.689	93.96
572.035	156.654
574.38	145.722
576.724	71.6997
579.068	110.702
581.411	44.7398
583.754	90.4507
586.095	162.743
588.437	75.4878
590.777	65.8467
593.117	45.1372
595.456	24.7017
597.794	47.0093
600.132	86.9297
602.469	30.3994
604.805	83.9751
607.141	91.3144
609.476	68.1856
611.81	73.8423
614.144	102.102
616.477	114.882
618.809	101.611
621.141	66.9609
623.472	49.1587
625.802	101.089
628.132	78.3501
630.461	169.01
632.789	64.104
635.117	191.547
637.444	193.682
639.77	99.2173
642.096	223.1
644.421	183.46
646.745	339.668
649.069	354.184
651.392	451.024
653.714	480.495
656.036	339.743
658.357	291.35
660.677	157.338
662.997	99.9087
665.316	112.305
667.634	129.956
669.952	166.45
672.269	16.6143
674.585	66.5063
676.901	142.467
679.216	165.672
681.53	165.446
683.844	257.243
686.157	105.146
688.469	133.99
690.781	107.975
693.092	48.5972
695.402	9.88818
697.712	38.104
700.021	132.696
702.329	169.212
704.637	129.507
706.944	16.605
709.251	232.121
711.556	50.1704
713.861	93.3804
716.166	25.7686
718.469	11.9014
720.773	55.0215
723.075	81.0781
725.377	18.4404
727.678	67.8115
729.978	107.177
732.278	100.753
734.577	131.808
736.876	219.756
739.173	0.321289
741.47	192.116
743.767	131.581
746.063	66.6943
748.358	117.189
750.652	71.1914
752.946	162.634
755.239	93.8731
757.532	106.482
759.824	160.879
762.115	252.226
764.406	43.8486
766.695	28.9062
768.985	127.962
771.273	176.609
773.561	213.163
775.848	138.452
778.135	161.256
780.421	62.1397
782.706	199.654
784.991	135.665
787.275	124.918
789.558	189.632
791.841	247.347
794.123	180.247
796.404	128.941
798.685	140.825
800.965	175.911
803.245	143.958
805.523	142.627
807.802	139.559
810.079	213.338
812.356	261.798
814.632	51.7051
816.907	205.284
819.182	286.74
821.456	263.408
823.73	203.638
826.003	18.2725
828.275	243.31
830.547	184.526
832.818	115.49
835.088	309.983
837.358	235.436
839.627	16.5303
841.895	110.423
844.163	198.259
846.43	101.925
848.696	154.001
850.962	207.702
853.227	67.3789
855.491	90.6562
857.755	180.074
860.018	139.814
862.281	204.982
864.543	67.8408
866.804	0.423828
869.064	45.7266
871.324	29.8955
873.583	31.3809
875.842	11.1055
878.1	63.7578
880.357	116.692
882.614	55.6816
884.87	51.4346
887.125	37.6641
889.38	4.47656
891.634	38.2012
893.888	25.6729
896.14	17.3545
898.393	5.88769
900.644	42.9922
902.895	6.20312
905.145	47.0283
907.395	36.5264
909.644	29.6357
911.892	81.5176
914.14	22.1357
916.387	92.2715
918.633	130.601
920.879	66.9043
923.124	25.4785
925.368	200.044
927.612	64.7168
929.855	370.767
932.098	202.986
934.339	230.652
936.581	290.826
938.821	86.2363
941.061	152.119
943.301	193.631
945.539	63.9102
947.777	240.016
950.015	339.752
952.251	356.943
954.487	235.945
956.723	254.17
958.958	219.059
961.192	259.434
963.425	230.166
965.658	262.818
967.89	316.766
970.122	345.465
972.353	184.162
974.583	389.986
976.813	229.197
979.042	137.131
981.271	173.586
983.498	279.965
985.726	314.607
987.952	303.426
990.178	301.732
992.403	152.629
994.628	108.385
996.852	344.219
999.075	141.607
1001.3	246.158
1003.52	159.522
1005.74	152.449
1007.96	121.369
1010.18	109.481
1012.4	233.435
1014.62	403.744
1016.84	241.004
1019.06	147.91
1021.27	140.162
1023.49	171.516
1025.71	271.357
1027.92	298.502
1030.13	234.359
1032.35	5.58789
1034.56	115.322
