Measurement: Raman, 514 nm, ccw, Raman Data Processed
Mineral: Pectolite
Rruff sample: R050396
Ideal chemistry: NaCa_2_Si_3_O_8_(OH)
Locality: Jeffrey Quarry, Asbestos, Quebec, Canada
Source: Marcus Origlieri
Description: Colorless to gray columnar blocky crystals
Measured chemistry: Na_1.00_Ca_2.00_Si_3.00_O_8_(OH)
Pin_id: L00632
Orientation: Laser parallel to (-1 0 -1). Fiducial mark perpendicular to laser is parallel to b [0 1 0]
Raman shift (cm-1)	intensity
111.503	0
115.22	19.8223
118.935	114.781
122.648	145.958
126.36	94.5532
130.07	161.437
133.778	260.433
137.485	443.192
141.19	712.529
144.894	1477.67
148.596	2151.59
152.296	1974.08
155.995	889.464
159.692	384.852
163.388	349.556
167.082	132.63
170.775	67.397
174.465	97.6572
178.155	144.093
181.842	253.615
185.528	397.198
189.213	324.703
192.896	180.195
196.577	192.744
200.256	69.3779
203.934	40.1841
207.611	5.65332
211.286	2.93994
214.959	12.0718
218.631	122.324
222.301	350.739
225.969	479.156
229.636	389.841
233.302	435.359
236.965	387.007
240.628	308.457
244.288	339.058
247.947	334.244
251.604	393.504
255.26	419.822
258.915	616.452
262.567	716.96
266.218	971.351
269.868	1550.22
273.516	1729.39
277.162	1820.78
280.807	1515.34
284.45	792.047
288.092	224.239
291.732	245.461
295.37	302.291
299.007	455.719
302.642	398.505
306.276	362.71
309.908	510.651
313.539	1129.42
317.168	1450.96
320.795	1319.93
324.421	1389.36
328.046	1070.97
331.668	661.832
335.289	213.658
338.909	102.922
342.527	43.8462
346.144	12.6606
349.759	43.8696
353.372	142.763
356.984	201.674
360.594	220.156
364.203	309.633
367.81	455.526
371.415	986.392
375.019	1807.43
378.622	2814.91
382.223	1553.26
385.822	654.533
389.42	227.226
393.016	230.241
396.611	299.291
400.204	519.239
403.795	891.839
407.386	1539.74
410.974	2433.45
414.561	2891.51
418.146	1778.13
421.73	878.561
425.312	449.714
428.893	204.713
432.472	132.162
436.05	69.9356
439.626	19.6567
443.201	2.58887
446.774	2.36963
450.345	59.5601
453.915	95.668
457.483	144.345
461.05	120.809
464.615	80.5547
468.179	240.562
471.741	254.036
475.302	226.377
478.861	213.586
482.419	236.673
485.975	168.22
489.529	219.609
493.082	272.034
496.634	359.136
500.184	593.174
503.732	518.866
507.279	329.218
510.825	224.18
514.368	241.72
517.911	374.836
521.451	424.548
524.991	327.839
528.528	190.708
532.065	62.1094
535.599	51.9971
539.132	152.275
542.664	23.3887
546.194	64.4092
549.723	47.333
553.25	135.352
556.775	135.08
560.299	24.8633
563.822	68.1582
567.343	67.7832
570.862	0.980469
574.38	35.9541
577.896	18.6338
581.411	69.0352
584.925	65.1279
588.437	59.1416
591.947	52.2803
595.456	67.2656
598.963	126.834
602.469	14.9453
605.973	83.9326
609.476	91.9033
612.977	198.767
616.477	96.0801
619.975	249.259
623.472	292.307
626.967	468.152
630.461	593.29
633.953	808.729
637.444	1258.24
640.933	2304.09
644.421	4100.81
647.907	7343.99
651.392	11302.3
654.875	9782.56
658.357	4908.04
661.837	2325.92
665.316	1295.99
668.793	674.352
672.269	452.954
675.743	390.604
679.216	395.72
682.687	290.775
686.157	328.036
689.625	220.438
693.092	200.623
696.557	156.005
700.021	270.9
703.483	195.252
706.944	285.779
710.403	200.766
713.861	194.057
717.318	14.4229
720.773	150.778
724.226	212.724
727.678	210.308
731.128	23.1602
734.577	41.9941
738.025	42.8613
741.47	110.806
744.915	40.0537
748.358	38.4853
751.799	185.068
755.239	99.5029
758.678	83.1914
762.115	39.8457
765.551	320.924
768.985	117.311
772.417	163.773
775.848	162.051
779.278	176.285
782.706	54.8584
786.133	14.2178
789.558	128.517
792.982	16.7939
796.404	215.845
799.825	77.0439
803.245	114.431
806.663	276.257
810.079	136.317
813.494	239.71
816.907	137.836
820.319	277.103
823.73	197.272
827.139	274.422
830.547	170.332
833.953	47.1133
837.358	40.4414
840.761	212.127
844.163	223.644
847.563	130.315
850.962	195.25
854.359	4.375
857.755	177.619
861.15	88.4375
864.543	57.4473
867.934	92.834
871.324	159.748
874.713	239.555
878.1	89.1289
881.486	45.873
884.87	178.482
888.253	38.8047
891.634	148.459
895.014	64.082
898.393	212.707
901.77	29.1055
905.145	86.9648
908.519	196.268
911.892	120.49
915.263	125.824
918.633	275.316
922.001	31.4863
925.368	149.139
928.734	205.789
932.098	220.898
935.46	295.398
938.821	380.721
942.181	184.172
945.539	437.201
948.896	493.35
952.251	519.016
955.605	963.178
958.958	1278.94
962.309	1843.22
965.658	2807.85
969.006	3940.88
972.353	4493.72
975.698	4143.45
979.042	3565.48
982.385	2987.4
985.726	2679.28
989.065	2570.27
992.403	2465.37
995.74	2662.51
999.075	2725.96
1002.41	4064.3
1005.74	4395.49
1009.07	2394.07
1012.4	1461.03
1015.73	1680.41
1019.06	2329.26
1022.38	3047.01
1025.71	3377.89
1029.03	2396.98
1032.35	1432.83
1035.67	780.051
1038.99	596.121
1042.3	277.272
1045.62	330.535
1048.93	61.1602
1052.24	151.486
1055.56	107.936
1058.87	153.393
1062.17	206.238
1065.48	40.959
1068.79	124.086
1072.09	56.5645
1075.39	44.5
1078.69	240.789
1081.99	292.635
1085.29	422.15
1088.59	138.635
1091.88	326.096
1095.18	301.877
1098.47	267.201
1101.76	384.453
1105.05	465.537
1108.34	251.361
1111.63	481.508
1114.91	252.543
1118.2	469.812
1121.48	278.963
1124.76	398.857
1128.04	328.074
1131.32	220.898
1134.6	385.812
1137.87	518.731
1141.15	243.115
1144.42	280.084
1147.69	151.141
1150.96	340.93
1154.23	228.539
1157.5	105.769
1160.76	234.086
1164.03	182.508
1167.29	0.832031
