Measurement: Raman, 514 nm, ccw, Raman Data Processed
Mineral: Pectolite
Rruff sample: R050396
Ideal chemistry: NaCa_2_Si_3_O_8_(OH)
Locality: Jeffrey Quarry, Asbestos, Quebec, Canada
Source: Marcus Origlieri
Description: Colorless to gray columnar blocky crystals
Measured chemistry: Na_1.00_Ca_2.00_Si_3.00_O_8_(OH)
Pin_id: M00439
Orientation: Laser parallel to -c* (0 0 -1). Fiducial mark perpendicular to laser is parallel to a [1 0 0]
Raman shift (cm-1)	intensity
125.299	0
129	4.59302
132.7	125
136.399	629.737
140.096	1169.66
143.791	1732.47
147.485	3068.71
151.178	3582.91
154.869	2069.7
158.558	714.508
162.246	233.31
165.932	196.96
169.617	130.179
173.3	148.496
176.982	98.6372
180.662	111.801
184.341	172.691
188.018	145.28
191.694	47.2986
195.368	0.25708
199.04	13.7698
202.711	41.7007
206.381	2.40601
210.049	3.90015
213.716	44.9346
217.381	109.136
221.044	92.6128
224.706	287.408
228.367	205.369
232.026	239.434
235.683	284.559
239.339	194.75
242.993	152.013
246.646	150.411
250.298	179.299
253.947	324.804
257.596	619.143
261.243	681.108
264.888	482.641
268.532	547.768
272.174	759.281
275.815	626.815
279.454	598.674
283.092	245.464
286.728	39.0469
290.363	49.7588
293.996	94.0386
297.628	24.4097
301.258	57.1103
304.887	264.269
308.514	440.725
312.14	713.981
315.764	1202.89
319.387	1244.82
323.008	1061.75
326.628	842.273
330.246	482.995
333.862	290.208
337.478	178.296
341.091	130.986
344.703	177.038
348.314	347.379
351.923	510.613
355.531	793.528
359.137	909.82
362.742	941.471
366.345	1326.59
369.947	2407.15
373.547	3892.38
377.145	6254.58
380.743	5722.61
384.338	2661.79
387.932	1148.19
391.525	823.999
395.116	896.089
398.706	1221.75
402.294	1879.12
405.881	3049.88
409.466	4247.42
413.05	5532.11
416.632	4623.89
420.213	2728.55
423.792	1253.46
427.37	589.453
430.946	365.657
434.521	200.984
438.094	82.8525
441.666	81.3452
445.236	41.5752
448.805	0.453125
452.372	87.5469
455.938	36.7207
459.502	60.5093
463.065	149.772
466.627	50.958
470.187	92.1094
473.745	202.882
477.302	146.612
480.857	1.8667
484.411	37.6519
487.964	29.1255
491.515	93.6802
495.064	199.144
498.612	446.154
502.159	529.72
505.704	278.797
509.247	149.323
512.789	21.7344
516.33	4.40186
519.869	66.2524
523.407	26.2139
526.943	169.513
530.478	174.188
534.011	467.257
537.543	584.736
541.073	585.942
544.602	490.88
548.129	402.288
551.655	207.335
555.179	217.172
558.702	96.5864
562.223	61.6699
565.743	163.849
569.262	167.506
572.779	35.3633
576.294	161.19
579.808	17.2061
583.321	135.738
586.832	87.9453
590.341	95.0049
593.85	111.491
597.356	143.112
600.862	159.856
604.365	226.558
607.868	310.441
611.368	313.345
614.868	314.507
618.366	473.626
621.862	598.019
625.357	840.384
628.85	1101.46
632.342	1260.32
635.833	1968.05
639.322	3268.9
642.81	5711.71
646.296	9751.05
649.78	14773.3
653.264	17104.5
656.745	10830.1
660.226	5147.82
663.704	2464.69
667.182	1367.64
670.658	876.705
674.132	648.444
677.605	625.054
681.077	342.784
684.547	304.418
688.015	267.868
691.483	312.594
694.948	179.84
698.413	253.928
701.875	52.8105
705.337	102.256
708.797	220.798
712.255	157.21
715.712	5.0918
719.167	72.4717
722.621	94.3545
726.074	94.7324
729.525	18.0254
732.975	24.8799
736.423	62.5488
739.87	62.29
743.315	20.4795
746.759	11.4248
750.202	27.1348
753.643	95.3887
757.082	69.625
760.52	151.95
763.957	96.5381
767.392	232.232
770.826	205.834
774.258	177.289
777.689	127.569
781.118	47.6826
784.546	181.735
787.973	44.2559
791.398	27.2744
794.822	288.316
798.244	75.6357
801.665	164.857
805.084	243.777
808.502	54.9492
811.918	124.231
815.333	177.543
818.747	211.58
822.159	99.334
825.569	257.864
828.979	120.346
832.386	65.5478
835.793	69.3262
839.198	335.873
842.601	288.707
846.003	298.922
849.404	299.565
852.803	231.539
856.2	262.94
859.597	256.949
862.992	266.473
866.385	246.76
869.777	223.5
873.167	188.109
876.557	35.5078
879.944	67.8848
883.33	89.2715
886.715	135.609
890.099	51.5547
893.481	60.6074
896.861	371
900.24	193.369
903.618	775.848
906.994	759.322
910.369	1167.33
913.742	946.223
917.114	458.801
920.485	235.4
923.854	26.9297
927.221	16.8359
930.588	98.6934
933.952	149.502
937.316	5.43555
940.678	12.3027
944.038	304.357
947.397	290.096
950.755	420.9
954.111	699.002
957.466	957.699
960.819	1578.69
964.171	2208.24
967.522	3144.25
970.871	3799.97
974.219	3838.69
977.565	3495.57
980.91	3055.21
984.253	2935.48
987.595	3168.04
990.936	3672.81
994.275	3942.58
997.613	3885.35
1000.95	4243.53
1004.28	5391.6
1007.62	4069.26
1010.95	2980.21
1014.28	3407.53
1017.61	5046.39
1020.94	7404.88
1024.26	9434.88
1027.59	8532.94
1030.91	5216.96
1034.23	2671.6
1037.56	1355.72
1040.88	830.369
1044.19	685.537
1047.51	270.685
1050.83	139.535
1054.14	158.986
1057.45	108.533
1060.76	296.065
1064.07	136.076
1067.38	104.148
1070.69	182.688
1073.99	201.023
1077.3	71.3262
1080.6	265.504
1083.9	245.592
1087.2	247.893
1090.5	81.918
1093.79	201.932
1097.09	210.844
1100.38	118.504
1103.68	93.2559
1106.97	281.971
1110.26	150.559
1113.55	118.441
1116.83	371.102
1120.12	39.1641
1123.4	200.535
1126.68	138.508
1129.97	199.438
1133.25	25.0508
1136.53	15.8789
1139.8	178.969
1143.08	119.59
1146.35	45.3828
1149.63	161.941
1152.9	282.738
1156.17	275.816
1159.44	457.715
1162.7	456.356
1165.97	394.699
1169.23	211.406
1172.5	360.492
1175.76	383.672
1179.02	349.555
1182.28	419.254
1185.54	347.719
1188.79	372.309
1192.05	250.461
1195.3	97.6172
1198.55	316.719
1201.81	264.922
1205.05	375.574
1208.3	127.012
1211.55	159.672
1214.79	308.137
1218.04	334.281
1221.28	588.305
1224.52	101.453
1227.76	73.2422
1231	249.684
1234.24	437.629
1237.47	436.082
1240.7	610.031
1243.94	183.641
1247.17	186.777
1250.4	5.44922
1253.63	272.137
1256.86	0
