Measurement: Raman, 514 nm, ccw, Raman Data Processed
Mineral: Pectolite
Rruff sample: R060101
Ideal chemistry: NaCa_2_Si_3_O_8_(OH)
Locality: West Patterson, New Jersey, USA
Source: University of Arizona Mineral Museum
Description: Tufts of white acicular sprays
Measured chemistry: Na_1.02_Ca_2.00_Si_2.99_O_8_(OH)
Pin_id: L00594
Orientation: Laser parallel to (1 0 1). Fiducial mark perpendicular to laser is parallel to b [0 1 0]
Raman shift (cm-1)	intensity
118.935	0
122.648	13.3871
126.36	37.7689
130.07	21.0648
133.778	88.9631
137.485	104.535
141.19	65.13
144.894	121.814
148.596	80.4507
152.296	127.412
155.995	79.4283
159.692	110.245
163.388	38.0486
167.082	75.2872
170.775	30.3785
174.465	55.4138
178.155	73.0073
181.842	74.3639
185.528	84.0974
189.213	43.5184
192.896	40.8092
196.577	136.422
200.256	157.817
203.934	136.29
207.611	51.3094
211.286	111.891
214.959	105.721
218.631	142.619
222.301	146.601
225.969	94.1312
229.636	156.827
233.302	26.0649
236.965	42.6031
240.628	41.7353
244.288	63.1018
247.947	0.602051
251.604	23.5049
255.26	0.544189
258.915	80.7927
262.567	27.8201
266.218	45.5891
269.868	50.6816
273.516	90.2175
277.162	54.2197
280.807	1.44165
284.45	40.543
288.092	44.2307
291.732	22.4038
295.37	20.5847
299.007	9.16577
302.642	84.2888
306.276	7.37744
309.908	24.6548
313.539	31.2529
317.168	8.91113
320.795	100.446
324.421	81.2891
328.046	57.2551
331.668	47.0901
335.289	16.3875
338.909	7.79321
342.527	51.4485
346.144	45.5867
349.759	73.8735
353.372	70.4788
356.984	21.8789
360.594	29.6309
364.203	72.9043
367.81	80.9622
371.415	42.2205
375.019	146.953
378.622	122.12
382.223	134.322
385.822	93.0884
389.42	65.8264
393.016	36.8738
396.611	40.519
400.204	72.9023
403.795	139.448
407.386	105.936
410.974	138.115
414.561	53.717
418.146	205.176
421.73	118.67
425.312	36.1663
428.893	64.8828
432.472	116.287
436.05	76.2978
439.626	48.2617
443.201	97.2647
446.774	103.279
450.345	122.265
453.915	52.2493
457.483	26.5918
461.05	67.6728
464.615	149.202
468.179	30.0974
471.741	50.604
475.302	130.384
478.861	21.6719
482.419	35.8362
485.975	30.8709
489.529	9.16577
493.082	94.1103
496.634	37.6943
500.184	62.0205
503.732	104.83
507.279	112.043
510.825	83.9512
514.368	6.73853
517.911	22.4553
521.451	85.5317
524.991	25.1438
528.528	75.8276
532.065	11.0854
535.599	64.4102
539.132	24.8867
542.664	101.231
546.194	101.857
549.723	102.19
553.25	9.81934
556.775	27.6811
560.299	72.1938
563.822	4.72803
567.343	37.9683
570.862	58.8999
574.38	3.14746
577.896	92.9072
581.411	120.248
584.925	69.1406
588.437	13.3755
591.947	41.5767
595.456	56.4941
598.963	56.272
602.469	144.482
605.973	127.54
609.476	146.978
612.977	127.797
616.477	5.73535
619.975	115.932
623.472	127.773
626.967	106.279
630.461	109.891
633.953	220.612
637.444	282.601
640.933	240.297
644.421	412.232
647.907	926.302
651.392	1213.03
654.875	939.293
658.357	585.486
661.837	228.87
665.316	294.768
668.793	113.955
672.269	220.588
675.743	180.281
679.216	161.368
682.687	7.54688
686.157	196.023
689.625	128.493
693.092	154.707
696.557	116.404
700.021	77.0444
703.483	133.233
706.944	150.213
710.403	62.7168
713.861	74.2373
717.318	45.1352
720.773	87.5845
724.226	138.036
727.678	104.838
731.128	67.8066
734.577	48.9971
738.025	0.229004
741.47	163.785
744.915	87.8633
748.358	41.3052
751.799	60.9795
755.239	46.876
758.678	124.394
762.115	12.0088
765.551	103.853
768.985	76.1397
772.417	27.1768
775.848	158.643
779.278	126.364
782.706	40.21
786.133	57.5234
789.558	75.4043
792.982	3.63769
796.404	216.208
799.825	70.834
803.245	204.954
806.663	75.4639
810.079	147.49
813.494	116.459
816.907	157.487
820.319	139.014
823.73	185.215
827.139	183.016
830.547	166.071
833.953	172.451
837.358	195.379
840.761	85.1728
844.163	5.24512
847.563	208.613
850.962	257.139
854.359	173.108
857.755	93.7607
861.15	264.86
864.543	60.7949
867.934	57.1318
871.324	135.148
874.713	225.435
878.1	111.698
881.486	239.974
884.87	182.539
888.253	74.9092
891.634	128.44
895.014	16.4453
898.393	309.088
901.77	9.10156
905.145	14.7227
908.519	162.866
911.892	150.225
915.263	22.0186
918.633	54.6738
922.001	80
925.368	69.7197
928.734	79.0166
932.098	17.2734
935.46	76.5527
938.821	104.595
942.181	188.888
945.539	49.7588
948.896	14.9258
952.251	71.3769
955.605	17.2217
958.958	111.192
962.309	171.06
965.658	216.659
969.006	200.606
972.353	349.332
975.698	300.499
979.042	188.095
982.385	47.5332
985.726	112.912
989.065	1.43359
992.403	50.9463
995.74	185.391
999.075	175.413
1002.41	18.6211
1005.74	199.59
1009.07	158.656
1012.4	170.025
1015.73	237.062
1019.06	121.688
1022.38	280.709
1025.71	250.914
1029.03	229.963
1032.35	108.357
1035.67	205.543
1038.99	169.682
1042.3	153.611
1045.62	149.523
1048.93	280.853
1052.24	146.266
1055.56	217.535
1058.87	89.8047
1062.17	101.731
1065.48	203.902
1068.79	223.119
1072.09	243.227
1075.39	162.027
1078.69	405.932
1081.99	421.357
1085.29	337.418
1088.59	202.633
1091.88	305.611
1095.18	180.559
1098.47	114.637
1101.76	430.742
1105.05	95.3223
1108.34	209.772
1111.63	312.387
1114.91	348.777
1118.2	32.9727
1121.48	105.922
1124.76	11.2969
