Measurement: Raman, 514 nm, ccw, Raman Data Processed
Mineral: Pectolite
Rruff sample: R060101
Ideal chemistry: NaCa_2_Si_3_O_8_(OH)
Locality: West Patterson, New Jersey, USA
Source: University of Arizona Mineral Museum
Description: Tufts of white acicular sprays
Measured chemistry: Na_1.02_Ca_2.00_Si_2.99_O_8_(OH)
Pin_id: L00594
Orientation: Laser parallel to (1 0 1). Fiducial mark perpendicular to laser is parallel to b [0 1 0]
Raman shift (cm-1)	intensity
121.41	0
125.123	10.2915
128.833	12.8447
132.542	3.36804
136.25	25.8084
139.955	44.6105
143.66	62.6206
147.362	64.6313
151.063	72.6119
154.762	66.6888
158.46	29.7373
162.156	17.843
165.851	11.0267
169.544	67.2938
173.235	76.2611
176.925	76.2676
180.613	46.9489
184.3	66.5463
187.985	121.7
191.668	57.3857
195.35	52.8272
199.03	113.54
202.709	34.6585
206.386	61.8796
210.061	47.8527
213.735	81.2406
217.407	77.1054
221.078	84.2792
224.747	61.2661
228.414	21.861
232.08	27.5702
235.744	13.8627
239.407	52.168
243.068	26.0848
246.728	22.8976
250.386	58.3345
254.042	53.3984
257.697	58.6973
261.35	62.2231
265.001	67.2773
268.651	134.894
272.3	161.038
275.947	143.629
279.592	151.532
283.236	53.3525
286.878	60.6624
290.518	13.1211
294.157	61.186
297.795	63.4783
301.431	37.1833
305.065	0.026123
308.698	63.9988
312.329	113.918
315.958	83.0984
319.586	50.6223
323.213	96.0571
326.838	52.6399
330.461	28.6426
334.083	64.822
337.703	94.5132
341.321	17.7905
344.938	40.1457
348.554	103.193
352.168	82.2908
355.78	21.5989
359.391	68.7939
363	52.7112
366.608	59.8901
370.214	20.8123
373.818	21.3
377.421	21.364
381.023	55.4739
384.622	30.1628
388.221	116.159
391.818	3.02173
395.413	52.0701
399.006	81.4736
402.598	68.3511
406.189	40.9641
409.778	40.7424
413.365	91.4551
416.951	6.24658
420.536	43.3523
424.118	22.4941
427.7	68.8315
431.279	15.2817
434.858	45.8665
438.434	84.0325
442.009	17.2349
445.583	64.3757
449.155	97.3599
452.725	52.6475
456.294	2.26709
459.861	41.1538
463.427	96.9565
466.991	7.55225
470.554	46.0137
474.115	43.7368
477.675	72.428
481.233	118.13
484.79	124.986
488.345	22.3594
491.898	24.0339
495.45	95.1392
499.001	30.9819
502.55	89.1113
506.097	31.2402
509.643	76.7915
513.187	151.165
516.73	59.915
520.271	68.5615
523.811	63.3252
527.349	54.7759
530.886	63.3887
534.421	84.1538
537.955	55.9043
541.487	10.6509
545.017	81.125
548.547	54.2388
552.074	59.2168
555.6	47.915
559.125	75.168
562.648	88.5415
566.169	48.1948
569.689	24.1738
573.207	9.57959
576.724	59.3232
580.24	54.168
583.754	15.8565
587.266	65.8232
590.777	138.062
594.286	73.582
597.794	11.7729
601.3	76.0967
604.805	43.6123
608.309	83.6948
611.81	86.6914
615.311	158.921
618.809	126.267
622.307	72.0493
625.802	21.0762
629.297	30.9883
632.789	73.2402
636.281	121.066
639.77	145.381
643.259	141.123
646.745	239.685
650.231	396.344
653.714	479.815
657.197	293.554
660.677	130.382
664.157	54.977
667.634	40.0952
671.111	92.7417
674.585	106.968
678.059	41.4443
681.53	17.0273
685.001	57.3603
688.469	10.686
691.937	91.5903
695.402	17.3701
698.867	0.768066
702.329	124.936
705.791	14.7065
709.251	117.533
712.709	85.7422
716.166	154.236
719.621	67.6279
723.075	118.664
726.527	107.941
729.978	32.4531
733.428	8.35645
736.876	178.48
740.322	107.292
743.767	150.204
747.21	192.137
750.652	87.3144
754.093	160.884
757.532	308.096
760.969	165.807
764.406	153.41
767.84	143.023
771.273	183.636
774.705	146.441
778.135	117.836
781.564	189.632
784.991	88.5312
788.417	33.3086
791.841	117.565
795.264	37.9795
798.685	245.981
802.105	66.2393
805.523	91.0781
808.94	220.579
812.356	76.625
815.77	236.626
819.182	205.078
822.593	64.8535
826.003	99.0137
829.411	122.45
832.818	184.919
836.223	149.895
839.627	191.577
843.029	153.52
846.43	117.929
849.829	153.942
853.227	272.4
856.623	153.475
860.018	201.241
863.412	166.239
866.804	178.46
870.194	133.957
873.583	168.685
876.971	148.067
880.357	170.31
883.742	93.6309
887.125	66.9844
890.507	23.4688
893.888	85.5918
897.267	42.2285
900.644	80.2373
904.02	66.2803
907.395	110.457
910.768	333.2
914.14	239.77
917.51	50.832
920.879	55.3037
924.246	5.23926
927.612	66.7168
930.976	46.6035
934.339	97.8242
937.701	49.7373
941.061	27.209
944.42	148.914
947.777	0.225586
951.133	11.1396
954.487	79.4307
957.84	25.4082
961.192	172.93
964.542	176.582
967.89	253.414
971.238	213.602
974.583	383.764
977.928	352.137
981.271	257.045
984.612	261.219
987.952	274.926
991.291	162.588
994.628	71.9199
997.964	105.508
1001.3	187.01
1004.63	155.394
1007.96	51.207
1011.29	237.494
1014.62	241.982
1017.95	231.352
1021.27	220.361
1024.6	187.967
1027.92	345.643
1031.24	139.852
1034.56	64.3535
1037.88	168.473
1041.2	27.2441
1044.51	142.158
1047.83	289.754
1051.14	113.348
1054.45	24.4824
1057.76	292.592
1061.07	259.791
1064.38	103.465
1067.68	175.647
1070.99	208.379
1074.29	275.246
1077.59	248.555
1080.89	228.978
1084.19	324.008
1087.49	116.322
1090.79	141.834
1094.08	190.307
1097.37	29.332
1100.66	169.273
1103.95	98.7559
1107.24	115.918
1110.53	0.824219
