Measurement: Raman, 514 nm, ccw, Raman Data Processed
Mineral: Pectolite
Rruff sample: R050396
Ideal chemistry: NaCa_2_Si_3_O_8_(OH)
Locality: Jeffrey Quarry, Asbestos, Quebec, Canada
Source: Marcus Origlieri
Description: Colorless to gray columnar blocky crystals
Measured chemistry: Na_1.00_Ca_2.00_Si_3.00_O_8_(OH)
Pin_id: M00091
Orientation: Laser parallel to (0 -1 -1). Fiducial mark perpendicular to laser is parallel to a [1 0 0]
Raman shift (cm-1)	intensity
116.458	0
120.173	12.7808
123.885	50.5491
127.596	218.413
131.306	492.753
135.014	883.075
138.72	1530.34
142.425	1756.74
146.128	1401.41
149.83	831.305
153.53	525.573
157.228	90.8965
160.925	65.0454
164.62	96.6094
168.313	30.894
172.005	48.331
175.695	52.5342
179.384	16.9956
183.071	134.254
186.757	104.282
190.44	64.6792
194.123	28.5669
197.803	39.4546
201.483	101.025
205.16	35.9668
208.836	19.6895
212.51	69.7959
216.183	140.721
219.854	173.5
223.524	238.162
227.192	199.592
230.858	178.714
234.523	184.88
238.186	25.7197
241.848	104.231
245.508	43.2563
249.166	21.5459
252.823	48.9004
256.479	60.4434
260.132	134.579
263.784	126.799
267.435	241.926
271.084	259.879
274.731	279.017
278.377	265.795
282.021	270.399
285.664	64.2261
289.305	13.8481
292.945	63.7378
296.583	51.3848
300.219	143.939
303.854	110.079
307.487	183.052
311.119	270.396
314.749	373.839
318.377	367.584
322.004	383.596
325.629	403.111
329.253	193.176
332.876	77.9048
336.496	115.545
340.115	88.1519
343.733	14.1519
347.349	121.373
350.963	174.323
354.576	175.7
358.187	141.334
361.797	56.7905
365.405	90.833
369.012	295.868
372.617	266.139
376.22	362.259
379.822	305.098
383.423	276.229
387.022	158.879
390.619	73.0513
394.215	199.336
397.809	117.699
401.401	173.327
404.992	230.365
408.582	222.529
412.17	153.088
415.756	156.253
419.341	136.991
422.924	39.1157
426.506	62.5273
430.086	29.1924
433.665	10.6191
437.242	27.8672
440.818	90.749
444.392	19.4629
447.964	56.6099
451.535	52.6172
455.105	24.6138
458.672	119.946
462.239	124.288
465.804	72.2432
469.367	37.7471
472.928	109.906
476.489	224.509
480.047	114.293
483.604	182.698
487.16	196.018
490.714	152.542
494.266	248.675
497.817	313.693
501.367	331.108
504.915	310.215
508.461	157.123
512.006	243.18
515.549	215.216
519.091	298.799
522.631	179.924
526.17	233.59
529.707	93.6231
533.243	180.488
536.777	106.408
540.31	77.1465
543.841	207.558
547.37	116.614
550.898	191.218
554.425	42.6719
557.95	50.0312
561.473	25.2891
564.995	56.4395
568.516	127.569
572.035	40.7647
575.552	3.82227
579.068	0.720703
582.583	64.2393
586.095	144.645
589.607	41.623
593.117	90.6602
596.625	146.779
600.132	71.0166
603.637	20.5449
607.141	14.4492
610.643	169.124
614.144	129.844
617.643	192.457
621.141	255.55
624.637	149.37
628.132	424.315
631.625	429.352
635.117	729.071
638.607	819.967
642.096	1406.01
645.583	2451.5
649.069	3357.84
652.553	3304.83
656.036	2128.38
659.517	1065.87
662.997	680.452
666.475	341.032
669.952	349.227
673.427	368.723
676.901	213.395
680.373	437.214
683.844	599.622
687.313	441.603
690.781	392.11
694.247	168.224
697.712	246.644
701.175	190.295
704.637	153.996
708.097	122.998
711.556	43.0576
715.014	72.4121
718.469	331.071
721.924	135.362
725.377	23.9648
728.828	14.3828
732.278	82.54
735.726	168.841
739.173	176.645
742.619	64.832
746.063	90.6875
749.505	18.9502
752.946	147.62
756.386	20.5498
759.824	134.648
763.26	121.784
766.695	106.139
770.129	91.1133
773.561	150.323
776.992	240.087
780.421	132.305
783.849	154.746
787.275	175.401
790.7	60.04
794.123	26.1504
797.545	156.535
800.965	171.116
804.384	113.785
807.802	157.181
811.217	42.0645
814.632	150.255
818.045	47.3565
821.456	153.129
824.867	310.983
828.275	158.918
831.682	207.949
835.088	117.352
838.492	133.251
841.895	221.621
845.296	253.709
848.696	151.141
852.094	73.8711
855.491	22.3203
858.887	126.449
862.281	68.7637
865.673	80.5156
869.064	278.898
872.454	86.3027
875.842	176.834
879.229	22.7559
882.614	33.8008
885.998	76.6465
889.38	41.0605
892.761	15.9805
896.14	181.975
899.518	172.174
902.895	130.037
906.27	270.426
909.644	250.022
913.016	22.8691
916.387	30.6621
919.756	72.6387
923.124	143.805
926.49	138.397
929.855	76.1582
933.219	177.738
936.581	102.555
939.941	245.117
943.301	37.4863
946.658	431.912
950.015	274.262
953.369	446.822
956.723	728.777
960.075	651.432
963.425	861.668
966.774	1462.02
970.122	1469.07
973.468	1447.25
976.813	1323.5
980.156	1175.8
983.498	970.342
986.839	922.488
990.178	697.424
993.516	842.365
996.852	990.18
1000.19	681.135
1003.52	819.311
1006.85	629.102
1010.18	805.322
1013.51	908.225
1016.84	934.555
1020.16	1558.45
1023.49	1944.33
1026.81	1790.21
1030.13	1084.33
1033.46	639.674
1036.78	525.143
1040.09	280.816
1043.41	247.82
1046.72	52.2773
1050.04	14.6309
1053.35	213.477
1056.66	211.473
1059.97	38.0898
1063.28	125.453
1066.58	0.6875
1069.89	145.023
1073.19	111.834
1076.49	164.674
1079.79	135.379
1083.09	249.016
1086.39	152.641
1089.69	226.172
1092.98	107.682
1096.28	192.385
1099.57	157.332
1102.86	57.5664
1106.15	348.305
1109.43	208.66
1112.72	381.973
1116.01	301.111
1119.29	422.123
1122.57	560.207
1125.85	441.549
1129.13	297.922
1132.41	278.596
1135.69	310.06
1138.96	114.76
1142.24	353.912
1145.51	311.4
1148.78	291.699
1152.05	69.166
1155.32	140.676
1158.59	256.484
1161.85	250.633
1165.11	343.945
1168.38	176.602
1171.64	159.043
1174.9	318.695
1178.16	318.25
1181.41	277.066
1184.67	163.703
1187.92	94.8125
1191.18	423.981
1194.43	324.984
1197.68	103.301
