Measurement: Raman, 514 nm, ccw, Raman Data Processed
Mineral: Pectolite
Rruff sample: R050396
Ideal chemistry: NaCa_2_Si_3_O_8_(OH)
Locality: Jeffrey Quarry, Asbestos, Quebec, Canada
Source: Marcus Origlieri
Description: Colorless to gray columnar blocky crystals
Measured chemistry: Na_1.00_Ca_2.00_Si_3.00_O_8_(OH)
Pin_id: M00091
Orientation: Laser parallel to (0 -1 -1). Fiducial mark perpendicular to laser is parallel to a [1 0 0]
Raman shift (cm-1)	intensity
116.458	0
120.173	26.7993
123.885	53.113
127.596	63.3723
131.306	299.509
135.014	504.788
138.72	864.77
142.425	1121.67
146.128	1152.45
149.83	834.13
153.53	492.603
157.228	213.967
160.925	15.2925
164.62	95.9416
168.313	38.627
172.005	9.63403
175.695	0.130127
179.384	55.7004
183.071	102.683
186.757	121.277
190.44	125.639
194.123	202.501
197.803	37.3291
201.483	102.257
205.16	92.0791
208.836	40.8726
212.51	55.6645
216.183	77.4565
219.854	100.214
223.524	211.944
227.192	113.179
230.858	113.959
234.523	105.875
238.186	60.9585
241.848	29.0186
245.508	6.84033
249.166	126.061
252.823	9.26123
256.479	29.1968
260.132	142.636
263.784	67.1328
267.435	187.732
271.084	203.812
274.731	230.894
278.377	219.146
282.021	170.025
285.664	7.05029
289.305	7.21191
292.945	85.3911
296.583	131.93
300.219	8.60889
303.854	80.6006
307.487	205.391
311.119	231.103
314.749	381.895
318.377	425.784
322.004	327.087
325.629	192.293
329.253	167.045
332.876	24.2295
336.496	32.333
340.115	149.297
343.733	13.1606
347.349	53.3945
350.963	129.061
354.576	203.935
358.187	149.044
361.797	81.6665
365.405	142.082
369.012	171.672
372.617	272.075
376.22	214.298
379.822	236.537
383.423	171.076
387.022	152.059
390.619	95.0938
394.215	79.1626
397.809	114.66
401.401	207.292
404.992	199.992
408.582	214.538
412.17	244.252
415.756	161.284
419.341	140.571
422.924	20.978
426.506	123.012
430.086	36.6157
433.665	56.4312
437.242	53.27
440.818	16.2788
444.392	48.2773
447.964	52.9507
451.535	32.1724
455.105	82.2647
458.672	196.965
462.239	167.286
465.804	107.486
469.367	53.6187
472.928	120.106
476.489	115.451
480.047	126.791
483.604	138.664
487.16	51.3828
490.714	158.929
494.266	150.351
497.817	163.934
501.367	262.788
504.915	184.176
508.461	196.558
512.006	214.465
515.549	189.989
519.091	126.069
522.631	170.329
526.17	187.79
529.707	104.328
533.243	151.193
536.777	101.756
540.31	73.6851
543.841	72.8672
547.37	163.8
550.898	28.4092
554.425	73.0693
557.95	79.4688
561.473	51.3545
564.995	38.5977
568.516	69.5469
572.035	122.422
575.552	143.074
579.068	35.3076
582.583	45.5459
586.095	93.8369
589.607	74.7402
593.117	9.30762
596.625	44.8125
600.132	118.73
603.637	161.462
607.141	108.919
610.643	93.9189
614.144	189.399
617.643	267.537
621.141	246.422
624.637	197.819
628.132	424.44
631.625	522.314
635.117	726.437
638.607	980.88
642.096	1694.16
645.583	2722.14
649.069	3866.82
652.553	3908.22
656.036	2352.92
659.517	1222.24
662.997	703.168
666.475	358.133
669.952	471.664
673.427	313.905
676.901	379.08
680.373	321.193
683.844	451.773
687.313	547.554
690.781	501.428
694.247	414.711
697.712	98.5449
701.175	169.505
704.637	115.394
708.097	209.578
711.556	60.6885
715.014	114.767
718.469	116.48
721.924	166.691
725.377	140.8
728.828	79.8154
732.278	210.56
735.726	67.2988
739.173	19.4736
742.619	50.9424
746.063	159.707
749.505	231.832
752.946	74.6553
756.386	99.667
759.824	28.0996
763.26	141.032
766.695	78.0889
770.129	154.261
773.561	195.406
776.992	38.5342
780.421	163.883
783.849	36.791
787.275	127.688
790.7	125.247
794.123	119.016
797.545	311.552
800.965	79.7451
804.384	255.358
807.802	194.575
811.217	163.864
814.632	47.4853
818.045	20.2598
821.456	178.473
824.867	135.966
828.275	216.085
831.682	282.184
835.088	86.6182
838.492	99.4297
841.895	91.9941
845.296	286.089
848.696	37.8154
852.094	161.819
855.491	219.683
858.887	292.969
862.281	71.54
865.673	131.846
869.064	114.621
872.454	193.68
875.842	133.527
879.229	105.289
882.614	8.14648
885.998	143.223
889.38	12.8262
892.761	114.408
896.14	32.1758
899.518	137.441
902.895	171.865
906.27	267.848
909.644	190.225
913.016	44.377
916.387	59.334
919.756	12.8047
923.124	142.863
926.49	283.19
929.855	115.336
933.219	36.6406
936.581	10.9492
939.941	60.7012
943.301	195.221
946.658	251.264
950.015	303.473
953.369	289.527
956.723	420.695
960.075	690.082
963.425	904.322
966.774	1259.5
970.122	1451.19
973.468	1513.22
976.813	1285.38
980.156	1042.69
983.498	833.256
986.839	815.082
990.178	883.106
993.516	893.443
996.852	740.027
1000.19	968.811
1003.52	963.129
1006.85	931.602
1010.18	990.904
1013.51	849.811
1016.84	1465.2
1020.16	1972.81
1023.49	2548.11
1026.81	2343.86
1030.13	1485.11
1033.46	632.019
1036.78	419.014
1040.09	411.158
1043.41	236.029
1046.72	191.781
1050.04	134.07
1053.35	41.5605
1056.66	107.135
1059.97	331.484
1063.28	103.703
1066.58	54.2441
1069.89	139.312
1073.19	136.498
1076.49	95.3731
1079.79	40.6602
1083.09	245.816
1086.39	116.973
1089.69	145.217
1092.98	234.666
1096.28	85.416
1099.57	336.41
1102.86	54.6855
1106.15	281.227
1109.43	137.531
1112.72	225.435
1116.01	347.244
1119.29	457.203
1122.57	593.059
1125.85	268.147
1129.13	317.908
1132.41	260.783
1135.69	298.359
1138.96	133.705
1142.24	324.428
1145.51	328.494
1148.78	274.272
1152.05	183.703
1155.32	289.799
1158.59	98.3242
1161.85	128.035
1165.11	343.654
1168.38	123.9
1171.64	128.449
1174.9	239.123
1178.16	143.547
1181.41	210.93
1184.67	274.203
1187.92	39.4531
1191.18	266.078
1194.43	175.117
1197.68	0
