Measurement: Raman, 514 nm, ccw, Raman Data Processed
Mineral: Pectolite
Rruff sample: R050396
Ideal chemistry: NaCa_2_Si_3_O_8_(OH)
Locality: Jeffrey Quarry, Asbestos, Quebec, Canada
Source: Marcus Origlieri
Description: Colorless to gray columnar blocky crystals
Measured chemistry: Na_1.00_Ca_2.00_Si_3.00_O_8_(OH)
Pin_id: L00632
Orientation: Laser parallel to (-1 0 -1). Fiducial mark perpendicular to laser is parallel to b [0 1 0]
Raman shift (cm-1)	intensity
101.585	0
105.305	88.2888
109.025	282.108
112.742	210.554
116.458	226.624
120.173	237.273
123.885	240.774
127.596	198.727
131.306	359.645
135.014	530.574
138.72	634.98
142.425	864.035
146.128	1079.13
149.83	1128.96
153.53	930.406
157.228	564.388
160.925	211.759
164.62	183.408
168.313	168.168
172.005	138.811
175.695	127.291
179.384	226.867
183.071	478.573
186.757	560.598
190.44	423.032
194.123	261.926
197.803	310.862
201.483	421.597
205.16	302.292
208.836	143.711
212.51	189.582
216.183	258.842
219.854	569.582
223.524	626.977
227.192	532.298
230.858	306.846
234.523	213.572
238.186	112.467
241.848	0.483887
245.508	112.678
249.166	146.52
252.823	109.819
256.479	200.352
260.132	352.24
263.784	386.162
267.435	510.952
271.084	860.429
274.731	999.511
278.377	938.151
282.021	565.323
285.664	286.929
289.305	22.3433
292.945	84.8774
296.583	149.95
300.219	100.024
303.854	195.525
307.487	289.448
311.119	517.912
314.749	908.827
318.377	1242.47
322.004	1151.04
325.629	1074.79
329.253	653.198
332.876	234.516
336.496	7.26807
340.115	40.0674
343.733	122.107
347.349	106.713
350.963	506.719
354.576	780.061
358.187	1215.17
361.797	765.224
365.405	519.201
369.012	424.351
372.617	610.111
376.22	1005.9
379.822	1156.48
383.423	485.3
387.022	178.614
390.619	61.0483
394.215	42.998
397.809	104.841
401.401	236.94
404.992	437.443
408.582	834.565
412.17	1324.51
415.756	1324.43
419.341	840.714
422.924	366.621
426.506	87.7002
430.086	9.94971
433.665	48.4258
437.242	104.962
440.818	137.507
444.392	15.2593
447.964	15.6938
451.535	59.7207
455.105	4.22949
458.672	7.86231
462.239	136.324
465.804	60.0303
469.367	179.536
472.928	39.29
476.489	21.3672
480.047	67.4551
483.604	66.0781
487.16	93.1436
490.714	138.998
494.266	186.487
497.817	300.609
501.367	450.357
504.915	303.728
508.461	166.739
512.006	146.356
515.549	275.559
519.091	288.385
522.631	261.807
526.17	183.806
529.707	72.3682
533.243	43.46
536.777	162.323
540.31	45.5732
543.841	103.502
547.37	68.4941
550.898	106.871
554.425	94.7305
557.95	92.8447
561.473	42.7676
564.995	108.215
568.516	133.969
572.035	66.4111
575.552	166.921
579.068	11.8516
582.583	55.7285
586.095	123.254
589.607	60.0684
593.117	18.5439
596.625	69.5938
600.132	116.645
603.637	199.626
607.141	201.598
610.643	127.603
614.144	277.165
617.643	198.522
621.141	319.883
624.637	391.485
628.132	502.377
631.625	523.012
635.117	828.823
638.607	982.199
642.096	1914.44
645.583	3346.62
649.069	5930.12
652.553	7847.62
656.036	5495.9
659.517	2793.2
662.997	1174.35
666.475	714.032
669.952	464.073
673.427	360.72
676.901	323.731
680.373	448.047
683.844	423.081
687.313	632.93
690.781	374.453
694.247	77.7686
697.712	237.851
701.175	199.21
704.637	274.877
708.097	348.53
711.556	292.486
715.014	182.882
718.469	200.94
721.924	193.343
725.377	167.766
728.828	222.922
732.278	20.6709
735.726	38.4932
739.173	34.1621
742.619	46.0957
746.063	191.832
749.505	2.89941
752.946	165.999
756.386	218.287
759.824	106.67
763.26	157.439
766.695	15.2588
770.129	18.5234
773.561	170.178
776.992	302.755
780.421	184.425
783.849	197.242
787.275	133.389
790.7	294.411
794.123	117.905
797.545	108.058
800.965	128.03
804.384	224.365
807.802	174.277
811.217	260.4
814.632	77.8555
818.045	292.95
821.456	120.612
824.867	169.882
828.275	108.111
831.682	132.208
835.088	166.552
838.492	316.725
841.895	105.297
845.296	302.941
848.696	153.027
852.094	122.037
855.491	166.414
858.887	352.383
862.281	155.332
865.673	55.4922
869.064	32.5176
872.454	69.9414
875.842	99.7598
879.229	23.998
882.614	49.5605
885.998	241.935
889.38	57.0078
892.761	47.7188
896.14	24.9434
899.518	10.9746
902.895	48.5664
906.27	205.334
909.644	146.435
913.016	249.754
916.387	46.5664
919.756	110.582
923.124	134.42
926.49	181.631
929.855	114.689
933.219	240.397
936.581	124.277
939.941	116.045
943.301	93.9316
946.658	226.717
950.015	473.562
953.369	445.41
956.723	674.131
960.075	660.873
963.425	1286.66
966.774	1618.45
970.122	2039.45
973.468	2381.65
976.813	1993.43
980.156	1533.4
983.498	1238.56
986.839	1074.2
990.178	1006.12
993.516	1162.72
996.852	1292.25
1000.19	1487.3
1003.52	1806.38
1006.85	1491.94
1010.18	1043.23
1013.51	755.93
1016.84	799.033
1020.16	1477.94
1023.49	2099.77
1026.81	2221.39
1030.13	1693.88
1033.46	912.152
1036.78	541.158
1040.09	216.236
1043.41	222.244
1046.72	328.244
1050.04	61.2246
1053.35	50.5957
1056.66	230.471
1059.97	149.051
1063.28	319.31
1066.58	179.606
1069.89	168.231
1073.19	301.185
1076.49	34.5566
1079.79	164.066
1083.09	246.166
1086.39	366.928
1089.69	257.394
1092.98	213.625
1096.28	266.953
1099.57	375.531
1102.86	385.66
1106.15	145.016
1109.43	229.787
1112.72	184.57
1116.01	89.1055
1119.29	485.856
1122.57	450.512
1125.85	296.981
1129.13	290.846
1132.41	235.56
1135.69	156.727
1138.96	308.65
1142.24	468.523
1145.51	95.7266
1148.78	438.273
1152.05	363.287
1155.32	401.955
1158.59	143.512
1161.85	220.26
1165.11	139.711
1168.38	232.935
