Measurement: Raman, 514 nm, ccw, Raman Data Processed
Mineral: Pectolite
Rruff sample: R060101
Ideal chemistry: NaCa_2_Si_3_O_8_(OH)
Locality: West Patterson, New Jersey, USA
Source: University of Arizona Mineral Museum
Description: Tufts of white acicular sprays
Measured chemistry: Na_1.02_Ca_2.00_Si_2.99_O_8_(OH)
Pin_id: L00538
Orientation: Laser parallel to (0 -1 -1). Fiducial mark perpendicular to laser is parallel to -a [-1 0 0]
Raman shift (cm-1)	intensity
135.014	0
138.72	0.714966
142.425	30.49
146.128	91.6202
149.83	122.657
153.53	111.462
157.228	74.8435
160.925	20.748
164.62	18.095
168.313	10.5576
172.005	18.9307
175.695	22.2748
179.384	41.6655
183.071	23.4795
186.757	66.5898
190.44	9.15832
194.123	26.5996
197.803	21.8025
201.483	55.8492
205.16	6.9845
208.836	41.2492
212.51	32.3529
216.183	51.2065
219.854	77.9915
223.524	61.1193
227.192	62.839
230.858	71.9789
234.523	74.4426
238.186	49.4038
241.848	27.5526
245.508	31.9263
249.166	31.3676
252.823	60.5372
256.479	77.1852
260.132	36.3584
263.784	68.2637
267.435	44.1377
271.084	65.8347
274.731	126.554
278.377	33.1602
282.021	64.2114
285.664	59.4126
289.305	0.861328
292.945	16.6929
296.583	0.705078
300.219	25.4653
303.854	38.8264
307.487	49.3391
311.119	70.041
314.749	91.9172
318.377	94.1145
322.004	87.457
325.629	89.1233
329.253	79.3496
332.876	72.0464
336.496	70.3367
340.115	52.9341
343.733	41.7605
347.349	40.9019
350.963	124.956
354.576	96.9404
358.187	91.7647
361.797	126.999
365.405	117.35
369.012	137.471
372.617	207.769
376.22	384.813
379.822	329.151
383.423	200.929
387.022	90.865
390.619	82.9302
394.215	102.43
397.809	80.8928
401.401	122.641
404.992	125.406
408.582	175.867
412.17	278.161
415.756	336.043
419.341	130.695
422.924	94.26
426.506	33.925
430.086	81.8884
433.665	68.603
437.242	66.1062
440.818	49.9453
444.392	42.7876
447.964	46.6602
451.535	70.8491
455.105	41.6172
458.672	9.76953
462.239	83.6445
465.804	115.98
469.367	11.0278
472.928	71.24
476.489	31.8899
480.047	6.08569
483.604	110.022
487.16	77.3069
490.714	117.578
494.266	114.967
497.817	56.3706
501.367	73.2983
504.915	89.6924
508.461	78.457
512.006	67.7759
515.549	80.9165
519.091	98.6377
522.631	45.2188
526.17	126.001
529.707	3.64453
533.243	65.876
536.777	52.8242
540.31	90.5508
543.841	87.585
547.37	102.502
550.898	19.0425
554.425	8.62354
557.95	42.019
561.473	73.7427
564.995	91.1602
568.516	45.9219
572.035	40.1221
575.552	52.4429
579.068	81.1045
582.583	70.5034
586.095	87.3018
589.607	31.5615
593.117	35.5874
596.625	53.4199
600.132	89.8413
603.637	93.707
607.141	50.0171
610.643	118.731
614.144	134.334
617.643	48.3579
621.141	58.4419
624.637	79.3486
628.132	81.3257
631.625	109.2
635.117	175.879
638.607	199.775
642.096	257.234
645.583	621.791
649.069	790.472
652.553	1023.72
656.036	663.611
659.517	428.604
662.997	155.903
666.475	102.66
669.952	133.966
673.427	147.178
676.901	151.523
680.373	25.2158
683.844	183.277
687.313	55.395
690.781	121.188
694.247	102.983
697.712	114.211
701.175	11.4082
704.637	35.6704
708.097	66.4014
711.556	77.1152
715.014	38.1719
718.469	56.125
721.924	59.6572
725.377	10.0781
728.828	39.498
732.278	22.6035
735.726	36.4385
739.173	158.801
742.619	137.307
746.063	88.8643
749.505	105.585
752.946	234.285
756.386	43.2744
759.824	6.24609
763.26	38.8809
766.695	69.3125
770.129	63.4004
773.561	61.3018
776.992	96.1738
780.421	146.121
783.849	174.006
787.275	76.5606
790.7	159.621
794.123	91.6943
797.545	84.2432
800.965	89.0557
804.384	77.3486
807.802	54.375
811.217	147.683
814.632	232.522
818.045	278.837
821.456	180.933
824.867	167.781
828.275	104.002
831.682	146.461
835.088	41.1582
838.492	189.192
841.895	138.295
845.296	202.05
848.696	185.118
852.094	222.369
855.491	178.516
858.887	297.28
862.281	38.124
865.673	238.11
869.064	203.025
872.454	63.8809
875.842	122.689
879.229	113.884
882.614	40.5498
885.998	66.418
889.38	77.8106
892.761	58.6875
896.14	110.406
899.518	146.634
902.895	182.143
906.27	161.191
909.644	136.717
913.016	212.033
916.387	8.84766
919.756	173.94
923.124	96.0147
926.49	75.9365
929.855	111.393
933.219	197.829
936.581	114.019
939.941	256.818
943.301	3.33984
946.658	276.764
950.015	61.1094
953.369	114.211
956.723	146.875
960.075	245.756
963.425	196.643
966.774	247.016
970.122	339.277
973.468	239.676
976.813	250.041
980.156	305.234
983.498	197.01
986.839	193.277
990.178	322.473
993.516	150.629
996.852	236.211
1000.19	387.986
1003.52	264.674
1006.85	113.822
1010.18	337.371
1013.51	316.668
1016.84	360.209
1020.16	501.279
1023.49	597.678
1026.81	625.631
1030.13	497.191
1033.46	137.805
1036.78	207.512
1040.09	200.144
1043.41	196.315
1046.72	193.404
1050.04	122.293
1053.35	319.461
1056.66	169.246
1059.97	113.285
1063.28	167.068
1066.58	311.758
1069.89	161.227
1073.19	344.352
1076.49	224.365
1079.79	230.488
1083.09	206.022
1086.39	78.6836
1089.69	392.94
1092.98	229.197
1096.28	333.693
1099.57	340.012
1102.86	122.564
1106.15	283.34
1109.43	39.6309
1112.72	52.8652
1116.01	5.7793
1119.29	0
