Measurement: Raman, 514 nm, ccw, Raman Data Processed
Mineral: Pectolite
Rruff sample: R050396
Ideal chemistry: NaCa_2_Si_3_O_8_(OH)
Locality: Jeffrey Quarry, Asbestos, Quebec, Canada
Source: Marcus Origlieri
Description: Colorless to gray columnar blocky crystals
Measured chemistry: Na_1.00_Ca_2.00_Si_3.00_O_8_(OH)
Pin_id: L01945
Orientation: Laser parallel to (1 1 0). Fiducial mark perpendicular to laser is parallel to c [0 0 1]
Raman shift (cm-1)	intensity
137.485	0
141.19	136.838
144.894	294.853
148.596	364.656
152.296	596.223
155.995	260.555
159.692	309.301
163.388	5.01953
167.082	86.4004
170.775	27.2246
174.465	52.7109
178.155	192.361
181.842	379.787
185.528	525.731
189.213	201.527
192.896	154.428
196.577	505.269
200.256	526.894
203.934	637.188
207.611	490.072
211.286	307.482
214.959	490.168
218.631	374.148
222.301	553.094
225.969	228.682
229.636	217.5
233.302	341.461
236.965	216.498
240.628	296.717
244.288	164.102
247.947	269.658
251.604	342.264
255.26	339.898
258.915	615.557
262.567	628.221
266.218	546.879
269.868	526.664
273.516	590.627
277.162	543.682
280.807	361.74
284.45	410.949
288.092	346.113
291.732	425.662
295.37	477.934
299.007	353.51
302.642	625.93
306.276	734.756
309.908	825.59
313.539	847.746
317.168	1175.6
320.795	882.156
324.421	512.814
328.046	515.273
331.668	234.141
335.289	291.752
338.909	160.068
342.527	281.203
346.144	224.982
349.759	440.135
353.372	577.127
356.984	787.738
360.594	732.93
364.203	303.906
367.81	377.566
371.415	170.449
375.019	446.174
378.622	407.404
382.223	232.93
385.822	203.516
389.42	361.787
393.016	201.463
396.611	233.553
400.204	213.553
403.795	342.93
407.386	673.098
410.974	798.945
414.561	527.139
418.146	519.938
421.73	163.656
425.312	12.6191
428.893	269.99
432.472	153.182
436.05	194.969
439.626	116.611
443.201	51.2715
446.774	235.562
450.345	142.918
453.915	247.777
457.483	35.9551
461.05	2.89648
464.615	75.5801
468.179	343.621
471.741	166.51
475.302	123.447
478.861	240.775
482.419	444.508
485.975	125.967
489.529	230.172
493.082	266.074
496.634	328.674
500.184	103.037
503.732	150.125
507.279	246.943
510.825	111.627
514.368	126.07
517.911	231.269
521.451	131.231
524.991	173.924
528.528	169.336
532.065	416.678
535.599	69.5371
539.132	77.1934
542.664	42.7461
546.194	171.744
549.723	1.78516
553.25	36.1777
556.775	141.555
560.299	255.109
563.822	204.316
567.343	210.238
570.862	344.307
574.38	268.375
577.896	165.959
581.411	243.975
584.925	431.894
588.437	159.842
591.947	196.775
595.456	183.598
598.963	13.8145
602.469	15.0684
605.973	448.516
609.476	181.844
612.977	70.7754
616.477	232.812
619.975	303.373
623.472	274.188
626.967	504.656
630.461	427.025
633.953	385.363
637.444	774.809
640.933	1189.09
644.421	2107.85
647.907	3442.45
651.392	4531.58
654.875	3605.55
658.357	2115.62
661.837	779.356
665.316	893.332
668.793	558.316
672.269	444.242
675.743	351.125
679.216	392.734
682.687	255.684
686.157	111.309
689.625	147.027
693.092	60.4922
696.557	84.3906
700.021	93.4102
703.483	269.363
706.944	150.332
710.403	276.543
713.861	343.75
717.318	235.398
720.773	246.805
724.226	18.4336
727.678	123.09
731.128	147.301
734.577	141.238
738.025	78.6758
741.47	173.769
744.915	306.762
748.358	178.195
751.799	94.3203
755.239	230.195
758.678	64.6523
762.115	243.387
765.551	281.434
768.985	302.777
772.417	222.008
775.848	62.4414
779.278	399.121
782.706	260.027
786.133	75.3008
789.558	157.336
792.982	231.836
796.404	12.7539
799.825	175.199
803.245	226.785
806.663	352.484
810.079	391.727
813.494	163.191
816.907	73.7852
820.319	90.6797
823.73	247.59
827.139	364.59
830.547	364.527
833.953	290.219
837.358	21.1406
840.761	266.844
844.163	523.621
847.563	304.668
850.962	232.465
854.359	330.469
857.755	312.621
861.15	89.5625
864.543	575.199
867.934	278.203
871.324	151.66
874.713	130.281
878.1	52.1719
881.486	139.09
884.87	136.402
888.253	341.293
891.634	242.934
895.014	274.238
898.393	142.703
901.77	370.414
905.145	57.5938
908.519	162.195
911.892	147.328
915.263	157.019
918.633	7.72266
922.001	140.641
925.368	22.3359
928.734	312.879
932.098	127.961
935.46	25.3203
938.821	425.106
942.181	554.906
945.539	335.68
948.896	421.152
952.251	278.227
955.605	53.293
958.958	402.301
962.309	543.394
965.658	465.664
969.006	769.281
972.353	936.32
975.698	738.492
979.042	768.684
982.385	654.582
985.726	392.766
989.065	264.125
992.403	366.617
995.74	181.363
999.075	245.438
1002.41	554.699
1005.74	485.156
1009.07	490.641
1012.4	505.938
1015.73	451.918
1019.06	750.551
1022.38	1249.89
1025.71	1046.47
1029.03	852.801
1032.35	500.664
1035.67	227.293
1038.99	305.801
1042.3	37.6836
1045.62	43.3164
1048.93	356.195
1052.24	78.3984
1055.56	77.0039
1058.87	17.1445
1062.17	149.992
1065.48	401.746
1068.79	132.891
1072.09	159.516
1075.39	58.3203
1078.69	150.227
1081.99	449.871
1085.29	178.543
1088.59	226.777
1091.88	237.902
1095.18	12.8633
1098.47	126.957
1101.76	108.125
1105.05	0
