Measurement: Raman, 514 nm, ccw, Raman Data Processed
Mineral: Pectolite
Rruff sample: R050396
Ideal chemistry: NaCa_2_Si_3_O_8_(OH)
Locality: Jeffrey Quarry, Asbestos, Quebec, Canada
Source: Marcus Origlieri
Description: Colorless to gray columnar blocky crystals
Measured chemistry: Na_1.00_Ca_2.00_Si_3.00_O_8_(OH)
Pin_id: L01067
Orientation: Laser parallel to a* (1 0 0). Fiducial mark perpendicular to laser is parallel to -b [0 -1 0]
Raman shift (cm-1)	intensity
118.935	0
122.648	67.0977
126.36	52.6172
130.07	224.173
133.778	356.041
137.485	626.685
141.19	736.58
144.894	673.533
148.596	606.261
152.296	382.609
155.995	302.961
159.692	184.645
163.388	152.369
167.082	128.124
170.775	141.712
174.465	168.083
178.155	55.376
181.842	173.429
185.528	319.656
189.213	217.091
192.896	162.145
196.577	163.088
200.256	105.006
203.934	263.125
207.611	123.983
211.286	53.0176
214.959	181.504
218.631	183.211
222.301	285.001
225.969	358.9
229.636	191.889
233.302	116.947
236.965	94.1221
240.628	74.2373
244.288	58.1035
247.947	152.019
251.604	119.953
255.26	110.875
258.915	159.565
262.567	152.55
266.218	179.743
269.868	383.856
273.516	383.05
277.162	342.218
280.807	287.252
284.45	153.123
288.092	89.1416
291.732	193.572
295.37	89.4268
299.007	58.8047
302.642	211.439
306.276	186.894
309.908	227.008
313.539	242.259
317.168	376.614
320.795	243.469
324.421	129.511
328.046	218.086
331.668	219.765
335.289	154.595
338.909	19.0361
342.527	71.7891
346.144	52.8398
349.759	164.648
353.372	81.7871
356.984	26.8232
360.594	120.534
364.203	146.624
367.81	228.941
371.415	147.403
375.019	132.278
378.622	221.758
382.223	189.089
385.822	130.44
389.42	109.525
393.016	209.557
396.611	88.1777
400.204	38.3467
403.795	190.347
407.386	95.7266
410.974	118.596
414.561	127.133
418.146	101.222
421.73	51.9971
425.312	30.6914
428.893	110.68
432.472	19.7119
436.05	107.517
439.626	36.6875
443.201	96.8115
446.774	5.49902
450.345	50.3418
453.915	9.83984
457.483	184.065
461.05	80.7471
464.615	163.176
468.179	156.326
471.741	62.2959
475.302	189.905
478.861	149.826
482.419	198.737
485.975	111.655
489.529	121.531
493.082	255.853
496.634	367.954
500.184	200.103
503.732	130.278
507.279	151.58
510.825	150.409
514.368	88.8535
517.911	186.224
521.451	256.208
524.991	146.898
528.528	186.296
532.065	52.3008
535.599	206.872
539.132	133.477
542.664	117.547
546.194	183.239
549.723	154.565
553.25	140.047
556.775	91.167
560.299	127.115
563.822	182.409
567.343	154.269
570.862	137.339
574.38	133.561
577.896	122.817
581.411	16.3867
584.925	72.4297
588.437	188.238
591.947	79.3682
595.456	35.0205
598.963	192.528
602.469	98.8594
605.973	165.459
609.476	308.157
612.977	173.716
616.477	129.234
619.975	148.514
623.472	329.203
626.967	196.644
630.461	384.109
633.953	244.703
637.444	543.75
640.933	901.76
644.421	1346.62
647.907	1899.11
651.392	2594.56
654.875	1979.84
658.357	1143.39
661.837	562.598
665.316	422.353
668.793	228.412
672.269	236.609
675.743	151.049
679.216	238.856
682.687	456.24
686.157	413.732
689.625	440.578
693.092	186.301
696.557	125.789
700.021	471.523
703.483	226.338
706.944	324.25
710.403	124.481
713.861	139.525
717.318	262.781
720.773	332.918
724.226	186.182
727.678	160.223
731.128	248.467
734.577	102.945
738.025	156.033
741.47	268.072
744.915	102.875
748.358	296.404
751.799	100.066
755.239	281.357
758.678	349.967
762.115	179.231
765.551	61.2812
768.985	103.443
772.417	79.4043
775.848	364.219
779.278	49.9102
782.706	106.75
786.133	35.8105
789.558	105.008
792.982	76.5644
796.404	178.111
799.825	143.279
803.245	320.275
806.663	282.793
810.079	136.879
813.494	178.324
816.907	115.174
820.319	69.793
823.73	121.254
827.139	235.648
830.547	196.389
833.953	215.799
837.358	28.541
840.761	70.125
844.163	168.861
847.563	119.394
850.962	6.61523
854.359	146.264
857.755	205.281
861.15	96.4004
864.543	212.891
867.934	206.035
871.324	104.195
874.713	101.32
878.1	180.227
881.486	191.275
884.87	277.426
888.253	196.965
891.634	113.844
895.014	197.406
898.393	157.295
901.77	27.3691
905.145	86.6445
908.519	72.6699
911.892	59.1465
915.263	85.2773
918.633	80.5019
922.001	99.8594
925.368	95.4805
928.734	39.498
932.098	86.9883
935.46	297.119
938.821	231.471
942.181	210.162
945.539	147.424
948.896	239.623
952.251	360.619
955.605	103.246
958.958	73.7481
962.309	486.777
965.658	659.898
969.006	871.047
972.353	947.016
975.698	850.008
979.042	646.939
982.385	436.217
985.726	433.137
989.065	594.242
992.403	296.258
995.74	487.522
999.075	582.242
1002.41	158.525
1005.74	277.338
1009.07	362.793
1012.4	315.088
1015.73	370.607
1019.06	606.477
1022.38	681.231
1025.71	706.481
1029.03	468.287
1032.35	489.789
1035.67	265.068
1038.99	92.2481
1042.3	175.857
1045.62	131.283
1048.93	99.4219
1052.24	237.486
1055.56	85.9707
1058.87	135.914
1062.17	312.412
1065.48	54.0996
1068.79	223.031
1072.09	186.508
1075.39	241.652
1078.69	222.268
1081.99	64.0723
1085.29	323.111
1088.59	191.072
1091.88	195.953
1095.18	155.258
1098.47	3.37109
1101.76	0
