Measurement: Raman, 514 nm, ccw, Raman Data Processed
Mineral: Pectolite
Rruff sample: R050396
Ideal chemistry: NaCa_2_Si_3_O_8_(OH)
Locality: Jeffrey Quarry, Asbestos, Quebec, Canada
Source: Marcus Origlieri
Description: Colorless to gray columnar blocky crystals
Measured chemistry: Na_1.00_Ca_2.00_Si_3.00_O_8_(OH)
Pin_id: L01945
Orientation: Laser parallel to (1 1 0). Fiducial mark perpendicular to laser is parallel to c [0 0 1]
Raman shift (cm-1)	intensity
118.935	0
122.648	145.768
126.36	90.0039
130.07	157.164
133.778	363.16
137.485	369.299
141.19	713.848
144.894	732.252
148.596	1022.25
152.296	1157.29
155.995	809.309
159.692	899.381
163.388	904.707
167.082	591.857
170.775	572.498
174.465	701.312
178.155	737.064
181.842	765.627
185.528	697.793
189.213	690.361
192.896	607.381
196.577	606.84
200.256	631.973
203.934	527.016
207.611	622.533
211.286	606.961
214.959	560.467
218.631	572.541
222.301	680.172
225.969	737.379
229.636	684.268
233.302	709.656
236.965	428.527
240.628	521.852
244.288	436.26
247.947	513.359
251.604	723.826
255.26	625.719
258.915	485.326
262.567	597.615
266.218	718.316
269.868	813.686
273.516	813.93
277.162	984.436
280.807	768.928
284.45	698.939
288.092	585.141
291.732	596.633
295.37	589.898
299.007	616.061
302.642	603.844
306.276	380.022
309.908	286.141
313.539	598.662
317.168	513.535
320.795	426.777
324.421	358.359
328.046	471.242
331.668	320.75
335.289	232.562
338.909	142.15
342.527	167.92
346.144	141.861
349.759	180.123
353.372	201.367
356.984	243.738
360.594	65.2598
364.203	205.273
367.81	126.891
371.415	148.6
375.019	179.348
378.622	122.143
382.223	193.975
385.822	205.164
389.42	18.6172
393.016	104.404
396.611	34.6426
400.204	22.25
403.795	169.799
407.386	22.2578
410.974	58.4043
414.561	145.832
418.146	92.5488
421.73	14.3848
425.312	139.295
428.893	61.1621
432.472	93.3242
436.05	88.6562
439.626	50.582
443.201	23.752
446.774	81.8457
450.345	97.4492
453.915	296.029
457.483	103.596
461.05	181.098
464.615	78.1934
468.179	167.898
471.741	277.156
475.302	22.3242
478.861	176.107
482.419	67.3965
485.975	276.059
489.529	114.654
493.082	432.609
496.634	363.191
500.184	221.656
503.732	293.92
507.279	244.703
510.825	230.496
514.368	199.096
517.911	361.547
521.451	293.775
524.991	331.76
528.528	16.9648
532.065	43.1367
535.599	112.57
539.132	34.7324
542.664	46.2246
546.194	151.18
549.723	36.1777
553.25	138.834
556.775	271.295
560.299	353.307
563.822	77.9023
567.343	56.0488
570.862	56.3691
574.38	379.357
577.896	90.5801
581.411	301.641
584.925	125.094
588.437	125.463
591.947	233.822
595.456	77.6094
598.963	303.113
602.469	59.8535
605.973	227.43
609.476	159.781
612.977	274.051
616.477	114.606
619.975	251.086
623.472	311.408
626.967	352.918
630.461	405.764
633.953	169.305
637.444	427.523
640.933	901.102
644.421	1467.19
647.907	1917.48
651.392	2683.73
654.875	2091.38
658.357	1207.21
661.837	660.623
665.316	438.377
668.793	583.475
672.269	565.359
675.743	449.088
679.216	394.268
682.687	522.996
686.157	627.564
689.625	486.621
693.092	438.334
696.557	284.291
700.021	286.844
703.483	269.826
706.944	315.99
710.403	415.357
713.861	451.43
717.318	214.613
720.773	303.826
724.226	53.166
727.678	218.51
731.128	208.438
734.577	300.525
738.025	208.213
741.47	191.807
744.915	76.4492
748.358	300.959
751.799	291.512
755.239	301.973
758.678	100.83
762.115	203.022
765.551	103.664
768.985	55.2734
772.417	351.969
775.848	136.359
779.278	4.63477
782.706	185.477
786.133	329.057
789.558	79.6211
792.982	75.5039
796.404	48.2773
799.825	235.938
803.245	231.582
806.663	446.375
810.079	414.848
813.494	257.648
816.907	377.238
820.319	415.465
823.73	196.07
827.139	328.191
830.547	224.887
833.953	12.0234
837.358	212.059
840.761	368.797
844.163	250.875
847.563	160.617
850.962	161.203
854.359	98.1562
857.755	296.731
861.15	481.508
864.543	55.5039
867.934	224.539
871.324	237.523
874.713	255.16
878.1	375.055
881.486	187.652
884.87	151.215
888.253	47.7891
891.634	210.137
895.014	135.469
898.393	298.512
901.77	213.566
905.145	138.562
908.519	203.637
911.892	90.8711
915.263	157.328
918.633	300.879
922.001	86.9453
925.368	66.1641
928.734	103.348
932.098	143.023
935.46	273.676
938.821	269.07
942.181	65.0508
945.539	265.277
948.896	344.82
952.251	478
955.605	464.668
958.958	548.129
962.309	879.258
965.658	993.969
969.006	1568.27
972.353	1444.41
975.698	1346.4
979.042	1108.17
982.385	712.281
985.726	661.941
989.065	611.449
992.403	399.191
995.74	525.312
999.075	620.91
1002.41	668.109
1005.74	597.387
1009.07	230.047
1012.4	485.426
1015.73	429.106
1019.06	654.676
1022.38	626.465
1025.71	862.926
1029.03	483.566
1032.35	200.402
1035.67	119.781
1038.99	204.168
1042.3	35.6133
1045.62	116.492
1048.93	67.4258
1052.24	210.062
1055.56	193.394
1058.87	63.7344
1062.17	168.019
1065.48	380.852
1068.79	312.594
1072.09	214.176
1075.39	148.16
1078.69	475.555
1081.99	513.449
1085.29	288.602
1088.59	301.664
1091.88	297.051
1095.18	319.285
1098.47	145.492
1101.76	197.273
1105.05	187.277
1108.34	193.371
1111.63	14.5547
1114.91	235.578
