Measurement: Raman, 514 nm, ccw, Raman Data Processed
Mineral: Pectolite
Rruff sample: R060101
Ideal chemistry: NaCa_2_Si_3_O_8_(OH)
Locality: West Patterson, New Jersey, USA
Source: University of Arizona Mineral Museum
Description: Tufts of white acicular sprays
Measured chemistry: Na_1.02_Ca_2.00_Si_2.99_O_8_(OH)
Pin_id: M00210
Orientation: Laser parallel to -b* (0 -1 0). Fiducial mark perpendicular to laser is parallel to c [0 0 1]
Raman shift (cm-1)	intensity
118.935	0
122.648	53.209
126.36	23.5581
130.07	104.621
133.778	53.5824
137.485	146.589
141.19	156.734
144.894	213.199
148.596	142.348
152.296	122.638
155.995	93.2352
159.692	41.6425
163.388	35.1998
167.082	60.2062
170.775	48.2908
174.465	54.5098
178.155	43.2954
181.842	79.7737
185.528	98.3442
189.213	123.286
192.896	56.9246
196.577	90.3733
200.256	35.6422
203.934	53.9768
207.611	46.0392
211.286	91.2883
214.959	141.44
218.631	83.9044
222.301	91.9092
225.969	35.7395
229.636	56.4868
233.302	75.0007
236.965	79.6628
240.628	13.853
244.288	29.4812
247.947	28.2649
251.604	52.3372
255.26	28.5386
258.915	53.0991
262.567	76.8291
266.218	33.189
269.868	78.4241
273.516	120.951
277.162	101.42
280.807	62.812
284.45	68.9827
288.092	37.6287
291.732	11.584
295.37	36.9597
299.007	47.1958
302.642	17.6457
306.276	5.87695
309.908	60.6025
313.539	101.844
317.168	173.544
320.795	114.066
324.421	79.2532
328.046	76.4727
331.668	61.3603
335.289	61.0315
338.909	5.34448
342.527	11.0791
346.144	32.6838
349.759	9.10425
353.372	80.5432
356.984	87.585
360.594	87.3621
364.203	48.1953
367.81	71.408
371.415	113.277
375.019	73.7886
378.622	91.4082
382.223	31.6067
385.822	41.9871
389.42	23.3818
393.016	47.0227
396.611	72.4182
400.204	65.8303
403.795	38.4204
407.386	116.023
410.974	82.9507
414.561	45.0559
418.146	51.1963
421.73	86.521
425.312	88.5369
428.893	39.2839
432.472	90.9707
436.05	8.14868
439.626	84.6252
443.201	100.094
446.774	29.7419
450.345	118.244
453.915	110.977
457.483	83.2085
461.05	134.365
464.615	17.7119
468.179	31.8796
471.741	11.3962
475.302	84.7651
478.861	15.7002
482.419	35.0527
485.975	73.9434
489.529	11.2725
493.082	43.3257
496.634	132.986
500.184	116.874
503.732	81.2686
507.279	69.2271
510.825	0.243164
514.368	6.12988
517.911	135.441
521.451	27.0264
524.991	105.497
528.528	94.8398
532.065	97.6621
535.599	39.001
539.132	36.811
542.664	47.4053
546.194	2.97803
549.723	11.624
553.25	112.363
556.775	86.1768
560.299	44.7974
563.822	45.6724
567.343	64.7368
570.862	43.3955
574.38	76.0049
577.896	99.0649
581.411	63.853
584.925	98.4648
588.437	43.2524
591.947	74.9766
595.456	90.3032
598.963	120.888
602.469	22.2334
605.973	29.9326
609.476	20.7305
612.977	8.0459
616.477	78.4316
619.975	79.6436
623.472	192.902
626.967	114.253
630.461	41.439
633.953	157.353
637.444	260.772
640.933	247.972
644.421	482.518
647.907	775.304
651.392	805.694
654.875	469.88
658.357	310.477
661.837	256.207
665.316	158.017
668.793	81.7871
672.269	44.1435
675.743	136.965
679.216	191.342
682.687	102.064
686.157	119.188
689.625	47.064
693.092	34.2998
696.557	27.9033
700.021	80.9336
703.483	36.9038
706.944	91.5815
710.403	111.764
713.861	42.333
717.318	107.963
720.773	127.786
724.226	53.6934
727.678	39.2227
731.128	47.1357
734.577	138.477
738.025	50.7764
741.47	23.876
744.915	145.064
748.358	35.9023
751.799	51.044
755.239	51.5596
758.678	127.335
762.115	102.528
765.551	207.978
768.985	198.39
772.417	49.5508
775.848	64.7773
779.278	113.668
782.706	136.395
786.133	51.169
789.558	31.5137
792.982	86.6074
796.404	213.843
799.825	55.1494
803.245	33.209
806.663	151.939
810.079	124.253
813.494	159.478
816.907	111.194
820.319	55.6074
823.73	126.505
827.139	79.6055
830.547	57.5674
833.953	121.115
837.358	137.003
840.761	69.2783
844.163	54.0547
847.563	83.5928
850.962	85.2275
854.359	24.1328
857.755	75.7461
861.15	131.996
864.543	179.632
867.934	79.1504
871.324	81.0967
874.713	69.6572
878.1	249.065
881.486	68.7217
884.87	94.2666
888.253	42.1504
891.634	176.328
895.014	147.012
898.393	69.0781
901.77	170.477
905.145	126.018
908.519	152.532
911.892	120.753
915.263	5.25098
918.633	133.275
922.001	48.8496
925.368	71.2305
928.734	115.145
932.098	137.029
935.46	265.203
938.821	225.662
942.181	130.861
945.539	67.2022
948.896	65.5195
952.251	272.308
955.605	164.365
958.958	102.418
962.309	118.316
965.658	350.297
969.006	550.098
972.353	576.586
975.698	395.85
979.042	255.883
982.385	239.625
985.726	211.154
989.065	201.885
992.403	248.223
995.74	185.086
999.075	109.201
1002.41	366.75
1005.74	301.9
1009.07	333.441
1012.4	74.75
1015.73	270.93
1019.06	353.652
1022.38	480.84
1025.71	356.902
1029.03	286.33
1032.35	167.365
1035.67	181.551
1038.99	194.744
1042.3	133.174
1045.62	74.084
1048.93	108.406
1052.24	127.811
1055.56	86.4668
1058.87	202.293
1062.17	16.5918
1065.48	47.3145
1068.79	39.4609
1072.09	84.4941
1075.39	254.393
1078.69	85.4414
1081.99	185.273
1085.29	212.853
1088.59	55.3125
1091.88	33.6641
1095.18	158.4
1098.47	286.152
1101.76	407.818
1105.05	427.818
1108.34	114.711
1111.63	236.539
1114.91	369.027
1118.2	276.453
1121.48	309.932
1124.76	151.623
1128.04	466.955
1131.32	458.387
1134.6	408.096
1137.87	316.269
1141.15	272.156
1144.42	368.842
1147.69	360.486
1150.96	311.344
1154.23	280.525
1157.5	275.769
1160.76	63.8457
1164.03	46.8477
1167.29	291.836
1170.55	228.815
1173.81	423.109
1177.07	316.076
1180.33	141.807
1183.58	218.975
1186.84	231.719
1190.09	20.7129
1193.34	227.451
