Measurement: Raman, 514 nm, ccw, Raman Data Processed
Mineral: Pectolite
Rruff sample: R060101
Ideal chemistry: NaCa_2_Si_3_O_8_(OH)
Locality: West Patterson, New Jersey, USA
Source: University of Arizona Mineral Museum
Description: Tufts of white acicular sprays
Measured chemistry: Na_1.02_Ca_2.00_Si_2.99_O_8_(OH)
Pin_id: M00258
Orientation: Laser parallel to c* (0 0 1). Fiducial mark perpendicular to laser is parallel to a [1 0 0]
Raman shift (cm-1)	intensity
122.648	0
126.36	0.994751
130.07	34.1103
133.778	83.7255
137.485	112.901
141.19	171.778
144.894	107.665
148.596	111.25
152.296	92.3909
155.995	41.6636
159.692	41.7014
163.388	17.4762
167.082	42.651
170.775	6.88452
174.465	8.65295
178.155	2.54016
181.842	26.6189
185.528	50.3523
189.213	2.19946
192.896	40.5551
196.577	81.3516
200.256	63.7017
203.934	28.1346
207.611	98.3605
211.286	70.847
214.959	45.3857
218.631	76.1755
222.301	58.8301
225.969	42.8473
229.636	32.6959
233.302	27.3837
236.965	14.0166
240.628	31.9558
244.288	9.25305
247.947	39.7974
251.604	18.5652
255.26	6.75696
258.915	42.2551
262.567	10.6603
266.218	6.53882
269.868	81.3057
273.516	62.4088
277.162	42.8945
280.807	18.3623
284.45	17.4423
288.092	42.2371
291.732	9.50915
295.37	45.1079
299.007	17.9321
302.642	32.8892
306.276	58.532
309.908	144.731
313.539	87.9768
317.168	85.2239
320.795	119.844
324.421	53.416
328.046	103.302
331.668	65.699
335.289	60.7263
338.909	35.4148
342.527	59.9482
346.144	50.1221
349.759	72.7114
353.372	81.5571
356.984	122.606
360.594	102.606
364.203	107.256
367.81	53.2441
371.415	43.2105
375.019	107.245
378.622	148.49
382.223	100.252
385.822	40.8569
389.42	55.1284
393.016	1.40478
396.611	76.5776
400.204	98.7288
403.795	100.504
407.386	80.2761
410.974	112.449
414.561	133.565
418.146	147.301
421.73	149.642
425.312	33.7922
428.893	70.654
432.472	98.7922
436.05	47.9712
439.626	66.916
443.201	77.458
446.774	110.853
450.345	0.26416
453.915	63.0366
457.483	83.2283
461.05	67.614
464.615	70.571
468.179	99.4211
471.741	51.0776
475.302	65.6831
478.861	79.9902
482.419	45.9246
485.975	12.8874
489.529	19.2498
493.082	27.5642
496.634	64.76
500.184	125.749
503.732	89.2937
507.279	141.004
510.825	48.7891
514.368	5.34546
517.911	75.0083
521.451	26.5962
524.991	110.583
528.528	44.4697
532.065	47.967
535.599	25.7092
539.132	60.5713
542.664	82.1431
546.194	92.3706
549.723	28.0376
553.25	43.2573
556.775	64.9292
560.299	59.2056
563.822	39.2432
567.343	46.6758
570.862	77.5752
574.38	56.9966
577.896	73.1641
581.411	89.0972
584.925	176.184
588.437	57.5781
591.947	77.9556
595.456	93.9585
598.963	78.1953
602.469	84.1162
605.973	84.981
609.476	62.0659
612.977	95.5845
616.477	117.682
619.975	51.5669
623.472	126.761
626.967	116.669
630.461	48.2227
633.953	153.543
637.444	134.269
640.933	226.363
644.421	294.407
647.907	553.104
651.392	609.435
654.875	488.241
658.357	257.206
661.837	143.414
665.316	75.4292
668.793	138.989
672.269	87.6616
675.743	191.838
679.216	97.7842
682.687	108.166
686.157	211.963
689.625	73.4253
693.092	192.287
696.557	99.9136
700.021	154.467
703.483	62.5049
706.944	173.851
710.403	89.5996
713.861	139.024
717.318	139.181
720.773	69.8096
724.226	44.5278
727.678	24.3037
731.128	53.6592
734.577	58.4424
738.025	154.049
741.47	107.522
744.915	45.9434
748.358	167.89
751.799	125.34
755.239	24.3184
758.678	41.1113
762.115	163.449
765.551	73.9736
768.985	25.0146
772.417	43.2217
775.848	21.416
779.278	62.2236
782.706	15.335
786.133	133.183
789.558	242.506
792.982	101.772
796.404	170.906
799.825	119.818
803.245	91.1992
806.663	77.0723
810.079	142.213
813.494	116.076
816.907	73.3057
820.319	155.865
823.73	89.8779
827.139	148.216
830.547	6.71875
833.953	160.884
837.358	140.861
840.761	254.557
844.163	84.8428
847.563	91.7275
850.962	128.61
854.359	76.8799
857.755	204.878
861.15	186.438
864.543	71.6709
867.934	141.93
871.324	162.942
874.713	28.876
878.1	169.569
881.486	129.621
884.87	37.1113
888.253	55.7051
891.634	2.63672
895.014	14.2373
898.393	148.567
901.77	49.7705
905.145	162.231
908.519	50.5381
911.892	5.07031
915.263	182.448
918.633	113.881
922.001	86.4951
925.368	104.448
928.734	160.71
932.098	77.1504
935.46	23.5068
938.821	234.706
942.181	204.321
945.539	296.151
948.896	38.0332
952.251	35.7285
955.605	66.1973
958.958	121.513
962.309	143.143
965.658	279.06
969.006	157.333
972.353	111.501
975.698	200.168
979.042	334.434
982.385	208.684
985.726	202.091
989.065	148.293
992.403	169.494
995.74	123.398
999.075	113.203
1002.41	244.738
1005.74	205.934
1009.07	137.935
1012.4	199.826
1015.73	109.436
1019.06	210.35
1022.38	33.8418
1025.71	270.043
1029.03	150.178
1032.35	214.594
1035.67	57.7949
1038.99	201.812
1042.3	308.029
1045.62	87.6758
1048.93	78.3281
1052.24	92.5391
1055.56	65.0469
1058.87	58.0332
1062.17	15.9277
1065.48	108.711
1068.79	23.2637
1072.09	225.725
1075.39	28.9062
1078.69	123.144
1081.99	160.35
1085.29	162.647
1088.59	237.418
1091.88	207.195
1095.18	102.893
1098.47	22.3516
1101.76	26.8379
1105.05	180.004
1108.34	316.953
1111.63	170.283
1114.91	473.742
1118.2	238.324
1121.48	307.197
1124.76	191.557
1128.04	228.289
1131.32	64.1719
1134.6	124.631
1137.87	141.166
1141.15	179.644
1144.42	194.56
1147.69	309.266
1150.96	174.738
1154.23	81.5801
1157.5	125.848
1160.76	155.361
1164.03	146.619
1167.29	106.639
1170.55	106.078
1173.81	37.4297
1177.07	104.258
1180.33	113.42
1183.58	170.195
1186.84	138.75
1190.09	27.0352
1193.34	106.701
1196.6	79.8535
1199.84	268.848
