Measurement: Raman, 514 nm, ccw, Raman Data Processed
Mineral: Pectolite
Rruff sample: R060101
Ideal chemistry: NaCa_2_Si_3_O_8_(OH)
Locality: West Patterson, New Jersey, USA
Source: University of Arizona Mineral Museum
Description: Tufts of white acicular sprays
Measured chemistry: Na_1.02_Ca_2.00_Si_2.99_O_8_(OH)
Pin_id: L00538
Orientation: Laser parallel to (0 -1 -1). Fiducial mark perpendicular to laser is parallel to -a [-1 0 0]
Raman shift (cm-1)	intensity
121.41	0
125.123	56.1457
128.833	64.5414
132.542	10.2648
136.25	49.6387
139.955	77.1644
143.66	80.7882
147.362	134.598
151.063	157.588
154.762	128.878
158.46	30.923
162.156	64.7112
165.851	48.189
169.544	22.7538
173.235	56.1975
176.925	16.8425
180.613	96.9904
184.3	15.53
187.985	43.7456
191.668	67.2799
195.35	36.4746
199.03	66.1666
202.709	66.6671
206.386	34.8955
210.061	50.562
213.735	47.2949
217.407	63.1714
221.078	63.1262
224.747	78.9644
228.414	89.9058
232.08	23.0721
235.744	17.3892
239.407	5.63086
243.068	2.66321
246.728	39.6537
250.386	31.1484
254.042	22.7408
257.697	59.206
261.35	31.2834
265.001	66.8339
268.651	23.2218
272.3	77.6951
275.947	57.3404
279.592	66.7553
283.236	63.4534
286.878	20.1457
290.518	5.00659
294.157	8.71362
297.795	0.821533
301.431	64.7607
305.065	18.8247
308.698	56.6565
312.329	46.1855
315.958	84.0752
319.586	148.002
323.213	122.124
326.838	51.0305
330.461	61.9724
334.083	61.9819
337.703	43.4346
341.321	59.7578
344.938	34.398
348.554	7.229
352.168	66.2805
355.78	105.825
359.391	110.784
363	127.541
366.608	117.881
370.214	107.306
373.818	193.212
377.421	229.779
381.023	180.128
384.622	73.948
388.221	59.8706
391.818	52.8425
395.413	86.2156
399.006	68.1977
402.598	173.435
406.189	94.7935
409.778	128.626
413.365	181.828
416.951	184.89
420.536	103.966
424.118	89.9058
427.7	87.5503
431.279	24.5862
434.858	63.7473
438.434	40.7046
442.009	37.2664
445.583	73.7686
449.155	40.1079
452.725	4.95947
456.294	46.1096
459.861	68.9831
463.427	33.4668
466.991	56.9019
470.554	44.0701
474.115	26.136
477.675	74.9446
481.233	60.7959
484.79	38.4077
488.345	91.4394
491.898	86.9573
495.45	140.417
499.001	90.1853
502.55	112.689
506.097	131.993
509.643	105.365
513.187	67.7432
516.73	46.1855
520.271	83.4429
523.811	5.43018
527.349	153.779
530.886	128.46
534.421	18.4741
537.955	90.3008
541.487	25.5479
545.017	75.2217
548.547	75.8511
552.074	183.511
555.6	99.8047
559.125	76.4976
562.648	1.02295
566.169	76.6763
569.689	172.954
573.207	31.3189
576.724	2.08057
580.24	124.797
583.754	86.9956
587.266	126.8
590.777	50.3369
594.286	23.1919
597.794	41.1958
601.3	68.5327
604.805	47.811
608.309	94.5151
611.81	104.317
615.311	64.2134
618.809	90.207
622.307	110.973
625.802	54.0957
629.297	111.584
632.789	109.264
636.281	91.8418
639.77	171.847
643.259	336.674
646.745	405.277
650.231	639.834
653.714	601.043
657.197	479.981
660.677	206.767
664.157	211.224
667.634	164.165
671.111	136.533
674.585	27.7075
678.059	63.4429
681.53	18.0479
685.001	152.404
688.469	122.992
691.937	52.7153
695.402	43.6919
698.867	63.2197
702.329	121.17
705.791	73.9893
709.251	169.288
712.709	114.01
716.166	106.984
719.621	173.166
723.075	71.5454
726.527	1.35156
729.978	41.8408
733.428	38.9482
736.876	141.369
740.322	223.07
743.767	87.1426
747.21	169.884
750.652	33.9141
754.093	5.38867
757.532	144.619
760.969	27.4902
764.406	114.345
767.84	127.034
771.273	82.2725
774.705	46.376
778.135	151.166
781.564	72.1914
784.991	7.74512
788.417	133.933
791.841	190.733
795.264	148.48
798.685	181.832
802.105	146.093
805.523	55.3926
808.94	217.961
812.356	66.6162
815.77	166.241
819.182	142.644
822.593	148.906
826.003	157.859
829.411	13.6611
832.818	127.666
836.223	90.749
839.627	133.081
843.029	104.145
846.43	151.295
849.829	127.8
853.227	35.1797
856.623	84.5518
860.018	79.7217
863.412	209.727
866.804	129.41
870.194	176.885
873.583	182.418
876.971	44.669
880.357	194.603
883.742	92.4434
887.125	94.5117
890.507	151.716
893.888	4.76953
897.267	7.92773
900.644	35.2295
904.02	3.19824
907.395	126.887
910.768	133.661
914.14	22.9697
917.51	31.9805
920.879	34.8164
924.246	50.5537
927.612	123.079
930.976	77.8272
934.339	52.75
937.701	26.7451
941.061	150.858
944.42	126.049
947.777	153.59
951.133	138.581
954.487	164.719
957.84	7.97656
961.192	200.275
964.542	315.578
967.89	275.34
971.238	473.627
974.583	381.932
977.928	268.457
981.271	185.17
984.612	319.428
987.952	444.1
991.291	333.842
994.628	246.793
997.964	310.172
1001.3	387.264
1004.63	394.791
1007.96	99.793
1011.29	257.894
1014.62	51.0664
1017.95	185.164
1021.27	419.998
1024.6	454.109
1027.92	523.178
1031.24	293.102
1034.56	344.76
1037.88	107.238
1041.2	140.01
1044.51	199.791
1047.83	199.129
1051.14	299.516
1054.45	336.758
1057.76	387.266
1061.07	129.611
1064.38	238.853
1067.68	110.303
