Measurement: Raman, 514 nm, ccw, Raman Data Processed
Mineral: Pectolite
Rruff sample: R060101
Ideal chemistry: NaCa_2_Si_3_O_8_(OH)
Locality: West Patterson, New Jersey, USA
Source: University of Arizona Mineral Museum
Description: Tufts of white acicular sprays
Measured chemistry: Na_1.02_Ca_2.00_Si_2.99_O_8_(OH)
Pin_id: L01384
Orientation: Laser parallel to (-1 -1 0). Fiducial mark perpendicular to laser is parallel to c [0 0 1]
Raman shift (cm-1)	intensity
116.458	0
120.173	32.6843
123.885	19.4799
127.596	42.5095
131.306	15.828
135.014	5.22729
138.72	85.2537
142.425	92.9617
146.128	99.4989
149.83	96.5369
153.53	46.1251
157.228	45.8479
160.925	43.5859
164.62	36.4111
168.313	59.8889
172.005	75.3125
175.695	110.841
179.384	114.55
183.071	97.1268
186.757	51.1041
190.44	74.4001
194.123	63.9186
197.803	74.0657
201.483	40.0649
205.16	68.6276
208.836	14.0963
212.51	32.0359
216.183	60.491
219.854	59.884
223.524	56.7285
227.192	79.3269
230.858	34.2272
234.523	3.49023
238.186	37.0914
241.848	66.5794
245.508	19.0775
249.166	48.8374
252.823	28.955
256.479	32.9946
260.132	51.3933
263.784	75.6472
267.435	85.5727
271.084	73.0002
274.731	85.0527
278.377	71.6826
282.021	57.0413
285.664	41.0818
289.305	85.9085
292.945	75.3755
296.583	80.1716
300.219	35.1597
303.854	4.76636
307.487	56.8879
311.119	106.828
314.749	54.7341
318.377	136.17
322.004	108.805
325.629	89.2197
329.253	77.2708
332.876	60.3999
336.496	24.1846
340.115	41.8054
343.733	21.1609
347.349	121.493
350.963	34.1562
354.576	46.5159
358.187	41.8596
361.797	92.8157
365.405	27.1724
369.012	9.02173
372.617	67.1035
376.22	31.5068
379.822	57.4817
383.423	44.0237
387.022	109.56
390.619	91.1338
394.215	40.7058
397.809	20.165
401.401	13.2207
404.992	7.46558
408.582	40.9624
412.17	17.3608
415.756	54.5979
419.341	22.866
422.924	44.5063
426.506	131.703
430.086	89.116
433.665	32.2244
437.242	130.541
440.818	33.7844
444.392	32.6001
447.964	33.0452
451.535	24.0586
455.105	22.9888
458.672	17.2534
462.239	59.8438
465.804	111.522
469.367	135.127
472.928	48.064
476.489	89.0232
480.047	91.6248
483.604	98.4775
487.16	165.199
490.714	101.343
494.266	141.217
497.817	33.3003
501.367	78.0264
504.915	38.977
508.461	22.1377
512.006	81.187
515.549	71.0859
519.091	59.1548
522.631	102.231
526.17	66.8208
529.707	47.477
533.243	64.6533
536.777	140.606
540.31	48.8062
543.841	71.23
547.37	77.5523
550.898	109.721
554.425	116.64
557.95	20.9395
561.473	16.0249
564.995	60.189
568.516	62.1035
572.035	53.147
575.552	42.5523
579.068	116.178
582.583	45.1416
586.095	33.916
589.607	12.5361
593.117	28.6943
596.625	65.9106
600.132	23.4263
603.637	61.3164
607.141	113.792
610.643	59.3164
614.144	4.54053
617.643	195.325
621.141	72.6719
624.637	68.4883
628.132	102.019
631.625	130.602
635.117	88.8765
638.607	220.716
642.096	225.632
645.583	293.657
649.069	536.485
652.553	545.259
656.036	362.217
659.517	240.691
662.997	88.5967
666.475	74.7285
669.952	165.191
673.427	71.8408
676.901	85.458
680.373	112.773
683.844	224.338
687.313	125.978
690.781	110.326
694.247	165.076
697.712	56.9209
701.175	2.1709
704.637	220.418
708.097	35.5273
711.556	158.852
715.014	105.531
718.469	176.982
721.924	75.0566
725.377	91.4014
728.828	125.589
732.278	1.32031
735.726	163.283
739.173	126.954
742.619	24.3604
746.063	157.105
749.505	171.446
752.946	76.749
756.386	91.3272
759.824	200.367
763.26	1.72559
766.695	247.661
770.129	51.9766
773.561	81.1162
776.992	27.9111
780.421	8.18262
783.849	172.88
787.275	128.211
790.7	93.5537
794.123	199.606
797.545	92.8272
800.965	11.1348
804.384	264.673
807.802	34.3115
811.217	105.935
814.632	147.291
818.045	194.457
821.456	184.338
824.867	188.917
828.275	100.219
831.682	144.782
835.088	162.244
838.492	36.4541
841.895	31.6914
845.296	146.325
848.696	205.117
852.094	119.759
855.491	119.295
858.887	210.113
862.281	130.43
865.673	243.14
869.064	164.471
872.454	215.318
875.842	136.861
879.229	84.0674
882.614	159.321
885.998	148.576
889.38	90.8701
892.761	186.107
896.14	139.619
899.518	143.914
902.895	171.884
906.27	276.023
909.644	152.99
913.016	196.556
916.387	79.9736
919.756	137.044
923.124	104.758
926.49	94.4834
929.855	146.272
933.219	244.977
936.581	217.912
939.941	72.9473
943.301	117.785
946.658	143.783
950.015	122.914
953.369	82.8516
956.723	253.875
960.075	265.275
963.425	213.076
966.774	309.703
970.122	581.621
973.468	323.609
976.813	221.228
980.156	318.174
983.498	348.848
986.839	243.221
990.178	193.318
993.516	178.328
996.852	209.324
1000.19	136.562
1003.52	215.43
1006.85	305.551
1010.18	215.406
1013.51	177.092
1016.84	224.092
1020.16	244.568
1023.49	338.85
1026.81	170.883
1030.13	172.182
1033.46	164.953
1036.78	69.8477
1040.09	321.984
1043.41	84.3711
1046.72	182.228
1050.04	203.158
1053.35	209.951
1056.66	286.592
1059.97	109.533
1063.28	236.18
1066.58	114.027
1069.89	220.023
1073.19	231.602
1076.49	118.385
1079.79	456.693
1083.09	189.668
1086.39	314.996
1089.69	220.781
1092.98	238.022
1096.28	286.184
1099.57	360.406
1102.86	110.889
1106.15	98.4746
1109.43	73.2617
1112.72	50.625
1116.01	34.2988
