Measurement: Raman, 514 nm, ccw, Raman Data Processed
Mineral: Pectolite
Rruff sample: R050396
Ideal chemistry: NaCa_2_Si_3_O_8_(OH)
Locality: Jeffrey Quarry, Asbestos, Quebec, Canada
Source: Marcus Origlieri
Description: Colorless to gray columnar blocky crystals
Measured chemistry: Na_1.00_Ca_2.00_Si_3.00_O_8_(OH)
Pin_id: M00439
Orientation: Laser parallel to -c* (0 0 -1). Fiducial mark perpendicular to laser is parallel to a [1 0 0]
Raman shift (cm-1)	intensity
125.299	0
129	87.3452
132.7	335.666
136.399	634.287
140.096	721.617
143.791	871.691
147.485	670.83
151.178	710.37
154.869	659.837
158.558	297.562
162.246	126.549
165.932	58.0911
169.617	0.73877
173.3	60.2388
176.982	24.6523
180.662	159.066
184.341	324.356
188.018	562.823
191.694	525.131
195.368	592.688
199.04	834.452
202.711	1326.41
206.381	1175.98
210.049	777.171
213.716	780.793
217.381	926.907
221.044	1231.1
224.706	1454.29
228.367	952.67
232.026	346.452
235.683	71.7424
239.339	19.772
242.993	120.288
246.646	60.1003
250.298	188.441
253.947	254.717
257.596	274.755
261.243	275.402
264.888	380.033
268.532	337.904
272.174	258.596
275.815	240.731
279.454	61.594
283.092	77.7188
286.728	32.9014
290.363	24.7388
293.996	49.97
297.628	98.8533
301.258	122.062
304.887	132.949
308.514	296.316
312.14	597.243
315.764	862.655
319.387	1030.65
323.008	992.58
326.628	934.896
330.246	598.916
333.862	253.799
337.478	223.478
341.091	132.834
344.703	199.865
348.314	380.367
351.923	480.967
355.531	714.765
359.137	995.229
362.742	776.264
366.345	561.462
369.947	689.318
373.547	723.384
377.145	916.288
380.743	870.801
384.338	505.204
387.932	360.694
391.525	277.567
395.116	240.576
398.706	352.794
402.294	484.681
405.881	969.944
409.466	1408.7
413.05	1876.49
416.632	2065.29
420.213	1253.67
423.792	764.037
427.37	386.141
430.946	110.201
434.521	160.373
438.094	160.269
441.666	138.193
445.236	31.9346
448.805	125.431
452.372	63.8857
455.938	62.5674
459.502	182.098
463.065	198.551
466.627	111.111
470.187	40.2681
473.745	3.49707
477.302	112.381
480.857	54.8999
484.411	32.0024
487.964	53.4023
491.515	191.305
495.064	159.733
498.612	337.726
502.159	239.312
505.704	217.482
509.247	118.247
512.789	227.539
516.33	208.366
519.869	132.724
523.407	124.589
526.943	124.986
530.478	81.0273
534.011	210.623
537.543	129.678
541.073	137.177
544.602	35.9067
548.129	46.7417
551.655	6.31494
555.179	15.4668
558.702	16.9331
562.223	53.1797
565.743	5.29688
569.262	68.7104
572.779	42.5806
576.294	5.51856
579.808	63.8213
583.321	106.952
586.832	83.5547
590.341	121.677
593.85	234.393
597.356	135.269
600.862	287.709
604.365	276.089
607.868	283.852
611.368	379.048
614.868	459.323
618.366	459.913
621.862	449.506
625.357	623.112
628.85	870.346
632.342	1312.14
635.833	1605.66
639.322	2661.04
642.81	4618.05
646.296	7788.11
649.78	12047.4
653.264	14595.3
656.745	9350.71
660.226	4350.22
663.704	2125.16
667.182	1301.61
670.658	841.585
674.132	576.612
677.605	558.944
681.077	590.413
684.547	1010.46
688.015	912.666
691.483	685.991
694.948	485.027
698.413	316.574
701.875	152.419
705.337	201.707
708.797	174.128
712.255	199.653
715.712	141.505
719.167	34.2881
722.621	45.9824
726.074	69.6269
729.525	84.4414
732.975	29.3887
736.423	139.636
739.87	23.5283
743.315	18.0469
746.759	22.8906
750.202	178.89
753.643	87.876
757.082	65.7246
760.52	188.722
763.957	26.9678
767.392	104.443
770.826	171.935
774.258	53.4121
777.689	149.841
781.118	87.8701
784.546	36.3818
787.973	188.976
791.398	100.338
794.822	238.284
798.244	163.838
801.665	104.768
805.084	194.091
808.502	288.111
811.918	224.873
815.333	148.88
818.747	268.704
822.159	184.464
825.569	162.438
828.979	70.8769
832.386	294.658
835.793	322.127
839.198	228.09
842.601	174.394
846.003	254.602
849.404	247.493
852.803	265.646
856.2	300.089
859.597	295.913
862.992	277.406
866.385	288.96
869.777	198.743
873.167	150.319
876.557	197.211
879.944	109.253
883.33	13.831
886.715	73.9971
890.099	29.2607
893.481	16.0078
896.861	3.47559
900.24	36.001
903.618	257.58
906.994	244.001
910.369	304.883
913.742	444.952
917.114	281.342
920.485	112.698
923.854	151.827
927.221	294.248
930.588	163.856
933.952	121.12
937.316	196.832
940.678	377.785
944.038	310.442
947.397	284.665
950.755	379.337
954.111	429.304
957.466	667.933
960.819	769.329
964.171	1123.24
967.522	1640.69
970.871	2050.2
974.219	2132.1
977.565	1563.81
980.91	1337.13
984.253	1066.27
987.595	739.188
990.936	778.682
994.275	1058.25
997.613	1296.26
1000.95	1016.57
1004.28	1083.31
1007.62	786.893
1010.95	749.994
1014.28	1004.57
1017.61	1547.14
1020.94	2438.38
1024.26	3330.85
1027.59	3462.95
1030.91	2385.29
1034.23	1501.6
1037.56	850.051
1040.88	607.109
1044.19	432.236
1047.51	429.295
1050.83	359.805
1054.14	285.266
1057.45	106.201
1060.76	356.316
1064.07	147.789
1067.38	226.141
1070.69	23.1738
1073.99	46.2324
1077.3	249.967
1080.6	43.7969
1083.9	109.361
1087.2	65.5273
1090.5	90.2773
1093.79	93.6484
1097.09	101.668
1100.38	105.568
1103.68	125.293
1106.97	82.3047
1110.26	123.406
1113.55	20.8379
1116.83	141.117
1120.12	234.551
1123.4	218.084
1126.68	170.723
1129.97	107.584
1133.25	204.852
1136.53	78.5488
1139.8	272.938
1143.08	255.01
1146.35	198.387
1149.63	383.639
1152.9	331.69
1156.17	342.715
1159.44	328.871
1162.7	389.635
1165.97	394.801
1169.23	325.381
1172.5	338.065
1175.76	332.594
1179.02	191.953
1182.28	411.922
1185.54	148.242
1188.79	249.791
1192.05	275.139
1195.3	316.391
1198.55	351.84
1201.81	162.84
1205.05	157.531
1208.3	37.9395
1211.55	27.584
1214.79	311.027
1218.04	426.053
1221.28	37.9746
1224.52	331.572
1227.76	94.5996
1231	125.314
1234.24	236.963
1237.47	545.939
1240.7	559.51
1243.94	0
