Measurement: Raman, 514 nm, ccw, Raman Data Processed
Mineral: Pectolite
Rruff sample: R050396
Ideal chemistry: NaCa_2_Si_3_O_8_(OH)
Locality: Jeffrey Quarry, Asbestos, Quebec, Canada
Source: Marcus Origlieri
Description: Colorless to gray columnar blocky crystals
Measured chemistry: Na_1.00_Ca_2.00_Si_3.00_O_8_(OH)
Pin_id: L01067
Orientation: Laser parallel to a* (1 0 0). Fiducial mark perpendicular to laser is parallel to -b [0 -1 0]
Raman shift (cm-1)	intensity
111.503	0
115.22	48.7886
118.935	113.448
122.648	148.33
126.36	289.212
130.07	435.798
133.778	551.738
137.485	704.191
141.19	1052.89
144.894	979.028
148.596	686.154
152.296	639.536
155.995	523.737
159.692	373.636
163.388	280.854
167.082	201.334
170.775	109.001
174.465	219.752
178.155	308.648
181.842	341.488
185.528	296.764
189.213	290.152
192.896	238.681
196.577	454.515
200.256	694.722
203.934	572.321
207.611	471.394
211.286	397.103
214.959	546.795
218.631	727.982
222.301	713.764
225.969	408.173
229.636	291.899
233.302	188.996
236.965	62.3633
240.628	69.9287
244.288	126.684
247.947	150.629
251.604	136.783
255.26	153.107
258.915	310.935
262.567	324.378
266.218	227.966
269.868	167.87
273.516	159.652
277.162	61.6055
280.807	73.2148
284.45	79.7803
288.092	97.2207
291.732	53.1621
295.37	116.944
299.007	141.283
302.642	9.4375
306.276	170.073
309.908	139.798
313.539	184.845
317.168	199.269
320.795	190.69
324.421	272.382
328.046	146.931
331.668	249.643
335.289	3.58789
338.909	169.498
342.527	94.8828
346.144	33.8652
349.759	181.117
353.372	213.814
356.984	161.029
360.594	238.258
364.203	108.71
367.81	263.15
371.415	413.573
375.019	124.14
378.622	367.719
382.223	162.962
385.822	180.536
389.42	189.319
393.016	116.831
396.611	164.334
400.204	278.086
403.795	287.416
407.386	566.17
410.974	868.994
414.561	797.906
418.146	565.163
421.73	322.977
425.312	76.3252
428.893	158.017
432.472	129.106
436.05	57.085
439.626	74.085
443.201	32.7959
446.774	27.8672
450.345	127.051
453.915	79.4238
457.483	109.234
461.05	207.586
464.615	77.6621
468.179	15.1484
471.741	116.088
475.302	26.4619
478.861	33.6074
482.419	23.8564
485.975	70.7627
489.529	84.9336
493.082	73.8379
496.634	129.506
500.184	178.952
503.732	143.188
507.279	130.537
510.825	203.006
514.368	243.571
517.911	144.882
521.451	26.9541
524.991	21.8008
528.528	118.415
532.065	184.76
535.599	10.7627
539.132	6.17578
542.664	13.8799
546.194	14.085
549.723	84.4394
553.25	172.667
556.775	145.756
560.299	135.037
563.822	234.101
567.343	182.28
570.862	58.4844
574.38	63.5742
577.896	74.2949
581.411	9.15332
584.925	25.4814
588.437	117.265
591.947	76.3066
595.456	303.466
598.963	99.4522
602.469	169.483
605.973	222.352
609.476	207.814
612.977	325.277
616.477	330.957
619.975	56.376
623.472	143.997
626.967	419.913
630.461	448.352
633.953	668.514
637.444	990.437
640.933	1668.46
644.421	2600.77
647.907	4299.23
651.392	5733.15
654.875	4522.03
658.357	2246.02
661.837	1100.71
665.316	754.981
668.793	571.504
672.269	217.914
675.743	367.16
679.216	348.164
682.687	547.586
686.157	344.861
689.625	420.998
693.092	313.277
696.557	170.838
700.021	323.977
703.483	81.5801
706.944	147.246
710.403	130.738
713.861	117.096
717.318	68.6426
720.773	184.156
724.226	125.525
727.678	179.107
731.128	207.26
734.577	164.633
738.025	94.4316
741.47	202.213
744.915	210.756
748.358	195.025
751.799	10.7656
755.239	159.981
758.678	35.8613
762.115	295.035
765.551	169.238
768.985	252.514
772.417	50.6992
775.848	88.9238
779.278	203.356
782.706	80.8848
786.133	68.709
789.558	263.44
792.982	244.176
796.404	144.109
799.825	167.445
803.245	115.35
806.663	264.359
810.079	192.713
813.494	141.06
816.907	223.172
820.319	192.719
823.73	115.762
827.139	18.4688
830.547	286.621
833.953	13.8008
837.358	141.406
840.761	275.191
844.163	314.828
847.563	403.144
850.962	139.67
854.359	328.42
857.755	113.752
861.15	134.812
864.543	247.494
867.934	141.049
871.324	169.121
874.713	3.70312
878.1	299.902
881.486	99.2305
884.87	200.045
888.253	103.647
891.634	69.416
895.014	26.8164
898.393	43.8574
901.77	184.68
905.145	228.981
908.519	181.869
911.892	12.9297
915.263	96.6445
918.633	13.8047
922.001	128.869
925.368	35.5332
928.734	165.557
932.098	255.603
935.46	68.1426
938.821	261.592
942.181	114.184
945.539	14.5391
948.896	213.953
952.251	415.539
955.605	167.326
958.958	141.617
962.309	458.742
965.658	765.207
969.006	735.982
972.353	921.982
975.698	817.715
979.042	544.641
982.385	432.277
985.726	355.977
989.065	268.656
992.403	434.012
995.74	579.508
999.075	490.83
1002.41	489.852
1005.74	293.904
1009.07	580.354
1012.4	238.373
1015.73	548.451
1019.06	787.107
1022.38	1164.17
1025.71	1474.5
1029.03	1077.6
1032.35	707.439
1035.67	314.291
1038.99	380.352
1042.3	101.648
1045.62	249.684
1048.93	55.5215
1052.24	250.783
1055.56	337.482
1058.87	29.5449
1062.17	29.748
1065.48	257.182
1068.79	168.059
1072.09	118.213
1075.39	263.348
1078.69	186.818
1081.99	160.379
1085.29	36.127
1088.59	126.033
1091.88	40.3965
