Measurement: Raman, 514 nm, ccw, Raman Data Processed
Mineral: Pectolite
Rruff sample: R060101
Ideal chemistry: NaCa_2_Si_3_O_8_(OH)
Locality: West Patterson, New Jersey, USA
Source: University of Arizona Mineral Museum
Description: Tufts of white acicular sprays
Measured chemistry: Na_1.02_Ca_2.00_Si_2.99_O_8_(OH)
Pin_id: M00258
Orientation: Laser parallel to c* (0 0 1). Fiducial mark perpendicular to laser is parallel to a [1 0 0]
Raman shift (cm-1)	intensity
122.648	0
126.36	41.0161
130.07	106.589
133.778	111.688
137.485	204.192
141.19	304.952
144.894	223.396
148.596	144.969
152.296	99.1079
155.995	74.8522
159.692	46.934
163.388	16.6556
167.082	69.326
170.775	28.1047
174.465	4.24231
178.155	39.7017
181.842	50.234
185.528	41.8672
189.213	51.1757
192.896	58.1777
196.577	86.8311
200.256	143.122
203.934	119.027
207.611	99.3076
211.286	66.4723
214.959	90.0035
218.631	130.623
222.301	67.0109
225.969	122.505
229.636	56.1074
233.302	9.59094
236.965	35.6173
240.628	19.8706
244.288	71.2344
247.947	56.3683
251.604	20.99
255.26	23.6887
258.915	63.6967
262.567	65.5453
266.218	2.40381
269.868	39.4673
273.516	44.042
277.162	44.6172
280.807	47.5429
284.45	67.0359
288.092	5.97876
291.732	22.424
295.37	32.9
299.007	64.7944
302.642	34.106
306.276	60.919
309.908	33.2295
313.539	79.1184
317.168	81.0903
320.795	84.9106
324.421	76.8657
328.046	111.206
331.668	70.6367
335.289	25.7141
338.909	72.6831
342.527	39.5178
346.144	54.7725
349.759	78.6628
353.372	79.5312
356.984	134.705
360.594	96.7363
364.203	77.0693
367.81	100.5
371.415	90.907
375.019	119.004
378.622	94.6372
382.223	102.703
385.822	83.3584
389.42	54.8611
393.016	58.2568
396.611	66.0183
400.204	40.2434
403.795	99.1897
407.386	97.4377
410.974	161.531
414.561	147.33
418.146	120.636
421.73	86.8897
425.312	129.781
428.893	56.8281
432.472	88.9199
436.05	44.1763
439.626	84.8445
443.201	29.4802
446.774	73.4163
450.345	38.6423
453.915	95.0386
457.483	59.5701
461.05	43.0967
464.615	44.9773
468.179	55.3511
471.741	92.3962
475.302	24.9121
478.861	15.384
482.419	15.3367
485.975	48.4565
489.529	98.8562
493.082	21.3828
496.634	108.337
500.184	31.8789
503.732	3.59058
507.279	78.4172
510.825	34.8367
514.368	87.76
517.911	22.3828
521.451	34.4639
524.991	5.77612
528.528	55.0144
532.065	61.2722
535.599	115.463
539.132	56.041
542.664	19.3472
546.194	17.6919
549.723	23.3345
553.25	3.30957
556.775	78.1196
560.299	26.6167
563.822	87.2451
567.343	20.8267
570.862	70.8164
574.38	106.362
577.896	74.7695
581.411	31.4375
584.925	41.6221
588.437	8.10352
591.947	28.0156
595.456	37.6636
598.963	12.2969
602.469	8.73779
605.973	9.84424
609.476	36.4697
612.977	64.146
616.477	23.7109
619.975	115.472
623.472	152.847
626.967	129.001
630.461	131.278
633.953	253.964
637.444	219.346
640.933	395.644
644.421	505.506
647.907	736.436
651.392	917.089
654.875	682.052
658.357	378.457
661.837	251.311
665.316	119.487
668.793	73.5508
672.269	68.5732
675.743	87.0606
679.216	119.085
682.687	58.8262
686.157	74.0112
689.625	103.925
693.092	143.863
696.557	91.4258
700.021	12.5977
703.483	111.968
706.944	13.2861
710.403	127.735
713.861	32.8574
717.318	78.9834
720.773	168.024
724.226	7.34619
727.678	59.064
731.128	105.135
734.577	9.52002
738.025	0.068848
741.47	23.8628
744.915	39.1401
748.358	90.624
751.799	31.8989
755.239	15.374
758.678	65.0625
762.115	26.7939
765.551	30.7134
768.985	74.9434
772.417	135.006
775.848	31.4326
779.278	20.624
782.706	90.2207
786.133	36.8242
789.558	197.926
792.982	88.8535
796.404	159.683
799.825	142.299
803.245	152.078
806.663	234.987
810.079	36.7227
813.494	103.267
816.907	110.189
820.319	132.464
823.73	80.0078
827.139	114.537
830.547	254.034
833.953	91.5078
837.358	129.77
840.761	93.4228
844.163	158.634
847.563	126.115
850.962	135.152
854.359	119.859
857.755	130.852
861.15	159.967
864.543	249.549
867.934	145.691
871.324	222.523
874.713	125.726
878.1	222.601
881.486	56.582
884.87	2.11719
888.253	13.8115
891.634	89.9385
895.014	44.167
898.393	286.663
901.77	67.8936
905.145	14.7393
908.519	167.879
911.892	110.522
915.263	145.185
918.633	91.0059
922.001	173.752
925.368	51.6172
928.734	190.06
932.098	45.8213
935.46	237.182
938.821	70.6143
942.181	216.059
945.539	54.8603
948.896	75.3516
952.251	137.518
955.605	195.299
958.958	129.97
962.309	200.498
965.658	261.127
969.006	323.155
972.353	267.384
975.698	264.509
979.042	106.635
982.385	222.983
985.726	220.251
989.065	201.071
992.403	153.701
995.74	85.1055
999.075	224.381
1002.41	133.106
1005.74	216.359
1009.07	244.848
1012.4	225.922
1015.73	241.701
1019.06	326.731
1022.38	535.148
1025.71	480.037
1029.03	236.514
1032.35	317.935
1035.67	146.326
1038.99	176.66
1042.3	358.873
1045.62	81.6465
1048.93	11.2715
1052.24	70.6133
1055.56	10.6191
1058.87	99.0508
1062.17	59.2637
1065.48	117.918
1068.79	62.7734
1072.09	42.0723
1075.39	154.918
1078.69	151.897
1081.99	71.0449
1085.29	36.3691
1088.59	205.562
1091.88	113.189
1095.18	246.76
1098.47	31.6777
1101.76	62.8379
1105.05	179.58
1108.34	74.4922
1111.63	38.3945
1114.91	358.773
1118.2	141.533
1121.48	307.502
1124.76	63.4785
1128.04	156.086
1131.32	219.363
1134.6	331.549
1137.87	229.309
1141.15	169.373
1144.42	271.234
1147.69	370.537
1150.96	206.129
1154.23	253.238
1157.5	239.615
1160.76	436.019
1164.03	391.135
1167.29	650.816
1170.55	289.324
1173.81	262.217
1177.07	273.106
1180.33	487.658
1183.58	304.992
1186.84	313.338
1190.09	141.195
1193.34	75.4707
1196.6	202.049
1199.84	268.734
1203.09	419.107
1206.34	281.883
1209.58	278.363
1212.83	311
1216.07	257.67
1219.31	215.961
1222.55	4.91992
1225.79	116.496
1229.02	241.969
1232.26	0
