Measurement: Raman, 514 nm, ccw, Raman Data Processed
Mineral: Pectolite
Rruff sample: R060101
Ideal chemistry: NaCa_2_Si_3_O_8_(OH)
Locality: West Patterson, New Jersey, USA
Source: University of Arizona Mineral Museum
Description: Tufts of white acicular sprays
Measured chemistry: Na_1.02_Ca_2.00_Si_2.99_O_8_(OH)
Pin_id: L01384
Orientation: Laser parallel to (-1 -1 0). Fiducial mark perpendicular to laser is parallel to c [0 0 1]
Raman shift (cm-1)	intensity
112.742	0
116.458	26.809
120.173	2.29248
123.885	46.043
127.596	50.8079
131.306	86.5944
135.014	72.1597
138.72	92.0942
142.425	166.964
146.128	132.152
149.83	124.754
153.53	107.072
157.228	113.057
160.925	59.74
164.62	41.9336
168.313	35.7264
172.005	45.0817
175.695	57.8123
179.384	61.598
183.071	97.2451
186.757	136.029
190.44	97.95
194.123	120.274
197.803	145.452
201.483	160.198
205.16	122.319
208.836	91.2861
212.51	78.0642
216.183	126.754
219.854	115.132
223.524	83.1609
227.192	61.6357
230.858	75.9226
234.523	23.0127
238.186	14.9081
241.848	19.9242
245.508	27.7205
249.166	69.4401
252.823	45.9333
256.479	29.4663
260.132	33.1886
263.784	45.0883
267.435	44.6027
271.084	21.807
274.731	27.8865
278.377	38.6569
282.021	48.8923
285.664	3.23059
289.305	4.26392
292.945	25.1148
296.583	42.295
300.219	78.2602
303.854	61.6801
307.487	142.392
311.119	111.461
314.749	212.246
318.377	154.577
322.004	113.37
325.629	34.0491
329.253	49.5994
332.876	7.07959
336.496	17.4248
340.115	39.5457
343.733	100.138
347.349	94.5027
350.963	139.901
354.576	199.693
358.187	151.769
361.797	112.813
365.405	77.1367
369.012	133.957
372.617	126.129
376.22	107.335
379.822	92.5403
383.423	38.0889
387.022	9.68213
390.619	7.37842
394.215	20.4275
397.809	5.86255
401.401	105.278
404.992	117.892
408.582	209.271
412.17	223.906
415.756	243.19
419.341	140.821
422.924	122.594
426.506	97.1548
430.086	50.6362
433.665	17.2686
437.242	4.55762
440.818	33.9199
444.392	45.793
447.964	11.2029
451.535	84.0842
455.105	87.9617
458.672	8.35718
462.239	33.9805
465.804	66.3289
469.367	80.5828
472.928	80.7473
476.489	78.2249
480.047	49.8103
483.604	53.8008
487.16	57.9387
490.714	14.2336
494.266	53.3655
497.817	75.6824
501.367	4.86279
504.915	72.0195
508.461	37.1138
512.006	88.6677
515.549	31.0002
519.091	30.3867
522.631	63.9634
526.17	59.2978
529.707	15.7668
533.243	85.0945
536.777	11.0764
540.31	35.4775
543.841	101.729
547.37	0.616211
550.898	19.083
554.425	40.5125
557.95	35.8506
561.473	37.2659
564.995	69.6209
568.516	56.1638
572.035	30.3491
575.552	24.2803
579.068	64.3599
582.583	1.77832
586.095	16.5059
589.607	106.745
593.117	83.4981
596.625	152.309
600.132	57.4766
603.637	47.3711
607.141	42.5356
610.643	120.461
614.144	86.7529
617.643	201.266
621.141	115.04
624.637	129.618
628.132	195.023
631.625	201.861
635.117	187.883
638.607	289.938
642.096	534.635
645.583	845.002
649.069	1518.4
652.553	1351.4
656.036	800.133
659.517	480.475
662.997	239.843
666.475	105.455
669.952	61.4336
673.427	98.8599
676.901	73.9351
680.373	133.286
683.844	134.233
687.313	134.403
690.781	135.241
694.247	137.848
697.712	59.1372
701.175	106.389
704.637	212.5
708.097	48.2685
711.556	35.8618
715.014	59.5698
718.469	93.8101
721.924	107.811
725.377	140.101
728.828	35.7427
732.278	29.1211
735.726	3.54541
739.173	22.4946
742.619	7.43555
746.063	101.956
749.505	7.71826
752.946	169.372
756.386	88.0762
759.824	83.1631
763.26	58.1177
766.695	87.3325
770.129	35.7378
773.561	79.0137
776.992	77.4307
780.421	12.9062
783.849	50.3716
787.275	88.2607
790.7	67.7148
794.123	9.6748
797.545	140.431
800.965	69.0889
804.384	206.393
807.802	162.764
811.217	29.5303
814.632	45.4004
818.045	125.882
821.456	82.4092
824.867	179.395
828.275	219.565
831.682	82.2871
835.088	180.307
838.492	146.7
841.895	153.849
845.296	140.943
848.696	86.46
852.094	55.3447
855.491	36.1494
858.887	59.9199
862.281	244.197
865.673	116.962
869.064	152.82
872.454	190.821
875.842	202.863
879.229	113.985
882.614	88.9941
885.998	29.5625
889.38	74.2734
892.761	89.1123
896.14	62.8594
899.518	181.166
902.895	113.115
906.27	134.959
909.644	190.757
913.016	87.3555
916.387	164.669
919.756	187.612
923.124	126.773
926.49	118.542
929.855	8.26562
933.219	64.3877
936.581	128.878
939.941	14.0889
943.301	2.64844
946.658	89.2969
950.015	15.1309
953.369	48.9336
956.723	200.402
960.075	143.581
963.425	250.345
966.774	213.06
970.122	230.845
973.468	220.811
976.813	76.7353
980.156	253.655
983.498	165.591
986.839	222.82
990.178	343.571
993.516	274.197
996.852	214.064
1000.19	205.273
1003.52	152.74
1006.85	134.606
1010.18	82.5098
1013.51	200.295
1016.84	212.902
1020.16	304.742
1023.49	493.088
1026.81	459.539
1030.13	215.107
1033.46	241.893
1036.78	211.609
1040.09	331.373
1043.41	363.184
1046.72	378.295
1050.04	49.7051
1053.35	102.998
1056.66	32.3516
1059.97	106.406
1063.28	101.894
1066.58	139.93
1069.89	105.365
1073.19	213.625
1076.49	139.205
1079.79	222.018
1083.09	164.44
1086.39	170.904
1089.69	130.148
1092.98	286.023
1096.28	74.8125
1099.57	264.523
