Measurement: Raman, 514 nm, ccw, Raman Data Processed
Mineral: Pectolite
Rruff sample: R060101
Ideal chemistry: NaCa_2_Si_3_O_8_(OH)
Locality: West Patterson, New Jersey, USA
Source: University of Arizona Mineral Museum
Description: Tufts of white acicular sprays
Measured chemistry: Na_1.02_Ca_2.00_Si_2.99_O_8_(OH)
Pin_id: L00594
Orientation: Laser parallel to (1 0 1). Fiducial mark perpendicular to laser is parallel to b [0 1 0]
Raman shift (cm-1)	intensity
121.41	0
125.123	13.9698
128.833	34.702
132.542	40.4545
136.25	67.788
139.955	111.986
143.66	106.178
147.362	107.739
151.063	101.536
154.762	110.413
158.46	90.5404
162.156	56.1278
165.851	67.7657
169.544	45.6668
173.235	33.6263
176.925	54.9258
180.613	45.5369
184.3	133.536
187.985	117.552
191.668	59.6812
195.35	61.6051
199.03	7.70252
202.709	93.6906
206.386	62.5395
210.061	3.59985
213.735	73.6493
217.407	50.0721
221.078	88.1084
224.747	77.2548
228.414	86.9154
232.08	20.2336
235.744	25.9636
239.407	45.3887
243.068	16.5874
246.728	32.9509
250.386	9.90479
254.042	56.55
257.697	72.7737
261.35	52.1265
265.001	36.8281
268.651	170.081
272.3	154.348
275.947	203.627
279.592	78.4141
283.236	47.4585
286.878	13.6616
290.518	1.37183
294.157	80.3154
297.795	105.693
301.431	105.698
305.065	52.0188
308.698	80.7234
312.329	108.83
315.958	114.983
319.586	158.102
323.213	179.141
326.838	144.498
330.461	96.2583
334.083	69.5269
337.703	52.6074
341.321	33.0288
344.938	71.1873
348.554	27.1997
352.168	43.5478
355.78	20.7044
359.391	92.947
363	13.3276
366.608	83.9836
370.214	19.4592
373.818	14.6357
377.421	54.8328
381.023	18.7427
384.622	59.1819
388.221	10.1409
391.818	11.2495
395.413	47.2192
399.006	2.87744
402.598	42.6067
406.189	35.2617
409.778	56.283
413.365	36.2432
416.951	95.8298
420.536	77.2815
424.118	75.7944
427.7	54.1943
431.279	55.2315
434.858	34.6138
438.434	6.89893
442.009	69.3928
445.583	41.2256
449.155	45.8274
452.725	58.1047
456.294	47.8899
459.861	8.79102
463.427	64.8213
466.991	191.775
470.554	82.9956
474.115	186.018
477.675	115.197
481.233	98.5132
484.79	116.424
488.345	100.884
491.898	103.723
495.45	186.613
499.001	170.859
502.55	41.8813
506.097	79.2676
509.643	140.99
513.187	85.7212
516.73	142.279
520.271	214.306
523.811	91.376
527.349	117.553
530.886	89.3203
534.421	69.4253
537.955	44.6172
541.487	38.5532
545.017	18.5689
548.547	136.964
552.074	114.141
555.6	129.869
559.125	107.14
562.648	77.3227
566.169	33.1235
569.689	117.573
573.207	36.498
576.724	111.353
580.24	49.77
583.754	49.7856
587.266	75.438
590.777	44.6133
594.286	10.8579
597.794	80.2568
601.3	4.44824
604.805	123.822
608.309	67.0698
611.81	91.3325
615.311	79.4609
618.809	83.6577
622.307	134.856
625.802	62.6357
629.297	119.787
632.789	151.567
636.281	39.9326
639.77	195.845
643.259	276.512
646.745	519.276
650.231	633.977
653.714	666.955
657.197	384.158
660.677	168.472
664.157	157.045
667.634	244.777
671.111	25.0513
674.585	27.231
678.059	107.284
681.53	9.64844
685.001	115.632
688.469	185.502
691.937	171.279
695.402	157.577
698.867	52.8516
702.329	113.739
705.791	25.0479
709.251	118.655
712.709	41.3916
716.166	133.894
719.621	93.9961
723.075	66.2959
726.527	77.5283
729.978	83.709
733.428	192.105
736.876	4.29688
740.322	31.7959
743.767	151.14
747.21	75.3975
750.652	213.939
754.093	36.456
757.532	78.9287
760.969	106.201
764.406	146.431
767.84	25.6152
771.273	55.417
774.705	140.395
778.135	2.64453
781.564	32.3447
784.991	4.63574
788.417	166.225
791.841	102.845
795.264	133.032
798.685	184.391
802.105	119.282
805.523	79.6846
808.94	189.047
812.356	232.81
815.77	117.678
819.182	141.568
822.593	188.117
826.003	165.392
829.411	72.6191
832.818	175.898
836.223	71.5918
839.627	133.44
843.029	90.6348
846.43	143.699
849.829	74.6328
853.227	73.8496
856.623	196.224
860.018	117.042
863.412	83.8203
866.804	128.276
870.194	171.951
873.583	226.185
876.971	78.6758
880.357	85.6973
883.742	170.089
887.125	196.217
890.507	6.36035
893.888	46.4844
897.267	116.062
900.644	168.617
904.02	61.3184
907.395	3.56738
910.768	97.4844
914.14	202.496
917.51	191.789
920.879	175.797
924.246	13.3633
927.612	190.133
930.976	96.8281
934.339	21.8086
937.701	33.8242
941.061	22.8789
944.42	178.613
947.777	104.17
951.133	159.205
954.487	273.627
957.84	305.199
961.192	224.805
964.542	258.738
967.89	341.352
971.238	386.041
974.583	384.1
977.928	359.049
981.271	254.273
984.612	200.19
987.952	276.457
991.291	352.935
994.628	200.945
997.964	290.434
1001.3	194.539
1004.63	269.062
1007.96	316.453
1011.29	125.256
1014.62	156.295
1017.95	201.598
1021.27	220.727
1024.6	220.018
1027.92	226.772
1031.24	87.1231
1034.56	168.926
1037.88	193.885
1041.2	236.492
1044.51	76.3203
1047.83	146.478
1051.14	265.971
1054.45	239.408
1057.76	85.3574
1061.07	348.449
1064.38	237.023
1067.68	119.85
1070.99	4.64453
1074.29	185.647
1077.59	241.705
1080.89	78.3828
1084.19	220.473
1087.49	189.834
1090.79	338.756
1094.08	100.598
1097.37	237.99
1100.66	157.799
1103.95	235.918
1107.24	104.633
1110.53	205.834
