Measurement: Raman, 514 nm, ccw, Raman Data Processed
Mineral: Pharmacosiderite
Rruff sample: R050574
Ideal chemistry: KFe^3+^_4_(As^5+^O_4_)_3_(OH)_4_6-7H_2_O
Locality: Cornwall, England
Source: University of Arizona Mineral Museum
Description: Druse of bluish-green cubes
Measured chemistry: K_1.27_(Fe^3+^_3.73_Fe^2+^_0.27_)_Σ=4_(As_1.00_O_4_)_3_(OH)_4_·6H_2_O
Pin_id: M00719
Orientation: Laser parallel to a* (1 0 0). Fiducial mark perpendicular to laser is parallel to c [0 0 1]
Raman shift (cm-1)	intensity
210.378	0
215.29	71.0147
220.198	17.6865
225.104	334.01
230.006	516.161
234.905	942.44
239.801	1337.8
244.694	1464.68
249.584	1218.37
254.471	1530.38
259.355	2001.88
264.236	2075.8
269.114	2112.42
273.988	1740.26
278.86	1719.76
283.729	1727.52
288.594	1416.56
293.457	906.769
298.316	762.812
303.173	714.598
308.026	493.983
312.876	215.892
317.724	59.1777
322.568	63.2471
327.409	28.3838
332.248	61.7764
337.083	57.2236
341.915	34.7754
346.745	9.64355
351.571	27.8076
356.394	17.9824
361.215	157.353
366.032	106.085
370.846	145.032
375.658	377.983
380.466	592.79
385.272	779.441
390.074	1036.75
394.874	874.807
399.67	872.829
404.464	590.866
409.255	660.938
414.043	460.539
418.827	680.44
423.609	566.331
428.388	891.801
433.164	972.674
437.937	1361.82
442.707	1747.19
447.475	2333.31
452.239	3250.38
457	4576.17
461.759	6986.64
466.514	11890.6
471.267	21843.8
476.017	34639.6
480.764	31827.6
485.508	18951.9
490.249	11160.9
494.987	7401.97
499.722	5363.84
504.455	4050.9
509.184	2936.29
513.911	2309.94
518.635	1878.61
523.356	1457.63
528.074	1083.02
532.789	907.745
537.501	665.424
542.211	661.258
546.918	406.746
551.621	307.381
556.323	326.516
561.021	399.44
565.716	337.857
570.409	272.983
575.098	345.692
579.785	296.525
584.469	332.131
589.15	402.497
593.829	375.546
598.504	306.272
603.177	428.789
607.847	200.237
612.514	359.812
617.179	317.496
621.84	781.025
626.499	942.489
631.155	527.918
635.809	353.167
640.459	403.222
645.107	547.044
649.752	677.596
654.394	553.87
659.033	155.856
663.67	11.5508
668.304	20.8906
672.935	95.1182
677.563	117.835
682.189	22.6982
686.812	54.5498
691.432	75.3848
696.049	126.728
700.664	109.399
705.276	51.8516
709.885	21.4707
714.492	29.5742
719.096	175.199
723.697	364.483
728.295	134.466
732.891	316.161
737.484	342.578
742.074	233.722
746.661	413.598
751.246	494.209
755.828	497.551
760.408	778.636
764.984	994.469
769.559	1351.05
774.13	2028.39
778.699	2862.49
783.265	4736.36
787.828	6756.01
792.389	7396.44
796.947	6076.57
801.502	4355.55
806.055	3024.97
810.605	2248.03
815.152	1665.81
819.697	1565.69
824.239	1287.21
828.779	1414.67
833.315	1277.02
837.85	1278.25
842.381	1362.55
846.91	1468.85
851.436	2016.93
855.96	2594.46
860.481	3499.28
865	3713.11
869.515	3971.38
874.029	4832.62
878.539	6150.25
883.047	6730.87
887.553	5691.62
892.055	3879.64
896.556	2508.06
901.053	1621.75
905.548	1111.61
910.041	706.618
914.53	554.773
919.018	389.074
923.502	28.5215
927.985	180.151
932.464	173.012
936.941	42.042
941.416	107.252
945.887	20.3027
950.357	28.4902
954.824	165.662
959.288	174.184
963.749	14.7012
968.208	25.1436
972.665	121.666
977.119	4.33984
981.571	62.9736
986.02	127.597
990.466	174.43
994.91	313.448
999.351	495.014
1003.79	581.291
1008.23	417.856
1012.66	161.882
1017.09	518.229
1021.52	652.856
1025.95	503.899
1030.37	517.814
1034.79	419.875
1039.21	334.712
1043.63	252.6
1048.04	230.004
1052.45	215.295
1056.86	94.2637
1061.27	212.769
1065.67	209.717
1070.07	212.04
1074.47	153.884
1078.87	404.37
1083.26	473.874
1087.65	344.931
1092.04	198.216
1096.43	116.471
1100.81	179.857
1105.19	252.9
1109.57	326.418
1113.95	204.277
1118.33	133.171
1122.7	108.889
1127.07	11.4766
1131.43	3.97754
1135.8	168.374
1140.16	16.3877
1144.52	26.0352
1148.88	8.53809
1153.23	26.2324
1157.59	290.407
1161.94	33.9414
1166.28	21.3379
1170.63	23.416
1174.97	57.335
1179.31	70.1172
1183.65	174.761
1187.99	30.2695
1192.32	46.5352
1196.65	15.5664
1200.98	96.4375
1205.3	29.8311
1209.63	23.5879
1213.95	159.765
1218.27	196.708
1222.59	75.4766
1226.9	88.9853
1231.21	58.6279
1235.52	202.842
1239.83	184.927
1244.13	227.881
1248.43	304.715
1252.73	402.422
1257.03	321.702
1261.33	441.282
1265.62	398.83
1269.91	587.682
1274.2	482.036
1278.49	370.152
1282.77	245.801
1287.05	564.596
1291.33	526.421
1295.61	512.575
1299.88	588.916
1304.15	632.45
1308.42	633.633
1312.69	624.203
1316.96	542.273
1321.22	534.138
1325.48	510.884
1329.74	408.978
1333.99	265.666
1338.25	272.91
1342.5	226.007
1346.75	347.337
1350.99	242.455
1355.24	133.355
1359.48	255.052
1363.72	80.3887
1367.96	278.638
1372.19	242.185
1376.43	251.506
1380.66	191.269
1384.88	226.013
1389.11	246.666
1393.34	202.092
1397.56	275.801
1401.78	241.644
1405.99	125.623
1410.21	65.3066
1414.42	211.699
1418.63	136.6
1422.84	50.5723
1427.05	198.635
1431.25	293.629
1435.45	604.818
1439.65	845.133
1443.85	990.434
1448.04	1240.93
1452.23	1238.77
1456.42	1281.15
1460.61	924.867
1464.8	851.479
1468.98	605.639
1473.16	426.008
1477.34	376.322
1481.52	257.731
1485.69	292.377
1489.87	79.6602
1494.04	9.10742
1498.21	60.7949
1502.37	88.7168
1506.54	48.0059
1510.7	20.584
1514.86	59.4414
1519.02	231.529
1523.17	385.848
1527.32	435.148
1531.47	254.856
1535.62	197.127
1539.77	166.766
1543.91	302.891
1548.06	178.129
1552.19	62.8984
1556.33	5.86328
1560.47	12.6719
