Measurement: Raman, 514 nm, ccw, Raman Data Processed
Mineral: Pharmacosiderite
Rruff sample: R050574
Ideal chemistry: KFe^3+^_4_(As^5+^O_4_)_3_(OH)_4_6-7H_2_O
Locality: Cornwall, England
Source: University of Arizona Mineral Museum
Description: Druse of bluish-green cubes
Measured chemistry: K_1.27_(Fe^3+^_3.73_Fe^2+^_0.27_)_Σ=4_(As_1.00_O_4_)_3_(OH)_4_·6H_2_O
Pin_id: M00886
Orientation: Laser parallel to c* (0 0 1). Fiducial mark perpendicular to laser is parallel to -a [-1 0 0]
Raman shift (cm-1)	intensity
164.798	0
169.739	130.782
174.676	10.3579
179.61	58.8992
184.541	135.031
189.469	201.407
194.394	141.812
199.316	144.999
204.234	143.104
209.15	321.988
214.062	665.679
218.971	1475.21
223.877	3137.28
228.781	5516.45
233.681	7321.09
238.577	7657.43
243.471	6018.99
248.362	4176.24
253.25	2950.23
258.134	2341.17
263.016	1864.87
267.894	1702.88
272.77	1776.22
277.642	2357.93
282.512	2635.98
287.378	2571.24
292.241	2268.66
297.101	2273.21
301.959	2388.85
306.813	2053.54
311.664	1393.27
316.512	706.602
321.357	360.841
326.199	54.479
331.038	128.55
335.874	162.685
340.708	54.2583
345.538	58.177
350.365	114.695
355.189	217.464
360.01	517.073
364.828	1090.56
369.643	1748.03
374.455	2668.49
379.265	3640.57
384.071	4346.37
388.874	4401.78
393.674	4054
398.472	3388.72
403.266	2803.51
408.057	2397.03
412.846	2202.14
417.631	1981.79
422.414	2072.96
427.194	2149.61
431.97	2372.7
436.744	2570.23
441.515	3220.16
446.283	3957.46
451.048	5241.11
455.81	7549.08
460.569	12163.5
465.326	21587.2
470.079	36729.5
474.83	46586
479.577	43087.1
484.322	30193
489.064	18678.8
493.803	12155.2
498.539	8352.05
503.272	6200.81
508.002	4969.44
512.729	4086.77
517.454	3314.59
522.176	2755.11
526.895	2379.32
531.61	2127.35
536.324	1880.62
541.034	1734.64
545.741	1579.37
550.446	1317.81
555.148	1155.84
559.846	1147.66
564.542	922.281
569.236	784.684
573.926	766.852
578.614	628.77
583.298	657.423
587.98	584.796
592.659	499.876
597.336	503.649
602.009	408.103
606.68	335.223
611.348	255.996
616.013	166.527
620.675	132.127
625.335	55.8018
629.992	33.2734
634.646	2.71802
639.297	7.51856
643.945	30.3232
648.591	75.2971
653.234	66.5977
657.874	57.1938
662.511	25.8484
667.146	78.3682
671.777	63.9609
676.407	19.7351
681.033	9.55566
685.656	9.03931
690.277	63.6685
694.895	113.941
699.511	60.8076
704.123	179.28
708.733	99.3672
713.34	240.078
717.945	281.425
722.547	269.418
727.146	282.068
731.742	305.388
736.336	261.393
740.926	259.094
745.515	292.509
750.1	309.651
754.683	292.538
759.263	260.179
763.841	314.197
768.415	356.53
772.987	441.898
777.557	517.501
782.123	711.108
786.687	808.55
791.249	841.765
795.807	731.249
800.363	704.435
804.917	604.644
809.468	652.945
814.016	698.987
818.561	784.427
823.104	981.263
827.644	1159.11
832.181	1464.91
836.716	1958.04
841.248	2708.48
845.778	3702.26
850.305	4829.38
854.829	6072.87
859.351	7256.74
863.87	8112.01
868.387	9141.71
872.9	9896.88
877.412	10373.5
881.92	9145.73
886.426	6772.44
890.93	4366.73
895.431	2569.69
899.929	1390.31
904.425	784.589
908.918	413.552
913.408	257.428
917.896	138.268
922.382	22.1519
926.864	20.8428
931.345	47.7593
935.822	6.4043
940.297	36.7092
944.77	124.102
949.24	146.458
953.707	228.683
958.172	252.718
962.634	331.443
967.094	398.745
971.551	522.613
976.006	553.048
980.458	594.023
984.908	785.531
989.355	841.564
993.799	867.102
998.241	946.16
1002.68	1005.18
1007.12	952.173
1011.55	922.022
1015.98	957.189
1020.41	953.402
1024.84	902.587
1029.27	920.099
1033.69	879.45
1038.11	835.797
1042.52	826.723
1046.94	748.133
1051.35	627.249
1055.76	566.436
1060.17	457.351
1064.57	434.997
1068.97	377.675
1073.37	320.486
1077.77	306.265
1082.16	243.641
1086.56	232.202
1090.95	181.609
1095.33	168.52
1099.72	129.089
1104.1	128.114
1108.48	93.6173
1112.86	51.8395
1117.23	29.246
1121.61	91.8055
1125.97	24.0476
1130.34	25.2192
1134.71	14.108
1139.07	33.7029
1143.43	9.94312
1147.79	11.0994
1152.14	23.7672
1156.5	40.852
1160.85	15.7102
1165.2	11.6183
1169.54	10.2814
1173.89	9.95789
1178.23	1.02856
1182.57	6.39478
1186.9	0.743652
1191.24	19.5657
1195.57	3.14807
1199.9	21.1422
1204.22	9.50684
1208.55	90.2869
1212.87	57.5079
1217.19	39.1843
1221.51	53.3569
1225.82	124.003
1230.13	39.1672
1234.44	82.8141
1238.75	87.9565
1243.06	101.621
1247.36	109.826
1251.66	122.797
1255.96	123.834
1260.26	110.619
1264.55	146.459
1268.84	147.809
1273.13	173.849
1277.41	164.422
1281.7	167.192
1285.98	169.564
1290.26	172.274
1294.54	151.808
1298.81	147.356
1303.09	209.965
1307.36	195.424
1311.62	191.156
1315.89	162.847
1320.15	171.669
1324.41	175.664
1328.67	196.686
1332.93	196.655
1337.18	180.321
1341.43	147.802
1345.68	166.061
1349.93	188.905
1354.18	156.067
1358.42	177.005
1362.66	177.05
1366.9	198.554
1371.13	237.227
1375.37	160.191
1379.6	208.019
1383.83	168.478
1388.06	208.731
1392.28	173.12
1396.5	173.635
1400.72	204.354
1404.94	169.029
1409.15	195.961
1413.37	226.695
1417.58	205.701
1421.79	178.731
1425.99	189.841
1430.2	194.733
1434.4	203.929
1438.6	207.006
1442.8	246.766
1446.99	182.743
1451.19	164.986
1455.38	158.388
1459.57	143.879
1463.75	84.4663
1467.94	95.1727
1472.12	58.9
1476.3	93.7357
1480.48	51.7124
1484.65	69.8248
1488.83	36.0446
1493	57.3105
1497.16	34.2992
1501.33	6.25537
1505.49	66.07
1509.66	50.1202
1513.82	68.5918
1517.97	61.4774
1522.13	18.5497
1526.29	74.7555
1530.44	24.9858
1534.59	24.151
1538.73	6.80725
1542.88	49.2733
1547.02	47.4843
1551.16	16.0936
1555.3	76.5859
1559.43	30.673
