Measurement: Raman, 514 nm, ccw, Raman Data Processed
Mineral: Pharmacosiderite
Rruff sample: R050574
Ideal chemistry: KFe^3+^_4_(As^5+^O_4_)_3_(OH)_4_6-7H_2_O
Locality: Cornwall, England
Source: University of Arizona Mineral Museum
Description: Druse of bluish-green cubes
Measured chemistry: K_1.27_(Fe^3+^_3.73_Fe^2+^_0.27_)_Σ=4_(As_1.00_O_4_)_3_(OH)_4_·6H_2_O
Pin_id: M00886
Orientation: Laser parallel to c* (0 0 1). Fiducial mark perpendicular to laser is parallel to -a [-1 0 0]
Raman shift (cm-1)	intensity
164.798	0
169.739	85.4487
174.676	70.9981
179.61	431.129
184.541	1093.52
189.469	1431.58
194.394	1390.59
199.316	895.497
204.234	324.274
209.15	98.7854
214.062	124.814
218.971	444.605
223.877	1003.93
228.781	1822.73
233.681	2609.61
238.577	2904.05
243.471	2689.52
248.362	2418.46
253.25	2418.05
258.134	2499.01
263.016	2529.05
267.894	2554.98
272.77	2461.4
277.642	2741.28
282.512	2878.58
287.378	2486.1
292.241	1690.81
297.101	1293.71
301.959	1041.79
306.813	823.061
311.664	537.664
316.512	213.613
321.357	81.2524
326.199	61.4507
331.038	129.876
335.874	94.5437
340.708	112.585
345.538	16.0242
350.365	19.4929
355.189	62.863
360.01	190.024
364.828	377.099
369.643	628.12
374.455	969.201
379.265	1300.45
384.071	1577.92
388.874	1722.66
393.674	1650.16
398.472	1550.1
403.266	1405.7
408.057	1408.57
412.846	1467.02
417.631	1621.65
422.414	1831.35
427.194	2112.09
431.97	2569.88
436.744	3158.69
441.515	3967.53
446.283	5051.33
451.048	6611.22
455.81	9172.06
460.569	13587.9
465.326	22525.6
470.079	36467.5
474.83	46177.6
479.577	42747.1
484.322	30084.4
489.064	18792.1
493.803	12374
498.539	8824.43
503.272	6774.47
508.002	5171.45
512.729	4148.67
517.454	3354.14
522.176	2766.07
526.895	2429.61
531.61	2202.1
536.324	1937.56
541.034	1688.13
545.741	1518.63
550.446	1343.81
555.148	1150
559.846	977.861
564.542	846.667
569.236	731.246
573.926	682.592
578.614	572.68
583.298	554.57
587.98	492.193
592.659	432.569
597.336	416.693
602.009	343.564
606.68	281.179
611.348	213.582
616.013	191.067
620.675	158.883
625.335	100.942
629.992	91.0669
634.646	69.0531
639.297	0.723999
643.945	16.9369
648.591	5.4552
653.234	4.42029
657.874	15.0955
662.511	55.5823
667.146	68.9844
671.777	35.2975
676.407	35.3506
681.033	33.0062
685.656	18.2755
690.277	24.9668
694.895	8.19446
699.511	33.2891
704.123	53.5828
708.733	50.6956
713.34	98.6372
717.945	84.4176
722.547	64.0463
727.146	106.534
731.742	106.893
736.336	116.134
740.926	116.271
745.515	129.317
750.1	103.285
754.683	163.182
759.263	153.013
763.841	182.666
768.415	202.07
772.987	378.087
777.557	495.839
782.123	659.278
786.687	801.673
791.249	886.043
795.807	803.375
800.363	686.338
804.917	598.548
809.468	673.593
814.016	678.833
818.561	820.845
823.104	950.769
827.644	1169.8
832.181	1469.22
836.716	1887.71
841.248	2546.49
845.778	3623.57
850.305	4875.98
854.829	6239.7
859.351	7592.83
863.87	8607.21
868.387	9640.06
872.9	10620.4
877.412	11060.2
881.92	10226.5
886.426	7896.14
890.93	5405.32
895.431	3317.03
899.929	2119.24
904.425	1379.87
908.918	845.033
913.408	538.802
917.896	324.208
922.382	238.306
926.864	178.081
931.345	59.604
935.822	7.10278
940.297	59.0215
944.77	34.9168
949.24	64.5188
953.707	145.778
958.172	67.6948
962.634	117.144
967.094	180.154
971.551	167.62
976.006	261.487
980.458	318.765
984.908	288.426
989.355	418.656
993.799	422.72
998.241	437.909
1002.68	444.322
1007.12	532.537
1011.55	526.011
1015.98	533.071
1020.41	552.295
1024.84	498.496
1029.27	546.254
1033.69	536.628
1038.11	582.489
1042.52	475.002
1046.94	476.152
1051.35	371.149
1055.76	272.71
1060.17	269.888
1064.57	217.851
1068.97	173.986
1073.37	129.034
1077.77	134.608
1082.16	112.453
1086.56	61.3093
1090.95	65.2688
1095.33	68.8622
1099.72	30.6797
1104.1	5.32715
1108.48	22.0054
1112.86	24.5908
1117.23	17.8396
1121.61	17.9968
1125.97	2.64197
1130.34	19.926
1134.71	19.6499
1139.07	24.1178
1143.43	40.9492
1147.79	26.2747
1152.14	13.8646
1156.5	19.8396
1160.85	2.29456
1165.2	20.307
1169.54	27.8954
1173.89	21.7644
1178.23	17.8145
1182.57	4.93616
1186.9	29.5859
1191.24	29.7761
1195.57	11.5317
1199.9	14.8557
1204.22	25.7712
1208.55	10.294
1212.87	43.3779
1217.19	22.0266
1221.51	92.2747
1225.82	89.1427
1230.13	72.6388
1234.44	105.741
1238.75	70.5088
1243.06	67.9017
1247.36	97.9348
1251.66	104.829
1255.96	119.124
1260.26	112.865
1264.55	116.146
1268.84	114.339
1273.13	109.883
1277.41	99.9166
1281.7	108.082
1285.98	129.123
1290.26	103.071
1294.54	101.584
1298.81	102.341
1303.09	106.701
1307.36	120.225
1311.62	110.01
1315.89	104.698
1320.15	102.728
1324.41	156.182
1328.67	110.111
1332.93	124.18
1337.18	144.659
1341.43	110.162
1345.68	154.048
1349.93	150.444
1354.18	144.917
1358.42	206.839
1362.66	189.005
1366.9	175.528
1371.13	170.193
1375.37	151.269
1379.6	153.092
1383.83	159.043
1388.06	198.951
1392.28	118.791
1396.5	175.202
1400.72	165.546
1404.94	141.728
1409.15	185.11
1413.37	202.602
1417.58	190.346
1421.79	124.83
1425.99	216.088
1430.2	193.494
1434.4	215.81
1438.6	162.039
1442.8	165.368
1446.99	142.167
1451.19	98.4066
1455.38	105.153
1459.57	132.03
1463.75	90.0178
1467.94	75.1009
1472.12	36.332
1476.3	17.6449
1480.48	76.0841
1484.65	58.5817
1488.83	77.1581
1493	5.81287
1497.16	3.60278
1501.33	59.5538
1505.49	24.7216
1509.66	19.1201
1513.82	34.7548
1517.97	43.6432
1522.13	33.7017
1526.29	45.1788
1530.44	16.3369
1534.59	14.328
1538.73	27.8536
1542.88	52.486
1547.02	49.6953
1551.16	21.1108
1555.3	82.6501
1559.43	73.3862
