Measurement: Raman, 514 nm, ccw, Raman Data Processed
Mineral: Pharmacosiderite
Rruff sample: R050574
Ideal chemistry: KFe^3+^_4_(As^5+^O_4_)_3_(OH)_4_6-7H_2_O
Locality: Cornwall, England
Source: University of Arizona Mineral Museum
Description: Druse of bluish-green cubes
Measured chemistry: K_1.27_(Fe^3+^_3.73_Fe^2+^_0.27_)_Σ=4_(As_1.00_O_4_)_3_(OH)_4_·6H_2_O
Pin_id: M00719
Orientation: Laser parallel to a* (1 0 0). Fiducial mark perpendicular to laser is parallel to c [0 0 1]
Raman shift (cm-1)	intensity
200.546	0
205.463	128.137
210.378	45.2559
215.29	170.955
220.198	289.693
225.104	767.006
230.006	1516.43
234.905	2824.82
239.801	3590.28
244.694	3173.74
249.584	2249.18
254.471	1612.06
259.355	1338.48
264.236	1114.27
269.114	881.199
273.988	834.027
278.86	865.418
283.729	1051.28
288.594	1175.01
293.457	901.609
298.316	1150.95
303.173	1392.95
308.026	1066.58
312.876	823.764
317.724	345.367
322.568	39.3594
327.409	138.756
332.248	41.5449
337.083	59.6602
341.915	42.0781
346.745	80.2832
351.571	100.178
356.394	94.5371
361.215	68.6973
366.032	145.846
370.846	210.725
375.658	313.787
380.466	692.981
385.272	1532.19
390.074	1983.27
394.874	2083.12
399.67	1799.83
404.464	1479.44
409.255	999.248
414.043	1035.34
418.827	842.311
423.609	701.789
428.388	1062.4
433.164	851.463
437.937	1023.92
442.707	1223.28
447.475	1530.7
452.239	2140.86
457	2749.2
461.759	4298.71
466.514	7533.96
471.267	13848.5
476.017	22384.7
480.764	20076.5
485.508	11212.7
490.249	6294.56
494.987	3830.3
499.722	2742.63
504.455	2124.38
509.184	1648.71
513.911	1590.07
518.635	1086.42
523.356	928.92
528.074	813.152
532.789	568.686
537.501	359.297
542.211	308.318
546.918	315.158
551.621	440.394
556.323	286.238
561.021	357.725
565.716	482.096
570.409	480.098
575.098	363.947
579.785	227.256
584.469	354.109
589.15	411.967
593.829	522.119
598.504	338.565
603.177	487.74
607.847	430.922
612.514	244.379
617.179	493.117
621.84	770.535
626.499	1223.37
631.155	777.35
635.809	609.949
640.459	701.518
645.107	538.269
649.752	672.807
654.394	493.988
659.033	183.852
663.67	117.383
668.304	22.5332
672.935	46.7227
677.563	198.019
682.189	64.9863
686.812	15.0703
691.432	117.297
696.049	12.2422
700.664	58.9297
705.276	182.932
709.885	287.023
714.492	239.143
719.096	181.516
723.697	210.279
728.295	367.611
732.891	162.518
737.484	102.969
742.074	28.959
746.661	170.488
751.246	253.516
755.828	362.256
760.408	315.619
764.984	445.631
769.559	373.297
774.13	636.992
778.699	891.412
783.265	870.209
787.828	1309.49
792.389	1560.43
796.947	1326.39
801.502	1112.28
806.055	1017.72
810.605	777.268
815.152	737.189
819.697	811.291
824.239	497.285
828.779	813.625
833.315	630.953
837.85	1118.85
842.381	1172.27
846.91	1311.01
851.436	1622.11
855.96	2519.24
860.481	3320.88
865	3469.21
869.515	3458.46
874.029	3520.22
878.539	3833.73
883.047	4152.31
887.553	3396.23
892.055	2128.19
896.556	1399.3
901.053	886.947
905.548	337.42
910.041	498.106
914.53	260.787
919.018	284.525
923.502	51.2734
927.985	21.9824
932.464	105.652
936.941	44.3301
941.416	207.033
945.887	2.60938
950.357	153.518
954.824	290.609
959.288	37.8184
963.749	35.873
968.208	54.1816
972.665	118.779
977.119	372.953
981.571	196.397
986.02	292.068
990.466	222.906
994.91	465.281
999.351	519.133
1003.79	823.594
1008.23	449.504
1012.66	448.465
1017.09	618.99
1021.52	795.543
1025.95	761.481
1030.37	612.99
1034.79	569.248
1039.21	573.627
1043.63	698.908
1048.04	904.877
1052.45	408.109
1056.86	646.289
1061.27	624.242
1065.67	413.158
1070.07	320.359
1074.47	506.377
1078.87	533.205
1083.26	462.434
1087.65	553.027
1092.04	707.223
1096.43	429.184
1100.81	264.156
1105.19	380.799
1109.57	424.215
1113.95	195.023
1118.33	332.981
1122.7	276.684
1127.07	428.117
1131.43	78.293
1135.8	206.172
1140.16	219.695
1144.52	64.9219
1148.88	160.848
1153.23	149.785
1157.59	82.6562
1161.94	106.172
1166.28	316.219
1170.63	236.027
1174.97	195.074
1179.31	304.512
1183.65	209.551
1187.99	159.289
1192.32	168.758
1196.65	156.984
1200.98	249.769
1205.3	278.273
1209.63	249.652
1213.95	262.769
1218.27	274.656
1222.59	252.422
1226.9	304.098
1231.21	421.59
1235.52	543.902
1239.83	570.019
1244.13	225.453
1248.43	329.231
1252.73	259.836
1257.03	567.867
1261.33	407.789
1265.62	560.023
1269.91	450.047
1274.2	311.445
1278.49	452.379
1282.77	561.106
1287.05	344.297
1291.33	704.234
1295.61	797.238
1299.88	453.512
1304.15	700.188
1308.42	1002.09
1312.69	809.539
1316.96	659.742
1321.22	760.598
1325.48	552.004
1329.74	530.969
1333.99	507.949
1338.25	545.832
1342.5	489.367
1346.75	468.391
1350.99	234.633
1355.24	186.969
1359.48	489.402
1363.72	467.973
1367.96	61.4375
1372.19	378.766
1376.43	251.57
1380.66	210.777
1384.88	375.59
1389.11	508.168
1393.34	23.1836
1397.56	215.047
1401.78	216.051
1405.99	321.887
1410.21	205.172
1414.42	299.617
1418.63	231.863
1422.84	91.168
1427.05	428.398
1431.25	553.387
1435.45	587.637
1439.65	869.219
1443.85	1049.16
1448.04	1160.63
1452.23	1168.56
1456.42	1290.88
1460.61	1193.57
1464.8	1016.66
1468.98	628.203
1473.16	544.918
1477.34	281.762
1481.52	412.609
1485.69	247.453
1489.87	281.449
1494.04	12.2305
1498.21	24.418
1502.37	365.078
1506.54	179.332
1510.7	42.875
1514.86	185.441
1519.02	611.484
1523.17	546.207
1527.32	184.016
1531.47	342.812
1535.62	394.394
1539.77	345.852
1543.91	202.512
1548.06	424.356
1552.19	13.1914
1556.33	204.484
1560.47	156.996
