Measurement: Raman, 514 nm, ccw, Raman Data Processed
Mineral: Pharmacosiderite
Rruff sample: R050574
Ideal chemistry: KFe^3+^_4_(As^5+^O_4_)_3_(OH)_4_6-7H_2_O
Locality: Cornwall, England
Source: University of Arizona Mineral Museum
Description: Druse of bluish-green cubes
Measured chemistry: K_1.27_(Fe^3+^_3.73_Fe^2+^_0.27_)_Σ=4_(As_1.00_O_4_)_3_(OH)_4_·6H_2_O
Pin_id: M00886
Orientation: Laser parallel to c* (0 0 1). Fiducial mark perpendicular to laser is parallel to -a [-1 0 0]
Raman shift (cm-1)	intensity
166.034	0
170.973	71.0525
175.91	222.948
180.843	638.525
185.774	1059.37
190.701	1245.56
195.625	1007.5
200.546	584.537
205.463	221.801
210.378	96.9712
215.29	133.698
220.198	479.649
225.104	958.91
230.006	1604.23
234.905	2030.11
239.801	2014.91
244.694	1872.97
249.584	1892.35
254.471	2024.44
259.355	1986.17
264.236	1928.85
269.114	1789.09
273.988	1945.84
278.86	2237.06
283.729	2242.69
288.594	1814.55
293.457	1265.61
298.316	938.883
303.173	742.348
308.026	561.998
312.876	316.54
317.724	136.717
322.568	42.1747
327.409	86.7815
332.248	100.866
337.083	99.048
341.915	14.7117
346.745	14.464
351.571	69.6928
356.394	142.998
361.215	255.19
366.032	363.285
370.846	565.463
375.658	773.7
380.466	965.084
385.272	1167.7
390.074	1141.49
394.874	1155.8
399.67	1060.72
404.464	972.208
409.255	1034.85
414.043	1090.62
418.827	1275.49
423.609	1489.42
428.388	1862.41
433.164	2191.43
437.937	2684.49
442.707	3332.57
447.475	4204.66
452.239	5671.77
457	7936.87
461.759	12033
466.514	20163
471.267	31101.5
476.017	35501.2
480.764	30332.1
485.508	20908
490.249	13836.9
494.987	9599.77
499.722	6924.31
504.455	5357.51
509.184	4193.31
513.911	3353.12
518.635	2755.91
523.356	2318.38
528.074	2063.36
532.789	1771.57
537.501	1644.29
542.211	1386.28
546.918	1160.21
551.621	1094.42
556.323	904.367
561.021	789.877
565.716	715.515
570.409	563.966
575.098	485.225
579.785	477.29
584.469	415.845
589.15	383.819
593.829	372.278
598.504	308.529
603.177	253.571
607.847	197.401
612.514	181.125
617.179	108.085
621.84	92.3314
626.499	77.7606
631.155	17.8225
635.809	44.2594
640.459	23.9026
645.107	7.15418
649.752	0.904907
654.394	24.9374
659.033	0.362427
663.67	35.4535
668.304	45.3129
672.935	43.8181
677.563	8.96716
682.189	24.5909
686.812	8.60852
691.432	0.05542
696.049	8.50793
700.664	9.70862
705.276	99.7643
709.885	76.6665
714.492	78.4227
719.096	60.0408
723.697	119.529
728.295	85.8966
732.891	97.1519
737.484	94.3048
742.074	89.3651
746.661	103.343
751.246	133.247
755.828	107.083
760.408	129.83
764.984	104.312
769.559	150.169
774.13	286.579
778.699	355.005
783.265	469.369
787.828	569.237
792.389	533.779
796.947	532.453
801.502	507.721
806.055	498.928
810.605	532.644
815.152	617.965
819.697	683.822
824.239	824.755
828.779	1021.99
833.315	1323.45
837.85	1723.45
842.381	2321.68
846.91	3232.15
851.436	4326.86
855.96	5410.82
860.481	6260.81
865	7171.64
869.515	8070.49
874.029	8877.69
878.539	8834.25
883.047	7484.13
887.553	5353.38
892.055	3508.05
896.556	2267.11
901.053	1414.56
905.548	974.414
910.041	569.727
914.53	390.555
919.018	283.116
923.502	146.624
927.985	105.016
932.464	71.9867
936.941	35.5721
941.416	34.8075
945.887	33.6106
950.357	19.9934
954.824	40.869
959.288	56.182
963.749	71.894
968.208	42.953
972.665	147.376
977.119	135.109
981.571	221.145
986.02	278.716
990.466	294.454
994.91	340.317
999.351	376.842
1003.79	302.931
1008.23	375.831
1012.66	388.838
1017.09	394.288
1021.52	381.604
1025.95	425.175
1030.37	385.456
1034.79	401.29
1039.21	369.59
1043.63	339.062
1048.04	282.641
1052.45	341.883
1056.86	249.192
1061.27	157.246
1065.67	147.453
1070.07	96.6464
1074.47	69.4883
1078.87	77.0337
1083.26	53.8484
1087.65	38.6105
1092.04	80.9925
1096.43	22.4733
1100.81	11.3843
1105.19	33.973
1109.57	29.5712
1113.95	27.7714
1118.33	6.73486
1122.7	2.55579
1127.07	10.3813
1131.43	12.3348
1135.8	4.06421
1140.16	11.7037
1144.52	10.6403
1148.88	27.2033
1153.23	22.0605
1157.59	7.32837
1161.94	7.96863
1166.28	3.0365
1170.63	4.46289
1174.97	9.03662
1179.31	10.997
1183.65	16.661
1187.99	2.9624
1192.32	14.7274
1196.65	69.4554
1200.98	20.7001
1205.3	34.6062
1209.63	0.799438
1213.95	1.44897
1218.27	52.2981
1222.59	52.9337
1226.9	43.2217
1231.21	25.1987
1235.52	57.8374
1239.83	79.196
1244.13	54.2698
1248.43	67.8156
1252.73	65.1998
1257.03	100.104
1261.33	79.1067
1265.62	107.158
1269.91	106.734
1274.2	118.549
1278.49	109.264
1282.77	86.2181
1287.05	130.501
1291.33	102.082
1295.61	77.7976
1299.88	83.863
1304.15	144.933
1308.42	106.163
1312.69	108.796
1316.96	113.439
1321.22	141.42
1325.48	83.3578
1329.74	146.886
1333.99	114.567
1338.25	131.652
1342.5	124.819
1346.75	132.372
1350.99	102.635
1355.24	138.452
1359.48	102.392
1363.72	90.5935
1367.96	158.839
1372.19	142.526
1376.43	119.399
1380.66	148.976
1384.88	145.591
1389.11	119.801
1393.34	142.204
1397.56	161.461
1401.78	107.78
1405.99	172.254
1410.21	159.889
1414.42	111.291
1418.63	170.805
1422.84	157.503
1427.05	170.024
1431.25	141.55
1435.45	160.62
1439.65	133.46
1443.85	142.856
1448.04	145.332
1452.23	100.885
1456.42	72.5597
1460.61	81.2994
1464.8	48.1765
1468.98	87.1285
1473.16	33.1871
1477.34	56.2684
1481.52	29.4202
1485.69	52.6526
1489.87	15.9499
1494.04	34.3226
1498.21	18.7755
1502.37	57.3175
1506.54	2.02588
1510.7	17.8972
1514.86	1.06335
1519.02	7.15027
1523.17	34.4653
1527.32	26.7134
1531.47	8.26623
1535.62	40.9111
1539.77	19.8831
1543.91	12.3527
1548.06	35.7637
1552.19	38.4672
1556.33	1.42554
1560.47	31.3374
