Measurement: Raman, 514 nm, ccw, Raman Data Processed
Mineral: Pharmacosiderite
Rruff sample: R050574
Ideal chemistry: KFe^3+^_4_(As^5+^O_4_)_3_(OH)_4_6-7H_2_O
Locality: Cornwall, England
Source: University of Arizona Mineral Museum
Description: Druse of bluish-green cubes
Measured chemistry: K_1.27_(Fe^3+^_3.73_Fe^2+^_0.27_)_Σ=4_(As_1.00_O_4_)_3_(OH)_4_·6H_2_O
Pin_id: M00719
Orientation: Laser parallel to a* (1 0 0). Fiducial mark perpendicular to laser is parallel to c [0 0 1]
Raman shift (cm-1)	intensity
210.378	0
215.29	39.9658
220.198	49.3438
225.104	455.019
230.006	1430.76
234.905	2607.69
239.801	3361.01
244.694	3222.48
249.584	2698.98
254.471	2809.75
259.355	3281.16
264.236	3394.91
269.114	3127.85
273.988	2591.71
278.86	2642.2
283.729	2796.06
288.594	2478.25
293.457	1560.75
298.316	1417.72
303.173	1290.93
308.026	1171.21
312.876	563.983
317.724	326.383
322.568	2.21582
327.409	23.4199
332.248	71.2285
337.083	175.648
341.915	9.81738
346.745	130.098
351.571	19.1934
356.394	31.1895
361.215	17.623
366.032	257.592
370.846	485.691
375.658	803.027
380.466	1390.61
385.272	1936.98
390.074	2335.3
394.874	2392.62
399.67	2100.94
404.464	1751.32
409.255	1336.72
414.043	1322.23
418.827	1385.25
423.609	1404.89
428.388	1504.11
433.164	1936.26
437.937	2269.7
442.707	2653.4
447.475	3538.33
452.239	4803.45
457	6796.75
461.759	9984.2
466.514	17000.4
471.267	31918.7
476.017	52072.1
480.764	47148.6
485.508	27958.6
490.249	16844.6
494.987	11275.8
499.722	8221.6
504.455	6082.78
509.184	4936.03
513.911	3844.11
518.635	3068.21
523.356	2371.34
528.074	1716.7
532.789	1632.43
537.501	1358.53
542.211	933.31
546.918	917.684
551.621	690.069
556.323	775.833
561.021	783.04
565.716	632.551
570.409	572.008
575.098	461.122
579.785	525.324
584.469	539.252
589.15	500.584
593.829	340.589
598.504	496.339
603.177	438.829
607.847	404.06
612.514	303.106
617.179	292.22
621.84	511.642
626.499	865.271
631.155	484.818
635.809	254.359
640.459	257.774
645.107	372.993
649.752	567.894
654.394	344.453
659.033	236.661
663.67	108.493
668.304	25.082
672.935	3.19141
677.563	107.07
682.189	6.61328
686.812	79.7842
691.432	115.689
696.049	8.58301
700.664	138.112
705.276	68.7539
709.885	102.73
714.492	165.264
719.096	125.434
723.697	157.245
728.295	424.727
732.891	435.885
737.484	469.732
742.074	590.279
746.661	654.531
751.246	710.497
755.828	737.184
760.408	1187.59
764.984	1413.72
769.559	1857.58
774.13	2781.17
778.699	4985.49
783.265	7830.16
787.828	11227.4
792.389	12542
796.947	10466.3
801.502	7267.84
806.055	5230.82
810.605	3598.91
815.152	2737.14
819.697	2258.61
824.239	2183.16
828.779	1742.65
833.315	1780.14
837.85	1760.66
842.381	1734.65
846.91	1989.91
851.436	2349.66
855.96	3061.81
860.481	4160.51
865	4881.65
869.515	5504.07
874.029	6896.79
878.539	8833.69
883.047	9857.9
887.553	8547.38
892.055	5781.26
896.556	3604.43
901.053	2182.9
905.548	1429.62
910.041	923.578
914.53	430.758
919.018	366.248
923.502	35.0088
927.985	296.069
932.464	10.4424
936.941	141.355
941.416	39.0137
945.887	96.0752
950.357	176.999
954.824	19.3809
959.288	19.3428
963.749	94.8311
968.208	278.882
972.665	279.544
977.119	69.9844
981.571	227.842
986.02	303.925
990.466	389.328
994.91	401
999.351	674.862
1003.79	883.645
1008.23	598.981
1012.66	591.294
1017.09	631.866
1021.52	759.551
1025.95	796.828
1030.37	695.664
1034.79	606.132
1039.21	581.419
1043.63	598.044
1048.04	533.391
1052.45	556.783
1056.86	522.81
1061.27	341.331
1065.67	321.223
1070.07	435.418
1074.47	251.913
1078.87	442.961
1083.26	480.5
1087.65	316.911
1092.04	360.587
1096.43	214.595
1100.81	293.048
1105.19	219.947
1109.57	210.446
1113.95	108.616
1118.33	116.602
1122.7	14.6553
1127.07	155.75
1131.43	50.0488
1135.8	26.5146
1140.16	24.6973
1144.52	84.416
1148.88	185.922
1153.23	107.166
1157.59	13.0254
1161.94	154.81
1166.28	91.1758
1170.63	151.525
1174.97	88.8223
1179.31	76.6504
1183.65	41.2793
1187.99	167.904
1192.32	9.95898
1196.65	19.5801
1200.98	27.0254
1205.3	46.1191
1209.63	185.981
1213.95	239.516
1218.27	164.867
1222.59	181.938
1226.9	123.768
1231.21	37.6152
1235.52	160.596
1239.83	265.602
1244.13	188.408
1248.43	337.164
1252.73	345.543
1257.03	381.938
1261.33	373.44
1265.62	419.867
1269.91	457.328
1274.2	533.332
1278.49	122.518
1282.77	277.777
1287.05	351.231
1291.33	501.391
1295.61	625.586
1299.88	513.094
1304.15	452.082
1308.42	585.451
1312.69	696.008
1316.96	583.762
1321.22	592.121
1325.48	689.854
1329.74	216.703
1333.99	297.695
1338.25	426.318
1342.5	385.225
1346.75	321.91
1350.99	391.248
1355.24	98.043
1359.48	268.062
1363.72	282.078
1367.96	346.695
1372.19	285.865
1376.43	408.055
1380.66	372.648
1384.88	223.334
1389.11	246.268
1393.34	384.662
1397.56	68.1934
1401.78	197.986
1405.99	299.894
1410.21	85.0625
1414.42	133.391
1418.63	159.619
1422.84	20.7969
1427.05	245.906
1431.25	398.07
1435.45	505.65
1439.65	829.408
1443.85	684.143
1448.04	898.09
1452.23	1070.62
1456.42	1057.53
1460.61	871.775
1464.8	601.481
1468.98	500.394
1473.16	347
1477.34	304.815
1481.52	183.93
1485.69	173.353
1489.87	46.834
1494.04	243.449
1498.21	71.6992
1502.37	195.746
1506.54	46.9219
1510.7	87.7481
1514.86	116.227
1519.02	233.434
1523.17	144.566
1527.32	164.678
1531.47	198.676
1535.62	383.26
1539.77	309.498
1543.91	57.9492
1548.06	221.502
1552.19	193.106
1556.33	363.803
1560.47	206.225
