Measurement: Raman, 514 nm, ccw, Raman Data Processed
Mineral: Phenakite
Rruff sample: R040046
Ideal chemistry: Be_2_SiO_4_
Locality: San Miguel de Piracicaba, Minas Gerais, Brazil
Source: University of Arizona Mineral Museum
Description: Colorless crystal fragments
Measured chemistry: Be_2.02_Si_0.99_O_4_
Pin_id: M00041
Orientation: Laser parallel to -b* (0 -1 0). Fiducial mark perpendicular to laser is parallel to -c [0 0 -1]
Raman shift (cm-1)	intensity
105.801	0
109.987	59.834
114.171	116.99
118.353	306.271
122.533	127.879
126.711	141.55
130.886	134.614
135.06	110.686
139.231	118.321
143.401	127.055
147.568	71.053
151.733	44.474
155.896	54.995
160.058	27.277
164.217	43.693
168.374	16.233
172.528	14.349
176.681	11.676
180.832	13.585
184.981	26.45
189.127	51.888
193.272	19.68
197.414	24.387
201.555	20.438
205.693	49.796
209.83	15.879
213.964	17.828
218.096	118.654
222.226	2391.55
226.355	815.228
230.481	119.748
234.605	67.691
238.727	10.258
242.847	2.977
246.965	17.113
251.08	3.635
255.194	13.383
259.306	82.906
263.416	36.084
267.524	20.417
271.629	11.662
275.733	4.965
279.835	6.703
283.934	14.256
288.032	38.813
292.127	45.558
296.221	258.068
300.312	463.923
304.402	11.305
308.489	0.44
312.575	7.347
316.658	41.205
320.74	45.991
324.819	9.726
328.897	3.214
332.972	1.004
337.045	52.257
341.117	20.469
345.186	37.372
349.253	103.619
353.319	29.97
357.382	42.636
361.443	43.104
365.503	74.007
369.56	39.149
373.616	40.739
377.669	37.077
381.72	100.904
385.77	26.736
389.817	42.801
393.863	0.312
397.906	73.737
401.947	27.357
405.987	29.988
410.024	104.441
414.06	73.934
418.093	45.999
422.125	52.108
426.154	59.447
430.182	90.677
434.208	75.125
438.231	28.712
442.253	40.036
446.273	493.478
450.29	148.349
454.306	70.244
458.32	48.104
462.332	84.722
466.341	64.22
470.349	25.464
474.355	66.885
478.359	135.901
482.361	576.565
486.361	284.95
490.359	59.883
494.356	30.436
498.35	82.444
502.342	73.809
506.332	31.19
510.321	37.249
514.307	84.238
518.292	70.408
522.274	49.853
526.255	140.305
530.233	142.974
534.21	77.853
538.185	64.377
542.158	50.108
546.129	40.004
550.098	42.857
554.065	64.12
558.03	20.773
561.993	14.271
565.954	63.683
569.913	3
573.871	30.522
577.826	63.671
581.78	56.264
585.731	26.412
589.681	57.444
593.629	86.216
597.575	246.687
601.519	3066.6
605.461	508.479
609.401	152.185
613.339	47.566
617.275	31.215
621.21	3.759
625.142	85.305
629.073	51.684
633.001	66.733
636.928	20.126
640.853	48.307
644.776	46.376
648.697	65.411
652.616	42.021
656.534	6.28
660.449	24.518
664.362	46.698
668.274	14.31
672.184	51.917
676.092	16.926
679.997	24.804
683.901	50.226
687.804	203.402
691.704	34.002
695.602	11.846
699.499	198.78
703.393	144.151
707.286	125.551
711.177	12.803
715.066	25.101
718.953	37.053
722.838	28.125
726.722	0.829
730.603	58.885
734.483	53.571
738.361	3.461
742.236	7.362
746.11	39.168
749.983	23.086
753.853	11.423
757.721	70.742
761.588	1235.5
765.453	566.676
769.315	624.275
773.176	239.272
777.036	123.514
780.893	247.444
784.748	285.432
788.602	905.083
792.454	353.49
796.303	47.51
800.151	71.908
803.998	89.678
807.842	92.185
811.685	43.511
815.525	51.643
819.364	16.729
823.201	45.448
827.036	68.216
830.869	90.03
834.701	75.395
838.531	29.324
842.358	73.321
846.184	156.38
850.008	169.219
853.831	270.918
857.651	303.877
861.47	532.043
865.287	860.788
869.102	1395.3
872.915	2734.9
876.726	9656.48
880.536	53500.5
884.343	20785.1
888.149	5010.68
891.953	2282.01
895.756	1356.02
899.556	980.302
903.355	816.7
907.152	606.23
910.947	558.883
914.74	606.655
918.531	769.562
922.321	578.605
926.109	354.784
929.895	231.109
933.679	368.591
937.461	579.208
941.242	805.932
945.021	709.883
948.798	1183.98
952.573	3460.24
956.346	1406.67
960.118	417.24
963.888	390.954
967.656	249.813
971.422	153.823
975.186	152.987
978.949	131.304
982.71	192.771
986.469	225.392
990.226	151.207
993.982	202.174
997.735	22.306
1001.49	150.619
1005.24	204.096
1008.99	234.73
1012.73	562.526
1016.48	405.517
1020.22	216.935
1023.96	71.322
1027.7	120.845
1031.44	113.547
1035.17	194.531
1038.91	199.229
1042.64	190.455
1046.37	142.856
1050.1	102.424
1053.83	155.161
1057.55	127.064
1061.28	245.13
1065	215.478
1068.72	205.866
1072.44	189.421
1076.15	58.139
1079.87	122.021
1083.58	164.069
1087.29	162.275
1091	133.639
1094.71	118.159
1098.42	143.834
1102.12	8.719
1105.82	35.706
1109.53	67.002
1113.22	176.295
1116.92	160.741
1120.62	107.338
1124.31	107.085
1128	49.981
1131.69	26.025
1135.38	46.538
1139.07	56.876
1142.76	37.358
1146.44	115.985
1150.12	120.404
1153.8	79.339
1157.48	4.413
1161.15	52.262
1164.83	15.5
1168.5	7.188
1172.17	132.542
1175.84	179.49
1179.51	113.455
1183.18	49.602
1186.84	198.245
1190.51	82.465
1194.17	15.205
1197.83	105.214
1201.48	210.093
1205.14	324.746
1208.79	220.772
1212.45	59.302
1216.1	121.298
1219.75	76.405
1223.39	195.623
1227.04	137.949
1230.68	209.382
1234.33	176.921
1237.96	162.562
1241.6	12.304
1245.24	88.147
1248.88	5.091
1252.51	7.138
1256.14	17.269
1259.77	88.522
1263.4	185.873
1267.03	161.319
1270.65	198.854
1274.28	42.479
1277.9	108.828
1281.52	2.086
1285.14	2.514
1288.76	62.315
1292.37	172.23
1295.98	65.094
1299.6	136.126
1303.21	108.572
1306.81	75.718
1310.42	54.915
1314.03	43.816
1317.63	2.487
1321.23	1.087
1324.83	4.261
1328.43	29.8
1332.03	219.402
1335.62	259.067
1339.21	146.794
1342.81	25.576
1346.4	157.42
1349.98	46.331
1353.57	9.31
1357.16	164.359
1360.74	124.479
1364.32	198.618
1367.9	137.884
1371.48	118.164
1375.06	187.489
1378.63	123.994
1382.2	136.292
1385.78	91.981
1389.35	41.774
1392.91	49.592
1396.48	15.411
1400.05	145.303
1403.61	139.625
1407.17	346.417
1410.73	318.245
1414.29	259.589
1417.85	119.935
1421.4	152.219
1424.96	94.239
1428.51	40.038
1432.06	149.495
1435.61	251.223
1439.15	294.198
1442.7	377.233
1446.24	320.324
1449.79	393.47
1453.33	416.66
1456.87	249.858
1460.4	173.057
1463.94	166.256
1467.47	179.513
1471	192.928
1474.54	116.611
1478.06	220.52
1481.59	284.583
1485.12	298.883
1488.64	263.341
1492.16	107.987
1495.68	182.87
1499.2	48.069
1502.72	253.636
1506.24	59.598
1509.75	86.022
1513.27	193.04
1516.78	60.815
1520.29	2.037
1523.79	170.916
1527.3	0
