Measurement: Raman, 514 nm, ccw, Raman Data Processed
Mineral: Phenakite
Rruff sample: R040046
Ideal chemistry: Be_2_SiO_4_
Locality: San Miguel de Piracicaba, Minas Gerais, Brazil
Source: University of Arizona Mineral Museum
Description: Colorless crystal fragments
Measured chemistry: Be_2.02_Si_0.99_O_4_
Pin_id: L00327
Orientation: Laser parallel to c* (0 0 1). Fiducial mark perpendicular to laser is parallel to a [1 0 0]
Raman shift (cm-1)	intensity
87.101	0
91.284	47.194
95.465	60.275
99.644	65.703
103.82	49.033
107.995	30.97
112.168	17.638
116.339	103.573
120.508	130.733
124.675	43.558
128.84	49.497
133.003	65.935
137.164	65.955
141.323	105.696
145.48	7.239
149.635	13.486
153.788	62.269
157.939	597.275
162.088	1666.07
166.235	271.292
170.38	40.027
174.523	15.537
178.664	3.247
182.803	8.646
186.94	6.047
191.076	4.962
195.209	38.945
199.34	42.615
203.47	10.376
207.597	42.262
211.722	63.195
215.846	182.005
219.967	3047.46
224.087	3946.26
228.204	230.123
232.32	54.562
236.434	20.678
240.545	14.993
244.655	9.316
248.763	10.451
252.869	138.6
256.973	157.449
261.075	46.462
265.175	16.416
269.273	31.317
273.369	195.12
277.463	696.845
281.556	420.432
285.646	35.899
289.734	19.762
293.821	12.406
297.905	45.411
301.988	11.253
306.069	10.91
310.147	3.59
314.224	27.783
318.299	30.987
322.372	16.065
326.443	27.021
330.512	26.832
334.579	51.453
338.645	31.568
342.708	21.792
346.769	159.677
350.829	114.535
354.887	57.357
358.942	27.006
362.996	19.578
367.048	53.513
371.098	48.597
375.146	47.882
379.192	411.105
383.236	3458.35
387.279	1195.6
391.319	99.697
395.358	105.972
399.394	72.058
403.429	33.675
407.462	57.42
411.493	76.2
415.522	80.278
419.549	67.998
423.575	102.911
427.598	211.598
431.619	170.338
435.639	50.115
439.657	255.797
443.673	2218.44
447.687	1251.67
451.699	165.683
455.709	97.471
459.717	84.913
463.724	409.136
467.728	228.7
471.731	49.168
475.732	40.027
479.731	92.198
483.728	321.424
487.723	125.481
491.716	23.779
495.708	54.07
499.697	42.43
503.685	9.604
507.671	31.875
511.655	67.455
515.637	112.766
519.617	186.964
523.596	1848.78
527.572	1867.15
531.547	215.167
535.52	74.412
539.491	147.735
543.46	5.018
547.427	69.258
551.393	17.461
555.356	47.602
559.318	3.058
563.278	17.932
567.236	30.449
571.192	41.585
575.147	46.76
579.099	38.916
583.05	4.584
586.999	10.538
590.946	28.269
594.891	121.162
598.834	310.685
602.776	204.929
606.715	66.593
610.653	103.24
614.589	320.886
618.523	292.506
622.456	81.115
626.386	80.697
630.315	36.26
634.242	34.757
638.167	15.685
642.09	84.803
646.012	88.274
649.931	78.625
653.849	28.025
657.765	83.43
661.679	207.931
665.592	244.157
669.502	509.509
673.411	114.388
677.318	49.228
681.223	125.527
685.126	534.811
689.028	528.083
692.927	123.341
696.825	31.556
700.721	42.66
704.616	239.885
708.508	42.065
712.399	16.94
716.288	24.866
720.175	2.609
724.06	7.75
727.944	27.841
731.825	28.062
735.705	10.439
739.584	19.628
743.46	35.957
747.334	13.452
751.207	30.946
755.078	45.401
758.947	13.086
762.815	173.569
766.68	383.002
770.544	169.542
774.406	167.103
778.267	464.684
782.125	285.235
785.982	763.861
789.837	749.512
793.69	185.471
797.542	38.516
801.391	169.169
805.239	680.923
809.085	531.729
812.93	107.594
816.772	49.499
820.613	77.448
824.452	39.435
828.29	81.454
832.125	122.491
835.959	34.564
839.791	73.701
843.621	120.922
847.45	153.238
851.277	232.65
855.102	262.123
858.925	313.65
862.746	483.258
866.566	943.666
870.384	1788.46
874.2	5604.78
878.015	38125.9
881.828	27871.1
885.639	5410.68
889.448	2211.83
893.256	1247
897.061	939.381
900.865	742.855
904.668	593.066
908.468	639.753
912.267	963.45
916.064	2479.22
919.86	2609.07
923.653	4152.29
927.445	2434.29
931.236	849.363
935.024	701.515
938.811	1027.21
942.596	970.05
946.379	1465.43
950.161	6364.91
953.94	4753.47
957.719	1221.67
961.495	575.325
965.27	279.114
969.043	219.974
972.814	164.903
976.583	121.897
980.351	122.414
984.117	165.02
987.882	204.225
991.644	252.844
995.405	314.001
999.165	293.954
1002.92	350.707
1006.68	419.618
1010.43	746.286
1014.18	1146.91
1017.93	1727.79
1021.68	2601.62
1025.43	1351.99
1029.18	625.703
1032.92	274.933
1036.66	225.417
1040.4	76.028
1044.14	129.581
1047.88	87.468
1051.62	39.142
1055.35	35.859
1059.08	160.73
1062.81	54.565
1066.54	55.441
1070.27	13.634
1073.99	32.325
1077.72	64.24
1081.44	26.223
1085.16	56.181
1088.88	52.124
1092.59	64.077
1096.31	63.025
1100.02	14.973
1103.73	16.96
1107.44	72.895
1111.15	118.792
1114.86	15.764
1118.57	77.349
1122.27	186.479
1125.97	84.359
1129.67	8.173
1133.37	25.002
1137.07	23.807
1140.76	15.707
1144.45	31.021
1148.15	31.213
1151.84	4.334
1155.53	27.624
1159.21	52.149
1162.9	87.16
1166.58	11.558
1170.26	56.718
1173.94	72.247
1177.62	55.585
1181.3	17.767
1184.97	43.766
1188.65	69.701
1192.32	30.311
1195.99	149.141
1199.66	130.729
1203.33	93.051
1206.99	93.126
1210.65	80.751
1214.32	137.964
1217.98	68.44
1221.64	130.125
1225.29	188.711
1228.95	135.458
1232.6	165.992
1236.26	158.324
1239.91	132.578
1243.56	145.747
1247.2	74.831
1250.85	125.255
1254.49	118.159
1258.13	71.047
1261.78	190.794
1265.41	188.463
1269.05	164.039
1272.69	122.092
1276.32	120.269
1279.95	49.473
1283.59	70.051
1287.21	118.209
1290.84	133.108
1294.47	79.097
1298.09	68.347
1301.72	5.633
1305.34	7.249
1308.96	26.598
1312.58	26.702
1316.19	15.267
1319.81	50.575
1323.42	66.558
1327.03	120.898
1330.64	49.128
1334.25	50.26
1337.86	51.843
1341.46	23.943
1345.07	114.746
1348.67	4.532
1352.27	107.02
1355.87	156.576
1359.46	152.048
1363.06	76.369
1366.65	129.722
1370.25	115.03
1373.84	107.003
1377.43	77.231
1381.02	77.478
1384.6	91.688
1388.18	134.116
1391.77	149.956
1395.35	186.84
1398.93	107.094
1402.51	115.298
1406.08	109.318
1409.66	127.762
1413.23	2.728
1416.8	2.079
1420.37	100.554
1423.94	120.859
1427.51	72.834
1431.08	141.448
1434.64	111.37
1438.2	206.276
1441.76	208.001
1445.32	264.946
1448.88	121.675
1452.43	116.851
1455.99	77.3
1459.54	196.21
1463.09	200.962
1466.64	203.551
1470.19	284.859
1473.74	131.882
1477.28	135.881
1480.83	120.27
1484.37	135.071
1487.91	109.823
1491.45	129.92
1494.98	28.158
1498.52	70.448
1502.05	14.824
1505.59	119.535
1509.12	138.083
1512.65	161.29
1516.17	139.176
1519.7	203.101
1523.23	143.519
1526.75	180.106
1530.27	76.861
1533.79	0
