Measurement: Raman, 514 nm, ccw, Raman Data Processed
Mineral: Phenakite
Rruff sample: R040046
Ideal chemistry: Be_2_SiO_4_
Locality: San Miguel de Piracicaba, Minas Gerais, Brazil
Source: University of Arizona Mineral Museum
Description: Colorless crystal fragments
Measured chemistry: Be_2.02_Si_0.99_O_4_
Pin_id: M00041
Orientation: Laser parallel to -b* (0 -1 0). Fiducial mark perpendicular to laser is parallel to -c [0 0 -1]
Raman shift (cm-1)	intensity
104.405	0
108.592	79.285
112.777	131.643
116.959	320.128
121.14	325.831
125.318	200.579
129.495	181.658
133.669	154.623
137.841	170.263
142.011	143.432
146.179	137.471
150.345	95.373
154.509	81.607
158.671	105.497
162.83	327.694
166.988	98.236
171.144	3.712
175.297	2.932
179.449	1.325
183.598	2.088
187.745	8.097
191.891	7.338
196.034	25.658
200.175	48.427
204.314	7.843
208.451	42.57
212.586	39.226
216.719	45.367
220.85	585.511
224.979	2899.91
229.105	360.998
233.23	1812.84
237.353	75.889
241.474	636.364
245.592	25.601
249.709	67.604
253.823	16.129
257.936	307.265
262.046	26.165
266.155	7.399
270.261	24.141
274.365	34.417
278.468	373.096
282.568	575.816
286.666	57.491
290.762	28.954
294.857	60.795
298.949	253.412
303.039	57.538
307.127	36.174
311.213	24.396
315.297	44.897
319.379	42.279
323.46	58.741
327.538	35.922
331.614	46.231
335.688	67.125
339.76	34.09
343.83	65.546
347.898	513.427
351.964	543.735
356.028	79.418
360.09	87.748
364.15	49.35
368.208	46.593
372.264	41.33
376.318	49.768
380.37	77.211
384.42	854.129
388.468	431.976
392.514	83.904
396.558	64.454
400.6	89.355
404.641	58.702
408.679	72.97
412.715	77.418
416.749	87.235
420.781	126.548
424.811	92.851
428.84	116.981
432.866	106.874
436.89	90.064
440.913	193.847
444.933	1861.75
448.951	1504.73
452.968	223.705
456.982	66.279
460.995	12.598
465.005	175.17
469.014	230.365
473.02	88.306
477.025	28.317
481.027	230.303
485.028	276.33
489.027	65.367
493.024	61.877
497.019	64.927
501.012	128.821
505.002	154.863
508.992	77.151
512.979	97.199
516.964	89.261
520.947	205.859
524.928	842.523
528.907	1345.6
532.885	228.4
536.86	104.828
540.834	81.383
544.805	30.69
548.775	19.067
552.742	26.245
556.708	23.146
560.672	60.955
564.634	50.562
568.594	45.583
572.552	75.023
576.508	233.843
580.462	330.797
584.414	50.957
588.365	25.642
592.313	41.118
596.26	149.634
600.204	750.543
604.147	630.955
608.088	71.836
612.026	129.831
615.963	308.758
619.898	408.961
623.832	42.219
627.763	25.055
631.692	39.298
635.619	59.327
639.545	13.187
643.469	17.371
647.39	0.331
651.31	44.769
655.228	17.055
659.144	54.032
663.058	12.115
666.97	85.312
670.881	188.559
674.789	90.633
678.696	12.22
682.6	14.076
686.503	261.299
690.404	364.017
694.303	63.703
698.2	74.43
702.095	271.493
705.989	521.788
709.88	221.759
713.77	19.882
717.658	78.826
721.543	31.514
725.427	5.312
729.31	91.111
733.19	315.312
737.068	58.293
740.945	9.676
744.819	27.523
748.692	60.857
752.563	3.07
756.432	83.246
760.299	83.499
764.165	144.341
768.028	311.537
771.89	286.521
775.749	346.549
779.607	1106.93
783.463	371.561
787.318	571.972
791.17	592.275
795.02	175.072
798.869	49.388
802.716	63.186
806.561	178.716
810.404	211.608
814.245	99.509
818.085	13.82
821.922	83.685
825.758	8.733
829.592	143.267
833.424	29.326
837.254	71.613
841.083	96.775
844.909	73.006
848.734	117.313
852.557	146.696
856.378	269.831
860.197	346.238
864.015	409.674
867.83	666.107
871.644	1458.91
875.456	4060.82
879.266	23622.8
883.074	28794.5
886.881	5355.49
890.686	1995.39
894.488	1086.59
898.29	978.453
902.089	828.151
905.886	605.991
909.682	610.984
913.476	790.129
917.268	2103.45
921.058	2886.94
924.846	1880.6
928.633	1614.44
932.418	828.46
936.201	981.992
939.982	2086.39
943.761	1440.96
947.539	1195.7
951.315	3060.6
955.089	3065.68
958.861	879.729
962.631	414.878
966.4	290.479
970.167	416.104
973.932	352.068
977.695	177.415
981.456	233.868
985.216	210.39
988.974	287.665
992.73	404.645
996.484	531.806
1000.24	389.166
1003.99	396.726
1007.74	354.487
1011.48	312.45
1015.23	690.614
1018.97	799.999
1022.72	1048.6
1026.45	727.437
1030.19	376.473
1033.93	245.722
1037.66	185.915
1041.4	265.791
1045.13	395.734
1048.86	275.892
1052.59	206.262
1056.31	206.856
1060.04	137.66
1063.76	168.675
1067.48	229.902
1071.2	341.34
1074.92	372.988
1078.63	234.836
1082.35	196.882
1086.06	169.126
1089.77	264.788
1093.47	234.214
1097.18	157.076
1100.89	310.133
1104.59	173.387
1108.29	46.837
1111.99	19.508
1115.69	164.336
1119.38	98.374
1123.08	7.402
1126.77	166.996
1130.46	251.583
1134.15	76.357
1137.84	101.819
1141.53	67.335
1145.21	62.663
1148.89	178.82
1152.57	254.501
1156.25	120.338
1159.93	136.352
1163.61	112.89
1167.28	70.657
1170.95	21.527
1174.62	77.464
1178.29	145.021
1181.96	312.019
1185.62	301.276
1189.28	209.133
1192.95	196.849
1196.61	235.963
1200.26	133.737
1203.92	192.273
1207.58	200.344
1211.23	248.561
1214.88	386.921
1218.53	335.424
1222.18	94.066
1225.82	62.849
1229.47	111.767
1233.11	130.821
1236.75	200.01
1240.39	249.33
1244.03	228.664
1247.66	188.247
1251.3	237.958
1254.93	187.177
1258.56	87.142
1262.19	127.229
1265.82	12.554
1269.45	97.78
1273.07	148.232
1276.69	148.786
1280.31	309.436
1283.93	179.172
1287.55	49.993
1291.16	29.144
1294.78	8.194
1298.39	87.895
1302	123.424
1305.61	34.538
1309.22	105.723
1312.82	166.995
1316.43	48.341
1320.03	129.761
1323.63	101.268
1327.23	32.848
1330.83	45.493
1334.42	26.244
1338.02	108.064
1341.61	96.267
1345.2	221.952
1348.79	154.02
1352.38	6.172
1355.96	188.403
1359.55	50.729
1363.13	73.148
1366.71	125.665
1370.29	218.281
1373.86	246.646
1377.44	374.027
1381.01	396.979
1384.59	380.064
1388.16	363.286
1391.72	156.645
1395.29	330.046
1398.86	143.43
1402.42	176.704
1405.98	199.003
1409.55	222.096
1413.11	134.806
1416.66	375.143
1420.22	374.907
1423.77	375.028
1427.32	316.168
1430.88	248.714
1434.42	212.12
1437.97	245.61
1441.52	269.184
1445.06	462.835
1448.61	306.556
1452.15	330.338
1455.68	534.16
1459.22	448.013
1462.76	388.061
1466.29	415.731
1469.83	379.686
1473.36	393.856
1476.89	258.505
1480.41	142.442
1483.94	107.698
1487.47	113.165
1490.99	278.876
1494.51	244.887
1498.03	311.294
1501.55	168.221
1505.07	235.789
1508.58	244.108
1512.09	73.327
1515.61	171.772
1519.12	103.123
1522.62	76.795
1526.13	3.853
