Measurement: Raman, 514 nm, ccw, Raman Data Processed
Mineral: Phenakite
Rruff sample: R040132
Ideal chemistry: Be_2_SiO_4_
Locality: Krager√∏, Telemark, Norway
Source: University of Arizona Mineral Museum
Description: Colorless fragments
Measured chemistry: Be_2.02_Si_0.99_O_4_
Pin_id: L00330
Orientation: Laser parallel to -c* (0 0 -1). Fiducial mark perpendicular to laser is parallel to -a [-1 0 0]
Raman shift (cm-1)	intensity
109.266	0
113.453	103.144
117.638	227.662
121.82	181.417
126.001	124.124
130.179	116.059
134.355	164.919
138.529	153.088
142.701	119.447
146.87	112.557
151.038	59.086
155.203	171.996
159.366	622.146
163.527	1883.09
167.686	314.049
171.842	83.235
175.996	0.233
180.149	14.063
184.299	40.701
188.446	50.785
192.592	55.802
196.736	64.205
200.877	9.792
205.016	52.845
209.153	60.132
213.288	86.702
217.421	520.668
221.551	3829.45
225.68	2684.14
229.806	266.519
233.93	51.59
238.052	48.597
242.172	72.703
246.29	54.737
250.405	29.769
254.519	176.858
258.63	206.392
262.739	1.762
266.846	31.028
270.951	40.245
275.054	270.01
279.154	712.688
283.253	295.031
287.349	39.683
291.444	57.509
295.536	32.428
299.626	17.456
303.714	15.478
307.799	45.506
311.883	36.539
315.965	10.588
320.044	18.947
324.121	24.833
328.196	13.345
332.27	38.413
336.341	43.399
340.409	7.901
344.476	19.412
348.541	196.97
352.604	124.702
356.664	36.215
360.722	0.488
364.779	28.833
368.833	104.093
372.885	7.273
376.935	71.717
380.983	697.794
385.029	3896.59
389.073	825.555
393.114	55.621
397.154	34.534
401.191	115.329
405.227	44.457
409.26	36.016
413.291	46.893
417.321	64.53
421.348	98.206
425.373	56.954
429.396	198.706
433.417	169.004
437.436	138.651
441.452	578.222
445.467	2809.79
449.48	977.333
453.49	252.889
457.499	162.322
461.505	113.694
465.51	472.851
469.512	220.339
473.512	164.573
477.511	13.421
481.507	160.219
485.501	390.162
489.493	188.224
493.483	17.57
497.471	61.358
501.457	109.043
505.441	121.921
509.423	46.475
513.403	31.981
517.381	96.435
521.357	411.151
525.33	2294.43
529.302	1215.7
533.272	203.053
537.239	111.2
541.205	95.506
545.169	121.523
549.13	27.478
553.09	43.358
557.047	20.592
561.003	125.613
564.956	48.833
568.908	25.496
572.857	44.876
576.805	125.029
580.75	169.705
584.694	39.654
588.635	6.854
592.575	111.404
596.512	159.051
600.447	491.593
604.381	139.147
608.312	82.9
612.242	243.605
616.169	575.251
620.094	271.782
624.018	52.295
627.939	122.754
631.859	97.143
635.776	101.944
639.692	15.176
643.605	21.354
647.516	75.504
651.426	141.336
655.333	62.36
659.239	145.307
663.142	245.556
667.044	386.172
670.944	451.972
674.841	201.777
678.737	137.536
682.63	207.25
686.522	782.918
690.412	424.837
694.3	127.097
698.185	88.505
702.069	64.007
705.951	256.188
709.831	40.262
713.709	40.791
717.585	31.432
721.459	44.88
725.331	41.9
729.201	30.084
733.069	46.722
736.935	52.366
740.799	13.307
744.661	46.841
748.522	106.823
752.38	100.048
756.236	32.713
760.091	77.425
763.943	175.547
767.794	361.674
771.643	220.807
775.489	409.95
779.334	473.061
783.177	317.228
787.018	982.367
790.857	619.55
794.694	228.784
798.529	121.542
802.362	194.834
806.193	803.646
810.022	391.013
813.85	180.414
817.675	38.866
821.499	63.385
825.32	64.954
829.14	39.576
832.958	137.254
836.774	152.003
840.588	85.861
844.4	55.793
848.21	139.82
852.018	164.7
855.824	336.961
859.629	527.337
863.431	787.789
867.232	1078.68
871.03	2378.15
874.827	9283.58
878.622	47796.4
882.415	21080
886.206	4850.52
889.995	1928.17
893.782	1279.59
897.568	962.916
901.351	824.964
905.133	716.894
908.912	638.102
912.69	1053.07
916.466	2801.01
920.24	2385.06
924.012	4745.21
927.782	2016.47
931.551	839.833
935.317	851.309
939.082	1234.89
942.844	1116.73
946.605	2253.59
950.364	7705.99
954.121	3625.09
957.877	1035.05
961.63	512.371
965.381	353.802
969.131	369.342
972.879	326.303
976.625	180.7
980.369	178.356
984.111	71.321
987.851	11.824
991.589	128.26
995.326	440.251
999.061	439.603
1002.79	494.634
1006.52	438.282
1010.25	815.015
1013.98	1239.21
1017.71	2255.28
1021.43	2601.08
1025.15	1304.41
1028.87	535.104
1032.59	314.954
1036.31	142.225
1040.02	161.578
1043.73	223.616
1047.44	152.376
1051.15	109.8
1054.86	79.234
1058.56	84.366
1062.27	76.442
1065.97	29.141
1069.67	120.897
1073.37	252.716
1077.06	219.572
1080.76	142.484
1084.45	140.45
1088.14	7.524
1091.83	38.523
1095.52	67.585
1099.2	201.829
1102.88	200.098
1106.57	158.384
1110.24	54.576
1113.92	38.648
1117.6	76.144
1121.27	76.035
1124.94	95.146
1128.62	233.569
1132.28	129.467
1135.95	62.387
1139.62	54.53
1143.28	79.496
1146.94	85.166
1150.6	87.409
1154.26	222.936
1157.91	156.053
1161.57	98.181
1165.22	28.273
1168.87	57.233
1172.52	86.386
1176.17	17.782
1179.81	129.947
1183.45	241.874
1187.1	206.246
1190.74	201.16
1194.38	61.912
1198.01	152.928
1201.65	2.462
1205.28	87.429
1208.91	113.264
1212.54	168.965
1216.17	237.949
1219.79	357.33
1223.41	295.016
1227.04	267.058
1230.66	272.829
1234.28	172.485
1237.89	209.125
1241.51	329.606
1245.12	302.021
1248.73	450.592
1252.34	243.312
1255.95	278.594
1259.56	119.911
1263.16	102.35
1266.76	117.603
1270.36	126.683
1273.96	196.139
1277.56	251.288
1281.15	352.716
1284.75	274.115
1288.34	24.815
1291.93	63.054
1295.52	62.56
1299.11	45.41
1302.69	23.183
1306.28	130.274
1309.86	230.722
1313.44	182.567
1317.01	329.243
1320.59	226.326
1324.16	202.568
1327.74	106.207
1331.31	41.267
1334.88	56.562
1338.44	94.719
1342.01	273.187
1345.58	427.939
1349.14	424.108
1352.7	383.908
1356.26	198.122
1359.81	83.524
1363.37	18.729
1366.92	112.692
1370.47	91.068
1374.03	21.028
1377.57	262.626
1381.12	376.359
1384.67	463.312
1388.21	418.828
1391.75	374.297
1395.29	132.509
1398.83	72.404
1402.37	19.61
1405.9	24.362
1409.43	169.562
1412.96	179.738
1416.49	247.954
1420.02	369.395
1423.55	395.921
1427.07	383.385
1430.6	335.758
1434.12	308.761
1437.63	70.968
1441.15	166.745
1444.67	108.206
1448.18	176.504
1451.7	387.061
1455.21	477.409
1458.72	546.716
1462.22	564.305
1465.73	672.544
1469.23	631.954
1472.73	461.947
1476.24	291.965
1479.73	212.279
1483.23	113.556
1486.73	96.125
1490.22	239.424
1493.71	283.847
1497.2	309.832
1500.69	466.253
1504.18	555.998
1507.67	548.746
1511.15	578.072
1514.63	453.146
1518.11	404.847
