Measurement: Raman, 514 nm, ccw, Raman Data Processed
Mineral: Phenakite
Rruff sample: R040132
Ideal chemistry: Be_2_SiO_4_
Locality: Krager√∏, Telemark, Norway
Source: University of Arizona Mineral Museum
Description: Colorless fragments
Measured chemistry: Be_2.02_Si_0.99_O_4_
Pin_id: L00303
Orientation: Laser parallel to -a* (-1 0 0). Fiducial mark perpendicular to laser is parallel to c [0 0 1]
Raman shift (cm-1)	intensity
106.473	0
110.662	61.751
114.848	327.384
119.032	350.635
123.214	152.557
127.394	189.227
131.571	156.041
135.747	127.967
139.92	46.379
144.091	121.562
148.26	39.068
152.426	64.328
156.591	129.399
160.753	428.196
164.913	303.964
169.071	17.642
173.227	80.197
177.381	29.155
181.532	28.942
185.681	14.262
189.828	109.54
193.973	37.605
198.116	14.446
202.257	101.264
206.395	111.841
210.532	75.989
214.666	168.098
218.798	575.691
222.928	1916.37
227.055	884.13
231.181	2029.52
235.304	685.874
239.426	237.015
243.545	51.431
247.662	140.853
251.777	240.286
255.889	462.261
260	146.75
264.108	162.481
268.215	197.297
272.319	106.765
276.421	213.205
280.521	560.432
284.619	248.612
288.714	125.23
292.808	116.317
296.899	293.808
300.989	197.089
305.076	73.338
309.161	23.932
313.244	36.753
317.325	43.625
321.403	11.251
325.48	54.792
329.554	36.984
333.627	92.391
337.697	35.759
341.765	7.204
345.831	253.592
349.895	1248.96
353.957	88.697
358.017	17.191
362.075	41.834
366.13	41.068
370.184	68.104
374.235	43.547
378.285	84.685
382.332	371.266
386.377	960.118
390.42	70.465
394.461	42.47
398.5	54.355
402.537	23.888
406.571	9.143
410.604	13.08
414.635	30.359
418.663	49.276
422.69	59.801
426.714	50.847
430.736	131.021
434.757	80.769
438.775	113.2
442.791	767.389
446.805	3325.25
450.817	442.426
454.827	138.032
458.835	7.479
462.84	180.681
466.844	224.56
470.846	156.402
474.845	120.227
478.843	247.647
482.839	377.558
486.832	231.932
490.823	92.462
494.813	57.024
498.8	69.373
502.785	88.707
506.769	20.862
510.75	100.021
514.729	147.388
518.706	205.855
522.681	469.053
526.655	2199.84
530.626	528.291
534.595	338.618
538.562	110.054
542.527	181.032
546.489	64.691
550.45	151.688
554.409	185.955
558.366	82.523
562.321	150.876
566.274	155.507
570.225	212.055
574.173	339.032
578.12	521.682
582.065	267.863
586.008	244.594
589.949	293.945
593.887	280.83
597.824	580.913
601.759	1884.95
605.692	424.395
609.622	341.975
613.551	348.711
617.478	810.208
621.402	462.215
625.325	521.372
629.246	361.793
633.165	312.44
637.082	215.35
640.996	347.525
644.909	342.967
648.82	357.705
652.729	384.756
656.636	232.057
660.54	296.619
664.443	261.272
668.344	431.368
672.243	258.27
676.14	170.546
680.035	139.096
683.928	368.152
687.819	567.663
691.708	266.527
695.595	167.635
699.48	335.943
703.363	723.427
707.244	657.089
711.124	261.948
715.001	231.011
718.876	111.359
722.749	120.999
726.621	288.863
730.49	394.615
734.358	316.218
738.223	54.812
742.087	168.637
745.948	192.663
749.808	57.897
753.666	46.665
757.521	84.977
761.375	289.128
765.227	591.835
769.077	421.003
772.925	380.311
776.771	1249.75
780.615	989.318
784.457	579.006
788.298	958.811
792.136	188.725
795.972	41.744
799.807	86.863
803.639	89.076
807.47	319.379
811.298	15.236
815.125	9.725
818.95	62.379
822.773	7.64
826.594	26.271
830.413	161.379
834.23	36.796
838.045	192.448
841.858	88.569
845.67	219.332
849.479	219.772
853.287	230.103
857.093	530.385
860.896	730.91
864.698	821.086
868.498	1521.21
872.296	3301.27
876.092	16021.3
879.886	48711.1
883.679	12042.1
887.469	3554.53
891.258	1815.73
895.044	1226.94
898.829	938.982
902.612	660.521
906.393	563.945
910.172	885.125
913.949	1518.82
917.724	3569.03
921.498	1888.23
925.269	1896.82
929.039	875.107
932.806	793.233
936.572	2041.19
940.336	2038.98
944.098	1176.83
947.859	2284.4
951.617	4701.79
955.373	1218.98
959.128	336.299
962.881	222.934
966.631	68.562
970.38	81.542
974.128	45.303
977.873	191.424
981.616	87.911
985.358	234.487
989.097	28.142
992.835	200.424
996.571	236.265
1000.3	368.015
1004.04	319.562
1007.77	111.112
1011.5	462.274
1015.22	513.237
1018.95	804.934
1022.67	785.491
1026.39	295.849
1030.11	167.073
1033.83	57.007
1037.54	56.698
1041.26	116.135
1044.97	135.348
1048.68	164.296
1052.39	62.981
1056.09	31.397
1059.8	20.468
1063.5	47.36
1067.2	84.967
1070.9	182.376
1074.6	199.598
1078.29	286.655
1081.99	303.545
1085.68	260.472
1089.37	97.392
1093.06	164.142
1096.74	200.726
1100.43	137.146
1104.11	53.406
1107.79	209.5
1111.47	255.441
1115.15	140.303
1118.82	353.487
1122.5	339.721
1126.17	320.089
1129.84	194.782
1133.51	85.908
1137.17	2.161
1140.84	76.012
1144.5	58.668
1148.16	163.596
1151.82	188.544
1155.48	185.102
1159.13	229.953
1162.79	25.233
1166.44	99.511
1170.09	74.217
1173.74	298.888
1177.38	373.461
1181.03	415.745
1184.67	359.529
1188.31	183.468
1191.95	76.409
1195.59	98.439
1199.22	129.892
1202.86	320.705
1206.49	381.791
1210.12	415.146
1213.75	479.379
1217.38	393.971
1221	318.53
1224.62	275.01
1228.24	295.945
1231.86	213.771
1235.48	458.522
1239.1	673.6
1242.71	688.594
1246.33	673.632
1249.94	448.379
1253.55	353.678
1257.15	298.918
1260.76	374.344
1264.36	473.177
1267.96	828.5
1271.56	834.642
1275.16	651.259
1278.76	488.296
1282.35	385.614
1285.95	89.304
1289.54	206.979
1293.13	234.768
1296.72	392.62
1300.3	460.385
1303.89	428.451
1307.47	605.342
1311.05	512.948
1314.63	380.669
1318.21	318.508
1321.78	45.401
1325.36	56.561
1328.93	231.573
1332.5	319.856
1336.07	558.284
1339.63	646.884
1343.2	635.656
1346.76	544.905
1350.33	314.136
1353.88	6.348
1357.44	6.491
1361	194.616
1364.55	54.007
1368.11	287.001
1371.66	418.5
1375.21	440.655
1378.76	563.581
1382.3	685.493
1385.85	345.63
1389.39	206.052
1392.93	6.768
1396.47	47.709
1400.01	108.925
1403.54	500.396
1407.08	662.225
1410.61	694.336
1414.14	754.178
1417.67	606.828
1421.2	399.832
1424.72	350.498
1428.25	224.203
1431.77	208.312
1435.29	336.633
1438.81	730.975
1442.33	955.674
1445.84	1137.85
1449.35	1346.93
1452.87	1529.76
1456.38	1462.82
1459.88	1136.12
1463.39	999.645
1466.9	644.768
1470.4	458.176
1473.9	221.527
1477.4	184.996
1480.9	268.748
1484.4	402.945
1487.89	642.543
1491.39	863.498
1494.88	887.012
1498.37	933.785
1501.86	824.963
1505.34	489.988
1508.83	244.414
1512.31	172.73
1515.79	221.496
1519.27	2.188
