Measurement: Raman, 514 nm, ccw, Raman Data Processed
Mineral: Phenakite
Rruff sample: R040132
Ideal chemistry: Be_2_SiO_4_
Locality: Krager√∏, Telemark, Norway
Source: University of Arizona Mineral Museum
Description: Colorless fragments
Measured chemistry: Be_2.02_Si_0.99_O_4_
Pin_id: L00303
Orientation: Laser parallel to -a* (-1 0 0). Fiducial mark perpendicular to laser is parallel to c [0 0 1]
Raman shift (cm-1)	intensity
88.298	0
92.496	59.226
96.692	53.838
100.885	166.712
105.077	225.495
109.266	248.128
113.453	206.308
117.638	341.503
121.82	259.903
126.001	192.996
130.179	157.872
134.355	102.853
138.529	133.831
142.701	95.528
146.87	120.917
151.038	151.067
155.203	92.094
159.366	48.889
163.527	111.258
167.686	32.804
171.842	10.714
175.996	58.613
180.149	46.419
184.299	1.901
188.446	20.706
192.592	32.352
196.736	45.528
200.877	7.96
205.016	0.642
209.153	33.745
213.288	62.161
217.421	113.592
221.551	2091.58
225.68	1267.82
229.806	160.524
233.93	68.658
238.052	83.671
242.172	76.188
246.29	40.684
250.405	50.925
254.519	87.12
258.63	158.873
262.739	29.449
266.846	63.939
270.951	104.218
275.054	59.74
279.154	1.593
283.253	44.167
287.349	72.771
291.444	69.237
295.536	170.919
299.626	490.405
303.714	63.345
307.799	27.109
311.883	26.767
315.965	43.104
320.044	4.279
324.121	27.365
328.196	3.609
332.27	11.484
336.341	3.963
340.409	34.907
344.476	40.725
348.541	121.286
352.604	83.722
356.664	62.859
360.722	25.852
364.779	76.562
368.833	74.313
372.885	31.053
376.935	8.672
380.983	11.854
385.029	47.749
389.073	55.375
393.114	11.892
397.154	82.174
401.191	54.234
405.227	55.611
409.26	20.609
413.291	22.489
417.321	89.08
421.348	20.148
425.373	11.213
429.396	45.631
433.417	121.18
437.436	40.678
441.452	72.615
445.467	370.987
449.48	171.167
453.49	98.242
457.499	56.458
461.505	96.591
465.51	108.592
469.512	130.152
473.512	66.426
477.511	83.679
481.507	581.031
485.501	350.091
489.493	148.023
493.483	14.767
497.471	56.181
501.457	45.973
505.441	56.096
509.423	40.385
513.403	3.559
517.381	82.438
521.357	85.973
525.33	66.018
529.302	93.874
533.272	84.668
537.239	41.408
541.205	70.804
545.169	34.357
549.13	11.878
553.09	48.33
557.047	58.226
561.003	50.87
564.956	16.492
568.908	67.084
572.857	74.681
576.805	138.964
580.75	111.027
584.694	36.762
588.635	157.097
592.575	99.838
596.512	329.31
600.447	2880.82
604.381	691.806
608.312	123.747
612.242	123.637
616.169	108.117
620.094	75.627
624.018	135.39
627.939	305.114
631.859	170.63
635.776	89.289
639.692	55.924
643.605	105.549
647.516	232.155
651.426	162.365
655.333	85.912
659.239	47.443
663.142	51.586
667.044	75.885
670.944	65.492
674.841	4.136
678.737	36.06
682.63	49.391
686.522	216.757
690.412	122.111
694.3	95.292
698.185	101.486
702.069	85.799
705.951	53.926
709.831	58.272
713.709	64.425
717.585	100.275
721.459	16.818
725.331	15.046
729.201	22.904
733.069	3.136
736.935	29.969
740.799	16.224
744.661	20.565
748.522	64.348
752.38	91.135
756.236	17.908
760.091	43.677
763.943	530.46
767.794	632.26
771.643	217.035
775.489	89.882
779.334	234.752
783.177	238.645
787.018	649.106
790.857	417.512
794.694	199.487
798.529	98.494
802.362	90.532
806.193	80.606
810.022	81.715
813.85	47.86
817.675	50.008
821.499	55.167
825.32	118.593
829.14	99.572
832.958	100.557
836.774	109.014
840.588	159.567
844.4	287.18
848.21	336.87
852.018	332.625
855.824	474.436
859.629	708.3
863.431	973.184
867.232	1382.61
871.03	2808
874.827	9691.06
878.622	54445.3
882.415	21679
886.206	5018.31
889.995	2240.86
893.782	1453.57
897.568	1046.85
901.351	811.921
905.133	689.787
908.912	530.646
912.69	592.67
916.466	847.767
920.24	523.941
924.012	391.196
927.782	290.55
931.551	407.984
935.317	463.497
939.082	664.091
942.844	711.765
946.605	1128.52
950.364	3324.47
954.121	1347.39
957.877	388.392
961.63	208.47
965.381	144.627
969.131	85.882
972.879	98.541
976.625	63.972
980.369	95.423
984.111	70.022
987.851	61.551
991.589	22.207
995.326	51.222
999.061	167.051
1002.79	370.576
1006.52	176.544
1010.25	369.637
1013.98	256.073
1017.71	190.063
1021.43	109.542
1025.15	185.191
1028.87	196.897
1032.59	197.571
1036.31	54.147
1040.02	64.153
1043.73	72.147
1047.44	0.786
1051.15	65.604
1054.86	29.79
1058.56	40.28
1062.27	106.752
1065.97	38.271
1069.67	104.875
1073.37	140.083
1077.06	186.796
1080.76	184.549
1084.45	156.339
1088.14	109.192
1091.83	34.074
1095.52	4.014
1099.2	103.914
1102.88	192.083
1106.57	110.037
1110.24	114.086
1113.92	35.118
1117.6	41.903
1121.27	15.022
1124.94	9.047
1128.62	125.475
1132.28	157.757
1135.95	165.593
1139.62	93.45
1143.28	19.626
1146.94	24.417
1150.6	15.507
1154.26	78.125
1157.91	144.787
1161.57	116.941
1165.22	74.094
1168.87	60.361
1172.52	39.585
1176.17	50.233
1179.81	0.883
1183.45	165.686
1187.1	176.661
1190.74	177.881
1194.38	179.401
1198.01	103.943
1201.65	28.4
1205.28	61.886
1208.91	59.374
1212.54	179.961
1216.17	223.506
1219.79	286.78
1223.41	279.037
1227.04	321.22
1230.66	191.176
1234.28	99.252
1237.89	95.179
1241.51	167.332
1245.12	264.146
1248.73	378.93
1252.34	297.789
1255.95	323.43
1259.56	272.015
1263.16	155.212
1266.76	181.121
1270.36	164.204
1273.96	218.872
1277.56	291.907
1281.15	323.016
1284.75	335.983
1288.34	156.557
1291.93	274.667
1295.52	121.157
1299.11	79.666
1302.69	72.254
1306.28	177.784
1309.86	190.685
1313.44	275.133
1317.01	374.444
1320.59	402.783
1324.16	253.172
1327.74	80.176
1331.31	4.961
1334.88	21.734
1338.44	1.613
1342.01	147.676
1345.58	195.952
1349.14	299.274
1352.7	413.451
1356.26	344.615
1359.81	182.7
1363.37	177.073
1366.92	75.256
1370.47	27.423
1374.03	10.362
1377.57	116.394
1381.12	315.038
1384.67	462.904
1388.21	324.325
1391.75	388.891
1395.29	263.454
1398.83	123.979
1402.37	98.488
1405.9	23.514
1409.43	38.472
1412.96	172.306
1416.49	145.045
1420.02	268.113
1423.55	482.971
1427.07	500.033
1430.6	408.374
1434.12	474.46
1437.63	396.039
1441.15	242.016
1444.67	268.213
1448.18	236.882
1451.7	412.379
1455.21	440.473
1458.72	573.724
1462.22	685.828
1465.73	736.793
1469.23	616.646
1472.73	568.046
1476.24	414.921
1479.73	232.879
1483.23	87.504
1486.73	62.163
1490.22	78.581
1493.71	118.993
1497.2	135.921
1500.69	313.145
1504.18	401.174
1507.67	423.107
1511.15	496.175
1514.63	468.465
1518.11	278.888
