Measurement: Raman, 514 nm, ccw, Raman Data Processed
Mineral: Phenakite
Rruff sample: R040132
Ideal chemistry: Be_2_SiO_4_
Locality: Krager√∏, Telemark, Norway
Source: University of Arizona Mineral Museum
Description: Colorless fragments
Measured chemistry: Be_2.02_Si_0.99_O_4_
Pin_id: L00330
Orientation: Laser parallel to -c* (0 0 -1). Fiducial mark perpendicular to laser is parallel to -a [-1 0 0]
Raman shift (cm-1)	intensity
105.077	0
109.266	82.253
113.453	178.039
117.638	268.773
121.82	141.595
126.001	108.05
130.179	123.926
134.355	79.777
138.529	113.929
142.701	97.471
146.87	107.946
151.038	87.569
155.203	171.507
159.366	619.355
163.527	1772.28
167.686	255.467
171.842	10.326
175.996	25.066
180.149	12.314
184.299	20.375
188.446	8.286
192.592	42.068
196.736	0.187
200.877	26.746
205.016	31.808
209.153	36.419
213.288	83.038
217.421	478.63
221.551	4200.15
225.68	2729
229.806	209.463
233.93	99.006
238.052	23.391
242.172	62.66
246.29	50.916
250.405	54.154
254.519	189.765
258.63	190.134
262.739	58.444
266.846	12.513
270.951	49.613
275.054	290.287
279.154	759.525
283.253	312.022
287.349	83.652
291.444	20.334
295.536	8.017
299.626	19.702
303.714	13.323
307.799	31.888
311.883	13.606
315.965	15.764
320.044	9.946
324.121	2.97
328.196	4.972
332.27	2.177
336.341	50.023
340.409	36.474
344.476	23.14
348.541	166.758
352.604	125.332
356.664	23.864
360.722	62.197
364.779	85.554
368.833	64.033
372.885	39.994
376.935	153.052
380.983	796.896
385.029	3896.8
389.073	832.558
393.114	121.247
397.154	70.822
401.191	78.662
405.227	51.515
409.26	43.228
413.291	32.986
417.321	82.85
421.348	15.588
425.373	8.333
429.396	221.974
433.417	120.362
437.436	136.865
441.452	434.566
445.467	2834.23
449.48	780.916
453.49	185.918
457.499	112.384
461.505	161.823
465.51	426.375
469.512	251.768
473.512	90.048
477.511	53.71
481.507	126.991
485.501	354.962
489.493	113.207
493.483	77.912
497.471	16.952
501.457	39.236
505.441	106.791
509.423	40.491
513.403	70.145
517.381	96.663
521.357	385.238
525.33	2344.74
529.302	1231.24
533.272	182.886
537.239	123.3
541.205	69.658
545.169	72.95
549.13	41.196
553.09	19.604
557.047	38.519
561.003	31.323
564.956	39.857
568.908	83.184
572.857	37.224
576.805	135.086
580.75	78.37
584.694	30.69
588.635	14.85
592.575	53.513
596.512	84.436
600.447	481.701
604.381	162.686
608.312	37.906
612.242	251.089
616.169	548.223
620.094	227.277
624.018	20.315
627.939	135.302
631.859	84.27
635.776	110.226
639.692	46.108
643.605	132.959
647.516	81.799
651.426	159.378
655.333	116.438
659.239	132.224
663.142	233.97
667.044	402.294
670.944	465.959
674.841	229.586
678.737	86.177
682.63	162.73
686.522	750.249
690.412	426.745
694.3	100.208
698.185	60.719
702.069	72.051
705.951	237.392
709.831	33.993
713.709	8.843
717.585	16.83
721.459	22.831
725.331	55.919
729.201	19.755
733.069	4.592
736.935	44.026
740.799	58.629
744.661	19.568
748.522	20.757
752.38	36.328
756.236	15.614
760.091	47.865
763.943	227.906
767.794	336.158
771.643	183.435
775.489	330.727
779.334	428.608
783.177	372.721
787.018	1010.07
790.857	596.436
794.694	235.626
798.529	123.056
802.362	288.517
806.193	776.01
810.022	374.547
813.85	141.143
817.675	98.771
821.499	62.423
825.32	81.115
829.14	45.854
832.958	112.656
836.774	129.502
840.588	141.406
844.4	148.37
848.21	129.38
852.018	161.449
855.824	323.666
859.629	499.956
863.431	704.353
867.232	1144.85
871.03	2509.91
874.827	9562.66
878.622	49907.4
882.415	21199.3
886.206	4931.72
889.995	2062.38
893.782	1311.64
897.568	983.888
901.351	861.269
905.133	718.235
908.912	708.876
912.69	1175.84
916.466	2952.61
920.24	2500.35
924.012	4871.34
927.782	1936.38
931.551	856.521
935.317	903.755
939.082	1160.08
942.844	1094.89
946.605	2249.43
950.364	7833.11
954.121	3651.83
957.877	1095.68
961.63	508.855
965.381	390.854
969.131	251.94
972.879	284.333
976.625	225.01
980.369	116.079
984.111	85.534
987.851	52.612
991.589	172.919
995.326	297.633
999.061	328.453
1002.79	401.582
1006.52	430.152
1010.25	879.747
1013.98	1197.65
1017.71	2238.48
1021.43	2478.23
1025.15	1300.02
1028.87	563.874
1032.59	239.4
1036.31	93.342
1040.02	158.581
1043.73	167.208
1047.44	120.935
1051.15	80.516
1054.86	26.104
1058.56	96.732
1062.27	102.793
1065.97	129.523
1069.67	162.419
1073.37	136.194
1077.06	161.996
1080.76	100.966
1084.45	89.878
1088.14	14.139
1091.83	3.855
1095.52	28.135
1099.2	54.862
1102.88	74.972
1106.57	78.992
1110.24	101.076
1113.92	4.14
1117.6	7.177
1121.27	13.501
1124.94	55.492
1128.62	98.454
1132.28	190.374
1135.95	261.473
1139.62	14.788
1143.28	44.865
1146.94	4.339
1150.6	152.729
1154.26	149.044
1157.91	124.275
1161.57	151.655
1165.22	28.664
1168.87	16.711
1172.52	45.214
1176.17	50.437
1179.81	87.946
1183.45	150.026
1187.1	142.503
1190.74	184.044
1194.38	144.956
1198.01	57.27
1201.65	93.676
1205.28	2.079
1208.91	165.317
1212.54	199.054
1216.17	223.15
1219.79	150.038
1223.41	166.589
1227.04	175.776
1230.66	128.32
1234.28	121.239
1237.89	235.822
1241.51	187.385
1245.12	182.002
1248.73	234.537
1252.34	132.949
1255.95	160.996
1259.56	152.161
1263.16	5.253
1266.76	115.266
1270.36	122.009
1273.96	142.901
1277.56	188.104
1281.15	247.651
1284.75	216.941
1288.34	15.817
1291.93	83.782
1295.52	26.169
1299.11	14.722
1302.69	4.953
1306.28	92.41
1309.86	111.665
1313.44	124.96
1317.01	188.409
1320.59	85.765
1324.16	99.363
1327.74	19.5
1331.31	23.681
1334.88	1.883
1338.44	11.219
1342.01	165.625
1345.58	252.219
1349.14	190.553
1352.7	260.644
1356.26	182.28
1359.81	92.99
1363.37	34.491
1366.92	8.764
1370.47	98.744
1374.03	26.261
1377.57	110.515
1381.12	252.114
1384.67	317.925
1388.21	290.61
1391.75	234.124
1395.29	92.156
1398.83	79.509
1402.37	78.544
1405.9	15.148
1409.43	88.762
1412.96	135.02
1416.49	199.725
1420.02	324.098
1423.55	355.333
1427.07	214.705
1430.6	264.913
1434.12	189.347
1437.63	50.878
1441.15	122.594
1444.67	122.975
1448.18	142.755
1451.7	306.949
1455.21	301.318
1458.72	401.129
1462.22	548.873
1465.73	489.145
1469.23	403.796
1472.73	258.851
1476.24	252.703
1479.73	191.909
1483.23	80.245
1486.73	100.382
1490.22	163.478
1493.71	262.432
1497.2	247.889
1500.69	343.144
1504.18	455.18
1507.67	520.873
1511.15	475.274
1514.63	460.417
1518.11	279.677
1521.59	0
