Measurement: Raman, 514 nm, ccw, Raman Data Processed
Mineral: Phenakite
Rruff sample: R040046
Ideal chemistry: Be_2_SiO_4_
Locality: San Miguel de Piracicaba, Minas Gerais, Brazil
Source: University of Arizona Mineral Museum
Description: Colorless crystal fragments
Measured chemistry: Be_2.02_Si_0.99_O_4_
Pin_id: L00327
Orientation: Laser parallel to c* (0 0 1). Fiducial mark perpendicular to laser is parallel to a [1 0 0]
Raman shift (cm-1)	intensity
89.89	0
94.071	49.287
98.251	50.53
102.428	19.312
106.604	56.323
110.777	52.536
114.949	39.771
119.119	147.432
123.286	28.825
127.452	19.794
131.615	19.063
135.777	41.615
139.937	56.187
144.094	28.331
148.25	59.214
152.403	47.923
156.555	255.135
160.705	1304.88
164.853	682.108
168.998	38.791
173.142	65.814
177.284	3.226
181.424	15.645
185.562	1.889
189.698	3.971
193.831	11.927
197.963	25.608
202.093	12.691
206.221	63.261
210.347	29.604
214.472	84.701
218.594	1413.11
222.714	4287.96
226.832	590.493
230.948	89.111
235.063	5.782
239.175	19
243.286	44.139
247.394	20.273
251.501	83.797
255.605	182.433
259.708	52.81
263.808	8.856
267.907	1.468
272.004	54.764
276.099	539.956
280.192	493.056
284.283	67.045
288.372	32.083
292.459	8.638
296.544	3.229
300.627	14.261
304.709	14.012
308.788	11.048
312.865	17.001
316.941	8.946
321.015	23.624
325.086	69.192
329.156	10.364
333.224	19.918
337.29	37.073
341.354	40.896
345.416	109.952
349.476	193.65
353.534	85.048
357.591	7.356
361.645	38.555
365.698	23.69
369.748	33.763
373.797	43.703
377.844	106.517
381.889	2078.49
385.932	2276.5
389.973	223.352
394.012	120.144
398.049	64.748
402.084	41.708
406.118	20.278
410.15	80.371
414.179	62.932
418.207	52.388
422.233	61.024
426.257	130.279
430.279	181.021
434.299	110.122
438.318	181.56
442.334	1278.94
446.349	2118.26
450.361	276.572
454.372	122.906
458.381	108.37
462.388	190.681
466.394	363.528
470.397	94.236
474.398	88.811
478.398	75.631
482.396	265.747
486.391	206.815
490.385	72.021
494.377	66.957
498.368	34.21
502.356	13.151
506.342	40.037
510.327	45.361
514.31	87.531
518.291	131.21
522.27	770.199
526.247	2312.82
530.222	360.492
534.196	145.261
538.167	36.308
542.137	51.311
546.105	81.269
550.071	50.183
554.035	13.055
557.998	70.957
561.958	52.851
565.917	15.905
569.874	42.486
573.829	3.802
577.782	52.026
581.733	62.305
585.683	27.901
589.63	47.041
593.576	71.334
597.52	215.593
601.462	372.82
605.402	74.943
609.341	60.093
613.277	217.23
617.212	314.051
621.145	128.361
625.076	72.441
629.006	10.5
632.933	74.471
636.859	44.303
640.783	35.264
644.705	30.213
648.625	33.118
652.543	80.964
656.46	44.73
660.375	92.192
664.288	189.79
668.199	484.409
672.108	299.913
676.016	93.654
679.921	66.348
683.825	323.025
687.727	724.686
691.628	125.331
695.526	60.947
699.423	83.555
703.318	233.04
707.211	112.618
711.102	52.088
714.992	28.471
718.879	34.868
722.765	30.036
726.649	23.455
730.532	23.064
734.412	84.328
738.291	18.539
742.168	0.517
746.043	4.858
749.916	14.245
753.788	2.678
757.658	42.587
761.526	48.472
765.392	354.352
769.257	193.246
773.119	175.155
776.98	472.081
780.839	353.048
784.697	496.109
788.552	876.116
792.406	269.155
796.258	162.216
800.108	109.284
803.957	386.657
807.804	641.801
811.649	156.979
815.492	12.34
819.333	16.438
823.173	26.279
827.011	1.984
830.847	19.345
834.681	119.712
838.514	98.12
842.345	76.229
846.174	89.098
850.001	175.704
853.827	248.387
857.651	318.157
861.473	483.987
865.293	672.868
869.112	1233.55
872.928	3279.62
876.744	18667.6
880.557	40232.7
884.369	7727.58
888.178	2492.69
891.987	1413.13
895.793	926.49
899.598	748.745
903.401	623.782
907.202	596.373
911.001	679.284
914.799	1422.32
918.595	2575.37
922.389	2485.49
926.182	3523.68
929.972	865.945
933.761	598.92
937.549	948.326
941.334	958.809
945.118	1118.36
948.9	3643.97
952.681	6198.66
956.459	1603.43
960.236	566.627
964.012	397.57
967.785	225.583
971.557	156.647
975.327	159.022
979.095	98.203
982.862	94.474
986.627	99.881
990.39	156.495
994.152	243.289
997.912	309.501
1001.67	271.007
1005.43	303.571
1009.18	452.404
1012.93	890.684
1016.68	1278.85
1020.43	2334.27
1024.18	1622.91
1027.93	661.596
1031.67	334.434
1035.42	178.897
1039.16	96.336
1042.9	166.935
1046.63	89.786
1050.37	42.468
1054.11	90.258
1057.84	35.208
1061.57	36.009
1065.3	113.859
1069.03	71.759
1072.75	93.662
1076.47	44.562
1080.2	57.457
1083.92	40.386
1087.64	1.244
1091.36	119.127
1095.07	18.977
1098.79	65.924
1102.5	47.775
1106.21	39.606
1109.92	40.095
1113.62	19.411
1117.33	42.211
1121.04	20.238
1124.74	199.058
1128.44	38.812
1132.14	46.561
1135.83	2.7
1139.53	7.09
1143.22	100.11
1146.92	83.212
1150.61	13.888
1154.3	1.201
1157.98	3.324
1161.67	3.265
1165.35	35.792
1169.04	38.89
1172.72	2.028
1176.4	115.094
1180.07	93.46
1183.75	50.042
1187.42	38.026
1191.1	76.726
1194.77	100.248
1198.44	83.569
1202.1	153.787
1205.77	183.334
1209.43	153.033
1213.1	188.104
1216.76	148.123
1220.42	83.223
1224.07	65.917
1227.73	113.66
1231.38	137.211
1235.04	146.649
1238.69	175.917
1242.34	159.947
1245.99	145.885
1249.63	144.776
1253.28	2.605
1256.92	117.954
1260.56	114.085
1264.2	105.765
1267.84	151.152
1271.48	126.448
1275.11	95.899
1278.74	126.024
1282.38	142.005
1286.01	35.758
1289.63	13.09
1293.26	144.084
1296.89	175.388
1300.51	74.355
1304.13	66.088
1307.75	95.801
1311.37	89.406
1314.99	28.454
1318.6	66.058
1322.22	12.204
1325.83	100.373
1329.44	75.732
1333.05	120.566
1336.66	105.373
1340.26	150.804
1343.87	110.339
1347.47	5.699
1351.07	12.848
1354.67	8.918
1358.27	63.221
1361.86	23.306
1365.46	37.258
1369.05	159.081
1372.64	98.929
1376.23	25.749
1379.82	167.657
1383.41	77.65
1386.99	90.408
1390.57	66.039
1394.16	58.21
1397.74	114.7
1401.32	94.183
1404.89	97.708
1408.47	139.372
1412.04	140.729
1415.61	138.846
1419.18	68.171
1422.75	12.141
1426.32	60.476
1429.89	40.711
1433.45	3.829
1437.01	125.736
1440.58	182.315
1444.13	140.368
1447.69	267.111
1451.25	214.625
1454.81	156.088
1458.36	175.927
1461.91	167.188
1465.46	114.49
1469.01	93.498
1472.56	244.562
1476.1	135.029
1479.64	171.562
1483.19	164.411
1486.73	194.292
1490.27	236.235
1493.81	160.265
1497.34	160.36
1500.88	180.407
1504.41	61.45
1507.94	116.972
1511.47	58.279
1515	100.231
1518.53	25.813
1522.05	95.854
1525.57	159.792
1529.1	132.203
1532.62	176.369
1536.14	0
