Measurement: Raman, 514 nm, ccw, Raman Data Processed
Mineral: Phenakite
Rruff sample: R040132
Ideal chemistry: Be_2_SiO_4_
Locality: Krager√∏, Telemark, Norway
Source: University of Arizona Mineral Museum
Description: Colorless fragments
Measured chemistry: Be_2.02_Si_0.99_O_4_
Pin_id: L00330
Orientation: Laser parallel to -c* (0 0 -1). Fiducial mark perpendicular to laser is parallel to -a [-1 0 0]
Raman shift (cm-1)	intensity
93.895	0
98.09	26.002
102.283	87.522
106.473	166.515
110.662	124.618
114.848	301.245
119.032	361.287
123.214	170.935
127.394	153.351
131.571	146.806
135.747	148.556
139.92	125.704
144.091	130.388
148.26	104.915
152.426	72.207
156.591	248.803
160.753	1629.78
164.913	1083
169.071	71.688
173.227	63.791
177.381	32.578
181.532	24.684
185.681	16.514
189.828	8.703
193.973	35.484
198.116	14.672
202.257	68.734
206.395	87.179
210.532	11.946
214.666	76.363
218.798	1012.15
222.928	7486.48
227.055	1056.32
231.181	145.862
235.304	8.005
239.426	58.524
243.545	26.047
247.662	9.383
251.777	78.512
255.889	240.071
260	28.298
264.108	7.433
268.215	26.759
272.319	44.157
276.421	629.528
280.521	710.773
284.619	122.873
288.714	17.206
292.808	14.496
296.899	13.016
300.989	9.33
305.076	11.313
309.161	35.85
313.244	44.615
317.325	20.014
321.403	13.153
325.48	2.843
329.554	34.021
333.627	48.815
337.697	2.328
341.765	11.17
345.831	91.879
349.895	154.537
353.957	14.989
358.017	5.342
362.075	19.087
366.13	0.908
370.184	69.334
374.235	31.372
378.285	205.497
382.332	1672.58
386.377	3466.6
390.42	324.549
394.461	75.555
398.5	45.038
402.537	19.19
406.571	40.28
410.604	26.473
414.635	108.506
418.663	22.29
422.69	45.002
426.714	86.336
430.736	370.748
434.757	105.638
438.775	119.303
442.791	1084.85
446.805	3450.36
450.817	427.726
454.827	131.145
458.835	52.721
462.84	167.416
466.844	499.675
470.846	79.08
474.845	75.416
478.843	116.275
482.839	224.994
486.832	234.897
490.823	8.178
494.813	44.804
498.8	43.288
502.785	71.405
506.769	37.806
510.75	23.257
514.729	43.244
518.706	136.596
522.681	643.107
526.655	3271.82
530.626	615.954
534.595	166.899
538.562	44.094
542.527	61.245
546.489	62.437
550.45	36.417
554.409	36.437
558.366	27.884
562.321	38.11
566.274	24.472
570.225	28.167
574.173	49.62
578.12	68.74
582.065	31.496
586.008	17.048
589.949	87.967
593.887	61.19
597.824	100.639
601.759	457.729
605.692	110.551
609.622	97.879
613.551	204.204
617.478	626.497
621.402	131.764
625.325	122.005
629.246	112.212
633.165	82.298
637.082	3.672
640.996	25.445
644.909	89.553
648.82	83.54
652.729	56.622
656.636	119.563
660.54	202.603
664.443	293.569
668.344	579.423
672.243	345.358
676.14	99.284
680.035	137.194
683.928	391.082
687.819	909.947
691.708	229.789
695.595	45.608
699.48	50.403
703.363	187.176
707.244	161.928
711.124	11.468
715.001	31.736
718.876	5.195
722.749	7.902
726.621	23.943
730.49	10.18
734.358	50.634
738.223	63.622
742.087	18.812
745.948	14.017
749.808	32.655
753.666	43.662
757.521	57.998
761.375	72.578
765.227	419.949
769.077	285.537
772.925	199.135
776.771	572.746
780.615	525.326
784.457	735.963
788.298	1235.61
792.136	339.083
795.972	108.719
799.807	196.415
803.639	556.169
807.47	828.967
811.298	233.803
815.125	40.669
818.95	56.586
822.773	47.547
826.594	58.564
830.413	105.646
834.23	137.77
838.045	105.943
841.858	133.165
845.67	152.43
849.479	283.749
853.287	322.118
857.093	391.552
860.896	615.059
864.698	893.468
868.498	1715.36
872.296	4220.86
876.092	21110.7
879.886	57245.5
883.679	13243.3
887.469	3941.44
891.258	2049.42
895.044	1401.47
898.829	1072.69
902.612	869.355
906.393	738.183
910.172	935.187
913.949	1814.78
917.724	3500.45
921.498	3267.2
925.269	4964.03
929.039	1500.11
932.806	876.104
936.572	1425.18
940.336	1515.33
944.098	1410.57
947.859	4332.96
951.617	8997.57
955.373	2628.02
959.128	946.755
962.881	487.171
966.631	324.673
970.38	275.517
974.128	217.926
977.873	116.697
981.616	74.843
985.358	142.773
989.097	244.038
992.835	338.317
996.571	401.757
1000.3	365.478
1004.04	368.326
1007.77	630.28
1011.5	1263.4
1015.22	1628.52
1018.95	3030.47
1022.67	2359.57
1026.39	964.463
1030.11	455.474
1033.83	253.993
1037.54	227.49
1041.26	156.601
1044.97	98.859
1048.68	29.977
1052.39	34.46
1056.09	28.542
1059.8	26.493
1063.5	91.525
1067.2	115.577
1070.9	105.692
1074.6	9.102
1078.29	36.167
1081.99	32.479
1085.68	83.681
1089.37	38.906
1093.06	28.15
1096.74	88.404
1100.43	27.642
1104.11	28.141
1107.79	19.903
1111.47	45.403
1115.15	103.789
1118.82	76.916
1122.5	152.062
1126.17	118.072
1129.84	15.965
1133.51	19.594
1137.17	17.581
1140.84	52.248
1144.5	58.148
1148.16	76.387
1151.82	36.746
1155.48	38.294
1159.13	17.376
1162.79	31.128
1166.44	33.361
1170.09	44.128
1173.74	134.762
1177.38	100.74
1181.03	145.228
1184.67	3.715
1188.31	10.008
1191.95	59.971
1195.59	90.924
1199.22	125.041
1202.86	162.947
1206.49	207.984
1210.12	139.465
1213.75	189.621
1217.38	117.384
1221	40.682
1224.62	37.124
1228.24	182.586
1231.86	136.222
1235.48	182.851
1239.1	245.751
1242.71	214.621
1246.33	115.185
1249.94	72.947
1253.55	53.088
1257.15	63.655
1260.76	95.58
1264.36	141.313
1267.96	177.021
1271.56	192.349
1275.16	39.455
1278.76	57.435
1282.35	5.208
1285.95	73.973
1289.54	8.508
1293.13	99.607
1296.72	75.559
1300.3	147.35
1303.89	134.905
1307.47	149.493
1311.05	59.156
1314.63	39.726
1318.21	5.508
1321.78	56.188
1325.36	35.295
1328.93	133.791
1332.5	126.282
1336.07	206.273
1339.63	189.234
1343.2	157.05
1346.76	84.583
1350.33	127.25
1353.88	16.036
1357.44	47.696
1361	103.95
1364.55	58.444
1368.11	147.742
1371.66	160.362
1375.21	165.724
1378.76	185.178
1382.3	150.032
1385.85	88.646
1389.39	39.988
1392.93	25.193
1396.47	132.497
1400.01	135.362
1403.54	207.341
1407.08	298.089
1410.61	285.278
1414.14	227.653
1417.67	149.088
1421.2	132.161
1424.72	46.909
1428.25	54.399
1431.77	93.192
1435.29	115.16
1438.81	263.322
1442.33	283.486
1445.84	351.474
1449.35	387.186
1452.87	438.181
1456.38	374.717
1459.88	301.741
1463.39	222.641
1466.9	206.47
1470.4	153.271
1473.9	165.256
1477.4	48.669
1480.9	177.355
1484.4	224.157
1487.89	314.448
1491.39	329.907
1494.88	380.005
1498.37	296.848
1501.86	240.138
1505.34	75.431
1508.83	21.854
1512.31	38.017
1515.79	0.406
1519.27	0.149
