Measurement: Raman, 514 nm, ccw, Raman Data Processed
Mineral: Phenakite
Rruff sample: R040132
Ideal chemistry: Be_2_SiO_4_
Locality: Krager√∏, Telemark, Norway
Source: University of Arizona Mineral Museum
Description: Colorless fragments
Measured chemistry: Be_2.02_Si_0.99_O_4_
Pin_id: L00303
Orientation: Laser parallel to -a* (-1 0 0). Fiducial mark perpendicular to laser is parallel to c [0 0 1]
Raman shift (cm-1)	intensity
98.09	0
102.283	144.666
106.473	74.671
110.662	117.534
114.848	308.701
119.032	597.34
123.214	104.252
127.394	110.406
131.571	159.13
135.747	37.096
139.92	77.159
144.091	155.836
148.26	162.385
152.426	101.861
156.591	193.208
160.753	1330.59
164.913	1172.52
169.071	74.022
173.227	142.488
177.381	61.104
181.532	19.581
185.681	0.925
189.828	47.337
193.973	75.187
198.116	36.559
202.257	33.766
206.395	94.779
210.532	14.26
214.666	44.492
218.798	549.832
222.928	3700.47
227.055	958.585
231.181	246.883
235.304	139.337
239.426	48.187
243.545	8.7
247.662	59.332
251.777	142.083
255.889	280.094
260	105.805
264.108	52.117
268.215	128.696
272.319	63.102
276.421	657.287
280.521	952.955
284.619	177.842
288.714	30.073
292.808	53.625
296.899	116.631
300.989	30.112
305.076	8.706
309.161	50.328
313.244	94.189
317.325	35.397
321.403	15.669
325.48	69.76
329.554	90.713
333.627	53.683
337.697	25.557
341.765	88.694
345.831	117.495
349.895	362.335
353.957	70.844
358.017	29.712
362.075	102.009
366.13	45.336
370.184	22.046
374.235	54.251
378.285	130.897
382.332	1046.91
386.377	3974.21
390.42	368.237
394.461	191.059
398.5	125.747
402.537	30.391
406.571	7.267
410.604	62.989
414.635	114.825
418.663	40.494
422.69	15.06
426.714	159.988
430.736	355.731
434.757	44.885
438.775	20.058
442.791	692.089
446.805	1672.84
450.817	397.42
454.827	62.854
458.835	25.292
462.84	183.271
466.844	589.803
470.846	57.926
474.845	25.779
478.843	100.509
482.839	301.383
486.832	258.083
490.823	8.251
494.813	41.92
498.8	41.469
502.785	5.35
506.769	12.403
510.75	74.121
514.729	110.457
518.706	144.547
522.681	482.738
526.655	3373.59
530.626	633.476
534.595	166.296
538.562	45.309
542.527	10.653
546.489	16.221
550.45	33.092
554.409	43.037
558.366	34.787
562.321	22.139
566.274	105.481
570.225	75.543
574.173	54.322
578.12	77.457
582.065	73.201
586.008	96.829
589.949	126.405
593.887	120
597.824	205.687
601.759	690.208
605.692	218.379
609.622	231.495
613.551	154.544
617.478	794.395
621.402	383.371
625.325	575.309
629.246	393.192
633.165	189.919
637.082	154.578
640.996	240.385
644.909	315.158
648.82	324.437
652.729	318.006
656.636	266.245
660.54	309.704
664.443	289.519
668.344	422.032
672.243	312.264
676.14	116.605
680.035	179.086
683.928	388.536
687.819	920.956
691.708	201.347
695.595	4.682
699.48	95.842
703.363	307.741
707.244	228.806
711.124	53.051
715.001	14.821
718.876	5.362
722.749	20.499
726.621	2.346
730.49	65.929
734.358	5.149
738.223	29.34
742.087	47.521
745.948	23.393
749.808	10.467
753.666	36.481
757.521	2.437
761.375	119.332
765.227	524.249
769.077	255.183
772.925	222.133
776.771	780.103
780.615	630.091
784.457	645.103
788.298	1372.14
792.136	345.204
795.972	160.297
799.807	307.433
803.639	638.605
807.47	1003.82
811.298	264.078
815.125	75.376
818.95	159.72
822.773	124.118
826.594	182.205
830.413	170.785
834.23	190.669
838.045	224.286
841.858	216.959
845.67	358.701
849.479	419.989
853.287	387.418
857.093	710.442
860.896	1045.61
864.698	1329.94
868.498	1967.52
872.296	4014.99
876.092	18248.6
879.886	60420.8
883.679	14425.6
887.469	4582.46
891.258	2360.36
895.044	1481.71
898.829	1091.32
902.612	964.432
906.393	1032.76
910.172	1112.86
913.949	1913.03
917.724	3785.66
921.498	3101.59
925.269	5403.64
929.039	1669.8
932.806	1054.08
936.572	1654.47
940.336	1719.97
944.098	1370.58
947.859	3948.24
951.617	9920.12
955.373	2883.07
959.128	1023.38
962.881	534.547
966.631	274.82
970.38	215.382
974.128	130.303
977.873	79.265
981.616	35.971
985.358	40.782
989.097	219.699
992.835	270.223
996.571	416.538
1000.3	724.08
1004.04	673.085
1007.77	614.061
1011.5	1039.71
1015.22	1416.48
1018.95	2294.32
1022.67	2000.5
1026.39	978.793
1030.11	471.752
1033.83	296.275
1037.54	109.896
1041.26	23.309
1044.97	66.7
1048.68	156.799
1052.39	49.022
1056.09	70.18
1059.8	22.796
1063.5	31.411
1067.2	2.05
1070.9	52.603
1074.6	124.095
1078.29	188.292
1081.99	187.039
1085.68	205.175
1089.37	80.135
1093.06	54.135
1096.74	30.167
1100.43	30.216
1104.11	10.703
1107.79	63.398
1111.47	67.528
1115.15	26.683
1118.82	88.858
1122.5	58.065
1126.17	80.262
1129.84	103.466
1133.51	30.695
1137.17	10.065
1140.84	21.828
1144.5	2.372
1148.16	23.45
1151.82	1.637
1155.48	120.657
1159.13	46.657
1162.79	36.439
1166.44	5.178
1170.09	24.891
1173.74	12.577
1177.38	58.22
1181.03	134.805
1184.67	140.366
1188.31	24.405
1191.95	6.637
1195.59	35.575
1199.22	83.389
1202.86	5.553
1206.49	44.539
1210.12	145.947
1213.75	237.243
1217.38	220.43
1221	159.395
1224.62	159.48
1228.24	32.947
1231.86	106.476
1235.48	205.098
1239.1	221.69
1242.71	254.408
1246.33	416.644
1249.94	302.548
1253.55	201.857
1257.15	169.919
1260.76	160.938
1264.36	224.002
1267.96	284.656
1271.56	429.116
1275.16	351.71
1278.76	286.439
1282.35	245.875
1285.95	154.428
1289.54	127.912
1293.13	112.521
1296.72	148.375
1300.3	199.947
1303.89	276.719
1307.47	412.34
1311.05	288.686
1314.63	362.033
1318.21	282.296
1321.78	140.955
1325.36	91.971
1328.93	79.875
1332.5	102.94
1336.07	182.769
1339.63	216.373
1343.2	214.633
1346.76	167.199
1350.33	106.363
1353.88	22.546
1357.44	16.555
1361	38.368
1364.55	16.849
1368.11	51.546
1371.66	82.188
1375.21	187.771
1378.76	305.096
1382.3	398.826
1385.85	257.167
1389.39	260.401
1392.93	47.521
1396.47	83.489
1400.01	79.346
1403.54	162.066
1407.08	326.73
1410.61	330.419
1414.14	386.145
1417.67	303.069
1421.2	401.965
1424.72	240.864
1428.25	177.114
1431.77	277.592
1435.29	315.522
1438.81	451.647
1442.33	592.185
1445.84	668.128
1449.35	886.618
1452.87	954.253
1456.38	1076.73
1459.88	807.603
1463.39	656.846
1466.9	438.503
1470.4	360.722
1473.9	342.135
1477.4	112.404
1480.9	236.53
1484.4	319.201
1487.89	368.102
1491.39	374.902
1494.88	428.604
1498.37	439.514
1501.86	432.978
1505.34	222.26
1508.83	165.235
1512.31	0.121
1515.79	8.143
1519.27	0
