Measurement: Raman, 514 nm, ccw, Raman Data Processed
Mineral: Phenakite
Rruff sample: R040046
Ideal chemistry: Be_2_SiO_4_
Locality: San Miguel de Piracicaba, Minas Gerais, Brazil
Source: University of Arizona Mineral Museum
Description: Colorless crystal fragments
Measured chemistry: Be_2.02_Si_0.99_O_4_
Pin_id: L00327
Orientation: Laser parallel to c* (0 0 1). Fiducial mark perpendicular to laser is parallel to a [1 0 0]
Raman shift (cm-1)	intensity
89.89	0
94.071	43.78
98.251	39.842
102.428	24.726
106.604	37.994
110.777	23.203
114.949	51.52
119.119	123.45
123.286	45.443
127.452	31.857
131.615	34.799
135.777	44.976
139.937	29.289
144.094	54.209
148.25	39.242
152.403	107.796
156.555	255.457
160.705	1554.48
164.853	791.621
168.998	39.72
173.142	53.398
177.284	15.793
181.424	39.774
185.562	52.109
189.698	42.279
193.831	6.734
197.963	31.048
202.093	69.82
206.221	8.47
210.347	23.007
214.472	92.801
218.594	1362.45
222.714	5261.23
226.832	648.879
230.948	103.327
235.063	12
239.175	21.832
243.286	50.259
247.394	41.568
251.501	68.447
255.605	184.258
259.708	62.215
263.808	7.838
267.907	20.011
272.004	71.683
276.099	636.252
280.192	663.682
284.283	69.956
288.372	8.072
292.459	47.026
296.544	15.806
300.627	15.578
304.709	9.624
308.788	6.225
312.865	15.146
316.941	56.609
321.015	49.23
325.086	30.731
329.156	71.066
333.224	49.306
337.29	51.025
341.354	73.586
345.416	149.519
349.476	196.662
353.534	77.71
357.591	58.274
361.645	80.912
365.698	59.278
369.748	99.276
373.797	99.344
377.844	172.782
381.889	2180.32
385.932	2682.84
389.973	240.694
394.012	89.124
398.049	49.989
402.084	109.476
406.118	73.176
410.15	72.825
414.179	154.104
418.207	67.728
422.233	94.945
426.257	137.263
430.279	210.818
434.299	67.223
438.318	158.185
442.334	1363.11
446.349	2491.92
450.361	260.65
454.372	62.521
458.381	92.324
462.388	200.485
466.394	453.572
470.397	95.25
474.398	79.961
478.398	101.951
482.396	204.597
486.391	169.203
490.385	112.016
494.377	81.35
498.368	43.065
502.356	51.576
506.342	61.879
510.327	47.065
514.31	96.804
518.291	99.273
522.27	809.35
526.247	2816.56
530.222	382.744
534.196	85.017
538.167	60.502
542.137	94.99
546.105	13.418
550.071	27.794
554.035	58.125
557.998	5.355
561.958	0.704
565.917	2.405
569.874	8.79
573.829	18.412
577.782	90.478
581.733	57.491
585.683	30.75
589.63	43.067
593.576	84.468
597.52	180.541
601.462	408.739
605.402	103.669
609.341	79.525
613.277	268.35
617.212	590.153
621.145	105.897
625.076	37.671
629.006	32.427
632.933	66.017
636.859	35.694
640.783	33.34
644.705	29.956
648.625	24.541
652.543	28.937
656.46	111.466
660.375	210.913
664.288	230.406
668.199	530.862
672.108	263.272
676.016	83.688
679.921	62.088
683.825	372.469
687.727	749.834
691.628	179.182
695.526	66.512
699.423	47.826
703.318	281.995
707.211	176.9
711.102	10.109
714.992	17.172
718.879	60.371
722.765	28.833
726.649	28.789
730.532	56.26
734.412	9.778
738.291	42.086
742.168	26.56
746.043	13.209
749.916	51.139
753.788	25.66
757.658	8.749
761.526	44.139
765.392	367.526
769.257	284.923
773.119	225.332
776.98	533.756
780.839	352.188
784.697	511.623
788.552	995.341
792.406	354.759
796.258	180.257
800.108	150.653
803.957	448.2
807.804	709.798
811.649	233.444
815.492	89.149
819.333	18.884
823.173	3.647
827.011	57.442
830.847	61.274
834.681	121.143
838.514	92.07
842.345	124.04
846.174	166.076
850.001	229.181
853.827	266.334
857.651	404.547
861.473	509.822
865.293	750.163
869.112	1410.66
872.928	3649.1
876.744	19859.7
880.557	47186.4
884.369	8901.55
888.178	2857.72
891.987	1539.68
895.793	1084.15
899.598	831.896
903.401	690.463
907.202	618.183
911.001	729.652
914.799	1503.91
918.595	3012.27
922.389	2789.77
926.182	4120.34
929.972	1077.24
933.761	646.112
937.549	1116.97
941.334	1134.78
945.118	1196.68
948.9	3953.64
952.681	7165.07
956.459	1798.18
960.236	703.174
964.012	384.463
967.785	300.764
971.557	195.269
975.327	174.724
979.095	61.251
982.862	79.616
986.627	143.751
990.39	188.319
994.152	338.416
997.912	307.546
1001.67	267.556
1005.43	353.615
1009.18	573.153
1012.93	965.235
1016.68	1410.49
1020.43	2636.61
1024.18	1840.38
1027.93	712.729
1031.67	391.419
1035.42	125.337
1039.16	175.137
1042.9	162.239
1046.63	198.224
1050.37	25.326
1054.11	70.465
1057.84	37.728
1061.57	135.029
1065.3	129.376
1069.03	63.994
1072.75	134.369
1076.47	38.75
1080.2	33.776
1083.92	51.622
1087.64	76.979
1091.36	91.335
1095.07	64.854
1098.79	113.202
1102.5	62.576
1106.21	54.126
1109.92	1.912
1113.62	6.365
1117.33	4.034
1121.04	63.977
1124.74	117.914
1128.44	14.956
1132.14	16.307
1135.83	30.489
1139.53	22.567
1143.22	50.003
1146.92	35.362
1150.61	33.125
1154.3	21.245
1157.98	73.878
1161.67	13.651
1165.35	9.38
1169.04	37.682
1172.72	15.518
1176.4	50.013
1180.07	46.158
1183.75	94.863
1187.42	80.183
1191.1	138.162
1194.77	101.884
1198.44	77.795
1202.1	118.538
1205.77	189.113
1209.43	166.637
1213.1	159.864
1216.76	183.318
1220.42	87.313
1224.07	65.225
1227.73	112.563
1231.38	144.367
1235.04	151.987
1238.69	184.676
1242.34	187.231
1245.99	112.716
1249.63	106.367
1253.28	116.502
1256.92	107.425
1260.56	66.561
1264.2	51.456
1267.84	221.387
1271.48	183.312
1275.11	57.397
1278.74	17.157
1282.38	133.212
1286.01	22.395
1289.63	26.243
1293.26	119.034
1296.89	205.672
1300.51	113.642
1304.13	49.071
1307.75	38.999
1311.37	36.301
1314.99	42.676
1318.6	3.516
1322.22	23.197
1325.83	18.255
1329.44	69.071
1333.05	85.461
1336.66	67.548
1340.26	131.708
1343.87	35.718
1347.47	73.666
1351.07	37.528
1354.67	4.666
1358.27	36.065
1361.86	93.491
1365.46	125.13
1369.05	168.653
1372.64	157.257
1376.23	71.824
1379.82	156.479
1383.41	124.821
1386.99	81.427
1390.57	73.153
1394.16	146.713
1397.74	129.505
1401.32	99.805
1404.89	88.659
1408.47	159.942
1412.04	151.939
1415.61	191.038
1419.18	121.173
1422.75	60.226
1426.32	63.866
1429.89	39.715
1433.45	37.833
1437.01	127.708
1440.58	200.471
1444.13	158.712
1447.69	323.534
1451.25	261.58
1454.81	241.01
1458.36	247.214
1461.91	106.215
1465.46	166.995
1469.01	154.615
1472.56	212.097
1476.1	193.951
1479.64	191.526
1483.19	152.304
1486.73	299.742
1490.27	284.551
1493.81	263.784
1497.34	186.207
1500.88	91.852
1504.41	116.874
1507.94	48.526
1511.47	96.144
1515	145.798
1518.53	81.601
1522.05	213.067
1525.57	148.817
1529.1	196.542
1532.62	192.122
1536.14	0
