Measurement: Raman, 514 nm, ccw, Raman Data Processed
Mineral: Phenakite
Rruff sample: R040046
Ideal chemistry: Be_2_SiO_4_
Locality: San Miguel de Piracicaba, Minas Gerais, Brazil
Source: University of Arizona Mineral Museum
Description: Colorless crystal fragments
Measured chemistry: Be_2.02_Si_0.99_O_4_
Pin_id: M00041
Orientation: Laser parallel to -b* (0 -1 0). Fiducial mark perpendicular to laser is parallel to -c [0 0 -1]
Raman shift (cm-1)	intensity
109.987	0
114.171	10.568
118.353	199.104
122.533	69.172
126.711	56.307
130.886	48.663
135.06	14.286
139.231	28.541
143.401	39.224
147.568	63.298
151.733	65.538
155.896	56.061
160.058	378.935
164.217	724.006
168.374	52.139
172.528	0.228
176.681	45.566
180.832	6.208
184.981	8.042
189.127	14.422
193.272	17.161
197.414	8.759
201.555	40.861
205.693	80.086
209.83	44.461
213.964	17.368
218.096	135.577
222.226	3468.2
226.355	1813.85
230.481	94.69
234.605	71.069
238.727	14.954
242.847	26.898
246.965	13.977
251.08	19.423
255.194	110.883
259.306	86.966
263.416	3.005
267.524	12.395
271.629	14.061
275.733	169.488
279.835	614.546
283.934	179.604
288.032	47.11
292.127	17.351
296.221	21.81
300.312	44.138
304.402	22.59
308.489	12.053
312.575	23.21
316.658	40.228
320.74	34.541
324.819	44.185
328.897	34.783
332.972	24.804
337.045	9.052
341.117	23.778
345.186	85.011
349.253	198.156
353.319	58.998
357.382	59.688
361.443	45.833
365.503	39.814
369.56	48.03
373.616	23.991
377.669	143.455
381.72	369.665
385.77	3266.19
389.817	441.72
393.863	119.727
397.906	65.802
401.947	61.122
405.987	58.027
410.024	40.513
414.06	105.134
418.093	65.399
422.125	28.062
426.154	57.21
430.182	263.131
434.208	107.502
438.231	81.157
442.253	249.535
446.273	2647.54
450.29	562.007
454.306	113.701
458.32	59.762
462.332	80.595
466.341	315.283
470.349	101.278
474.355	58.128
478.359	46.298
482.361	137.722
486.361	190.396
490.359	107.178
494.356	49.89
498.35	49.284
502.342	78.315
506.332	85.991
510.321	34.004
514.307	77.869
518.292	113.442
522.274	155.137
526.255	1721.1
530.233	906.936
534.21	180.684
538.185	54.33
542.158	69.492
546.129	34.347
550.098	21.138
554.065	8.658
558.03	24.796
561.993	40.604
565.954	38.782
569.913	38.921
573.871	46.337
577.826	61.632
581.78	59.745
585.731	20.192
589.681	27.899
593.629	64.125
597.575	25.216
601.519	370.349
605.461	102.209
609.401	59.105
613.339	25.292
617.275	406.501
621.21	491.168
625.142	41.273
629.073	47.434
633.001	7.507
636.928	3.92
640.853	12.223
644.776	9.375
648.697	11.686
652.616	1.733
656.534	12.939
660.449	35.948
664.362	204.168
668.274	221.308
672.184	315.367
676.092	72.348
679.997	64.002
683.901	207.51
687.804	627.213
691.704	295.367
695.602	9.777
699.499	29.326
703.393	101.037
707.286	178.68
711.177	43.362
715.066	24.049
718.953	30.897
722.838	30.773
726.722	1.089
730.603	8.571
734.483	23.371
738.361	23.333
742.236	1.428
746.11	23.144
749.983	1.763
753.853	40.147
757.721	46.62
761.588	51.842
765.453	173.135
769.315	318.316
773.176	120.123
777.036	306.57
780.893	552.378
784.748	373.911
788.602	898.563
792.454	446.46
796.303	97.619
800.151	106.983
803.998	298.372
807.842	536.43
811.685	320.176
815.525	91.598
819.364	61.038
823.201	74.505
827.036	56.98
830.869	112.483
834.701	102.572
838.531	44.15
842.358	69.771
846.184	162.438
850.008	168.152
853.831	231.826
857.651	307.856
861.47	411.123
865.287	645.559
869.102	1018.84
872.915	1962.91
876.726	6624.32
880.536	39431.3
884.343	18368.2
888.149	4169.31
891.953	1834.27
895.756	1108.42
899.556	900.365
903.355	770.042
907.152	630.812
910.947	682.682
914.74	1120.66
918.531	2470.75
922.321	2183.95
926.109	3869.25
929.895	1699.65
933.679	714.158
937.461	977.759
941.242	1474.46
945.021	1020.26
948.798	1675.16
952.573	6580.17
956.346	3285.28
960.118	1032.85
963.888	616.004
967.656	450.435
971.422	223.977
975.186	171.634
978.949	152.403
982.71	178.284
986.469	238.277
990.226	209.812
993.982	354.058
997.735	293.449
1001.49	329.618
1005.24	343.297
1008.99	388.1
1012.73	649.113
1016.48	939.365
1020.22	1401.85
1023.96	1615.78
1027.7	863.707
1031.44	489.292
1035.17	295.092
1038.91	296.505
1042.64	157.5
1046.37	110.772
1050.1	81.448
1053.83	175.816
1057.55	165.319
1061.28	209.944
1065	159.683
1068.72	180.53
1072.44	155.487
1076.15	71.553
1079.87	139.727
1083.58	186.006
1087.29	146.392
1091	15.892
1094.71	145.506
1098.42	138.231
1102.12	17.06
1105.82	63.989
1109.53	104.018
1113.22	48.159
1116.92	15.386
1120.62	107.711
1124.31	100.369
1128	82.872
1131.69	54.529
1135.38	38.145
1139.07	78.909
1142.76	41.11
1146.44	57.048
1150.12	73.064
1153.8	100.326
1157.48	40.961
1161.15	12.257
1164.83	13.175
1168.5	57.869
1172.17	90.888
1175.84	68.903
1179.51	75.468
1183.18	74.09
1186.84	17.134
1190.51	66.666
1194.17	109.209
1197.83	169.081
1201.48	182.013
1205.14	128.003
1208.79	64.05
1212.45	69.153
1216.1	67.309
1219.75	63.518
1223.39	52.595
1227.04	150.905
1230.68	126.263
1234.33	205.669
1237.96	230.122
1241.6	1.62
1245.24	132.161
1248.88	8.744
1252.51	14.627
1256.14	91.619
1259.77	118.33
1263.4	82.796
1267.03	153.585
1270.65	49.41
1274.28	67.262
1277.9	31.055
1281.52	8.232
1285.14	1.371
1288.76	48.188
1292.37	53.105
1295.98	95
1299.6	65.835
1303.21	166.2
1306.81	71.12
1310.42	81.904
1314.03	96.589
1317.63	40.65
1321.23	37.705
1324.83	74.251
1328.43	77.229
1332.03	145.218
1335.62	131.222
1339.21	53.242
1342.81	55.276
1346.4	70.33
1349.98	36.596
1353.57	101.489
1357.16	88.596
1360.74	51.727
1364.32	118.882
1367.9	84.064
1371.48	196.265
1375.06	163.511
1378.63	172.795
1382.2	123.556
1385.78	151.938
1389.35	13.617
1392.91	33.709
1396.48	99.091
1400.05	168.03
1403.61	130.508
1407.17	230.245
1410.73	271.987
1414.29	198.471
1417.85	225.504
1421.4	126.812
1424.96	106.321
1428.51	33.707
1432.06	160.105
1435.61	127.518
1439.15	161.73
1442.7	175.11
1446.24	202.492
1449.79	260.873
1453.33	345.239
1456.87	131.567
1460.4	166.181
1463.94	134.416
1467.47	198.638
1471	119.018
1474.54	201.647
1478.06	200.473
1481.59	166.347
1485.12	286.368
1488.64	253.473
1492.16	85.723
1495.68	205.223
1499.2	60.002
1502.72	118.062
1506.24	130.461
1509.75	14.326
1513.27	107.797
1516.78	51.958
1520.29	26.96
1523.79	0
