Measurement: Raman, 514 nm, ccw, Raman Data Processed
Mineral: Phillipsite-Ca
Rruff sample: R050078
Ideal chemistry: Ca_3_(Si_10_Al_6_)O_32_12H_2_O
Locality: Grant County, Oregon, USA
Source: Rock Currier
Description: White tabular hexagonal
Measured chemistry: (Ca_0.90_K_0.75_[box]_0.25_Na_0.10_)_Σ=2_(Si_5.35_Al_2.65_)_Σ=8_O_16_·6H_2_O
Pin_id: L01141
Orientation: Laser parallel to (1 0 1). Fiducial mark perpendicular to laser is parallel to -b [0 -1 0]
Raman shift (cm-1)	intensity
273.276	0
276.912	245.213
280.545	209.816
284.178	323.639
287.809	187.207
291.438	284.978
295.067	6.70508
298.693	7.32227
302.319	52.0723
305.943	194.065
309.566	54.3672
313.187	469.756
316.807	565.012
320.426	645.674
324.043	480.953
327.659	384.228
331.273	322.078
334.886	190.25
338.498	60.2969
342.108	60.5078
345.717	100.877
349.324	59.3867
352.931	0.675781
356.535	12.3066
360.139	151.586
363.741	32.4824
367.341	207.762
370.94	536.094
374.538	487.461
378.135	849.727
381.73	1092.69
385.323	1309.29
388.916	1980.03
392.506	1960.02
396.096	2462.16
399.684	2932.51
403.271	3485.15
406.856	4344.65
410.44	4854.42
414.022	5996.23
417.603	6892.82
421.183	7298.78
424.761	7576.72
428.338	6885.11
431.914	6462.28
435.488	6403.88
439.061	6713.52
442.632	7346.74
446.202	8788.72
449.77	10787.3
453.337	13174.4
456.903	15781.7
460.467	18525
464.03	20882.7
467.592	23314.5
471.152	25600.8
474.711	26601.4
478.268	27132.9
481.824	27057.3
485.378	25865
488.932	22419.9
492.483	18426.3
496.034	14371.2
499.582	11067.6
503.13	7981.17
506.676	6283.07
510.221	4795.67
513.764	3918.92
517.306	3431.43
520.846	2833.95
524.385	2708.69
527.923	2504.04
531.459	1824.75
534.994	1564.51
538.527	1133.34
542.059	1216.09
545.59	964.264
549.119	653.762
552.647	605.697
556.173	472.008
559.698	573.188
563.222	244.256
566.744	141.115
570.264	243.859
573.784	200.264
577.302	201.078
580.818	187.736
584.333	405.266
587.847	405.775
591.359	255.297
594.87	424.227
598.379	482.334
601.887	295.25
605.394	427.986
608.899	710.539
612.402	486.891
615.905	602.047
619.406	714.019
622.905	1062.85
626.403	1372.55
629.9	1359.06
633.395	488.44
636.889	585.736
640.381	799.949
643.872	1007.27
647.361	1134.79
650.849	1114.27
654.336	882.908
657.821	548.394
661.305	438.303
664.787	124.303
668.268	150.596
671.748	56.6797
675.226	44.6484
678.703	64.4766
682.178	20.4121
685.652	151.779
689.124	61.0078
692.595	97.4961
696.065	2.08789
699.533	25.3633
702.999	104.529
706.465	86.2129
709.929	320.551
713.391	146.18
716.852	398.373
720.311	248.881
723.77	393.258
727.226	622.812
730.681	514.793
734.135	542.557
737.588	660.211
741.039	476.519
744.488	636.133
747.936	736.102
751.383	867.91
754.828	788.848
758.272	1107.44
761.714	1193.69
765.155	1385.6
768.595	1516.16
772.033	857.385
775.469	1019.27
778.904	988.805
782.338	628.99
785.77	732.812
789.201	646.262
792.631	423.582
796.059	269.633
799.485	416.447
802.91	310.445
806.334	278.914
809.756	299.932
813.177	24.1211
816.596	93.1953
820.014	45.6445
823.431	33.7461
826.846	317.113
830.259	193.008
833.671	116.414
837.082	88.043
840.491	123.328
843.899	297.598
847.306	489.809
850.71	185.984
854.114	570.863
857.516	815.211
860.917	941.023
864.316	734.059
867.713	597.688
871.11	444.519
874.505	519.801
877.898	314.918
881.29	229.875
884.68	296.68
888.069	338.344
891.457	341.871
894.843	234.262
898.228	177.527
901.611	285.68
904.993	380.723
908.373	249.66
911.752	59.5039
915.129	32.7461
918.505	4.30078
921.88	142.672
925.253	132.066
928.625	42.1836
931.995	18.9258
935.364	37.2344
938.731	58.207
942.097	164.777
945.461	251.953
948.824	314.582
952.186	397.176
955.546	539.914
958.904	437.332
962.261	485.641
965.617	423.324
968.971	667.434
972.324	790.844
975.675	570.035
979.025	763.523
982.374	694.918
985.72	691.613
989.066	935.449
992.41	763.422
995.753	783.383
999.094	1306.78
1002.43	2019.16
1005.77	1460.68
1009.11	1323.36
1012.44	1232.18
1015.78	1436.16
1019.11	1552.31
1022.44	1921.62
1025.77	1983.12
1029.1	1981.79
1032.42	2146.64
1035.75	2288.69
1039.07	2314.93
1042.4	2405.38
1045.72	2488.02
1049.04	2476.84
1052.35	2603.49
1055.67	2491.28
1058.98	2433.33
1062.3	2688.88
1065.61	2955.88
1068.92	3123.2
1072.23	3534.46
1075.54	3869.37
1078.84	4320.01
1082.15	4289.62
1085.45	4438.69
1088.75	4301.62
1092.05	3947.11
1095.35	4099.91
1098.65	3766.08
1101.94	3880.71
1105.24	3932.64
1108.53	3617.09
1111.82	3607.83
1115.11	3591.14
1118.4	3845.46
1121.69	3498.06
1124.97	3382.91
1128.26	3086
1131.54	2953.35
1134.82	2959.94
1138.1	2537.77
1141.38	2568.86
1144.66	2081.23
1147.93	2074.84
1151.21	1651.71
1154.48	1524.5
1157.75	1199.5
1161.02	1121.89
1164.29	1161.27
1167.55	860.504
1170.82	642.984
1174.08	591.695
1177.34	460.637
1180.61	346.816
1183.86	188.402
1187.12	425.379
1190.38	28.9102
1193.63	145.75
1196.89	106.809
1200.14	170.894
1203.39	7.17578
1206.64	143.816
1209.88	145.039
1213.13	53.9688
1216.37	274.332
1219.62	65.6445
1222.86	45.2109
1226.1	27.3047
1229.34	186.137
1232.57	213.789
1235.81	212.141
1239.04	423.984
1242.28	8.14453
1245.51	393.703
1248.74	336.281
1251.97	336.301
1255.19	89.4844
1258.42	149.82
1261.64	270.285
1264.86	440.922
1268.09	424.699
1271.3	826.672
1274.52	789.684
1277.74	610.789
1280.95	615.406
1284.17	631.922
1287.38	368.16
1290.59	455.598
1293.8	746.098
1297.01	766.652
1300.21	455.254
1303.42	510.93
1306.62	603.606
1309.82	762.301
1313.02	1036.02
1316.22	1074.99
1319.42	1093.02
1322.61	998.656
1325.81	614.426
1329	758.672
1332.19	85.0039
1335.38	134.231
1338.57	134.852
1341.76	303.473
1344.94	174.969
1348.12	19.3477
1351.31	26.2656
1354.49	222.891
1357.67	109.531
1360.85	114.91
1364.02	111.359
1367.2	19.5586
1370.37	413.496
1373.54	261.168
1376.71	212.93
1379.88	410.769
1383.05	225.949
1386.22	111.766
1389.38	128.871
1392.54	268.875
1395.7	112.262
1398.87	267.508
1402.02	137.445
1405.18	21.6172
1408.34	262.254
1411.49	217.906
1414.64	298.859
1417.8	272.481
1420.94	294.738
1424.09	286.688
1427.24	90.7734
1430.38	330.051
1433.53	486.047
1436.67	846.844
1439.81	1388.63
1442.95	1874.86
1446.09	1615.41
1449.23	2132.52
1452.36	2459.03
1455.49	2347.07
1458.63	2194.28
1461.76	2000.52
1464.89	1649.35
1468.01	1315.57
1471.14	982.102
1474.26	867.746
1477.39	492.512
1480.51	594.285
1483.63	564.434
1486.75	438.594
1489.86	586.504
1492.98	11.3516
1496.09	10.6211
1499.21	16.6055
1502.32	130.391
1505.43	293.531
1508.54	23.2031
1511.64	92.1914
1514.75	81.3594
1517.85	41.1055
1520.95	74.4727
1524.05	406.879
1527.15	363.481
1530.25	480.086
1533.35	647.434
1536.44	620.59
1539.53	246.926
1542.62	515.656
1545.72	201.117
1548.8	52.6016
1551.89	248.902
1554.98	375.613
1558.06	482.754
1561.14	124.891
1564.23	118.016
1567.31	394
1570.38	1.77344
