Measurement: Raman, 514 nm, ccw, Raman Data Processed
Mineral: Phillipsite-Ca
Rruff sample: R050078
Ideal chemistry: Ca_3_(Si_10_Al_6_)O_32_12H_2_O
Locality: Grant County, Oregon, USA
Source: Rock Currier
Description: White tabular hexagonal
Measured chemistry: (Ca_0.90_K_0.75_[box]_0.25_Na_0.10_)_Σ=2_(Si_5.35_Al_2.65_)_Σ=8_O_16_·6H_2_O
Pin_id: L00730
Orientation: Laser parallel to -c* (0 0 -1). Fiducial mark perpendicular to laser is parallel to a [1 0 0]
Raman shift (cm-1)	intensity
241.714	0
245.361	148.635
249.007	87.9043
252.651	219.769
256.294	323.455
259.936	470.57
263.576	202.551
267.215	327.951
270.852	193.629
274.488	149.416
278.123	104.76
281.756	279.148
285.388	341.982
289.019	44.5137
292.648	102.736
296.276	152.902
299.902	152.422
303.527	266.336
307.151	338.344
310.773	345.848
314.394	329.978
318.013	558.904
321.631	321.565
325.248	541.744
328.864	478.215
332.478	254.822
336.09	181.367
339.701	251.822
343.311	123.357
346.92	124.17
350.527	53.4023
354.132	45.0781
357.737	193.56
361.34	152.842
364.941	304.582
368.541	113.16
372.14	324.801
375.737	391.203
379.333	424.26
382.928	512.217
386.521	737.836
390.113	791.031
393.703	931.231
397.292	1247.29
400.88	1781.37
404.466	1738.41
408.051	2013.66
411.634	2560.71
415.216	3026.57
418.797	3353.74
422.376	3495.83
425.954	3493.48
429.53	3362.97
433.105	3188.54
436.679	3532.65
440.251	3911.36
443.822	4659.56
447.391	5466.1
450.96	6704.4
454.526	7928.95
458.091	9547.63
461.655	10960.8
465.218	12379.7
468.779	13287
472.338	13785.9
475.897	14139.8
479.454	13949
483.009	13196
486.563	11853.1
490.116	10006.9
493.667	8499.22
497.217	6310.97
500.765	4887.3
504.312	3559.8
507.858	2807.7
511.402	2387.2
514.945	2032.75
518.486	1833.63
522.026	1375.96
525.565	1430.51
529.102	1543.58
532.638	1233.52
536.172	1026.37
539.705	866.654
543.236	527.158
546.766	469.734
550.295	133.809
553.822	216.867
557.348	226.812
560.873	149.785
564.396	207.367
567.917	20.9805
571.438	232.211
574.957	83.3867
578.474	20.4492
581.99	53.5664
585.504	80.0391
589.018	232.594
592.529	27.9961
596.04	120.465
599.549	24.8594
603.056	32.6523
606.562	57.3477
610.067	157.711
613.57	31.6328
617.072	111.394
620.572	79.0664
624.071	169.641
627.569	387.086
631.065	129.418
634.56	161.348
638.053	380.68
641.545	314.766
645.035	46.8867
648.524	67.9766
652.012	388.004
655.498	431.129
658.983	283.199
662.466	71.8242
665.948	85.9414
669.428	172.832
672.907	247.894
676.385	215.215
679.861	211.684
683.336	98.3828
686.809	98.5977
690.281	66.3672
693.752	97.1328
697.221	389.414
700.688	160.414
704.155	143.121
707.619	481.422
711.083	555.562
714.545	356.887
718.005	302.062
721.464	605.004
724.922	420.231
728.378	403.938
731.833	446.363
735.286	613.953
738.738	496.191
742.189	688.785
745.638	625.559
749.085	515.832
752.531	494.152
755.976	741.25
759.419	719.473
762.861	827.078
766.302	795.438
769.741	845.082
773.178	586.137
776.614	486.945
780.049	518.344
783.482	398.906
786.914	414.477
790.345	186.019
793.773	345.453
797.201	387.543
800.627	327.742
804.052	5.60547
807.475	177.363
810.897	268.129
814.317	6.34766
817.736	107.644
821.153	73.9219
824.569	74.1562
827.984	97.0195
831.397	16.4219
834.808	120.777
838.219	199.188
841.627	37.6836
845.035	100.742
848.441	213.566
851.845	42
855.248	153.133
858.65	57.0938
862.05	373.391
865.448	504.086
868.846	408.637
872.241	178.152
875.636	275.652
879.029	552.019
882.42	385.269
885.81	110.414
889.199	454.422
892.586	80.2695
895.971	130.141
899.356	126.051
902.738	172.785
906.12	120.027
909.5	4.82812
912.878	10.8594
916.255	333.848
919.63	471.363
923.004	70.7773
926.377	127.879
929.748	125.66
933.118	2.81641
936.486	253.543
939.853	538.297
943.218	94.4375
946.582	184.438
949.945	228.824
953.306	192.086
956.665	232.383
960.023	540.356
963.38	247.41
966.735	507.918
970.089	414.047
973.441	281.777
976.792	534.371
980.141	488.375
983.489	216.004
986.836	556.875
990.181	543.906
993.524	444.281
996.866	677.562
1000.21	1247.97
1003.55	809.207
1006.88	581.981
1010.22	611.582
1013.55	538.422
1016.89	833.418
1020.22	972.695
1023.55	1060.1
1026.88	1083.39
1030.21	1076.14
1033.53	1346.93
1036.86	1029.86
1040.18	1138.27
1043.5	952.715
1046.82	1108.33
1050.14	1326.44
1053.46	1627.12
1056.78	1643.97
1060.09	1442.71
1063.4	1266.78
1066.71	1431.76
1070.02	1641.85
1073.33	1501.68
1076.64	1453.21
1079.94	1666.21
1083.25	1897.06
1086.55	1918.18
1089.85	1821.45
1093.15	1761.95
1096.45	1918.67
1099.75	1923.23
1103.04	1473.94
1106.34	1686.06
1109.63	1867.12
1112.92	1443.48
1116.21	1910.06
1119.5	2004.01
1122.78	2236.2
1126.07	1779.2
1129.35	1700.98
1132.63	1168.67
1135.92	1356.78
1139.19	1232.15
1142.47	1022.78
1145.75	1005.64
1149.02	798.129
1152.3	913.894
1155.57	848.406
1158.84	917.215
1162.11	400.273
1165.38	691.559
1168.64	407.078
1171.91	326.84
1175.17	72.2734
1178.43	257.633
1181.69	356.293
1184.95	428.375
1188.21	341.129
1191.46	151.668
1194.72	63.3828
1197.97	164.812
1201.22	546.168
1204.47	80.2695
1207.72	362.402
1210.97	13.2266
1214.21	192.738
1217.46	167.055
1220.7	186.981
1223.94	183.152
1227.18	152.57
1230.42	240.078
1233.65	61.7305
1236.89	405.562
1240.12	136.613
1243.35	82.9102
1246.59	301.453
1249.81	45.2422
1253.04	133.269
1256.27	207.469
1259.49	11.7383
1262.72	20.1602
1265.94	131.051
1269.16	115.996
1272.38	40.0508
1275.59	46.6328
1278.81	267.992
1282.03	335.344
1285.24	269.894
1288.45	153.684
1291.66	235.734
1294.87	22.0586
1298.08	235.652
1301.28	3.46875
1304.48	266.672
1307.69	549.106
1310.89	1.83594
1314.09	149.859
1317.29	406.191
1320.48	215.859
1323.68	235.328
1326.87	430.547
1330.06	232.488
1333.26	382.684
1336.44	345.742
1339.63	525.324
1342.82	399.16
1346	392.172
1349.19	262.023
1352.37	367.129
1355.55	503.504
1358.73	45.5039
1361.9	366.84
1365.08	86.4883
1368.26	619.91
1371.43	424.637
1374.6	3.67578
1377.77	240.023
1380.94	209.691
1384.11	179.969
1387.27	110.199
1390.43	373.113
1393.6	151.91
1396.76	385.375
1399.92	240.016
1403.08	30.6289
1406.23	591.062
1409.39	641.469
1412.54	256.805
1415.69	344.578
1418.85	313.863
1421.99	370.68
1425.14	473.07
1428.29	479.668
1431.43	532.383
1434.58	585.867
1437.72	412.078
1440.86	862.477
1444	552.75
1447.13	645.086
1450.27	585.07
1453.4	446.008
1456.54	732.582
1459.67	604.894
1462.8	765.023
1465.93	510.664
1469.06	818.019
1472.18	437.922
1475.31	589.297
1478.43	668.168
1481.55	884.254
1484.67	823.219
1487.79	704.039
1490.9	600.438
1494.02	615.113
1497.13	842.461
1500.24	809.316
1503.35	701.676
1506.46	839.457
1509.57	919.504
1512.68	678.867
1515.78	952.344
1518.88	891.957
1521.99	581.777
1525.09	654.863
1528.18	661.387
1531.28	587.805
1534.38	515.859
1537.47	445.691
1540.56	377.613
1543.66	312.129
1546.74	249.762
1549.83	191.066
1552.92	136.789
1556.01	87.9961
1559.09	46.4219
1562.17	14.6523
1565.25	2.78906
1568.33	3.30469
1571.41	0
