Measurement: Raman, 514 nm, ccw, Raman Data Processed
Mineral: Phillipsite-Ca
Rruff sample: R050078
Ideal chemistry: Ca_3_(Si_10_Al_6_)O_32_12H_2_O
Locality: Grant County, Oregon, USA
Source: Rock Currier
Description: White tabular hexagonal
Measured chemistry: (Ca_0.90_K_0.75_[box]_0.25_Na_0.10_)_Σ=2_(Si_5.35_Al_2.65_)_Σ=8_O_16_·6H_2_O
Pin_id: L00386
Orientation: Laser parallel to a* (1 0 0). Fiducial mark perpendicular to laser is parallel to b [0 1 0]
Raman shift (cm-1)	intensity
273.276	0
276.912	256.478
280.545	168.312
284.178	303.445
287.809	216.471
291.438	248.867
295.067	181.025
298.693	14.4434
302.319	204.057
305.943	155.223
309.566	314.027
313.187	296.754
316.807	468.83
320.426	612.154
324.043	661.74
327.659	670.402
331.273	475.918
334.886	298.062
338.498	242.742
342.108	127.9
345.717	142.508
349.324	112.807
352.931	73.9707
356.535	161.562
360.139	186.291
363.741	230.09
367.341	441.185
370.94	692.184
374.538	1026.17
378.135	1376.51
381.73	1710.04
385.323	2012.78
388.916	2582.81
392.506	3107.77
396.096	3508.79
399.684	3906.88
403.271	4328.04
406.856	5325.27
410.44	6127.57
414.022	7232.02
417.603	8419.6
421.183	8894.25
424.761	8922.01
428.338	8815.75
431.914	8287.73
435.488	8351.23
439.061	9063.75
442.632	10481.2
446.202	12497.9
449.77	14893.9
453.337	18369.1
456.903	21553.5
460.467	25137.7
464.03	27972.5
467.592	30062.8
471.152	31774.7
474.711	32810.6
478.268	32791.6
481.824	31818.4
485.378	28956.7
488.932	24929.5
492.483	20123.5
496.034	15747
499.582	11979.6
503.13	9299.68
506.676	7157.18
510.221	6070.69
513.764	4972.21
517.306	4613.72
520.846	4075.23
524.385	3660.73
527.923	3350.72
531.459	2660.28
534.994	1969.81
538.527	1551.21
542.059	1411.13
545.59	1190.66
549.119	849.197
552.647	694.021
556.173	537.043
559.698	371.684
563.222	222.69
566.744	44.6836
570.264	62.1465
573.784	0.173828
577.302	57.4473
580.818	175.734
584.333	108.897
587.847	12.3926
591.359	129.475
594.87	34.9258
598.379	165.727
601.887	202.955
605.394	87.3691
608.899	217.234
612.402	277.816
615.905	317.889
619.406	467.848
622.905	300.688
626.403	708.547
629.9	866.352
633.395	994.119
636.889	656.811
640.381	697.613
643.872	584.383
647.361	589.981
650.849	693.41
654.336	538.666
657.821	469.887
661.305	350.947
664.787	407.018
668.268	220.518
671.748	379.682
675.226	334.279
678.703	275.467
682.178	252.488
685.652	252.231
689.124	221.586
692.595	366.203
696.065	450.721
699.533	247.668
702.999	418.984
706.465	603.148
709.929	664.221
713.391	499.484
716.852	755.893
720.311	1019.05
723.77	1197.28
727.226	917.697
730.681	954.057
734.135	887.902
737.588	1144.17
741.039	1308.25
744.488	1365.65
747.936	1539.95
751.383	1674.37
754.828	1730.82
758.272	1777.93
761.714	1811.72
765.155	1755.17
768.595	1756.57
772.033	1520.27
775.469	1402.33
778.904	1264.08
782.338	1180.51
785.77	875.537
789.201	721.814
792.631	585.047
796.059	415.5
799.485	375.941
802.91	323.934
806.334	187.959
809.756	266.08
813.177	124.754
816.596	88.0898
820.014	103.068
823.431	63.5918
826.846	13.3086
830.259	77.6348
833.671	49.1914
837.082	40.7129
840.491	22.5449
843.899	65.3379
847.306	459.359
850.71	237.717
854.114	3.70312
857.516	256.072
860.917	53.2422
864.316	47.8418
867.713	361.658
871.11	265.377
874.505	15.1465
877.898	102.959
881.29	208.799
884.68	45.123
888.069	50.1191
891.457	29.8047
894.843	140.185
898.228	22.1914
901.611	121.686
904.993	68.7637
908.373	25.4707
911.752	120.084
915.129	320.935
918.505	250.734
921.88	133.32
925.253	138.662
928.625	7.25781
931.995	34.4336
935.364	216.102
938.731	215.184
942.097	379.99
945.461	425.664
948.824	552.674
952.186	645.365
955.546	754.969
958.904	595.486
962.261	776.602
965.617	819.529
968.971	906.062
972.324	883.988
975.675	813.998
979.025	1040.53
982.374	1188.4
985.72	1191.94
989.066	1081.99
992.41	1042.56
995.753	1110.04
999.094	1388.65
1002.43	1711.55
1005.77	1631.93
1009.11	1390.6
1012.44	1481.98
1015.78	1814.97
1019.11	1790.62
1022.44	2067.81
1025.77	2151.37
1029.1	2485.58
1032.42	2560.16
1035.75	2738.13
1039.07	2940.57
1042.4	2957.91
1045.72	3094.45
1049.04	3015.21
1052.35	3003.29
1055.67	2995.54
1058.98	3204.32
1062.3	3425.5
1065.61	3542.09
1068.92	3769.12
1072.23	3888.36
1075.54	3855.25
1078.84	3911.38
1082.15	4241.31
1085.45	4614.91
1088.75	4270.16
1092.05	4191.44
1095.35	4162.07
1098.65	4109.25
1101.94	3865.43
1105.24	3687.06
1108.53	3706.85
1111.82	3149.72
1115.11	3162.48
1118.4	3269.14
1121.69	2962.38
1124.97	2977.77
1128.26	2859.05
1131.54	2855.66
1134.82	2525.25
1138.1	2248.73
1141.38	2157.78
1144.66	1763.57
1147.93	1819.44
1151.21	1595.16
1154.48	1268.92
1157.75	962.84
1161.02	1391.99
1164.29	805.941
1167.55	807.965
1170.82	730.945
1174.08	663.391
1177.34	400.027
1180.61	368.836
1183.86	224.809
1187.12	320.902
1190.38	89.0664
1193.63	254.481
1196.89	97.9414
1200.14	206.519
1203.39	57.6328
1206.64	24.0664
1209.88	183.727
1213.13	198.606
1216.37	114.035
1219.62	191.934
1222.86	247.301
1226.1	245.262
1229.34	151.152
1232.57	14.7852
1235.81	131.141
1239.04	24.1016
1242.28	187.062
1245.51	51.9727
1248.74	37.1758
1251.97	70.3047
1255.19	127.812
1258.42	65.75
1261.64	285.836
1264.86	82.6211
1268.09	414.453
1271.3	294.758
1274.52	10.1953
1277.74	151.074
1280.95	116.852
1284.17	0.914063
1287.38	77.5195
1290.59	36.1953
1293.8	331.891
1297.01	397.367
1300.21	135.199
1303.42	130.879
1306.62	229.453
1309.82	297.449
1313.02	155.82
1316.22	493.074
1319.42	506.199
1322.61	291.219
1325.81	311.031
1329	265.769
1332.19	113.969
1335.38	313.266
1338.57	330.629
1341.76	258.875
1344.94	144.695
1348.12	247.367
1351.31	279.219
1354.49	331.481
1357.67	116.332
1360.85	380.672
1364.02	451.879
1367.2	483.762
1370.37	194.219
1373.54	379.383
1376.71	94.0664
1379.88	444.328
1383.05	372.031
1386.22	137.953
1389.38	94.1133
1392.54	182.461
1395.7	274.008
1398.87	215.961
1402.02	22.1602
1405.18	403.731
1408.34	298.484
1411.49	219.527
1414.64	285.016
1417.8	197.172
1420.94	31.7734
1424.09	144.465
1427.24	216.328
1430.38	263.84
1433.53	313.844
1436.67	364.68
1439.81	613.769
1442.95	625.242
1446.09	259.637
1449.23	256.559
1452.36	367.637
1455.49	382.422
1458.63	172.441
1461.76	330.312
1464.89	171.543
1468.01	255.445
1471.14	181.238
1474.26	200.484
1477.39	388.598
1480.51	130.844
1483.63	166.051
1486.75	101.062
1489.86	332.039
1492.98	419.277
1496.09	135.91
1499.21	319.922
1502.32	10.4805
1505.43	33.5977
1508.54	113.934
1511.64	388.961
1514.75	184.965
1517.85	152.996
1520.95	60.5195
1524.05	60.332
1527.15	23.957
1530.25	225.625
1533.35	122.758
1536.44	235.285
1539.53	154.559
1542.62	5.87109
1545.72	170.894
1548.8	270.977
1551.89	379.207
1554.98	441.309
1558.06	121.531
1561.14	46.8242
1564.23	90.9102
1567.31	22.1836
1570.38	176.656
