Measurement: Raman, 514 nm, ccw, Raman Data Processed
Mineral: Phillipsite-Ca
Rruff sample: R050078
Ideal chemistry: Ca_3_(Si_10_Al_6_)O_32_12H_2_O
Locality: Grant County, Oregon, USA
Source: Rock Currier
Description: White tabular hexagonal
Measured chemistry: (Ca_0.90_K_0.75_[box]_0.25_Na_0.10_)_Σ=2_(Si_5.35_Al_2.65_)_Σ=8_O_16_·6H_2_O
Pin_id: L00730
Orientation: Laser parallel to -c* (0 0 -1). Fiducial mark perpendicular to laser is parallel to a [1 0 0]
Raman shift (cm-1)	intensity
241.714	0
245.361	54.5918
249.007	207.678
252.651	294.154
256.294	249.143
259.936	395.103
263.576	190.621
267.215	38.2422
270.852	151.744
274.488	58.7383
278.123	209.805
281.756	134.846
285.388	139.443
289.019	225.135
292.648	343.217
296.276	565.609
299.902	665.973
303.527	800.641
307.151	769.918
310.773	764.625
314.394	765.275
318.013	746.586
321.631	805.131
325.248	789.932
328.864	716.996
332.478	455.107
336.09	217.19
339.701	455.297
343.311	119.637
346.92	184.607
350.527	40.4473
354.132	13.0801
357.737	96.1856
361.34	80.293
364.941	81.0703
368.541	235.195
372.14	478.225
375.737	615.467
379.333	735.481
382.928	985.449
386.521	1397.37
390.113	1875.15
393.703	2393.98
397.292	2838.77
400.88	3526.47
404.466	4089.27
408.051	4732.17
411.634	5765.34
415.216	6788.8
418.797	7700.21
422.376	7998.92
425.954	7915.45
429.53	7778
433.105	7881.24
436.679	8331.58
440.251	9259.75
443.822	10913.6
447.391	13647.3
450.96	16806.3
454.526	20379.3
458.091	24580.8
461.655	28618.7
465.218	32041.3
468.779	34498.8
472.338	35523.1
475.897	35404.9
479.454	35142.8
483.009	32720.8
486.563	29982.7
490.116	24942.5
493.667	20052.9
497.217	15447.9
500.765	11581.9
504.312	8769.31
507.858	6884.83
511.402	5548.18
514.945	4615.17
518.486	3836.77
522.026	3481
525.565	3204.96
529.102	2809.37
532.638	2334.97
536.172	2214.03
539.705	1496.12
543.236	1181.24
546.766	1049.52
550.295	902.557
553.822	600.723
557.348	575.176
560.873	276.537
564.396	500.945
567.917	339.418
571.438	117.811
574.957	2.86523
578.474	32.3789
581.99	25.5605
585.504	110.75
589.018	76.6777
592.529	117.106
596.04	115.764
599.549	19.7305
603.056	13.4766
606.562	66.6191
610.067	14.4453
613.57	68.4941
617.072	153.955
620.572	314.473
624.071	137.938
627.569	13.6562
631.065	146.006
634.56	360.312
638.053	170.963
641.545	239.641
645.035	235.398
648.524	28.0684
652.012	292.6
655.498	277.725
658.983	234.734
662.466	146.359
665.948	415.379
669.428	135.066
672.907	246.728
676.385	344.9
679.861	475.414
683.336	180.643
686.809	440.307
690.281	554.918
693.752	254.826
697.221	481.746
700.688	626.9
704.155	761.41
707.619	931.465
711.083	993.346
714.545	843.389
718.005	956.018
721.464	961.436
724.922	847.826
728.378	864.848
731.833	1047.83
735.286	830.957
738.738	903.541
742.189	858.818
745.638	1005.09
749.085	1048.48
752.531	1309.38
755.976	1011.53
759.419	1152.01
762.861	1278.64
766.302	1161.11
769.741	1045.62
773.178	755.432
776.614	1117.52
780.049	761.26
783.482	514.25
786.914	578.658
790.345	683.703
793.773	190.123
797.201	290.047
800.627	203.098
804.052	110.082
807.475	153.096
810.897	14.2656
814.317	18.2852
817.736	57.2148
821.153	162.781
824.569	34.4121
827.984	103.25
831.397	147.918
834.808	198.978
838.219	83.6816
841.627	164.844
845.035	208.772
848.441	260.242
851.845	149.168
855.248	142.981
858.65	164.857
862.05	299.455
865.448	112.947
868.846	131.098
872.241	175.961
875.636	119.576
879.029	73.793
882.42	283.629
885.81	33.1367
889.199	45.6953
892.586	98.0391
895.971	100.549
899.356	189.35
902.738	121.131
906.12	96.1328
909.5	14.5371
912.878	80.9609
916.255	43.9316
919.63	98.6406
923.004	88.9629
926.377	217.922
929.748	306.125
933.118	333.172
936.486	44.4082
939.853	300.768
943.218	313.678
946.582	458.107
949.945	447.781
953.306	342.119
956.665	536.898
960.023	664.082
963.38	581.068
966.735	615.834
970.089	797.359
973.441	750.215
976.792	905.113
980.141	993.004
983.489	1077.83
986.836	1280.71
990.181	1218.97
993.524	1298.42
996.866	1488.99
1000.21	1348.66
1003.55	1584.55
1006.88	1456.32
1010.22	1767.22
1013.55	1856.05
1016.89	1954.2
1020.22	2107.25
1023.55	2180.74
1026.88	2345.67
1030.21	2501.06
1033.53	2375.21
1036.86	2346.11
1040.18	2440.57
1043.5	2677.68
1046.82	2887.23
1050.14	2883.99
1053.46	2786.78
1056.78	2750.77
1060.09	3028.99
1063.4	3188.49
1066.71	3581.24
1070.02	3693.14
1073.33	3933.43
1076.64	4104.02
1079.94	4386.79
1083.25	4419.11
1086.55	4387.54
1089.85	4459.67
1093.15	4501.19
1096.45	4402.49
1099.75	4479.03
1103.04	4309.92
1106.34	4173.66
1109.63	4142.29
1112.92	3962.2
1116.21	4041.36
1119.5	3528.85
1122.78	3701.57
1126.07	3446.83
1129.35	3042.62
1132.63	2942.32
1135.92	2698.08
1139.19	2547.07
1142.47	2383.29
1145.75	2155.53
1149.02	2047.65
1152.3	1520.8
1155.57	1519.66
1158.84	1362.11
1162.11	1272.94
1165.38	1223.92
1168.64	1054.83
1171.91	822.91
1175.17	783.144
1178.43	736.496
1181.69	598.277
1184.95	332.328
1188.21	323.918
1191.46	557.777
1194.72	433.133
1197.97	491.641
1201.22	154.215
1204.47	239.894
1207.72	95.3242
1210.97	81.457
1214.21	182.324
1217.46	110.383
1220.7	625.371
1223.94	137.586
1227.18	180.332
1230.42	50.0508
1233.65	65.6133
1236.89	218.805
1240.12	166.16
1243.35	121.527
1246.59	210.894
1249.81	240.266
1253.04	107.633
1256.27	104.074
1259.49	0.953125
1262.72	302.418
1265.94	227.266
1269.16	212.082
1272.38	5.32422
1275.59	316.32
1278.81	16.5742
1282.03	272.59
1285.24	167.242
1288.45	30.5234
1291.66	158.074
1294.87	224.93
1298.08	126.227
1301.28	36.9297
1304.48	302.863
1307.69	9.03516
1310.89	225.019
1314.09	300.856
1317.29	63.5547
1320.48	531.039
1323.68	349.383
1326.87	171.606
1330.06	302.703
1333.26	243.68
1336.44	477.644
1339.63	186.359
1342.82	129.945
1346	198.75
1349.19	355.074
1352.37	370.211
1355.55	357.914
1358.73	142.906
1361.9	428.676
1365.08	406.113
1368.26	341.422
1371.43	183.566
1374.6	332.574
1377.77	470.098
1380.94	422.297
1384.11	171.981
1387.27	367.434
1390.43	414.371
1393.6	315.621
1396.76	198.231
1399.92	0.804688
1403.08	438.356
1406.23	191.152
1409.39	862.371
1412.54	86.6328
1415.69	302.188
1418.85	241.93
1421.99	72.5898
1425.14	444.93
1428.29	83.2461
1431.43	143.941
1434.58	160.336
1437.72	265.891
1440.86	209.883
1444	266.336
1447.13	446.715
1450.27	515.406
1453.4	449.207
1456.54	288.727
1459.67	332.957
1462.8	366.004
1465.93	180.094
1469.06	329.379
1472.18	355.609
1475.31	213.602
1478.43	312.371
1481.55	283.938
1484.67	323.188
1487.79	412.055
1490.9	226.344
1494.02	413.441
1497.13	322.922
1500.24	113.34
1503.35	8.67969
1506.46	390.785
1509.57	293.309
1512.68	240.867
1515.78	55.2188
1518.88	267.391
1521.99	42.3438
1525.09	192.035
1528.18	143.84
1531.28	179.109
1534.38	266.492
1537.47	93.1289
1540.56	316.262
1543.66	375.859
1546.74	27.5391
1549.83	513.016
1552.92	295.641
1556.01	509.527
1559.09	252.449
1562.17	203.531
1565.25	114.547
1568.33	150.332
1571.41	0
