Measurement: Raman, 514 nm, ccw, Raman Data Processed
Mineral: Phillipsite-Ca
Rruff sample: R050078
Ideal chemistry: Ca_3_(Si_10_Al_6_)O_32_12H_2_O
Locality: Grant County, Oregon, USA
Source: Rock Currier
Description: White tabular hexagonal
Measured chemistry: (Ca_0.90_K_0.75_[box]_0.25_Na_0.10_)_Σ=2_(Si_5.35_Al_2.65_)_Σ=8_O_16_·6H_2_O
Pin_id: L01729
Orientation: Laser parallel to -b* (0 -1 0). Fiducial mark perpendicular to laser is parallel to c [0 0 1]
Raman shift (cm-1)	intensity
267.215	0
270.852	231.597
274.488	239.024
278.123	66.2754
281.756	133.825
285.388	247.239
289.019	142.565
292.648	155.792
296.276	145.773
299.902	12.8877
303.527	14.7168
307.151	181.415
310.773	512.043
314.394	299.444
318.013	679.989
321.631	679.525
325.248	722.882
328.864	700.852
332.478	539.328
336.09	488.256
339.701	185.625
343.311	33.8848
346.92	105.804
350.527	93.9414
354.132	33.5391
357.737	115.218
361.34	102.267
364.941	221.747
368.541	559.137
372.14	764.669
375.737	1024.72
379.333	1303.68
382.928	1858.72
386.521	2440.36
390.113	2933.99
393.703	3446.69
397.292	4095.47
400.88	4671.33
404.466	5397.27
408.051	6625.31
411.634	7652.53
415.216	9621.04
418.797	11025.4
422.376	11845.7
425.954	11752.5
429.53	11434.9
433.105	10822.3
436.679	11030.3
440.251	11989
443.822	13878
447.391	16367.8
450.96	20194.2
454.526	24692
458.091	29643.5
461.655	34386.1
465.218	38505.7
468.779	41023.7
472.338	43099.4
475.897	44260.9
479.454	44295.1
483.009	42671.4
486.563	38870.5
490.116	33251.4
493.667	27029.5
497.217	21015.2
500.765	15861.6
504.312	12108.3
507.858	9532.75
511.402	7758.12
514.945	6764.49
518.486	6325.88
522.026	5605.27
525.565	4895.67
529.102	4271.08
532.638	3561.51
536.172	2909.35
539.705	2278.54
543.236	1796.86
546.766	1384.44
550.295	1059.48
553.822	901.824
557.348	657.975
560.873	451.084
564.396	412.31
567.917	187.802
571.438	214.405
574.957	44.0537
578.474	1.67383
581.99	107.732
585.504	97.5996
589.018	20.7451
592.529	114.106
596.04	170.194
599.549	63.7168
603.056	39.4238
606.562	206.102
610.067	86.5586
613.57	156.932
617.072	140.23
620.572	200.72
624.071	107.88
627.569	246.206
631.065	303.451
634.56	227.671
638.053	337.933
641.545	289.113
645.035	418.209
648.524	328.131
652.012	313.862
655.498	314.401
658.983	559.73
662.466	420.986
665.948	483.269
669.428	317.62
672.907	338.295
676.385	286.328
679.861	306.925
683.336	364.184
686.809	290.908
690.281	322.934
693.752	265.769
697.221	506.224
700.688	558.542
704.155	698.403
707.619	713.99
711.083	675.274
714.545	920.719
718.005	991.009
721.464	910.723
724.922	1342.73
728.378	1124.74
731.833	1361.94
735.286	1402.08
738.738	1512.24
742.189	1655.13
745.638	1837.67
749.085	1833.23
752.531	2057.81
755.976	2272.88
759.419	2349.5
762.861	2490.95
766.302	2212.64
769.741	2218.68
773.178	2113.01
776.614	1566.28
780.049	1630.62
783.482	1403.23
786.914	1096.16
790.345	807.967
793.773	879.025
797.201	555.932
800.627	410.339
804.052	476.248
807.475	287.644
810.897	287.51
814.317	58.4434
817.736	220.454
821.153	154.809
824.569	84.6641
827.984	30.4395
831.397	124.315
834.808	61.6465
838.219	129.756
841.627	44.9316
845.035	13.1162
848.441	8.91797
851.845	95.9053
855.248	10.791
858.65	53.4746
862.05	46.2402
865.448	84.5322
868.846	31.2402
872.241	11.5371
875.636	49.5137
879.029	119.119
882.42	64.4297
885.81	98.7031
889.199	133.567
892.586	113.681
895.971	82.6768
899.356	108.328
902.738	26.3896
906.12	20.3037
909.5	60.5518
912.878	23.9805
916.255	5.9668
919.63	115.722
923.004	81.083
926.377	51.126
929.748	118.857
933.118	302.308
936.486	295.339
939.853	384.752
943.218	500.538
946.582	729.727
949.945	647.688
953.306	848.215
956.665	887.196
960.023	1073.02
963.38	1010.07
966.735	1168.57
970.089	1181.82
973.441	1366.54
976.792	1566.88
980.141	1482.82
983.489	1644
986.836	1532.28
990.181	1786.58
993.524	1944.56
996.866	1826.73
1000.21	1877.01
1003.55	2109.87
1006.88	2081.91
1010.22	2209.88
1013.55	2527.4
1016.89	2601.41
1020.22	2841.43
1023.55	2936.42
1026.88	2976.57
1030.21	3458.95
1033.53	3695.48
1036.86	4081.66
1040.18	3901.02
1043.5	4199.57
1046.82	3976.91
1050.14	4011.72
1053.46	4075.89
1056.78	4285.66
1060.09	4538.21
1063.4	4731.58
1066.71	4807.02
1070.02	4971.44
1073.33	5363.3
1076.64	5365.66
1079.94	5705.43
1083.25	5476.19
1086.55	5748.75
1089.85	5858.96
1093.15	5673.96
1096.45	5570.39
1099.75	5567.69
1103.04	5255.37
1106.34	5124.4
1109.63	4866.71
1112.92	4725.88
1116.21	4656.45
1119.5	4467.01
1122.78	4234.2
1126.07	3877.74
1129.35	3774.09
1132.63	3573.41
1135.92	3386.16
1139.19	2936.88
1142.47	2711.67
1145.75	2487.71
1149.02	2201.77
1152.3	2115.86
1155.57	1703.69
1158.84	1703.66
1162.11	1524.57
1165.38	1281.78
1168.64	1126.39
1171.91	872.385
1175.17	871.221
1178.43	593.076
1181.69	525.609
1184.95	537.994
1188.21	203.787
1191.46	331.772
1194.72	292.334
1197.97	240.047
1201.22	68.7578
1204.47	180.94
1207.72	37.1973
1210.97	17.6328
1214.21	21.8457
1217.46	45.1172
1220.7	26.627
1223.94	46.5996
1227.18	117.746
1230.42	105.43
1233.65	45.0898
1236.89	47.2617
1240.12	19.6133
1243.35	22.3555
1246.59	53.4004
1249.81	59.1406
1253.04	4.16016
1256.27	61.6543
1259.49	103.389
1262.72	36.7246
1265.94	33.7559
1269.16	100.26
1272.38	66.916
1275.59	55.334
1278.81	127.543
1282.03	174.51
1285.24	20.5391
1288.45	76.0195
1291.66	56.6172
1294.87	25.1797
1298.08	169.838
1301.28	84.2617
1304.48	225.818
1307.69	40.4746
1310.89	146.334
1314.09	169.852
1317.29	211.254
1320.48	225.875
1323.68	221.957
1326.87	108.522
1330.06	181.262
1333.26	403.56
1336.44	200.736
1339.63	368.824
1342.82	241.662
1346	235.184
1349.19	195.232
1352.37	368.562
1355.55	135.008
1358.73	147.348
1361.9	281.772
1365.08	313.152
1368.26	174.344
1371.43	300.67
1374.6	266.707
1377.77	476.242
1380.94	28.0332
1384.11	152.594
1387.27	185.387
1390.43	286.65
1393.6	128.158
1396.76	338.252
1399.92	209.559
1403.08	310.033
1406.23	300.496
1409.39	233.693
1412.54	184.195
1415.69	162.947
1418.85	198.578
1421.99	20.2852
1425.14	18.248
1428.29	54.998
1431.43	91.1562
1434.58	172.674
1437.72	253.734
1440.86	337.773
1444	152.816
1447.13	125.037
1450.27	185.207
1453.4	70.6152
1456.54	129.713
1459.67	89.9844
1462.8	231.584
1465.93	156.932
1469.06	25.8184
1472.18	64.9316
1475.31	159.387
1478.43	104.885
1481.55	107.197
1484.67	172.342
1487.79	173.914
1490.9	244.394
1494.02	153.234
1497.13	321.383
1500.24	138.481
1503.35	124.908
1506.46	70.1699
1509.57	78.2012
1512.68	302.938
1515.78	498.111
1518.88	174.393
1521.99	176.742
1525.09	223.658
1528.18	145.008
1531.28	215.43
1534.38	194.266
1537.47	201.844
1540.56	212.275
1543.66	335.81
1546.74	145.389
1549.83	230.301
1552.92	177.957
1556.01	331.027
1559.09	23.4785
1562.17	377.416
1565.25	413.252
1568.33	342.037
1571.41	133.188
