Measurement: Raman, 514 nm, ccw, Raman Data Processed
Mineral: Phillipsite-Ca
Rruff sample: R050078
Ideal chemistry: Ca_3_(Si_10_Al_6_)O_32_12H_2_O
Locality: Grant County, Oregon, USA
Source: Rock Currier
Description: White tabular hexagonal
Measured chemistry: (Ca_0.90_K_0.75_[box]_0.25_Na_0.10_)_Σ=2_(Si_5.35_Al_2.65_)_Σ=8_O_16_·6H_2_O
Pin_id: L01141
Orientation: Laser parallel to (1 0 1). Fiducial mark perpendicular to laser is parallel to -b [0 -1 0]
Raman shift (cm-1)	intensity
273.276	0
276.912	109.519
280.545	268.305
284.178	21.8301
287.809	234.019
291.438	139.106
295.067	235.723
298.693	177.336
302.319	105.43
305.943	207.486
309.566	356.533
313.187	513.305
316.807	509.619
320.426	770.334
324.043	546.231
327.659	476.744
331.273	480.805
334.886	366.121
338.498	268.658
342.108	211.42
345.717	132.473
349.324	13.2695
352.931	130.494
356.535	67.5332
360.139	122.231
363.741	347.227
367.341	376.672
370.94	480.057
374.538	742.455
378.135	932.691
381.73	1356.46
385.323	1615.41
388.916	2185.95
392.506	2452.22
396.096	3006.54
399.684	3539.97
403.271	4331.51
406.856	5018.29
410.44	6214.25
414.022	7340.45
417.603	8818.8
421.183	9312.78
424.761	9143.93
428.338	8667.93
431.914	7895.27
435.488	7902.45
439.061	8365.97
442.632	9177.97
446.202	10935.8
449.77	13094
453.337	15924.8
456.903	19142.8
460.467	22720
464.03	25864.3
467.592	28552.8
471.152	30588.6
474.711	31972.6
478.268	33406.4
481.824	32773.5
485.378	30839
488.932	27186.5
492.483	22462.3
496.034	17536.5
499.582	13177.5
503.13	9830.72
506.676	7450.77
510.221	5940.19
513.764	4916.31
517.306	4249.24
520.846	3593.48
524.385	3361.21
527.923	2927.96
531.459	2643.92
534.994	2134.22
538.527	1817.54
542.059	1353.23
545.59	1001.86
549.119	799.635
552.647	706.762
556.173	477.387
559.698	215.088
563.222	331.596
566.744	207.695
570.264	54.7676
573.784	64.8379
577.302	110.088
580.818	122.656
584.333	85.459
587.847	49.3203
591.359	11.2207
594.87	102.195
598.379	105.045
601.887	184.127
605.394	222.096
608.899	197.865
612.402	23.0684
615.905	375.328
619.406	170.971
622.905	75.0078
626.403	405.719
629.9	465.41
633.395	534.615
636.889	360.25
640.381	208.008
643.872	127.795
647.361	585.459
650.849	373.988
654.336	460.394
657.821	368.078
661.305	362.43
664.787	72.3516
668.268	115.523
671.748	52.8047
675.226	24.8477
678.703	124.814
682.178	186.838
685.652	190.803
689.124	174.312
692.595	336.76
696.065	158.981
699.533	353.232
702.999	330.656
706.465	295.65
709.929	534.961
713.391	648.174
716.852	792.01
720.311	644.994
723.77	703.426
727.226	650.316
730.681	746.24
734.135	639.07
737.588	723.121
741.039	885.146
744.488	917.732
747.936	1133.72
751.383	1119.02
754.828	1246.49
758.272	1298.8
761.714	1634.8
765.155	1593.62
768.595	1649.23
772.033	1438.81
775.469	1263.91
778.904	960.854
782.338	1156.6
785.77	881.4
789.201	599.672
792.631	511.748
796.059	469.547
799.485	145.512
802.91	232.91
806.334	176.594
809.756	51.4629
813.177	68.4492
816.596	171.654
820.014	120.723
823.431	123.756
826.846	106.633
830.259	136.197
833.671	38.5449
837.082	35.7832
840.491	53.3008
843.899	132.652
847.306	28.209
850.71	18.4727
854.114	40.7852
857.516	342.717
860.917	271.344
864.316	339.629
867.713	367.59
871.11	417.287
874.505	285.713
877.898	164.816
881.29	120.144
884.68	102.103
888.069	152.742
891.457	96.2051
894.843	57.2402
898.228	99.3203
901.611	85.5469
904.993	66.5156
908.373	154.049
911.752	27.373
915.129	58.5449
918.505	235.219
921.88	67.2519
925.253	54.043
928.625	205.848
931.995	179.082
935.364	257.414
938.731	183.016
942.097	401.369
945.461	466.084
948.824	580.494
952.186	514.606
955.546	613.098
958.904	471.065
962.261	733.098
965.617	773.074
968.971	874.564
972.324	843.977
975.675	1030.96
979.025	1123.48
982.374	1076.5
985.72	1315.05
989.066	946.232
992.41	1241.88
995.753	1151.42
999.094	1414.68
1002.43	2063.91
1005.77	1610.61
1009.11	1658.92
1012.44	1868.06
1015.78	2047.13
1019.11	2187.4
1022.44	2212.6
1025.77	2254.01
1029.1	2153.58
1032.42	2368.05
1035.75	2838.28
1039.07	2865.63
1042.4	2926.72
1045.72	2741.7
1049.04	2919.34
1052.35	2800.11
1055.67	2829.06
1058.98	3112.23
1062.3	3513.54
1065.61	3699.97
1068.92	3991.84
1072.23	4223.97
1075.54	4358.39
1078.84	4759.29
1082.15	4930.12
1085.45	5014.9
1088.75	4849.23
1092.05	4935.74
1095.35	5014.08
1098.65	4855.34
1101.94	4780.73
1105.24	4819.01
1108.53	4568.82
1111.82	4385.67
1115.11	4309.97
1118.4	4167
1121.69	4122.32
1124.97	3961.67
1128.26	3814.34
1131.54	3629.31
1134.82	3444.67
1138.1	3075.27
1141.38	3386.11
1144.66	2669.81
1147.93	2192.17
1151.21	2215.8
1154.48	2297.17
1157.75	2012.57
1161.02	1483.29
1164.29	1470.22
1167.55	1134.47
1170.82	819.953
1174.08	964.672
1177.34	773.59
1180.61	594.715
1183.86	566.066
1187.12	387.621
1190.38	400.426
1193.63	504.441
1196.89	100.613
1200.14	262.945
1203.39	2.4375
1206.64	233.598
1209.88	148.797
1213.13	134.047
1216.37	103.023
1219.62	37.0352
1222.86	77.9844
1226.1	211.977
1229.34	100.945
1232.57	172.277
1235.81	355.57
1239.04	42.4531
1242.28	0.234375
1245.51	31.1367
1248.74	30.8359
1251.97	29.2383
1255.19	35.2852
1258.42	8.38672
1261.64	288.481
1264.86	279.758
1268.09	164.609
1271.3	429.359
1274.52	442.133
1277.74	379.453
1280.95	221.719
1284.17	129.289
1287.38	291.039
1290.59	8.75391
1293.8	263.043
1297.01	493.551
1300.21	291.922
1303.42	322.266
1306.62	439.562
1309.82	109.809
1313.02	453.004
1316.22	461.203
1319.42	454.344
1322.61	296.375
1325.81	520.477
1329	89.4062
1332.19	38.2148
1335.38	264.977
1338.57	196.656
1341.76	202.769
1344.94	90.2656
1348.12	100.652
1351.31	195.016
1354.49	322.191
1357.67	8.11719
1360.85	202.973
1364.02	362.672
1367.2	19.6523
1370.37	280.199
1373.54	391.098
1376.71	303.668
1379.88	185.496
1383.05	269.953
1386.22	127.828
1389.38	28.1289
1392.54	66.8242
1395.7	104.957
1398.87	190.875
1402.02	327.016
1405.18	196.375
1408.34	166.199
1411.49	90.2969
1414.64	414.906
1417.8	412.332
1420.94	149.121
1424.09	242.648
1427.24	212.203
1430.38	201.199
1433.53	237.797
1436.67	246.141
1439.81	524.867
1442.95	903.844
1446.09	737.602
1449.23	971.598
1452.36	995.027
1455.49	669.84
1458.63	628.711
1461.76	646.809
1464.89	591.051
1468.01	704.113
1471.14	590.527
1474.26	522.914
1477.39	276.055
1480.51	443.641
1483.63	319.098
1486.75	321.465
1489.86	433.445
1492.98	130.742
1496.09	96.8477
1499.21	207.996
1502.32	114.211
1505.43	156.578
1508.54	68.043
1511.64	225.699
1514.75	276.676
1517.85	450.969
1520.95	408.492
1524.05	393.25
1527.15	318.16
1530.25	424.008
1533.35	339.242
1536.44	374.59
1539.53	364.945
1542.62	660.66
1545.72	352.988
1548.8	157.301
1551.89	398.75
1554.98	366.672
1558.06	345.769
1561.14	586.152
1564.23	425.281
1567.31	225.551
1570.38	23.9023
