Measurement: Raman, 514 nm, ccw, Raman Data Processed
Mineral: Phillipsite-Ca
Rruff sample: R050078
Ideal chemistry: Ca_3_(Si_10_Al_6_)O_32_12H_2_O
Locality: Grant County, Oregon, USA
Source: Rock Currier
Description: White tabular hexagonal
Measured chemistry: (Ca_0.90_K_0.75_[box]_0.25_Na_0.10_)_Σ=2_(Si_5.35_Al_2.65_)_Σ=8_O_16_·6H_2_O
Pin_id: L01729
Orientation: Laser parallel to -b* (0 -1 0). Fiducial mark perpendicular to laser is parallel to c [0 0 1]
Raman shift (cm-1)	intensity
267.215	0
270.852	123.233
274.488	33.4248
278.123	198.23
281.756	182.872
285.388	35.4326
289.019	124.574
292.648	283.252
296.276	89.292
299.902	104.044
303.527	109.642
307.151	283.599
310.773	425.369
314.394	473.293
318.013	634.098
321.631	725.713
325.248	782.146
328.864	645.138
332.478	491.593
336.09	277.476
339.701	153.789
343.311	42.044
346.92	84.0283
350.527	82.8047
354.132	61.7656
357.737	60.9268
361.34	108.531
364.941	250.404
368.541	324.022
372.14	759.919
375.737	922.804
379.333	1413.44
382.928	1747.22
386.521	2526.57
390.113	2648
393.703	3552.54
397.292	4080.19
400.88	4915.94
404.466	5463.82
408.051	6561.85
411.634	7853.27
415.216	9226.1
418.797	10650.1
422.376	11442.8
425.954	11525.2
429.53	11100.6
433.105	10788.8
436.679	11091
440.251	12112.4
443.822	14047.7
447.391	16915.4
450.96	20934
454.526	25337.6
458.091	30670.1
461.655	35361.2
465.218	39086.2
468.779	41902.2
472.338	44074
475.897	44752.9
479.454	44823
483.009	42939.9
486.563	39245.1
490.116	33494.7
493.667	27524.9
497.217	21112.3
500.765	16234.7
504.312	12512.7
507.858	9732.4
511.402	8117.23
514.945	6961.09
518.486	6167.98
522.026	5596.9
525.565	5055.85
529.102	4475.84
532.638	3693.89
536.172	2941.55
539.705	2350.76
543.236	1873.26
546.766	1478.39
550.295	1261.14
553.822	1074.45
557.348	771.511
560.873	572.704
564.396	479.967
567.917	389.223
571.438	324.661
574.957	235.253
578.474	86.8682
581.99	113.439
585.504	328.975
589.018	4.34473
592.529	13.499
596.04	158.327
599.549	18.0879
603.056	137.565
606.562	108.638
610.067	109.256
613.57	95.5674
617.072	187.385
620.572	128.34
624.071	153.197
627.569	298.021
631.065	292.863
634.56	234.84
638.053	298.926
641.545	362.988
645.035	247.923
648.524	353.698
652.012	264.31
655.498	469.742
658.983	484.983
662.466	379.024
665.948	253.856
669.428	340.477
672.907	508.05
676.385	71.6641
679.861	224.16
683.336	165.523
686.809	275.807
690.281	215.871
693.752	440.986
697.221	496.738
700.688	456.666
704.155	574.232
707.619	631.348
711.083	863.523
714.545	807.113
718.005	1080.25
721.464	1133.29
724.922	1170.55
728.378	1259.92
731.833	1359.49
735.286	1445.33
738.738	1512.61
742.189	1589.75
745.638	1839.55
749.085	1885.47
752.531	2042.4
755.976	2211.66
759.419	2390.53
762.861	2272.51
766.302	2389.49
769.741	2106.88
773.178	1965.22
776.614	1791.07
780.049	1540.68
783.482	1410.04
786.914	1151.32
790.345	950.939
793.773	787.672
797.201	509.629
800.627	506.082
804.052	341.034
807.475	184.467
810.897	95.334
814.317	28.4619
817.736	112.546
821.153	230.002
824.569	164.182
827.984	135.648
831.397	76.3037
834.808	70.1357
838.219	61.1416
841.627	69.7598
845.035	81.7158
848.441	57.2236
851.845	160.054
855.248	14.7158
858.65	88.1894
862.05	25.7578
865.448	17.0596
868.846	0.225586
872.241	118.969
875.636	23.874
879.029	3.25293
882.42	453.977
885.81	33.8252
889.199	173.695
892.586	74.9492
895.971	3.92676
899.356	109.47
902.738	34.4414
906.12	12.1797
909.5	24.3252
912.878	61.0127
916.255	89.3359
919.63	105.324
923.004	41.9971
926.377	91.3486
929.748	125.408
933.118	208.192
936.486	346.715
939.853	446.838
943.218	528.212
946.582	677.344
949.945	749.822
953.306	916.46
956.665	1007.47
960.023	1085.59
963.38	1050.09
966.735	1171.62
970.089	1242.59
973.441	1321.37
976.792	1342.37
980.141	1646.39
983.489	1692.05
986.836	1839.02
990.181	1744.83
993.524	2074.59
996.866	2012.01
1000.21	2031.57
1003.55	2303.6
1006.88	2283.12
1010.22	2419.59
1013.55	2553.7
1016.89	2758.79
1020.22	3109.18
1023.55	3309.1
1026.88	3284.05
1030.21	3494.16
1033.53	3863.14
1036.86	4072.3
1040.18	4100.7
1043.5	4056.96
1046.82	4213.57
1050.14	4268.77
1053.46	4282.14
1056.78	4343.65
1060.09	4595.59
1063.4	4816.12
1066.71	4856.41
1070.02	5182.89
1073.33	5304.56
1076.64	5515.44
1079.94	5809
1083.25	5809.38
1086.55	5873.21
1089.85	5860.2
1093.15	5665.93
1096.45	5612.83
1099.75	5398.81
1103.04	5235.08
1106.34	5277.39
1109.63	5133.4
1112.92	4959.9
1116.21	4690.48
1119.5	4657.27
1122.78	4732.09
1126.07	4258.19
1129.35	4108.59
1132.63	3618.07
1135.92	3174.99
1139.19	3029.19
1142.47	2844.08
1145.75	2564.45
1149.02	2372.4
1152.3	2271.38
1155.57	1939.74
1158.84	1676.53
1162.11	1425.19
1165.38	1244.59
1168.64	930.633
1171.91	897.221
1175.17	800.907
1178.43	628.197
1181.69	506.175
1184.95	455.978
1188.21	446.238
1191.46	240.164
1194.72	200.282
1197.97	200.352
1201.22	140.945
1204.47	132.046
1207.72	33.2158
1210.97	239.818
1214.21	8.74414
1217.46	43.708
1220.7	62.9482
1223.94	41.71
1227.18	20.5811
1230.42	164.477
1233.65	102.355
1236.89	60.9648
1240.12	67.834
1243.35	36.8613
1246.59	155.793
1249.81	177.453
1253.04	94.0293
1256.27	67.5078
1259.49	69.6602
1262.72	73.8789
1265.94	10.6914
1269.16	88.084
1272.38	203.408
1275.59	130.043
1278.81	3.19141
1282.03	44.7676
1285.24	107.215
1288.45	52.4062
1291.66	66.3066
1294.87	17.7109
1298.08	42.7715
1301.28	19.1836
1304.48	6.17188
1307.69	51.9141
1310.89	206.74
1314.09	27.8711
1317.29	171.959
1320.48	223.383
1323.68	195.707
1326.87	182.606
1330.06	160.543
1333.26	181.188
1336.44	295.025
1339.63	215.728
1342.82	151.185
1346	203.932
1349.19	273.699
1352.37	299.363
1355.55	325.537
1358.73	203.397
1361.9	235.518
1365.08	238.397
1368.26	253.91
1371.43	437.565
1374.6	141.383
1377.77	416.019
1380.94	211.363
1384.11	332.803
1387.27	231.549
1390.43	252.342
1393.6	217.775
1396.76	206.441
1399.92	106.609
1403.08	202.816
1406.23	148.043
1409.39	85.3281
1412.54	128.168
1415.69	131.279
1418.85	99.0566
1421.99	221.662
1425.14	214.682
1428.29	394.488
1431.43	9.94141
1434.58	252.949
1437.72	93.0195
1440.86	99.168
1444	200.67
1447.13	122.533
1450.27	225.848
1453.4	250.977
1456.54	261.685
1459.67	282.18
1462.8	85.4902
1465.93	8.80078
1469.06	194.81
1472.18	109.742
1475.31	1.60352
1478.43	36.1211
1481.55	273.867
1484.67	46.8164
1487.79	355.775
1490.9	203.291
1494.02	224.522
1497.13	21.5684
1500.24	265.69
1503.35	289.418
1506.46	136.426
1509.57	98.3262
1512.68	217.027
1515.78	56.7832
1518.88	88.8516
1521.99	158.162
1525.09	27.5527
1528.18	251.166
1531.28	55.418
1534.38	214.769
1537.47	223.051
1540.56	158.621
1543.66	209.205
1546.74	169.043
1549.83	206.123
1552.92	103.822
1556.01	439.664
1559.09	251.842
1562.17	228.266
1565.25	199.117
1568.33	256.047
1571.41	120.34
