Measurement: Raman, 514 nm, ccw, Raman Data Processed
Mineral: Phillipsite-Ca
Rruff sample: R050078
Ideal chemistry: Ca_3_(Si_10_Al_6_)O_32_12H_2_O
Locality: Grant County, Oregon, USA
Source: Rock Currier
Description: White tabular hexagonal
Measured chemistry: (Ca_0.90_K_0.75_[box]_0.25_Na_0.10_)_Σ=2_(Si_5.35_Al_2.65_)_Σ=8_O_16_·6H_2_O
Pin_id: L00386
Orientation: Laser parallel to a* (1 0 0). Fiducial mark perpendicular to laser is parallel to b [0 1 0]
Raman shift (cm-1)	intensity
273.276	0
276.912	372.84
280.545	9.1543
284.178	253.176
287.809	208.041
291.438	126.498
295.067	124.615
298.693	123.359
302.319	38.3984
305.943	256.949
309.566	293.598
313.187	128.25
316.807	411.065
320.426	275.971
324.043	308.815
327.659	159.369
331.273	185.414
334.886	7.82617
338.498	30.4375
342.108	43.6152
345.717	10.0137
349.324	9.98438
352.931	49.541
356.535	169.824
360.139	45.6582
363.741	260.412
367.341	344.619
370.94	518.166
374.538	629.781
378.135	787.182
381.73	1226.18
385.323	1477.76
388.916	1796.01
392.506	2353.77
396.096	2678.75
399.684	3415.28
403.271	3961.93
406.856	4779.7
410.44	5725.62
414.022	6725.69
417.603	7546.06
421.183	8168.74
424.761	7925.23
428.338	7961.81
431.914	7689.31
435.488	8569.99
439.061	9187.74
442.632	10595.8
446.202	13203
449.77	15747.4
453.337	19565.4
456.903	23386.7
460.467	26817.7
464.03	30198.6
467.592	32864.5
471.152	34298
474.711	35134.6
478.268	34678.6
481.824	33228.3
485.378	30612.1
488.932	26112.8
492.483	21099.9
496.034	16421.7
499.582	12364
503.13	9131.61
506.676	7153.95
510.221	5480.63
513.764	4427.62
517.306	3715.12
520.846	3097.29
524.385	2839.19
527.923	2489.16
531.459	2142.25
534.994	1943.9
538.527	1531.15
542.059	1133.63
545.59	896.639
549.119	783.756
552.647	566.932
556.173	429.434
559.698	483.793
563.222	241.383
566.744	90.0254
570.264	6.14844
573.784	22.3027
577.302	49.4902
580.818	80.2676
584.333	270.094
587.847	78.293
591.359	3.05859
594.87	151.248
598.379	40.6191
601.887	140.242
605.394	230.012
608.899	3.74023
612.402	115.455
615.905	183.137
619.406	409.834
622.905	326.607
626.403	454.473
629.9	164.371
633.395	518.287
636.889	486.154
640.381	643.049
643.872	310.859
647.361	360.801
650.849	179.398
654.336	513.08
657.821	71.0879
661.305	339.664
664.787	422.006
668.268	283.559
671.748	220.492
675.226	276.334
678.703	200.178
682.178	406.34
685.652	279.603
689.124	257.488
692.595	172.477
696.065	274.275
699.533	559.609
702.999	522.109
706.465	515.018
709.929	456.883
713.391	875.611
716.852	748.252
720.311	652.988
723.77	778.443
727.226	804.539
730.681	962.754
734.135	813.311
737.588	740.889
741.039	797.525
744.488	795.66
747.936	846.465
751.383	994.521
754.828	1126.94
758.272	1003.82
761.714	1086.45
765.155	1014.49
768.595	762.689
772.033	968.246
775.469	523.791
778.904	457.877
782.338	404.705
785.77	393.945
789.201	401.781
792.631	389.256
796.059	220.473
799.485	249.043
802.91	139.172
806.334	238.801
809.756	37.8633
813.177	4.07812
816.596	166.432
820.014	23.5742
823.431	222.348
826.846	89.7793
830.259	92.4688
833.671	9.0625
837.082	14.3848
840.491	177.461
843.899	207.67
847.306	108.158
850.71	211.059
854.114	46.4688
857.516	42.6699
860.917	197.623
864.316	96.2871
867.713	217.357
871.11	8.69727
874.505	70.3418
877.898	231.272
881.29	65.5527
884.68	203.353
888.069	132.752
891.457	152.779
894.843	153.551
898.228	101.412
901.611	407.293
904.993	307.742
908.373	27.0605
911.752	333.846
915.129	55.5273
918.505	318.978
921.88	120.973
925.253	2.97656
928.625	16.457
931.995	313.019
935.364	291.143
938.731	186.611
942.097	214.44
945.461	377.231
948.824	260.158
952.186	564.559
955.546	555.426
958.904	669.641
962.261	768.326
965.617	683.275
968.971	300.967
972.324	949.719
975.675	1096.94
979.025	940.914
982.374	995.49
985.72	985.426
989.066	1149.76
992.41	1095.04
995.753	1340.74
999.094	1354.75
1002.43	1197.21
1005.77	1239.46
1009.11	1371.35
1012.44	1389.3
1015.78	1629.28
1019.11	1533.81
1022.44	1477.46
1025.77	1755.38
1029.1	1948.12
1032.42	2203.86
1035.75	1908.64
1039.07	2137.22
1042.4	2036.13
1045.72	2068.1
1049.04	1889.07
1052.35	2310.36
1055.67	2397
1058.98	2612.47
1062.3	3097.22
1065.61	3490.4
1068.92	3147.89
1072.23	3619.38
1075.54	3562.39
1078.84	3891.74
1082.15	4037.61
1085.45	4112.53
1088.75	3992.73
1092.05	3821.77
1095.35	3971.93
1098.65	3869.51
1101.94	3727.39
1105.24	3716.85
1108.53	3607.62
1111.82	3369.28
1115.11	3239.87
1118.4	3231.82
1121.69	2971.45
1124.97	2901.08
1128.26	2666.82
1131.54	2926.53
1134.82	2422.99
1138.1	2346.66
1141.38	2312.62
1144.66	2149.48
1147.93	1802.55
1151.21	2007.32
1154.48	1487.83
1157.75	1479.7
1161.02	1230.26
1164.29	1068.68
1167.55	1039.79
1170.82	966.547
1174.08	697.844
1177.34	510.293
1180.61	483.965
1183.86	420.824
1187.12	183.676
1190.38	317.027
1193.63	271.121
1196.89	236.328
1200.14	209.633
1203.39	194
1206.64	17.4453
1209.88	201.004
1213.13	312.606
1216.37	25.6289
1219.62	92.6211
1222.86	20.8633
1226.1	35.0586
1229.34	11.8359
1232.57	116.66
1235.81	73.1484
1239.04	19.9727
1242.28	138.758
1245.51	279.348
1248.74	74.0664
1251.97	44.5977
1255.19	32.4805
1258.42	52.5938
1261.64	84.1172
1264.86	80.7852
1268.09	421.41
1271.3	109.008
1274.52	37.8984
1277.74	142.746
1280.95	36.168
1284.17	78.7617
1287.38	41.375
1290.59	201.894
1293.8	177.715
1297.01	81.7695
1300.21	407.512
1303.42	219.547
1306.62	88.4961
1309.82	174.406
1313.02	244.078
1316.22	19.3594
1319.42	229.953
1322.61	328.094
1325.81	382.148
1329	237.059
1332.19	256.039
1335.38	208.793
1338.57	315.203
1341.76	288.797
1344.94	116.609
1348.12	170.938
1351.31	435.113
1354.49	391.441
1357.67	436.613
1360.85	30.3906
1364.02	181.769
1367.2	429.152
1370.37	357.531
1373.54	420.078
1376.71	351.484
1379.88	401.129
1383.05	302.027
1386.22	232.879
1389.38	227.055
1392.54	287.086
1395.7	173.121
1398.87	250.238
1402.02	380.832
1405.18	146.402
1408.34	137.719
1411.49	222.961
1414.64	343.18
1417.8	323.043
1420.94	386.949
1424.09	158.219
1427.24	216.781
1430.38	274.586
1433.53	13.1406
1436.67	277.457
1439.81	453.586
1442.95	212.894
1446.09	146.656
1449.23	129.484
1452.36	139.453
1455.49	512.184
1458.63	241.633
1461.76	207.957
1464.89	142.801
1468.01	874.191
1471.14	227.328
1474.26	29.5156
1477.39	311.523
1480.51	168.906
1483.63	1.82812
1486.75	135.246
1489.86	268.894
1492.98	343.211
1496.09	357.754
1499.21	388.695
1502.32	38.8984
1505.43	352.398
1508.54	72.7695
1511.64	294.391
1514.75	268.004
1517.85	260.582
1520.95	192.777
1524.05	224.164
1527.15	248.805
1530.25	241.316
1533.35	167.367
1536.44	330.418
1539.53	131.918
1542.62	118.961
1545.72	62.2461
1548.8	1.73438
1551.89	442.629
1554.98	818.387
1558.06	366.414
1561.14	437.445
1564.23	11.7773
1567.31	274.16
1570.38	159.656
