Measurement: Raman, 514 nm, ccw, Raman Data Processed
Mineral: Phillipsite-Ca
Rruff sample: R050078
Ideal chemistry: Ca_3_(Si_10_Al_6_)O_32_12H_2_O
Locality: Grant County, Oregon, USA
Source: Rock Currier
Description: White tabular hexagonal
Measured chemistry: (Ca_0.90_K_0.75_[box]_0.25_Na_0.10_)_Σ=2_(Si_5.35_Al_2.65_)_Σ=8_O_16_·6H_2_O
Pin_id: L01729
Orientation: Laser parallel to -b* (0 -1 0). Fiducial mark perpendicular to laser is parallel to c [0 0 1]
Raman shift (cm-1)	intensity
267.215	0
270.852	103.348
274.488	32.5147
278.123	17.9844
281.756	73.957
285.388	168.925
289.019	127.262
292.648	283.119
296.276	516.408
299.902	553.167
303.527	615.904
307.151	692.259
310.773	766.974
314.394	887.893
318.013	852.443
321.631	836.171
325.248	727.375
328.864	622.911
332.478	593.606
336.09	277.477
339.701	215.581
343.311	12.3447
346.92	157.785
350.527	2.76758
354.132	37.6103
357.737	1.67383
361.34	77.165
364.941	14.3018
368.541	141.733
372.14	328.174
375.737	563.527
379.333	718.529
382.928	1056.7
386.521	1395.72
390.113	1797.89
393.703	2337.16
397.292	2839.65
400.88	3399.34
404.466	4185.24
408.051	5031.16
411.634	6060.59
415.216	7024.52
418.797	8224.02
422.376	8672.7
425.954	8580.21
429.53	8686.1
433.105	8990.35
436.679	9612.77
440.251	10828.1
443.822	12735
447.391	15493.2
450.96	19369.5
454.526	23814.1
458.091	28907.4
461.655	33566.3
465.218	37287.1
468.779	39995.2
472.338	41371.2
475.897	41503.4
479.454	40340.3
483.009	37982.3
486.563	34405.2
490.116	29425.5
493.667	23709.9
497.217	18254.2
500.765	13779.9
504.312	10172.4
507.858	7601.57
511.402	5966.1
514.945	4704.21
518.486	3779.71
522.026	3288.32
525.565	2729.05
529.102	2542.94
532.638	2097.01
536.172	2066.29
539.705	1516.75
543.236	1320.65
546.766	1049.7
550.295	953.114
553.822	498.822
557.348	502.734
560.873	366.727
564.396	196.818
567.917	248.081
571.438	158.382
574.957	158.866
578.474	132.489
581.99	82.1953
585.504	81.0019
589.018	42.3301
592.529	184.79
596.04	27.2783
599.549	117.983
603.056	17.4346
606.562	96.9394
610.067	55.5185
613.57	123.994
617.072	47.5869
620.572	91.2168
624.071	41.8623
627.569	259.562
631.065	243.378
634.56	127.314
638.053	227.66
641.545	309.735
645.035	226.28
648.524	250.143
652.012	191.837
655.498	295.922
658.983	197.212
662.466	345.809
665.948	392.1
669.428	144.76
672.907	277.041
676.385	213.825
679.861	99.625
683.336	414.278
686.809	342.875
690.281	310.443
693.752	436.731
697.221	523.217
700.688	768.064
704.155	799.275
707.619	830.267
711.083	812.039
714.545	987.713
718.005	978.084
721.464	1019.25
724.922	1124.22
728.378	815.695
731.833	898.731
735.286	778.691
738.738	888.012
742.189	859.689
745.638	998.714
749.085	827.751
752.531	789.082
755.976	1084.27
759.419	1167.3
762.861	1230.22
766.302	1073.93
769.741	823.104
773.178	869.106
776.614	767.792
780.049	697.36
783.482	408.096
786.914	361.545
790.345	405.144
793.773	256.267
797.201	211.898
800.627	159.009
804.052	271.592
807.475	139.572
810.897	22.0449
814.317	29.667
817.736	21.4629
821.153	137.215
824.569	132.971
827.984	31.7197
831.397	44.5869
834.808	136.023
838.219	6.23047
841.627	1.38574
845.035	17.6855
848.441	57.957
851.845	9.44238
855.248	50.8809
858.65	29.0303
862.05	87.2852
865.448	43.0654
868.846	70.6133
872.241	36.1103
875.636	105.247
879.029	72.8936
882.42	125.005
885.81	73.6152
889.199	119.214
892.586	26.3193
895.971	16.5742
899.356	56.0898
902.738	3.68262
906.12	154.129
909.5	115.576
912.878	218.673
916.255	109.425
919.63	116.837
923.004	142.767
926.377	132.537
929.748	202.154
933.118	168.362
936.486	268.837
939.853	199.916
943.218	188.216
946.582	405.747
949.945	554.642
953.306	560.424
956.665	597.716
960.023	568.316
963.38	593.679
966.735	773.52
970.089	812.576
973.441	1034.46
976.792	1065.86
980.141	1103.86
983.489	1285.11
986.836	1239.89
990.181	1292.65
993.524	1408.81
996.866	1338.24
1000.21	1562.46
1003.55	1463.67
1006.88	1519.05
1010.22	1687.23
1013.55	1837.73
1016.89	1907.33
1020.22	2047.95
1023.55	2145.11
1026.88	2149.31
1030.21	2228.34
1033.53	2372.06
1036.86	2419.87
1040.18	2539.98
1043.5	2440.1
1046.82	2461.64
1050.14	2756.51
1053.46	2945.16
1056.78	3081.68
1060.09	3420.9
1063.4	3429.13
1066.71	3696.53
1070.02	3989.11
1073.33	4265.88
1076.64	4457.9
1079.94	4467.14
1083.25	4743.68
1086.55	4753.32
1089.85	4802.75
1093.15	4865.63
1096.45	4852.35
1099.75	4785.85
1103.04	4738.53
1106.34	4379.5
1109.63	4248.07
1112.92	4170.24
1116.21	3838.31
1119.5	3859.91
1122.78	3554.07
1126.07	3500.41
1129.35	3282.73
1132.63	2913.3
1135.92	2828.35
1139.19	2754.52
1142.47	2445.13
1145.75	2173.69
1149.02	1937.47
1152.3	1907.91
1155.57	1598.86
1158.84	1245.82
1162.11	1382.15
1165.38	1137.32
1168.64	983.877
1171.91	894.753
1175.17	898.155
1178.43	687.699
1181.69	472.878
1184.95	459.128
1188.21	397.675
1191.46	394.868
1194.72	194.523
1197.97	164.25
1201.22	225.08
1204.47	177.161
1207.72	121.826
1210.97	30.5205
1214.21	16.0527
1217.46	138.812
1220.7	25.4746
1223.94	7.97559
1227.18	140.495
1230.42	13.5381
1233.65	31.0576
1236.89	96.0908
1240.12	102.478
1243.35	72.6894
1246.59	24.7617
1249.81	7.24707
1253.04	113.159
1256.27	153.045
1259.49	197.523
1262.72	61.1045
1265.94	142.5
1269.16	110.274
1272.38	144.94
1275.59	87.2656
1278.81	7.89356
1282.03	0.931641
1285.24	22.6768
1288.45	123.283
1291.66	54.2334
1294.87	43.3975
1298.08	200.072
1301.28	41.0869
1304.48	78.9541
1307.69	203.176
1310.89	128.953
1314.09	144.23
1317.29	101.642
1320.48	61.9639
1323.68	113.205
1326.87	243.503
1330.06	126.825
1333.26	116.583
1336.44	185.109
1339.63	145.41
1342.82	147.438
1346	7.16309
1349.19	67.6055
1352.37	208.849
1355.55	207.916
1358.73	257.161
1361.9	284.339
1365.08	40.7871
1368.26	236.435
1371.43	295.422
1374.6	311.137
1377.77	272.291
1380.94	280.623
1384.11	410.389
1387.27	183.191
1390.43	74.6113
1393.6	178.334
1396.76	152.522
1399.92	167.01
1403.08	146.059
1406.23	151.434
1409.39	169.285
1412.54	226.477
1415.69	66.7871
1418.85	178.582
1421.99	178.852
1425.14	46.7539
1428.29	71.5606
1431.43	148.594
1434.58	48.7988
1437.72	148.852
1440.86	56.6641
1444	99.7402
1447.13	181.068
1450.27	171.473
1453.4	11.2539
1456.54	163.961
1459.67	233.852
1462.8	216.963
1465.93	210.012
1469.06	251.225
1472.18	185.221
1475.31	66.332
1478.43	246.758
1481.55	151.418
1484.67	59.6465
1487.79	371.338
1490.9	129.182
1494.02	13.7598
1497.13	156.211
1500.24	15.459
1503.35	106.342
1506.46	92.7363
1509.57	130.894
1512.68	275.434
1515.78	109.51
1518.88	126.227
1521.99	262.885
1525.09	106.697
1528.18	208.17
1531.28	72.8047
1534.38	73.5156
1537.47	137.152
1540.56	204.918
1543.66	182.703
1546.74	131.031
1549.83	147.244
1552.92	90.2852
1556.01	420.791
1559.09	56.3867
1562.17	64.6797
1565.25	200.162
1568.33	11.7676
1571.41	435.31
