Measurement: Raman, 514 nm, ccw, Raman Data Processed
Mineral: Phillipsite-Ca
Rruff sample: R050078
Ideal chemistry: Ca_3_(Si_10_Al_6_)O_32_12H_2_O
Locality: Grant County, Oregon, USA
Source: Rock Currier
Description: White tabular hexagonal
Measured chemistry: (Ca_0.90_K_0.75_[box]_0.25_Na_0.10_)_Σ=2_(Si_5.35_Al_2.65_)_Σ=8_O_16_·6H_2_O
Pin_id: L00730
Orientation: Laser parallel to -c* (0 0 -1). Fiducial mark perpendicular to laser is parallel to a [1 0 0]
Raman shift (cm-1)	intensity
241.714	0
245.361	48.8066
249.007	358.496
252.651	113.881
256.294	290.228
259.936	426.734
263.576	350.41
267.215	62.8164
270.852	145.231
274.488	144.527
278.123	70.6953
281.756	331.566
285.388	400.627
289.019	234.199
292.648	289.106
296.276	395.049
299.902	412.256
303.527	325.527
307.151	360.853
310.773	494.16
314.394	533.246
318.013	289.174
321.631	343.812
325.248	410.865
328.864	320.002
332.478	245.211
336.09	71.4609
339.701	141.033
343.311	137.799
346.92	61.8242
350.527	79.0137
354.132	2.35547
357.737	153.793
361.34	55.1426
364.941	30.7832
368.541	36.0625
372.14	43.1699
375.737	364.178
379.333	343.971
382.928	530.787
386.521	538.158
390.113	701.047
393.703	1102.1
397.292	1260.62
400.88	1590.17
404.466	1930.5
408.051	2409.39
411.634	2785.82
415.216	3523.68
418.797	3931.2
422.376	3908.43
425.954	3946.15
429.53	4024.89
433.105	3956.46
436.679	4433.97
440.251	4872.07
443.822	6069.72
447.391	7434.94
450.96	8991.52
454.526	11129.2
458.091	13418.8
461.655	15795.2
465.218	17827.8
468.779	18744.2
472.338	19308.6
475.897	19453.1
479.454	18929.9
483.009	17562.1
486.563	15714.8
490.116	13225
493.667	10327.9
497.217	8004.12
500.765	5967.16
504.312	4304.72
507.858	3325.05
511.402	2502.3
514.945	1941.7
518.486	1512.67
522.026	1446.28
525.565	1042.87
529.102	1078.7
532.638	942.066
536.172	804.465
539.705	669.908
543.236	634.572
546.766	406.312
550.295	518.844
553.822	12.5879
557.348	412.744
560.873	182.004
564.396	147.43
567.917	177.654
571.438	110.111
574.957	170.682
578.474	73.3066
581.99	136.1
585.504	6.32227
589.018	142.246
592.529	11.0078
596.04	188.26
599.549	19.4727
603.056	71.6074
606.562	85.5762
610.067	114.541
613.57	185.504
617.072	42.5273
620.572	138.469
624.071	246.553
627.569	280.66
631.065	3.18359
634.56	331.242
638.053	372.863
641.545	220.539
645.035	234.047
648.524	52.8984
652.012	192.875
655.498	332.801
658.983	416.453
662.466	289.133
665.948	40.5078
669.428	143.356
672.907	149.008
676.385	333.957
679.861	47.7734
683.336	98.043
686.809	286.41
690.281	32.8789
693.752	345.461
697.221	238.461
700.688	317.602
704.155	259.555
707.619	486.742
711.083	393.527
714.545	366.32
718.005	636.559
721.464	749.609
724.922	373.289
728.378	222.543
731.833	266.391
735.286	333.445
738.738	598.203
742.189	505.172
745.638	252.398
749.085	428.184
752.531	220.82
755.976	243.656
759.419	447.066
762.861	339.106
766.302	457.094
769.741	595.496
773.178	198.441
776.614	348.91
780.049	64.2695
783.482	328.34
786.914	148.199
790.345	310.883
793.773	67.375
797.201	173.219
800.627	338.164
804.052	0.917969
807.475	53.7461
810.897	13.2344
814.317	78.3516
817.736	198.445
821.153	247.516
824.569	81.1211
827.984	24.5742
831.397	9.82422
834.808	157.137
838.219	413.82
841.627	208.262
845.035	23.875
848.441	168.137
851.845	73.4844
855.248	84.6289
858.65	313.637
862.05	293.551
865.448	127.348
868.846	233.055
872.241	548.629
875.636	343.074
879.029	414.469
882.42	305.777
885.81	429.969
889.199	850.035
892.586	59.0117
895.971	63.7227
899.356	219.348
902.738	177.867
906.12	98.1641
909.5	136.16
912.878	279.938
916.255	74.7539
919.63	260.152
923.004	163.375
926.377	81.6328
929.748	85.8789
933.118	120.047
936.486	59.1992
939.853	106.402
943.218	220.867
946.582	22.0703
949.945	164.144
953.306	412.141
956.665	301.113
960.023	165.453
963.38	181.523
966.735	305.199
970.089	366.898
973.441	290.84
976.792	493.914
980.141	440.344
983.489	397.711
986.836	496.688
990.181	425.316
993.524	612.133
996.866	687.172
1000.21	624.391
1003.55	760.269
1006.88	698.738
1010.22	760.426
1013.55	777.301
1016.89	765.332
1020.22	973.516
1023.55	787.852
1026.88	855.777
1030.21	922.438
1033.53	817.266
1036.86	839.269
1040.18	857.562
1043.5	690.664
1046.82	1027.39
1050.14	1010.23
1053.46	1048.37
1056.78	1274.67
1060.09	1456.28
1063.4	1519.48
1066.71	1790.58
1070.02	1462.95
1073.33	1570.64
1076.64	1826.89
1079.94	1655.79
1083.25	1991.16
1086.55	2022.9
1089.85	1999.99
1093.15	1996.82
1096.45	1959.6
1099.75	2031.57
1103.04	1779.09
1106.34	1791.11
1109.63	1731.65
1112.92	1798.32
1116.21	1802.31
1119.5	1758.79
1122.78	1951.52
1126.07	1533.5
1129.35	1436.63
1132.63	1298.09
1135.92	1155.79
1139.19	1050.74
1142.47	1025.17
1145.75	889.711
1149.02	867.766
1152.3	877.793
1155.57	497.078
1158.84	727.613
1162.11	536.731
1165.38	416.758
1168.64	570.176
1171.91	310.746
1175.17	355.523
1178.43	342.672
1181.69	123.133
1184.95	143.805
1188.21	45.6836
1191.46	140.82
1194.72	5.82812
1197.97	237.766
1201.22	303.559
1204.47	14.4492
1207.72	23.7148
1210.97	124.074
1214.21	156.664
1217.46	63.3984
1220.7	31.7031
1223.94	248.363
1227.18	43.6016
1230.42	134.754
1233.65	237.84
1236.89	171.059
1240.12	273.414
1243.35	13.0938
1246.59	95.3906
1249.81	384.059
1253.04	416.852
1256.27	236.227
1259.49	182.477
1262.72	350.305
1265.94	379.238
1269.16	199.391
1272.38	105.691
1275.59	11.3359
1278.81	256.402
1282.03	314.231
1285.24	270.469
1288.45	22.043
1291.66	57.1875
1294.87	24.6641
1298.08	331.223
1301.28	89.5742
1304.48	197.93
1307.69	58.4102
1310.89	326.969
1314.09	194.59
1317.29	384.695
1320.48	479.531
1323.68	460.316
1326.87	158.238
1330.06	178.211
1333.26	279.977
1336.44	226.176
1339.63	267.293
1342.82	337.469
1346	180.766
1349.19	294.019
1352.37	351.617
1355.55	461.133
1358.73	189.734
1361.9	121.269
1365.08	339.414
1368.26	70.3203
1371.43	62.9258
1374.6	139.641
1377.77	327.742
1380.94	141.238
1384.11	39.4766
1387.27	123.621
1390.43	462.809
1393.6	24.9766
1396.76	60.0195
1399.92	352.258
1403.08	39.168
1406.23	222.41
1409.39	381.672
1412.54	152.305
1415.69	171.461
1418.85	95.7188
1421.99	399.035
1425.14	0.378906
1428.29	480.305
1431.43	81.8242
1434.58	153.234
1437.72	302.41
1440.86	80.1445
1444	156.734
1447.13	437.562
1450.27	276.375
1453.4	350.172
1456.54	537.977
1459.67	498.781
1462.8	340.644
1465.93	146.656
1469.06	237.098
1472.18	305.582
1475.31	164.793
1478.43	5.92578
1481.55	125.832
1484.67	361.375
1487.79	358.504
1490.9	361.664
1494.02	355.293
1497.13	279.996
1500.24	154.766
1503.35	12.043
1506.46	151.269
1509.57	225.762
1512.68	273.625
1515.78	361.535
1518.88	275.188
1521.99	157.082
1525.09	124.438
1528.18	434.231
1531.28	299.672
1534.38	2.20703
1537.47	224.375
1540.56	237.051
1543.66	377.027
1546.74	305.824
1549.83	193.75
1552.92	234.082
1556.01	346.887
1559.09	270.621
1562.17	386.648
1565.25	12.3516
1568.33	538.356
1571.41	0
