Measurement: Raman, 514 nm, ccw, Raman Data Processed
Mineral: Phillipsite-Ca
Rruff sample: R050078
Ideal chemistry: Ca_3_(Si_10_Al_6_)O_32_12H_2_O
Locality: Grant County, Oregon, USA
Source: Rock Currier
Description: White tabular hexagonal
Measured chemistry: (Ca_0.90_K_0.75_[box]_0.25_Na_0.10_)_Σ=2_(Si_5.35_Al_2.65_)_Σ=8_O_16_·6H_2_O
Pin_id: L01141
Orientation: Laser parallel to (1 0 1). Fiducial mark perpendicular to laser is parallel to -b [0 -1 0]
Raman shift (cm-1)	intensity
273.276	0
276.912	0.464844
280.545	98.4853
284.178	442.085
287.809	171.453
291.438	201.701
295.067	1.75879
298.693	20.9336
302.319	56.5645
305.943	198.449
309.566	157.491
313.187	197.742
316.807	218.721
320.426	242.726
324.043	283.633
327.659	104.35
331.273	15.1914
334.886	24.0039
338.498	37.9102
342.108	88.5938
345.717	48.8125
349.324	42.7559
352.931	15.0332
356.535	191.781
360.139	109.723
363.741	249.85
367.341	308.219
370.94	487.205
374.538	642.068
378.135	961.242
381.73	1156.68
385.323	1533.5
388.916	2010.77
392.506	2511.49
396.096	2977.66
399.684	3838.25
403.271	4940.44
406.856	5781.33
410.44	7283.61
414.022	8722.22
417.603	10042.5
421.183	10518.1
424.761	10132.9
428.338	9174.65
431.914	8757.46
435.488	8326.65
439.061	8529.86
442.632	9526.33
446.202	11233.2
449.77	13292.6
453.337	15938.7
456.903	19476.7
460.467	22912.3
464.03	26291.2
467.592	29288.6
471.152	32035.3
474.711	33891.1
478.268	35373.6
481.824	35484.2
485.378	33328.9
488.932	29310.1
492.483	24152.1
496.034	18876.8
499.582	14118.7
503.13	10318.9
506.676	7796.23
510.221	5944.84
513.764	5155.67
517.306	4102.72
520.846	3938.99
524.385	3502.53
527.923	3280.22
531.459	2719.27
534.994	2336.07
538.527	1919.56
542.059	1509.71
545.59	1242.53
549.119	989.803
552.647	869.154
556.173	754.707
559.698	504.945
563.222	315.613
566.744	188.644
570.264	147.904
573.784	171.144
577.302	162.598
580.818	93.9043
584.333	56.4551
587.847	47.1016
591.359	3.83008
594.87	228.641
598.379	81.5234
601.887	69.4531
605.394	207.447
608.899	211.658
612.402	269.986
615.905	282.379
619.406	415.902
622.905	293.525
626.403	447.199
629.9	446.926
633.395	235.65
636.889	440.397
640.381	368.152
643.872	289.791
647.361	269.416
650.849	341.033
654.336	528.555
657.821	485
661.305	341.346
664.787	31.0645
668.268	22.3027
671.748	33.3223
675.226	97.1406
678.703	43.2051
682.178	99.4824
685.652	109.303
689.124	43.3379
692.595	29.207
696.065	316.127
699.533	43.4688
702.999	333.227
706.465	184.268
709.929	459.369
713.391	496.043
716.852	698.838
720.311	593.994
723.77	702
727.226	729.74
730.681	707.199
734.135	654.391
737.588	630.867
741.039	682.295
744.488	838.518
747.936	963.66
751.383	1064.54
754.828	1064.39
758.272	1147.26
761.714	1366.04
765.155	1026.49
768.595	1221.37
772.033	1138.21
775.469	984.004
778.904	926.707
782.338	719.541
785.77	826.051
789.201	759.086
792.631	647.201
796.059	385.406
799.485	293.377
802.91	314.904
806.334	385.897
809.756	317.348
813.177	61.9238
816.596	3.65039
820.014	29.4922
823.431	4.51953
826.846	25.3848
830.259	178.836
833.671	0.849609
837.082	71.0098
840.491	9.28711
843.899	265.881
847.306	13.2461
850.71	256.26
854.114	201.992
857.516	231.426
860.917	427.59
864.316	326.512
867.713	206.195
871.11	157.65
874.505	104.879
877.898	30.8848
881.29	108.795
884.68	65.5195
888.069	42.2324
891.457	123.656
894.843	336.152
898.228	93.3262
901.611	77.7598
904.993	159.51
908.373	125.383
911.752	15.625
915.129	25.9668
918.505	4.41602
921.88	11.6035
925.253	19.5977
928.625	34.5332
931.995	190.172
935.364	188.768
938.731	1.00391
942.097	344.141
945.461	192.115
948.824	383.719
952.186	318.055
955.546	474.098
958.904	627.801
962.261	438.58
965.617	566.076
968.971	498.981
972.324	618.404
975.675	805.029
979.025	896.664
982.374	806.008
985.72	698.713
989.066	730.596
992.41	779.932
995.753	925.273
999.094	1178.93
1002.43	1440
1005.77	1020.24
1009.11	1121.32
1012.44	1280.36
1015.78	1188.64
1019.11	1357.9
1022.44	1657.56
1025.77	1910.36
1029.1	1647.77
1032.42	1843.18
1035.75	1974.84
1039.07	2221.51
1042.4	2028.93
1045.72	2263.39
1049.04	2351.58
1052.35	2313.86
1055.67	2445.42
1058.98	2548.26
1062.3	2958.99
1065.61	3009.25
1068.92	3186.73
1072.23	3492.73
1075.54	3999.28
1078.84	3933.43
1082.15	4236.35
1085.45	4529.77
1088.75	4227.12
1092.05	4474.77
1095.35	4327.77
1098.65	4424.78
1101.94	4227.37
1105.24	3927.81
1108.53	4033.29
1111.82	3839.76
1115.11	3704.52
1118.4	3663.54
1121.69	3631.8
1124.97	3556.28
1128.26	3272.4
1131.54	3521.52
1134.82	3140.04
1138.1	2892.24
1141.38	2776.8
1144.66	2359.89
1147.93	2264.91
1151.21	2008.82
1154.48	1684.49
1157.75	1782.4
1161.02	1495.55
1164.29	1316.89
1167.55	1242.48
1170.82	860.283
1174.08	827.287
1177.34	614.533
1180.61	467.938
1183.86	540.498
1187.12	94.3027
1190.38	303.254
1193.63	99.3574
1196.89	182.607
1200.14	17.0078
1203.39	228.496
1206.64	105.748
1209.88	125.736
1213.13	19.2266
1216.37	16.9121
1219.62	207.617
1222.86	8.4668
1226.1	38.3613
1229.34	109.311
1232.57	7.61328
1235.81	124.519
1239.04	1.18359
1242.28	55.0703
1245.51	64.4316
1248.74	7.83203
1251.97	144.34
1255.19	53.1055
1258.42	233.648
1261.64	200.816
1264.86	213.221
1268.09	114.584
1271.3	135.09
1274.52	547.631
1277.74	55.2402
1280.95	38.1289
1284.17	168.717
1287.38	58.9473
1290.59	139.527
1293.8	177.24
1297.01	254.769
1300.21	96.543
1303.42	303.443
1306.62	129.734
1309.82	108.57
1313.02	204.18
1316.22	434.338
1319.42	374.463
1322.61	180.25
1325.81	322.531
1329	280.197
1332.19	160.102
1335.38	10.709
1338.57	362.69
1341.76	40.1055
1344.94	139.496
1348.12	155.062
1351.31	265.783
1354.49	573.256
1357.67	56.8711
1360.85	89.2324
1364.02	164.639
1367.2	214.44
1370.37	145.977
1373.54	172.234
1376.71	188.412
1379.88	250.266
1383.05	305.938
1386.22	254.303
1389.38	52.9727
1392.54	175.004
1395.7	183.119
1398.87	44.6406
1402.02	256.603
1405.18	339.809
1408.34	5.13086
1411.49	184.967
1414.64	161.502
1417.8	295.943
1420.94	64.0918
1424.09	35.0742
1427.24	156.787
1430.38	256.203
1433.53	175.398
1436.67	464.422
1439.81	506.404
1442.95	659.416
1446.09	572.811
1449.23	644.971
1452.36	614.611
1455.49	678.4
1458.63	832.129
1461.76	688.611
1464.89	335.935
1468.01	529.139
1471.14	313.082
1474.26	92.8789
1477.39	470.353
1480.51	282.06
1483.63	284.242
1486.75	28.543
1489.86	116.977
1492.98	156.516
1496.09	117.799
1499.21	284.928
1502.32	373.391
1505.43	273.633
1508.54	393.975
1511.64	165.475
1514.75	344.062
1517.85	93.9727
1520.95	620.93
1524.05	31.4102
1527.15	364.467
1530.25	110.445
1533.35	29.3496
1536.44	625.166
1539.53	236.822
1542.62	230.609
1545.72	351.305
1548.8	331.299
1551.89	373.1
1554.98	385.254
1558.06	174.231
1561.14	197.732
1564.23	145.75
1567.31	402.879
1570.38	4.2832
