Measurement: Raman, 514 nm, ccw, Raman Data Processed
Mineral: Phillipsite-Ca
Rruff sample: R050078
Ideal chemistry: Ca_3_(Si_10_Al_6_)O_32_12H_2_O
Locality: Grant County, Oregon, USA
Source: Rock Currier
Description: White tabular hexagonal
Measured chemistry: (Ca_0.90_K_0.75_[box]_0.25_Na_0.10_)_Σ=2_(Si_5.35_Al_2.65_)_Σ=8_O_16_·6H_2_O
Pin_id: L00386
Orientation: Laser parallel to a* (1 0 0). Fiducial mark perpendicular to laser is parallel to b [0 1 0]
Raman shift (cm-1)	intensity
273.276	0
276.912	44.5352
280.545	114.193
284.178	108.832
287.809	108.748
291.438	337.047
295.067	263.1
298.693	307.363
302.319	82.291
305.943	346.072
309.566	170.67
313.187	163.734
316.807	375.299
320.426	348.883
324.043	388.865
327.659	143.508
331.273	229.588
334.886	5.06055
338.498	79.5488
342.108	113.4
345.717	65.5254
349.324	117.523
352.931	135.44
356.535	171.315
360.139	69.9023
363.741	215.172
367.341	346.617
370.94	410.113
374.538	832.486
378.135	924.607
381.73	1181.47
385.323	1604.49
388.916	1993.09
392.506	2379.66
396.096	2836.33
399.684	3463.1
403.271	3995.97
406.856	4761.97
410.44	5676.12
414.022	6615.42
417.603	7337.91
421.183	7734.81
424.761	7573.98
428.338	7343.95
431.914	7543.21
435.488	7803.75
439.061	8680.66
442.632	9967.07
446.202	12276
449.77	14838.4
453.337	18175.4
456.903	21594.2
460.467	24921.8
464.03	27606.3
467.592	29548
471.152	31185.3
474.711	31496.4
478.268	31510.4
481.824	29874.4
485.378	26981.6
488.932	23262.6
492.483	18921.1
496.034	14341.6
499.582	11174.1
503.13	8171.52
506.676	6316.37
510.221	4957.23
513.764	4301.12
517.306	3457.05
520.846	3107.05
524.385	2714.09
527.923	2425.18
531.459	2060.38
534.994	1908.3
538.527	1668.41
542.059	1434.56
545.59	976.803
549.119	764.635
552.647	528.012
556.173	437.603
559.698	323.08
563.222	163.621
566.744	43.3535
570.264	35.8574
573.784	14.7773
577.302	51.7148
580.818	117.748
584.333	98.1641
587.847	63.3809
591.359	39.3613
594.87	146.228
598.379	21.998
601.887	166.613
605.394	96.2324
608.899	295.443
612.402	114.377
615.905	150.926
619.406	318.512
622.905	290.184
626.403	570.953
629.9	583.695
633.395	775.525
636.889	636.539
640.381	634.471
643.872	460.307
647.361	569.041
650.849	459.986
654.336	360.504
657.821	397.328
661.305	498.379
664.787	213.268
668.268	232.398
671.748	204.789
675.226	322.379
678.703	55.8965
682.178	229.307
685.652	102.768
689.124	361.022
692.595	255.873
696.065	115.047
699.533	215.4
702.999	116.025
706.465	429.633
709.929	416.758
713.391	633.156
716.852	692.525
720.311	776.479
723.77	774.967
727.226	792.311
730.681	589.859
734.135	737.885
737.588	783.336
741.039	616.117
744.488	712.939
747.936	834.074
751.383	768.377
754.828	945.988
758.272	1152.6
761.714	1148.18
765.155	1142.67
768.595	1132.44
772.033	782.434
775.469	905.336
778.904	730.789
782.338	833.004
785.77	522.367
789.201	599.293
792.631	273.785
796.059	254.809
799.485	237.324
802.91	152.391
806.334	93.9766
809.756	90.043
813.177	140.945
816.596	52.293
820.014	58.9102
823.431	24.3125
826.846	210.82
830.259	111.445
833.671	210.828
837.082	272.691
840.491	9.94141
843.899	205.703
847.306	201.445
850.71	247.867
854.114	83.1953
857.516	4.67578
860.917	244.781
864.316	344.144
867.713	170.144
871.11	281.738
874.505	365.019
877.898	114.879
881.29	59.6875
884.68	25.2148
888.069	229.672
891.457	57.2383
894.843	39.6719
898.228	178.617
901.611	192.805
904.993	32.0547
908.373	229.742
911.752	95.2812
915.129	10.5469
918.505	250.559
921.88	201.336
925.253	263.531
928.625	425.481
931.995	356.086
935.364	290.109
938.731	332.652
942.097	390.535
945.461	459.199
948.824	366.762
952.186	761.879
955.546	570.375
958.904	778.621
962.261	784.879
965.617	659.641
968.971	713.727
972.324	847.059
975.675	698.637
979.025	924.805
982.374	1087.03
985.72	1031
989.066	1310.91
992.41	1025.74
995.753	1025.46
999.094	1149.54
1002.43	1286.35
1005.77	1188.39
1009.11	1311.52
1012.44	1362.8
1015.78	1600.99
1019.11	1692.48
1022.44	1638.87
1025.77	1816.88
1029.1	1802.23
1032.42	1829.89
1035.75	1899.07
1039.07	2086.7
1042.4	2020.26
1045.72	1919.92
1049.04	1893.6
1052.35	2293.02
1055.67	2379.64
1058.98	2485.47
1062.3	2741.15
1065.61	3148.44
1068.92	2980.96
1072.23	3328.59
1075.54	3272.61
1078.84	3662.1
1082.15	3978.23
1085.45	4194.07
1088.75	3870.25
1092.05	3885.74
1095.35	3943.64
1098.65	3742
1101.94	3506.91
1105.24	3405.68
1108.53	3388.18
1111.82	3377.22
1115.11	2985.57
1118.4	3251.32
1121.69	2856.67
1124.97	3170.59
1128.26	2510.71
1131.54	2377.3
1134.82	2384.92
1138.1	2060.78
1141.38	1951.19
1144.66	1771.28
1147.93	1596.8
1151.21	1652.76
1154.48	1451
1157.75	1300.75
1161.02	1093.48
1164.29	1014.6
1167.55	606.012
1170.82	582.609
1174.08	670.164
1177.34	424.117
1180.61	591.227
1183.86	383.496
1187.12	196.914
1190.38	92.4727
1193.63	319.109
1196.89	339.738
1200.14	233.5
1203.39	223.379
1206.64	195.356
1209.88	14.4453
1213.13	277.625
1216.37	301.875
1219.62	64.9414
1222.86	250.754
1226.1	106.703
1229.34	245.715
1232.57	170.32
1235.81	0.140625
1239.04	45.3281
1242.28	100.852
1245.51	30.4062
1248.74	487.859
1251.97	102.664
1255.19	149.367
1258.42	103.648
1261.64	666.031
1264.86	206.582
1268.09	226.352
1271.3	31.9023
1274.52	42.8398
1277.74	41.8945
1280.95	339.066
1284.17	166.023
1287.38	356.824
1290.59	68.5156
1293.8	354.797
1297.01	93.2148
1300.21	260.625
1303.42	329.934
1306.62	317.231
1309.82	246.309
1313.02	405.219
1316.22	462.102
1319.42	442.887
1322.61	312.902
1325.81	241.473
1329	548.977
1332.19	331.543
1335.38	240.918
1338.57	465
1341.76	193.641
1344.94	98.7969
1348.12	486.805
1351.31	489.641
1354.49	632.109
1357.67	295.609
1360.85	646.094
1364.02	271.492
1367.2	202.473
1370.37	141.922
1373.54	293.769
1376.71	160.34
1379.88	153.098
1383.05	266.277
1386.22	284.922
1389.38	453.086
1392.54	359.144
1395.7	273.852
1398.87	201.207
1402.02	303.551
1405.18	199.922
1408.34	291.078
1411.49	333.223
1414.64	77.1641
1417.8	162.012
1420.94	151.422
1424.09	348.531
1427.24	388.496
1430.38	148.176
1433.53	740.375
1436.67	455.137
1439.81	205.547
1442.95	325.199
1446.09	450.211
1449.23	514.516
1452.36	479.938
1455.49	542.227
1458.63	479.387
1461.76	326.316
1464.89	234.176
1468.01	498.789
1471.14	11.3867
1474.26	213.848
1477.39	239.293
1480.51	371.629
1483.63	293.172
1486.75	58.9414
1489.86	357.059
1492.98	342.422
1496.09	148.801
1499.21	74.8828
1502.32	83.3242
1505.43	192.516
1508.54	80.8906
1511.64	313.699
1514.75	210.719
1517.85	211.844
1520.95	198.129
1524.05	247.269
1527.15	249.676
1530.25	346.871
1533.35	318.379
1536.44	301.18
1539.53	237.457
1542.62	418.691
1545.72	220.926
1548.8	144.492
1551.89	511.047
1554.98	741.445
1558.06	41.4102
1561.14	4.53516
1564.23	1.28125
1567.31	250.5
1570.38	0.644531
