Measurement: Raman, 514 nm, ccw, Raman Data Processed
Mineral: Plumbophyllite
Rruff sample: R130081
Ideal chemistry: Pb_2_Si_4_O_10_H_2_O
Locality: Blue Bell claims, about 11 km west of Baker, San Bernardino County, California, USA
Source: Anthony R. Kampf and George R. Rossman
Description: Colorless to pale blue and transparent.  Data from Kampf et al (2009)
Measured chemistry: Pb_1.79_Cu_0.02_Si_4_O_9.62_(OH)_0.38_Â·1.02H_2_O
Raman shift (cm-1)	intensity
49.0306	0
63.2978	3.45019
77.5427	1452.85
91.7652	29804.2
105.965	6428.14
120.143	3508.51
134.299	2548.48
148.433	8449.8
162.545	308.857
176.634	328.163
190.702	355.303
204.748	3228.18
218.772	1549.72
232.774	299.74
246.754	1991.16
260.713	441.135
274.649	194.147
288.565	340.205
302.458	1214.98
316.33	2273.08
330.181	8475.79
344.01	4515.53
357.818	1390.6
371.604	589.744
385.369	342.832
399.113	71.6453
412.835	232.158
426.537	22.6738
440.217	455.139
453.876	16.7302
467.515	300.113
481.132	1804.32
494.728	509.029
508.303	1550.74
521.858	287.671
535.392	113.895
548.905	168.51
562.397	65.5581
575.869	51.5422
589.32	156.468
602.75	252.54
616.16	488.32
629.549	1894.18
642.918	7522.76
656.267	1213.74
669.595	452.759
682.903	328.91
696.19	217.61
709.458	254.526
722.705	170.361
735.932	107.267
749.139	27.2122
762.326	737.14
775.493	246.313
788.64	273.495
801.767	76.4856
814.874	86.3906
827.961	46.4565
841.029	46.5294
854.077	36.8093
867.105	50.2319
880.113	243.754
893.102	510.103
906.071	1803.33
919.021	14282.1
931.951	7588.74
944.862	2094.74
957.753	1680.53
970.625	2117.34
983.477	2881.13
996.311	1486.64
1009.12	3934.99
1021.92	22131.6
1034.7	7531.46
1047.45	2556.1
1060.19	6155.06
1072.91	2887.34
1085.61	1306.81
1098.29	530.631
1110.95	244.969
1123.59	124.445
1136.22	198.325
1148.82	134.313
1161.41	90.7974
1173.97	83.9744
1186.52	31.4476
1199.05	47.1838
1211.56	66.2372
1224.06	3.36279
1236.53	11.7877
1248.99	45.1857
1261.42	34.4574
1273.84	111.722
1286.24	111.326
1298.63	128.735
1310.99	101.633
1323.34	44.9003
1335.66	10.3589
1347.97	17.5735
1360.26	120.311
1372.54	59.1425
1384.79	54.9386
1397.03	26.0615
1409.25	42.3779
1421.45	4.11926
1433.63	76.4777
1445.8	78.0226
1457.94	0.915649
1470.07	27.3636
1482.18	19.3875
1494.28	82.5591
1506.35	157.487
1518.41	165.881
1530.45	67.6672
1542.48	96.9071
1554.48	136.832
1566.47	104.879
1578.44	59.264
1590.39	65.0355
1602.33	138.571
1614.25	134.013
1626.15	189.55
1638.03	285.381
1649.9	243.208
1661.75	239.728
1673.58	136.53
1685.4	9.23535
1697.19	86.954
1708.97	25.7793
1720.74	78.2106
1732.48	13.3998
1744.21	74.2776
1755.93	80.4491
1767.62	11.8223
1779.3	63.6331
1790.96	92.3572
1802.61	4.13415
1814.23	29.2754
1825.85	54.2937
1837.44	25.8348
1849.02	60.9517
1860.58	25.4224
1872.13	62.1702
1883.65	36.4609
1895.16	47.0459
1906.66	1.90259
1918.14	22.77
1929.6	81.9929
1941.05	74.2218
1952.48	50.0772
1963.89	99.2299
1975.29	52.4957
1986.67	80.174
1998.03	21.5709
2009.38	30.148
2020.71	74.3871
2032.02	83.8766
2043.32	64.0885
2054.61	14.3761
2065.87	28.7324
2077.12	111.996
2088.36	85.4312
2099.58	19.0991
2110.78	130.658
2121.97	111.359
2133.14	114.537
2144.3	77.0483
2155.44	82.4456
2166.56	63.0338
2177.67	37.6146
2188.76	105.259
2199.84	90.3544
2210.9	77.2249
2221.94	29.9927
2232.97	68.3972
2243.99	37.6362
2254.99	61.7844
2265.97	133.259
2276.94	136.249
2287.89	95.6679
2298.83	62.4834
2309.75	129.13
2320.65	128.917
2331.55	17.3199
2342.42	51.2705
2353.28	49.8907
2364.13	14.6272
2374.96	50.5568
2385.77	7.43677
2396.57	12.0593
2407.35	20.6309
2418.12	35.2882
2428.88	79.827
2439.62	100.081
2450.34	98.0776
2461.05	45.837
2471.75	5.03162
2482.42	40.0299
2493.09	25.6598
2503.74	61.5709
2514.37	76.916
2524.99	39.0381
2535.6	1.7489
2546.19	9.85474
2556.76	65.1056
2567.33	50.6914
2577.87	98.2531
2588.4	50.8701
2598.92	60.2437
2609.42	83.1505
2619.91	152.752
2630.39	49.1987
2640.84	147.832
2651.29	113.292
2661.72	204.595
2672.13	225.112
2682.54	179.846
2692.92	184.898
2703.3	97.9887
2713.65	98.3055
2724	103.339
2734.33	145.7
2744.64	137.338
2754.95	52.2565
2765.23	132.129
2775.51	52.615
2785.77	150.541
2796.01	198.403
2806.24	155.735
2816.46	121.388
2826.66	204.116
2836.85	213.447
2847.03	337.447
2857.19	306.543
2867.33	322.163
2877.47	496.261
2887.59	356.567
2897.69	415.285
2907.78	348.951
2917.86	271.851
2927.93	257.431
2937.98	153.654
2948.01	170.178
2958.04	109.745
2968.05	6.67578
2978.04	25.4585
2988.03	19.5942
2997.99	58.615
3007.95	63.0793
3017.89	31.5535
3027.82	57.6411
3037.73	6.15967
3047.64	22.5305
3057.52	84.585
3067.4	114.036
3077.26	177.537
3087.11	194.603
3096.94	327.042
3106.76	430.712
3116.57	572.55
3126.37	516.932
3136.15	596.296
3145.92	807.334
3155.67	923.25
3165.41	958.324
3175.14	1009.16
3184.86	1240.03
3194.56	1128.65
3204.25	1105.05
3213.93	1233.88
3223.59	884.08
3233.24	717.231
3242.88	697.101
3252.51	533.481
3262.12	468.738
3271.72	473.827
3281.31	409.26
3290.88	445.261
3300.44	488.392
3309.99	524.792
3319.52	690.636
3329.05	923.366
3338.56	903.452
3348.05	796.084
3357.54	824.976
3367.01	565.782
3376.47	290.539
3385.91	282.566
3395.35	158.744
3404.77	79.686
3414.18	30.0332
3423.58	16.1148
3432.96	92.8442
3442.33	181.229
3451.69	529.111
3461.04	723.83
3470.37	897.457
3479.69	788.104
3489	616.896
3498.3	414.789
3507.58	352.733
3516.86	449.715
3526.12	531.303
3535.37	487.662
3544.6	527.671
3553.83	738.67
3563.04	692.634
3572.24	656.314
3581.42	395.979
3590.6	307.367
3599.76	92.8648
3608.91	64.4622
3618.05	11.0796
3627.18	69.3335
3636.29	3.80347
3645.4	18.148
3654.49	63.2508
3663.57	42.0068
3672.64	68.2352
3681.69	90.3458
3690.73	56.6052
3699.77	224.836
3708.79	202.752
3717.79	269.09
3726.79	274.703
3735.77	338.293
3744.75	341.746
3753.71	337.191
3762.66	355.637
3771.6	368.391
3780.52	362.45
3789.44	299.532
3798.34	245.181
3807.23	359.641
3816.11	221.769
3824.98	222.901
3833.83	280.13
3842.68	243.658
3851.51	191.45
3860.33	292.107
3869.15	244.37
3877.94	200.19
3886.73	137.279
3895.51	136.181
3904.27	85.3232
3913.03	85.7595
3921.77	96.7696
3930.5	88.9702
3939.22	112.553
3947.93	125.303
3956.63	34.5382
3965.31	55.4077
3973.99	72.8531
3982.65	19.2404
3991.3	61.9637
3999.94	0
