Measurement: Raman, 514 nm, ccw, Raman Data Processed
Mineral: Polylithionite
Rruff sample: R050132
Ideal chemistry: KLi_2_AlSi_4_O_10_F_2_
Locality: Brown Derby mine, Ohio City, Gunnison County, Colorado, USA
Source: Dave Bunk Minerals
Description: Purple scaly aggregate, polytype 2M1
Measured chemistry: (K_0.90_Rb_0.10_)(Li_0.62_Al_0.38_)_3_(Si_0.93_Al_0.07_)_4_O_10_(F_0.69_(OH)_0.31_)_2_
Pin_id: M00149
Orientation: Laser parallel to -b* (0 -1 0). Fiducial mark perpendicular to laser is parallel to -c [0 0 -1]
Raman shift (cm-1)	intensity
126.749	0
131.668	287.156
136.585	176.545
141.5	144.685
146.412	50.1309
151.321	55.666
156.229	259.322
161.134	341.152
166.036	1032.92
170.936	2390.65
175.834	3313.3
180.729	3969.85
185.622	3067.65
190.512	2515.77
195.4	2727.04
200.286	2477.55
205.169	1977.18
210.049	1619.98
214.928	1837.44
219.803	1100.74
224.677	731.941
229.548	967.078
234.416	1512.59
239.282	2680.55
244.146	3944.69
249.007	6003.75
253.866	9184.69
258.722	15109.5
263.576	15938.8
268.427	10801.5
273.276	5565.82
278.123	2986.4
282.967	2030.02
287.809	1402.28
292.648	1050.13
297.485	843.785
302.319	837.949
307.151	770.383
311.98	640.965
316.807	332.627
321.631	486.31
326.454	286.984
331.273	295.514
336.09	28.7852
340.905	74.3125
345.717	158.092
350.527	38.6855
355.334	0.519531
360.139	297.652
364.941	881.732
369.741	1197.72
374.538	1848.6
379.333	2408.37
384.126	2940.82
388.916	3606.82
393.703	4095.44
398.488	5052.75
403.271	5347.58
408.051	4878.45
412.828	4016.88
417.603	3003.06
422.376	2144
427.146	1803.77
431.914	1558.35
436.679	1423.68
441.442	1467.76
446.202	1207.57
450.96	1003.1
455.715	960.348
460.467	1055.31
465.218	1206.97
469.965	1039.35
474.711	1370.44
479.454	1174.73
484.194	809.178
488.932	511.346
493.667	316.682
498.4	88.4824
503.13	262.885
507.858	53.6367
512.583	60.1875
517.306	27.8066
522.026	41.0859
526.744	212.176
531.459	502.266
536.172	689.32
540.882	911.861
545.59	1170.71
550.295	1600.23
554.998	2191.61
559.698	2682.24
564.396	2626.17
569.091	2223.19
573.784	1504.15
578.474	1159.04
583.162	931.818
587.847	567.475
592.529	614.012
597.209	801.455
601.887	925.836
606.562	1278.18
611.235	1666.49
615.905	1667.86
620.572	1871.27
625.237	2072.8
629.9	1844.72
634.56	1263.51
639.217	1400.53
643.872	937.678
648.524	799.668
653.174	829.424
657.821	798.775
662.466	775.211
667.108	784.59
671.748	1187.97
676.385	1629.17
681.02	2469.26
685.652	4338.14
690.281	6581.24
694.908	10064.4
699.533	15717.3
704.155	23517.4
708.774	30073.6
713.391	26803.6
718.005	15915
722.617	8380.83
727.226	5152.28
731.833	3462.2
736.437	2743.13
741.039	2778.67
745.638	2858.23
750.234	2869.65
754.828	2799.2
759.419	2341.91
764.008	1689.75
768.595	1254.34
773.178	902.451
777.759	597.135
782.338	836.926
786.914	750.049
791.488	551.135
796.059	503.182
800.627	211.852
805.193	124.902
809.756	56.9434
814.317	32.0566
818.875	32.4102
823.431	194.522
827.984	200.031
832.534	142.094
837.082	210.918
841.627	61.5664
846.17	247.523
850.71	339.664
855.248	474.848
859.783	580.406
864.316	501.223
868.846	216.625
873.373	288.211
877.898	67.0391
882.42	55.3594
886.94	173.266
891.457	182.402
895.971	284.941
900.483	429.996
904.993	510.703
909.5	737.941
914.004	883.84
918.505	824.602
923.004	542.84
927.501	452.086
931.995	790.172
936.486	468.598
940.975	458.113
945.461	507.055
949.945	748.453
954.426	1010.1
958.904	848.16
963.38	573.25
967.853	426.516
972.324	351.594
976.792	286.879
981.258	298.328
985.72	380.758
990.181	265.887
994.639	195.652
999.094	935.059
1003.55	1066.54
1008	418.269
1012.44	602.426
1016.89	571.188
1021.33	409.887
1025.77	391.371
1030.21	411.902
1034.64	282.094
1039.07	170.363
1043.5	508.231
1047.93	150.375
1052.35	699.363
1056.78	466.312
1061.19	583.41
1065.61	824.481
1070.02	1016.64
1074.43	1419.8
1078.84	1292.67
1083.25	1859.68
1087.65	1547.86
1092.05	1922
1096.45	1918.81
1100.85	1891.78
1105.24	2197.68
1109.63	2093.29
1114.02	1947.64
1118.4	2134.79
1122.78	1878.9
1127.16	1649.69
1131.54	1446.84
1135.92	918.328
1140.29	611.223
1144.66	608.891
1149.02	174.344
1153.39	172.574
1157.75	165.219
1162.11	129.125
1166.46	45.8789
1170.82	33.0391
1175.17	101.738
1179.52	148.949
1183.86	37.4336
1188.21	32.9023
1192.55	141.805
1196.89	175.961
1201.22	64.8594
1205.55	3.72266
1209.88	3.26953
1214.21	36.8867
1218.54	66.1562
1222.86	39.8945
1227.18	494.613
1231.5	399.82
1235.81	205.731
1240.12	392.34
1244.43	488.738
1248.74	260.981
1253.04	488.031
1257.34	741.875
1261.64	740.555
1265.94	706.25
1270.23	1095.7
1274.52	828.918
1278.81	724.023
1283.1	814.672
1287.38	968.266
1291.66	769.953
1295.94	643.551
1300.21	520.453
1304.48	1132.06
1308.75	1332.16
1313.02	1081.21
1317.29	1160.32
1321.55	1592.75
1325.81	1203.39
1330.06	713.59
1334.32	837.285
1338.57	911.754
1342.82	1068.11
1347.06	911.082
1351.31	785.57
1355.55	785.738
1359.79	958.906
1364.02	793.387
1368.26	597.879
1372.49	534.129
1376.71	429.512
1380.94	603.125
1385.16	607.144
1389.38	501.812
1393.6	480.211
1397.81	265.164
1402.02	93.0352
1406.23	222.074
1410.44	44.7031
1414.64	111.293
1418.85	150.715
1423.04	198.269
1427.24	161.449
1431.43	370.09
1435.62	461.383
1439.81	720.879
1444	1026.81
1448.18	950.703
1452.36	1178.16
1456.54	928.59
1460.71	977.465
1464.89	639.773
1469.06	653.469
1473.22	753.41
1477.39	505.18
1481.55	316.856
1485.71	364.926
1489.86	363.746
1494.02	332.625
1498.17	35.9453
1502.32	192.195
1506.46	41.8438
1510.61	112.555
1514.75	294.309
1518.88	251.445
1523.02	78.8398
1527.15	91.1523
1531.28	430.703
1535.41	373.594
1539.53	514.852
1543.66	369.887
1547.78	367.137
1551.89	352.867
1556.01	409.375
1560.12	23.4375
1564.23	455.398
1568.33	152.191
1572.43	0
