Measurement: Raman, 514 nm, ccw, Raman Data Processed
Mineral: Polylithionite
Rruff sample: R050132
Ideal chemistry: KLi_2_AlSi_4_O_10_F_2_
Locality: Brown Derby mine, Ohio City, Gunnison County, Colorado, USA
Source: Dave Bunk Minerals
Description: Purple scaly aggregate, polytype 2M1
Measured chemistry: (K_0.90_Rb_0.10_)(Li_0.62_Al_0.38_)_3_(Si_0.93_Al_0.07_)_4_O_10_(F_0.69_(OH)_0.31_)_2_
Pin_id: M00120
Orientation: Laser parallel to c* (0 0 1). Fiducial mark perpendicular to laser is parallel to -a [-1 0 0]
Raman shift (cm-1)	intensity
95.948	0
100.883	159.455
105.815	29.8027
110.744	178.357
115.671	53.0039
120.596	312.18
125.519	319.629
130.439	198.096
135.356	290.248
140.271	440.549
145.184	416.033
150.094	404.176
155.002	444.644
159.908	646.144
164.811	687.438
169.711	1330.21
174.61	1364.37
179.505	1614.82
184.399	1415.91
189.29	929.801
194.178	1109.53
199.064	972.111
203.948	794.531
208.829	903.762
213.708	660.441
218.585	765.908
223.459	488.918
228.33	451.203
233.199	549.338
238.066	944.035
242.93	1151.98
247.792	1408.31
252.651	1993.78
257.508	2803.59
262.363	3657.69
267.215	2699.27
272.064	1369.86
276.912	797.34
281.756	556.58
286.598	281.506
291.438	555.047
296.276	356.166
301.111	319.812
305.943	262.945
310.773	10.5039
315.601	181.461
320.426	142.824
325.248	12.8887
330.068	18.2598
334.886	143.25
339.701	66.8926
344.514	128.82
349.324	5.58398
354.132	1.02539
358.938	107.057
363.741	100.539
368.541	354.791
373.339	277.83
378.135	386.658
382.928	458.836
387.718	795.691
392.506	1101.64
397.292	1302.93
402.075	1557.54
406.856	1588.43
411.634	1156.57
416.41	944.959
421.183	616.574
425.954	403.408
430.722	557.449
435.488	563.688
440.251	429.113
445.012	616.719
449.77	421.494
454.526	632.432
459.28	372.525
464.03	435.115
468.779	457.775
473.525	650.934
478.268	462.582
483.009	365.029
487.747	165.57
492.483	186.09
497.217	139.379
501.948	19.9473
506.676	15.3281
511.402	27.5566
516.125	145.744
520.846	140.981
525.565	130.268
530.281	348.719
534.994	372.266
539.705	438.043
544.413	351.092
549.119	657.244
553.822	866.568
558.523	1036.32
563.222	961.336
567.917	946.547
572.611	574.848
577.302	387.215
581.99	187.699
586.676	196.211
591.359	155.744
596.04	265.281
600.718	1.1582
605.394	181.352
610.067	327.102
614.737	411.852
619.406	469.607
624.071	474.357
628.734	381.404
633.395	123.305
638.053	114.414
642.708	303.762
647.361	239.006
652.012	36.4238
656.66	36.2109
661.305	85.2324
665.948	199.469
670.588	564.43
675.226	342.588
679.861	613.246
684.494	855.375
689.124	1522.6
693.752	2409.95
698.377	3550.25
702.999	5563.35
707.619	8003.82
712.237	9084.51
716.852	5781.3
721.464	2952.92
726.074	1541.81
730.681	1166.51
735.286	901
739.888	633.41
744.488	935.137
749.085	914.984
753.68	694.234
758.272	677.051
762.861	777.031
767.448	305.875
772.033	205.242
776.614	136.566
781.194	366.637
785.77	222.301
790.345	382.527
794.916	110.66
799.485	384.262
804.052	335.496
808.616	155.941
813.177	66.3008
817.736	23.0859
822.292	92.832
826.846	89.3203
831.397	129.004
835.945	151.984
840.491	56.1406
845.035	101.457
849.576	158.207
854.114	193.441
858.65	185.141
863.183	114.418
867.713	228.555
872.241	14.0273
876.767	225.023
881.29	54.6562
885.81	47.3203
890.328	51.9727
894.843	329.789
899.356	224.219
903.866	384.164
908.373	228.144
912.878	451.238
917.38	243.301
921.88	326.117
926.377	415.484
930.872	287.746
935.364	452.668
939.853	351.684
944.34	530.422
948.824	329.07
953.306	233.316
957.785	204.148
962.261	475.106
966.735	90.8203
971.207	214.984
975.675	294.078
980.141	335.602
984.605	465.293
989.066	382.363
993.524	269.043
997.98	202.809
1002.43	277.059
1006.88	137.922
1011.33	488.555
1015.78	174.309
1020.22	6.9375
1024.66	100.328
1029.1	376.781
1033.53	204.191
1037.97	114.438
1042.4	293.848
1046.82	171.082
1051.25	302.188
1055.67	235.309
1060.09	369.902
1064.51	275.238
1068.92	368.922
1073.33	267.562
1077.74	738.481
1082.15	605.043
1086.55	444.777
1090.95	859.129
1095.35	810.094
1099.75	634.863
1104.14	662.125
1108.53	847.305
1112.92	888.094
1117.31	402.426
1121.69	620.91
1126.07	816.496
1130.45	286.812
1134.82	528.184
1139.19	456.547
1143.57	417.285
1147.93	97.0977
1152.3	6.84766
1156.66	606.746
1161.02	52.3164
1165.38	105.488
1169.73	56.3125
1174.08	210.008
1178.43	261.68
1182.78	111.078
1187.12	271.328
1191.46	146.754
1195.8	263.164
1200.14	211.473
1204.47	154.809
1208.8	60.1758
1213.13	103.574
1217.46	102.902
1221.78	12.5352
1226.1	264.883
1230.42	213.902
1234.73	167.387
1239.04	207.504
1243.35	195.059
1247.66	515.746
1251.97	42.1055
1256.27	6.29688
1260.57	279.074
1264.86	62.4883
1269.16	398.668
1273.45	44.1914
1277.74	724.449
1282.03	253.734
1286.31	244.492
1290.59	449.742
1294.87	462.961
1299.14	223.648
1303.42	386.75
1307.69	142.297
1311.95	354.508
1316.22	194.328
1320.48	299.914
1324.74	323.637
1329	310.367
1333.26	123.148
1337.51	147.684
1341.76	386.691
1346	239.031
1350.25	119.894
1354.49	24.5625
1358.73	555.062
1362.96	230.129
1367.2	318.356
1371.43	242.387
1375.66	305.348
1379.88	55.5
1384.11	498.574
1388.33	280.293
1392.54	315.988
1396.76	135.547
1400.97	354.469
1405.18	199.453
1409.39	283.481
1413.59	219.117
1417.8	60.4922
1421.99	123.418
1426.19	217.633
1430.38	489.328
1434.58	351.09
1438.77	486.137
1442.95	453.18
1447.13	260.012
1451.32	562.961
1455.49	518.106
1459.67	229.375
1463.84	174.582
1468.01	101.238
1472.18	552.156
1476.35	294.504
1480.51	203.766
1484.67	442.875
1488.83	631.336
1492.98	286.797
1497.13	122.051
1501.28	625.598
1505.43	535.297
1509.57	780.387
1513.71	202.273
1517.85	647.559
1521.99	275.828
1526.12	499.926
1530.25	405.285
1534.38	422.695
1538.5	331.68
1542.62	276.941
1546.74	283.836
1550.86	346.66
1554.98	464.117
1559.09	745.481
1563.2	257.957
1567.31	2.26172
