Measurement: Raman, 514 nm, ccw, Raman Data Processed
Mineral: Polylithionite
Rruff sample: R050132
Ideal chemistry: KLi_2_AlSi_4_O_10_F_2_
Locality: Brown Derby mine, Ohio City, Gunnison County, Colorado, USA
Source: Dave Bunk Minerals
Description: Purple scaly aggregate, polytype 2M1
Measured chemistry: (K_0.90_Rb_0.10_)(Li_0.62_Al_0.38_)_3_(Si_0.93_Al_0.07_)_4_O_10_(F_0.69_(OH)_0.31_)_2_
Pin_id: M00120
Orientation: Laser parallel to c* (0 0 1). Fiducial mark perpendicular to laser is parallel to -a [-1 0 0]
Raman shift (cm-1)	intensity
102.116	0
107.047	162.35
111.976	35.3887
116.903	209.935
121.827	130.451
126.749	152.264
131.668	255.812
136.585	453.836
141.5	547.18
146.412	418.441
151.321	497.199
156.229	445.639
161.134	606.457
166.036	1085.69
170.936	1658.09
175.834	1904.27
180.729	1958.64
185.622	1452.33
190.512	1216.79
195.4	966.232
200.286	773.711
205.169	854.234
210.049	837.088
214.928	797.299
219.803	549.504
224.677	576.764
229.548	742.193
234.416	1036.99
239.282	1555.38
244.146	1994.13
249.007	2830.89
253.866	3937.45
258.722	6068.81
263.576	6720.02
268.427	4300.3
273.276	2242.21
278.123	1310.45
282.967	862.818
287.809	611.131
292.648	557.269
297.485	252.144
302.319	170.678
307.151	487.81
311.98	307.461
316.807	253.58
321.631	175.094
326.454	66.9902
331.273	171.264
336.09	171.156
340.905	78.4238
345.717	218.453
350.527	54.4297
355.334	52.9531
360.139	106.377
364.941	161.334
369.741	377.85
374.538	638.66
379.333	684.896
384.126	921.342
388.916	1350.86
393.703	1494.49
398.488	1906.47
403.271	2130.78
408.051	1861.34
412.828	1379.13
417.603	900.117
422.376	796.266
427.146	943.561
431.914	528.984
436.679	549.527
441.442	459.178
446.202	444.918
450.96	439.738
455.715	465.293
460.467	474.24
465.218	613.236
469.965	564.273
474.711	798.348
479.454	585.869
484.194	243.098
488.932	150.394
493.667	120.4
498.4	46.2168
503.13	263.549
507.858	45.0625
512.583	34.1074
517.306	27.1914
522.026	132.672
526.744	232.607
531.459	129.281
536.172	464.059
540.882	538.432
545.59	565.881
550.295	839.424
554.998	1067.06
559.698	1305.88
564.396	1406.07
569.091	1133.94
573.784	701.334
578.474	419.777
583.162	256.275
587.847	233.744
592.529	302.152
597.209	191.477
601.887	266.721
606.562	534.002
611.235	307.387
615.905	688.762
620.572	895.273
625.237	753.879
629.9	851.496
634.56	742.246
639.217	360.234
643.872	444.633
648.524	319.422
653.174	213.535
657.821	176.902
662.466	123.723
667.108	567.062
671.748	443.035
676.385	626.879
681.02	1341.3
685.652	2089.41
690.281	3092.18
694.908	4428.54
699.533	6509.46
704.155	10189
708.774	13774.5
713.391	12624.9
718.005	7292.44
722.617	3949.65
727.226	2268.39
731.833	1419.35
736.437	1528.77
741.039	1332.96
745.638	1232.86
750.234	1505.38
754.828	1178.83
759.419	769.156
764.008	732.031
768.595	747.5
773.178	262.727
777.759	440.746
782.338	492.828
786.914	389.078
791.488	158.371
796.059	6.64844
800.627	140.766
805.193	129.688
809.756	26.6211
814.317	263.996
818.875	188.957
823.431	146.449
827.984	7.44141
832.534	180.047
837.082	279.625
841.627	119.129
846.17	98.0938
850.71	201.652
855.248	192.738
859.783	127.594
864.316	326.652
868.846	310.688
873.373	118.461
877.898	300.828
882.42	184.215
886.94	71.0898
891.457	97.0352
895.971	102.617
900.483	177.074
904.993	364.312
909.5	639.457
914.004	431.41
918.505	468.203
923.004	461.816
927.501	473.223
931.995	291.356
936.486	52.0391
940.975	348.734
945.461	371.633
949.945	319.769
954.426	518.051
958.904	562.078
963.38	558.859
967.853	251.66
972.324	541.68
976.792	223.059
981.258	219.805
985.72	152.606
990.181	470.766
994.639	332.852
999.094	426.449
1003.55	361.035
1008	66.9883
1012.44	329.523
1016.89	191.602
1021.33	436.93
1025.77	269.223
1030.21	372.031
1034.64	227.836
1039.07	402.047
1043.5	214.945
1047.93	303.598
1052.35	438.703
1056.78	430.824
1061.19	453.172
1065.61	267.273
1070.02	454.484
1074.43	661.148
1078.84	763.883
1083.25	694.309
1087.65	881.879
1092.05	808.465
1096.45	965.144
1100.85	1027.94
1105.24	732.32
1109.63	1076.94
1114.02	1029.45
1118.4	1063.85
1122.78	1086.53
1127.16	1041.41
1131.54	687.43
1135.92	659.59
1140.29	482.535
1144.66	120.394
1149.02	298.875
1153.39	14.1328
1157.75	245.191
1162.11	349.594
1166.46	76.0078
1170.82	89.1719
1175.17	327.926
1179.52	292.445
1183.86	82.0039
1188.21	19.3672
1192.55	389.371
1196.89	13.2539
1201.22	137.285
1205.55	25.5391
1209.88	61.4023
1214.21	269.625
1218.54	284.75
1222.86	209.984
1227.18	8.64844
1231.5	318.836
1235.81	331.449
1240.12	405.191
1244.43	108.059
1248.74	365.789
1253.04	435.848
1257.34	48.0117
1261.64	402.269
1265.94	487.031
1270.23	293.07
1274.52	413.754
1278.81	437.914
1283.1	483.926
1287.38	345.758
1291.66	241.367
1295.94	326.098
1300.21	200.727
1304.48	430.438
1308.75	265.922
1313.02	313.356
1317.29	245.981
1321.55	454.625
1325.81	636.309
1330.06	412.09
1334.32	130.742
1338.57	65.2305
1342.82	397.031
1347.06	301.883
1351.31	297.508
1355.55	283.281
1359.79	279.547
1364.02	256.297
1368.26	257.41
1372.49	26.5156
1376.71	301.356
1380.94	71.8984
1385.16	331.809
1389.38	8.48828
1393.6	77.4453
1397.81	111.691
1402.02	322.438
1406.23	260.492
1410.44	130.242
1414.64	432.875
1418.85	228.305
1423.04	183.703
1427.24	337.18
1431.43	10.3164
1435.62	272.164
1439.81	467.984
1444	538.203
1448.18	455.883
1452.36	382.305
1456.54	324.09
1460.71	510.324
1464.89	244.785
1469.06	401.43
1473.22	55.2773
1477.39	469.715
1481.55	10.4844
1485.71	114.383
1489.86	41.4023
1494.02	305.219
1498.17	258.723
1502.32	153.473
1506.46	97.9297
1510.61	329.652
1514.75	8.69141
1518.88	210.508
1523.02	400.176
1527.15	277.031
1531.28	189.719
1535.41	529.371
1539.53	490.648
1543.66	446.336
1547.78	390.211
1551.89	195.32
1556.01	480.207
1560.12	397.805
1564.23	10.2305
1568.33	25.418
