Measurement: Raman, 514 nm, ccw, Raman Data Processed
Mineral: Polylithionite
Rruff sample: R050132
Ideal chemistry: KLi_2_AlSi_4_O_10_F_2_
Locality: Brown Derby mine, Ohio City, Gunnison County, Colorado, USA
Source: Dave Bunk Minerals
Description: Purple scaly aggregate, polytype 2M1
Measured chemistry: (K_0.90_Rb_0.10_)(Li_0.62_Al_0.38_)_3_(Si_0.93_Al_0.07_)_4_O_10_(F_0.69_(OH)_0.31_)_2_
Pin_id: M00120
Orientation: Laser parallel to c* (0 0 1). Fiducial mark perpendicular to laser is parallel to -a [-1 0 0]
Raman shift (cm-1)	intensity
91.012	0
95.948	1023.83
100.883	862.051
105.815	337.147
110.744	551.939
115.671	297.846
120.596	32.9766
125.519	100.984
130.439	71.0312
135.356	88.2383
140.271	14.0859
145.184	198.773
150.094	362.055
155.002	112.811
159.908	415.885
164.811	850.672
169.711	1480.03
174.61	1625.45
179.505	1970.39
184.399	1779.88
189.29	1285.05
194.178	1180.31
199.064	1273.89
203.948	962.553
208.829	720.984
213.708	864.336
218.585	591.701
223.459	502.199
228.33	461.945
233.199	817.041
238.066	1123.86
242.93	1611.75
247.792	2303.37
252.651	3094.89
257.508	5012.94
262.363	6495.38
267.215	5015.16
272.064	2736.06
276.912	1393.75
281.756	935.606
286.598	565.928
291.438	497.57
296.276	644.971
301.111	492.805
305.943	429.977
310.773	381.443
315.601	573.211
320.426	251.203
325.248	306.408
330.068	209.816
334.886	167.365
339.701	61.9902
344.514	9.3418
349.324	45.6387
354.132	145.935
358.938	55.3105
363.741	178.356
368.541	445.447
373.339	778.805
378.135	634.789
382.928	1038.54
387.718	1307.83
392.506	1795.33
397.292	2186.99
402.075	2556.77
406.856	2492.64
411.634	2163.6
416.41	1560.66
421.183	1223.79
425.954	965.004
430.722	855.268
435.488	876.557
440.251	907.861
445.012	903.17
449.77	856.57
454.526	776.598
459.28	759.873
464.03	787.18
468.779	819.406
473.525	932.6
478.268	721.541
483.009	546.002
487.747	555.699
492.483	276.656
497.217	65.6856
501.948	8.42188
506.676	106.603
511.402	22.6406
516.125	48.709
520.846	2.42188
525.565	460.406
530.281	310.279
534.994	604.986
539.705	673.277
544.413	774.574
549.119	1108.21
553.822	1342.25
558.523	1600.69
563.222	1596.32
567.917	1394.21
572.611	1029.36
577.302	684.586
581.99	383.82
586.676	357.084
591.359	252.227
596.04	106.207
600.718	390.07
605.394	340.029
610.067	296.047
614.737	694.053
619.406	407.084
624.071	632.17
628.734	829.783
633.395	478.74
638.053	695.877
642.708	270.232
647.361	364.107
652.012	195.338
656.66	335.982
661.305	390.084
665.948	139.777
670.588	422.832
675.226	813.519
679.861	1178.44
684.494	1934.73
689.124	2752.44
693.752	4150.77
698.377	6807.66
702.999	10078.2
707.619	14162.2
712.237	15499.3
716.852	9917.54
721.464	5035.52
726.074	2774.72
730.681	1911.7
735.286	1570.52
739.888	1355.75
744.488	1698.27
749.085	1561.15
753.68	1606.9
758.272	1404.75
762.861	961.91
767.448	761.769
772.033	487.32
776.614	413.625
781.194	508.945
785.77	515.133
790.345	693.039
794.916	455.898
799.485	67.5781
804.052	139.891
808.616	16.1875
813.177	118.227
817.736	68.8594
822.292	27.9453
826.846	89.9883
831.397	152.676
835.945	45.3672
840.491	32.3477
845.035	331.289
849.576	83.3398
854.114	60.0469
858.65	329.496
863.183	449.336
867.713	97.8633
872.241	44.0703
876.767	85.1133
881.29	126.004
885.81	229.664
890.328	267.953
894.843	218.894
899.356	302.711
903.866	211.215
908.373	662.477
912.878	664.531
917.38	701.484
921.88	656.133
926.377	470.481
930.872	440.535
935.364	648.234
939.853	490.625
944.34	329.109
948.824	552.488
953.306	867.469
957.785	771.418
962.261	356.473
966.735	600.5
971.207	193.598
975.675	152.469
980.141	264.852
984.605	41.0664
989.066	44.1797
993.524	254.172
997.98	329.875
1002.43	398.941
1006.88	291.289
1011.33	537.406
1015.78	199.66
1020.22	435.406
1024.66	258.703
1029.1	313.469
1033.53	196.914
1037.97	81.168
1042.4	208.996
1046.82	11.75
1051.25	602.629
1055.67	549.094
1060.09	424.398
1064.51	321.859
1068.92	576.137
1073.33	961.59
1077.74	891.258
1082.15	1095.03
1086.55	1032.66
1090.95	972.801
1095.35	1069.16
1099.75	1074.34
1104.14	1011.97
1108.53	1015.42
1112.92	1097.39
1117.31	1194.7
1121.69	932.941
1126.07	842.094
1130.45	721.531
1134.82	324.988
1139.19	286.547
1143.57	416.203
1147.93	241.07
1152.3	59.0312
1156.66	236.039
1161.02	114.012
1165.38	159.75
1169.73	207.613
1174.08	28.5781
1178.43	49.8789
1182.78	149.754
1187.12	181.168
1191.46	233.606
1195.8	139.047
1200.14	150.496
1204.47	22.9688
1208.8	256.191
1213.13	215.992
1217.46	131.656
1221.78	126.512
1226.1	17.2852
1230.42	146.043
1234.73	219.691
1239.04	242.375
1243.35	562.297
1247.66	226.992
1251.97	404.738
1256.27	313.258
1260.57	311.867
1264.86	376.375
1269.16	122.633
1273.45	372.621
1277.74	279.789
1282.03	425.328
1286.31	464.574
1290.59	419.816
1294.87	162.695
1299.14	430.387
1303.42	180.141
1307.69	468.5
1311.95	511.539
1316.22	622.559
1320.48	336.648
1324.74	350.34
1329	193.293
1333.26	167.902
1337.51	488.547
1341.76	329.965
1346	711.465
1350.25	410.668
1354.49	379.473
1358.73	488.664
1362.96	313.254
1367.2	232.133
1371.43	206.777
1375.66	474.375
1379.88	231.57
1384.11	461.527
1388.33	283.543
1392.54	11.8906
1396.76	76.2734
1400.97	233.922
1405.18	215.269
1409.39	517.965
1413.59	325.348
1417.8	170.434
1421.99	225.055
1426.19	189.231
1430.38	58.8359
1434.58	279.894
1438.77	426.723
1442.95	660.238
1447.13	638.422
1451.32	724.652
1455.49	445.039
1459.67	643.516
1463.84	535.121
1468.01	256.891
1472.18	402.625
1476.35	274.836
1480.51	359.172
1484.67	436.184
1488.83	486.039
1492.98	467.32
1497.13	194.93
1501.28	443.66
1505.43	118.367
1509.57	163.699
1513.71	174.043
1517.85	124.09
1521.99	415.031
1526.12	329.047
1530.25	155.731
1534.38	659.086
1538.5	321.465
1542.62	220.731
1546.74	305.852
1550.86	214.832
1554.98	38.7578
1559.09	138.695
1563.2	201.801
1567.31	5.02344
