Measurement: Raman, 514 nm, ccw, Raman Data Processed
Mineral: Polylithionite
Rruff sample: R050132
Ideal chemistry: KLi_2_AlSi_4_O_10_F_2_
Locality: Brown Derby mine, Ohio City, Gunnison County, Colorado, USA
Source: Dave Bunk Minerals
Description: Purple scaly aggregate, polytype 2M1
Measured chemistry: (K_0.90_Rb_0.10_)(Li_0.62_Al_0.38_)_3_(Si_0.93_Al_0.07_)_4_O_10_(F_0.69_(OH)_0.31_)_2_
Pin_id: L00606
Orientation: Laser parallel to (1 0 1). Fiducial mark perpendicular to laser is parallel to -b [0 -1 0]
Raman shift (cm-1)	intensity
157.455	0
162.359	179.014
167.261	384.861
172.161	1336.94
177.058	2845.64
181.952	3315.84
186.845	2631.74
191.734	2126.18
196.622	2369.9
201.507	2056.38
206.389	1316.94
211.269	1442.85
216.147	1201.62
221.022	342.971
225.895	280.514
230.765	371.67
235.633	1191.51
240.498	2178.17
245.361	3258.33
250.222	5074.95
255.08	8358.04
259.936	14477.1
264.789	14345.2
269.64	8801.94
274.488	4418.77
279.334	2193.47
284.178	1287.97
289.019	827.398
293.857	808.561
298.693	802.219
303.527	481.348
308.358	401.031
313.187	215.414
318.013	353.588
322.837	316.441
327.659	180.328
332.478	239.809
337.294	6.47656
342.108	179.94
346.92	329.262
351.729	166.885
356.535	56.6289
361.34	215.74
366.141	681.086
370.94	994.676
375.737	1742.74
380.531	2258.91
385.323	2827.28
390.113	3283.14
394.9	3931.14
399.684	4673.98
404.466	5147.51
409.245	4626.64
414.022	3341.51
418.797	2667.11
423.569	1787.46
428.338	1703.56
433.105	1818.44
437.87	1627.1
442.632	1475.55
447.391	1287.83
452.149	1140
456.903	1041.99
461.655	1190.73
466.405	990.188
471.152	1316.34
475.897	1280.8
480.639	1271.89
485.378	710.012
490.116	344.586
494.85	58.2949
499.582	181.352
504.312	1.75391
509.039	4.97852
513.764	26.0234
518.486	184.213
523.206	27.1309
527.923	269.893
532.638	415.56
537.35	584.277
542.059	890.043
546.766	1052.98
551.471	1425.4
556.173	2269.02
560.873	2261.02
565.57	2504.37
570.264	1860.05
574.957	1535.02
579.646	810.426
584.333	640.094
589.018	496.846
593.7	378.734
598.379	568.83
603.056	870.098
607.73	902.521
612.402	1159.29
617.072	1313.5
621.739	1364.88
626.403	1601.74
631.065	1609.62
635.724	1553.42
640.381	1214.44
645.035	854.129
649.687	500.357
654.336	513.555
658.983	742.389
663.627	999.564
668.268	985.336
672.907	1321.81
677.544	1870.55
682.178	2835.52
686.809	4233.77
691.438	6569.12
696.065	10094.9
700.688	15355.5
705.31	23076.2
709.929	30156.7
714.545	24792.4
719.158	14051.4
723.77	7506.23
728.378	4486.22
732.984	3255.44
737.588	2527.16
742.189	2639.99
746.787	3075.83
751.383	3224.51
755.976	2677.53
760.567	2403.32
765.155	1811.52
769.741	1269.43
774.324	947.947
778.904	946.443
783.482	869.15
788.058	772.523
792.631	526.859
797.201	487.978
801.769	398.654
806.334	72.8438
810.897	45.459
815.457	81.1992
820.014	87.6504
824.569	100.344
829.122	0.046875
833.671	30.7578
838.219	143.705
842.763	208.373
847.306	0.753906
851.845	17.2227
856.382	1.47852
860.917	137.297
865.448	40.4805
869.978	5.87109
874.505	47.377
879.029	4.10742
883.55	299.986
888.069	67.3535
892.586	322.096
897.1	92.8906
901.611	373.022
906.12	639.625
910.626	933.717
915.129	878.312
919.63	999.428
924.129	615.045
928.625	779.252
933.118	490.051
937.609	631.383
942.097	645.627
946.582	844.398
951.065	896.822
955.546	974.055
960.023	957.568
964.499	1116.9
968.971	1073.45
973.441	648.006
977.909	851.894
982.374	799.904
986.836	890.094
991.295	708.938
995.753	971.387
1000.21	1118.17
1004.66	877.123
1009.11	955.508
1013.55	1158.39
1018	1295.29
1022.44	800.979
1026.88	668.32
1031.32	639.898
1035.75	554.963
1040.18	529.117
1044.61	694.432
1049.04	732.158
1053.46	911.451
1057.88	1158.2
1062.3	1085.49
1066.71	1093.67
1071.13	1207.86
1075.54	1500.89
1079.94	1794.87
1084.35	1941.26
1088.75	1869.45
1093.15	1887.88
1097.55	1877.98
1101.94	1973.93
1106.34	2138.51
1110.73	1906.75
1115.11	2298.85
1119.5	2453.02
1123.88	2470.8
1128.26	2069.75
1132.63	1805.94
1137.01	1564.01
1141.38	1196.78
1145.75	696.469
1150.12	260.828
1154.48	408.68
1158.84	171.285
1163.2	18.5977
1167.55	166.871
1171.91	64.9258
1176.26	25.8438
1180.61	140.606
1184.95	8.80469
1189.29	41.9297
1193.63	125.324
1197.97	69.9727
1202.31	134.875
1206.64	179.391
1210.97	132.363
1215.29	268.856
1219.62	282.586
1223.94	148.676
1228.26	197.523
1232.57	320.199
1236.89	185.59
1241.2	178.164
1245.51	227.34
1249.81	21.9219
1254.12	131.234
1258.42	150.578
1262.72	208.383
1267.01	96.9727
1271.3	86.6289
1275.59	131.027
1279.88	81.3398
1284.17	270.477
1288.45	301.633
1292.73	236.406
1297.01	260.023
1301.28	517.867
1305.55	442.938
1309.82	269.703
1314.09	149.262
1318.35	570.055
1322.61	361.41
1326.87	454.418
1331.13	245.66
1335.38	304.172
1339.63	371.473
1343.88	114.535
1348.12	536.481
1352.37	342.941
1356.61	208.379
1360.85	421.418
1365.08	386.871
1369.31	503.691
1373.54	359.512
1377.77	420.59
1381.99	394.957
1386.22	292.648
1390.43	268.863
1394.65	334.262
1398.87	446.25
1403.08	47.7188
1407.29	129.168
1411.49	84.9805
1415.69	158.344
1419.89	147.719
1424.09	106.363
1428.29	216.637
1432.48	307.34
1436.67	401.969
1440.86	329.086
1445.04	195.211
1449.23	120.156
1453.4	509.844
1457.58	32.0391
1461.76	193.629
1465.93	257.269
1470.1	97.0039
1474.26	328.457
1478.43	401.523
1482.59	271.144
1486.75	333.359
1490.9	290.754
1495.06	107.578
1499.21	49.4844
1503.35	366.594
1507.5	168.117
1511.64	213.988
1515.78	215.055
1519.92	123.57
1524.05	401.262
1528.18	454.644
1532.31	328.398
1536.44	34.9258
1540.56	80.5078
1544.69	381.789
1548.8	256.254
1552.92	350.188
1557.03	244.602
1561.14	132.949
1565.25	3.5625
1569.36	95.0391
