Measurement: Raman, 514 nm, ccw, Raman Data Processed
Mineral: Polylithionite
Rruff sample: R050132
Ideal chemistry: KLi_2_AlSi_4_O_10_F_2_
Locality: Brown Derby mine, Ohio City, Gunnison County, Colorado, USA
Source: Dave Bunk Minerals
Description: Purple scaly aggregate, polytype 2M1
Measured chemistry: (K_0.90_Rb_0.10_)(Li_0.62_Al_0.38_)_3_(Si_0.93_Al_0.07_)_4_O_10_(F_0.69_(OH)_0.31_)_2_
Pin_id: L01426
Orientation: Laser parallel to -a* (-1 0 0). Fiducial mark perpendicular to laser is parallel to -b [0 -1 0]
Raman shift (cm-1)	intensity
157.455	0
162.359	72.8086
167.261	399.984
172.161	1531.87
177.058	2715.92
181.952	3478.47
186.845	2749.29
191.734	2047.7
196.622	2824.61
201.507	2551.47
206.389	1683.86
211.269	1593.92
216.147	1491.98
221.022	670.328
225.895	138.236
230.765	235.621
235.633	923.486
240.498	1415.54
245.361	2482.66
250.222	4474.59
255.08	7522.31
259.936	13111.6
264.789	13952.2
269.64	8862.9
274.488	4481.76
279.334	2366.47
284.178	1503.56
289.019	1192.94
293.857	1026.65
298.693	785.523
303.527	822.078
308.358	550.379
313.187	525.332
318.013	620.094
322.837	195.389
327.659	362.502
332.478	223.928
337.294	161.877
342.108	81.7129
346.92	302.887
351.729	101.01
356.535	67.209
361.34	230.197
366.141	610.186
370.94	1138.06
375.737	1843.99
380.531	2431.81
385.323	2871
390.113	3868.58
394.9	4675.2
399.684	5795.9
404.466	6250.42
409.245	6189.44
414.022	4652.24
418.797	3444.82
423.569	2781.2
428.338	2234.38
433.105	2091.39
437.87	2189.25
442.632	1875.99
447.391	2088.62
452.149	1795.13
456.903	1641.44
461.655	1676.47
466.405	1725.18
471.152	1739.59
475.897	1760.57
480.639	1324.68
485.378	919.043
490.116	601.025
494.85	82.8633
499.582	8.27734
504.312	86.3887
509.039	85.6973
513.764	62.4805
518.486	143.299
523.206	250.978
527.923	317.695
532.638	689.469
537.35	689.426
542.059	976.805
546.766	1407.67
551.471	1905.87
556.173	2657.5
560.873	2893.71
565.57	2833.64
570.264	2311.22
574.957	1734.32
579.646	1142.8
584.333	633.848
589.018	315.322
593.7	300.887
598.379	306.769
603.056	294.84
607.73	732.356
612.402	1148.37
617.072	991.971
621.739	1206.19
626.403	1327.63
631.065	1472.42
635.724	1919.92
640.381	1084.55
645.035	720.697
649.687	262.004
654.336	126.861
658.983	567.109
663.627	480.129
668.268	1050.47
672.907	1367.95
677.544	1747.24
682.178	2889.97
686.809	4118.65
691.438	6196.9
696.065	10108.8
700.688	15244.9
705.31	22549.1
709.929	29229.9
714.545	25058.3
719.158	14087.9
723.77	7672.17
728.378	4397.77
732.984	2990.69
737.588	2492.82
742.189	2853.2
746.787	3354.44
751.383	3636.84
755.976	3276.1
760.567	2845.87
765.155	2452.43
769.741	1745.76
774.324	1268.8
778.904	1019.67
783.482	1046.46
788.058	1037.09
792.631	971.607
797.201	651.891
801.769	442.818
806.334	37.3359
810.897	94.4082
815.457	78.2891
820.014	8.96875
824.569	15.3379
829.122	47.9453
833.671	74.1699
838.219	84.5957
842.763	139.404
847.306	47.5176
851.845	37.5605
856.382	50.8223
860.917	32.9238
865.448	28.4941
869.978	86.9356
874.505	76.3144
879.029	44.6836
883.55	17.7012
888.069	352.777
892.586	282.389
897.1	270.482
901.611	274.076
906.12	506.164
910.626	922.768
915.129	949.879
919.63	1113.5
924.129	1016.64
928.625	893.293
933.118	1012.58
937.609	795.607
942.097	650.779
946.582	930.285
951.065	1149.11
955.546	1215.23
960.023	1170.11
964.499	1097.36
968.971	1196.02
973.441	752.441
977.909	760.902
982.374	704.973
986.836	1072.53
991.295	837.871
995.753	1010.53
1000.21	1125.87
1004.66	978.59
1009.11	918.172
1013.55	1083.88
1018	1034.21
1022.44	1027.66
1026.88	958.586
1031.32	728.695
1035.75	681.809
1040.18	340.644
1044.61	670.367
1049.04	935.508
1053.46	802.672
1057.88	1080.88
1062.3	1154.84
1066.71	1324.56
1071.13	1125.43
1075.54	1468.69
1079.94	1667.73
1084.35	1874.02
1088.75	2001.19
1093.15	1737.43
1097.55	2051.16
1101.94	2065.57
1106.34	2010.18
1110.73	2253.16
1115.11	2057.61
1119.5	2271.27
1123.88	2107.62
1128.26	1566.84
1132.63	1205.03
1137.01	908.805
1141.38	582.836
1145.75	258.676
1150.12	252.574
1154.48	266.301
1158.84	165.176
1163.2	11.4062
1167.55	170.125
1171.91	75.7109
1176.26	255.617
1180.61	153.562
1184.95	150.481
1189.29	128.231
1193.63	238.016
1197.97	83.5234
1202.31	35.6328
1206.64	17.2617
1210.97	153.277
1215.29	25.168
1219.62	91.0586
1223.94	289.777
1228.26	72.3047
1232.57	111.215
1236.89	249.625
1241.2	228.969
1245.51	189.269
1249.81	53.5156
1254.12	112.281
1258.42	14.6055
1262.72	292.922
1267.01	222.359
1271.3	168.062
1275.59	43.6641
1279.88	16.0117
1284.17	50.6094
1288.45	80.082
1292.73	81.3594
1297.01	223.957
1301.28	361.367
1305.55	242.66
1309.82	86.8203
1314.09	313.184
1318.35	396.231
1322.61	179.398
1326.87	329.426
1331.13	503.027
1335.38	3.95312
1339.63	162.988
1343.88	250.742
1348.12	31.4688
1352.37	381.816
1356.61	182.027
1360.85	138.684
1365.08	173.453
1369.31	313.125
1373.54	197.894
1377.77	172.07
1381.99	301.402
1386.22	150.578
1390.43	96.7109
1394.65	203.754
1398.87	14.8359
1403.08	443.129
1407.29	75.4531
1411.49	415.508
1415.69	167.523
1419.89	105.727
1424.09	191.336
1428.29	209.238
1432.48	323.824
1436.67	22.6836
1440.86	304.844
1445.04	309.609
1449.23	108.773
1453.4	319.914
1457.58	282.867
1461.76	46.6523
1465.93	101.598
1470.1	20.9297
1474.26	181.215
1478.43	235.574
1482.59	293.488
1486.75	80.0469
1490.9	428.914
1495.06	359.785
1499.21	150.394
1503.35	290.75
1507.5	219.543
1511.64	175.09
1515.78	214.047
1519.92	442.715
1524.05	175.074
1528.18	325.371
1532.31	290.223
1536.44	251.891
1540.56	266.977
1544.69	285.043
1548.8	196.406
1552.92	523.438
1557.03	536.191
1561.14	335.426
1565.25	468.188
1569.36	22.0938
