Measurement: Raman, 514 nm, ccw, Raman Data Processed
Mineral: Polylithionite
Rruff sample: R050132
Ideal chemistry: KLi_2_AlSi_4_O_10_F_2_
Locality: Brown Derby mine, Ohio City, Gunnison County, Colorado, USA
Source: Dave Bunk Minerals
Description: Purple scaly aggregate, polytype 2M1
Measured chemistry: (K_0.90_Rb_0.10_)(Li_0.62_Al_0.38_)_3_(Si_0.93_Al_0.07_)_4_O_10_(F_0.69_(OH)_0.31_)_2_
Pin_id: L01426
Orientation: Laser parallel to -a* (-1 0 0). Fiducial mark perpendicular to laser is parallel to -b [0 -1 0]
Raman shift (cm-1)	intensity
157.455	0
162.359	8.36719
167.261	1879.53
172.161	5379.46
177.058	11490.6
181.952	15423.6
186.845	14359.9
191.734	12630.2
196.622	11403.5
201.507	8181.77
206.389	5263.12
211.269	4969.89
216.147	4826.17
221.022	4449.91
225.895	4958.72
230.765	6660.41
235.633	8716.25
240.498	11320.1
245.361	14266.6
250.222	17074.5
255.08	22603.7
259.936	30972.2
264.789	31578.2
269.64	19106.2
274.488	9749.9
279.334	5246.49
284.178	3315.97
289.019	2238.02
293.857	1672.65
298.693	1314.9
303.527	1247.16
308.358	693.215
313.187	200.406
318.013	112.93
322.837	250.117
327.659	442.004
332.478	310.144
337.294	196.273
342.108	359.424
346.92	391.168
351.729	200.062
356.535	177.293
361.34	164.885
366.141	304.346
370.94	735
375.737	1165.27
380.531	1552.79
385.323	1865.51
390.113	2345.17
394.9	3056.99
399.684	3523.86
404.466	4029.31
409.245	3647.56
414.022	3113.96
418.797	2211.54
423.569	1424.29
428.338	1164.52
433.105	1265.44
437.87	1199.89
442.632	1217.64
447.391	940.742
452.149	1244.51
456.903	1169.57
461.655	1379.63
466.405	1195.9
471.152	1359.73
475.897	1246.62
480.639	1119.34
485.378	694.785
490.116	521.785
494.85	23.127
499.582	266.209
504.312	37.041
509.039	75.5996
513.764	300.432
518.486	412.688
523.206	532.41
527.923	694.637
532.638	974.438
537.35	855.008
542.059	1239.32
546.766	1530.29
551.471	1991.71
556.173	2888.86
560.873	3106.66
565.57	3089.03
570.264	2602.03
574.957	1600.29
579.646	1196.93
584.333	512.959
589.018	603.303
593.7	543.004
598.379	620.967
603.056	851.314
607.73	1276.06
612.402	1363.89
617.072	1427.2
621.739	1401.32
626.403	1804.28
631.065	1860.62
635.724	1560.32
640.381	1232.37
645.035	1070.38
649.687	918.533
654.336	1257.81
658.983	1759
663.627	2070.66
668.268	2226.79
672.907	2533.5
677.544	3089.59
682.178	4147.79
686.809	6110.15
691.438	8778.68
696.065	12897.4
700.688	19274.5
705.31	29419.7
709.929	39269.2
714.545	34855.7
719.158	19438.6
723.77	10264.5
728.378	6236.12
732.984	4061.7
737.588	3468.87
742.189	3543.14
746.787	3971.85
751.383	4147.87
755.976	3974.56
760.567	3278.82
765.155	2369.55
769.741	1510.13
774.324	1229.46
778.904	1189.22
783.482	1000.34
788.058	1105.14
792.631	968.273
797.201	407.045
801.769	454.129
806.334	43.6836
810.897	294.639
815.457	24.1641
820.014	21.9219
824.569	222.943
829.122	81.7519
833.671	85.6055
838.219	146.115
842.763	31.2012
847.306	69.0801
851.845	120.99
856.382	35.3242
860.917	114.248
865.448	102.738
869.978	28.2578
874.505	264.85
879.029	84.3906
883.55	99.0156
888.069	21.7344
892.586	4.58984
897.1	103.455
901.611	97.3711
906.12	268.221
910.626	260.215
915.129	192.508
919.63	48
924.129	218.639
928.625	315.539
933.118	427.76
937.609	330.361
942.097	312.102
946.582	512.512
951.065	542.543
955.546	573.512
960.023	728.09
964.499	802.738
968.971	670.92
973.441	727.664
977.909	849.627
982.374	1118.19
986.836	1095.04
991.295	1056.08
995.753	1198.11
1000.21	1340.1
1004.66	1345.41
1009.11	1386.03
1013.55	1442.37
1018	1569.42
1022.44	1617
1026.88	1814.82
1031.32	1759.65
1035.75	1794.84
1040.18	2149.52
1044.61	2912.58
1049.04	3743.35
1053.46	4729.09
1057.88	5719.67
1062.3	5369.79
1066.71	4995.39
1071.13	4229.78
1075.54	3933.82
1079.94	3871.21
1084.35	3657.81
1088.75	3594.84
1093.15	3373.34
1097.55	3676.81
1101.94	4022.32
1106.34	4285.31
1110.73	4549.65
1115.11	5230.57
1119.5	5786.75
1123.88	6808.49
1128.26	7175.03
1132.63	8307.85
1137.01	8687.71
1141.38	6978.96
1145.75	3970.75
1150.12	2265.2
1154.48	1199.79
1158.84	591.926
1163.2	442.357
1167.55	237.268
1171.91	165.043
1176.26	157.221
1180.61	169.469
1184.95	84.2461
1189.29	76.9981
1193.63	132.527
1197.97	50.6816
1202.31	109.66
1206.64	72.7188
1210.97	13.293
1215.29	124.414
1219.62	43.0977
1223.94	133.945
1228.26	24.0273
1232.57	335.051
1236.89	176.914
1241.2	65.6172
1245.51	205.379
1249.81	19.8555
1254.12	64.793
1258.42	35.2734
1262.72	49.5898
1267.01	121.547
1271.3	268.113
1275.59	146.57
1279.88	77.8516
1284.17	101.215
1288.45	8.48047
1292.73	77.0586
1297.01	80.3594
1301.28	250.492
1305.55	180.281
1309.82	174.289
1314.09	74.5195
1318.35	410.449
1322.61	456.117
1326.87	351.617
1331.13	208.531
1335.38	232.172
1339.63	292.445
1343.88	71.1719
1348.12	329.801
1352.37	362.449
1356.61	457.602
1360.85	210.731
1365.08	320.352
1369.31	297.332
1373.54	294.371
1377.77	47.7148
1381.99	429.641
1386.22	92.5391
1390.43	404.848
1394.65	346.984
1398.87	206.598
1403.08	380.535
1407.29	42.918
1411.49	258.531
1415.69	303.676
1419.89	149.629
1424.09	191.633
1428.29	175.629
1432.48	242.309
1436.67	366.769
1440.86	379.785
1445.04	331.039
1449.23	187.777
1453.4	11.5156
1457.58	314.406
1461.76	426.102
1465.93	333.305
1470.1	198.309
1474.26	86.3828
1478.43	339.625
1482.59	318.812
1486.75	216.32
1490.9	272.035
1495.06	67.6953
1499.21	212.25
1503.35	353.715
1507.5	169.602
1511.64	140.434
1515.78	228.594
1519.92	158.75
1524.05	276.672
1528.18	354.598
1532.31	274.004
1536.44	127.496
1540.56	316.481
1544.69	115.394
1548.8	401.16
1552.92	38.125
1557.03	238.797
1561.14	156.941
1565.25	280.25
1569.36	0.1875
