Measurement: Raman, 514 nm, ccw, Raman Data Processed
Mineral: Polylithionite
Rruff sample: R050132
Ideal chemistry: KLi_2_AlSi_4_O_10_F_2_
Locality: Brown Derby mine, Ohio City, Gunnison County, Colorado, USA
Source: Dave Bunk Minerals
Description: Purple scaly aggregate, polytype 2M1
Measured chemistry: (K_0.90_Rb_0.10_)(Li_0.62_Al_0.38_)_3_(Si_0.93_Al_0.07_)_4_O_10_(F_0.69_(OH)_0.31_)_2_
Pin_id: L00606
Orientation: Laser parallel to (1 0 1). Fiducial mark perpendicular to laser is parallel to -b [0 -1 0]
Raman shift (cm-1)	intensity
157.455	0
162.359	330.109
167.261	951.902
172.161	2710.92
177.058	4799.89
181.952	5001.24
186.845	4042.47
191.734	3425.7
196.622	3357.41
201.507	2389.62
206.389	1514.75
211.269	1502.55
216.147	1015.85
221.022	478.279
225.895	386.949
230.765	1108.63
235.633	2300.46
240.498	3294.43
245.361	4972
250.222	7126.14
255.08	11658.1
259.936	17322.8
264.789	14457.7
269.64	8293.76
274.488	3883.37
279.334	1955.19
284.178	1210.69
289.019	737.68
293.857	543.203
298.693	574.289
303.527	555.393
308.358	425.445
313.187	325.824
318.013	243.17
322.837	464.68
327.659	480.338
332.478	210.44
337.294	143.377
342.108	294.494
346.92	359.803
351.729	252.844
356.535	15.6211
361.34	223.219
366.141	515.059
370.94	1230.75
375.737	1828.85
380.531	2422.84
385.323	2923.69
390.113	3355.19
394.9	3954.68
399.684	4651.98
404.466	4491.75
409.245	4066.07
414.022	3074.4
418.797	2134.84
423.569	1781.41
428.338	1598.13
433.105	1562.02
437.87	1561.09
442.632	1448.37
447.391	1172.88
452.149	1077.41
456.903	1008.37
461.655	1061.06
466.405	1130.78
471.152	1140.7
475.897	1465.78
480.639	1259.18
485.378	807.146
490.116	311.602
494.85	227.209
499.582	103.652
504.312	159.432
509.039	170.185
513.764	84.7383
518.486	346.691
523.206	415.805
527.923	592.154
532.638	532.834
537.35	680.055
542.059	767.856
546.766	1120.79
551.471	1547.71
556.173	2287.57
560.873	2335.35
565.57	2528.24
570.264	1907.14
574.957	1348.81
579.646	1005.18
584.333	684.283
589.018	599.082
593.7	578.861
598.379	1242.34
603.056	1140.55
607.73	1075.68
612.402	1279.57
617.072	1450.33
621.739	1383.94
626.403	1557.89
631.065	1758.23
635.724	1991.52
640.381	1435.54
645.035	923.066
649.687	560.76
654.336	674.303
658.983	757.316
663.627	1088.26
668.268	1301.04
672.907	1773.85
677.544	2328.06
682.178	3280.97
686.809	4772.74
691.438	7564.93
696.065	11217.5
700.688	17502.6
705.31	25958.8
709.929	31773.2
714.545	24511.9
719.158	13212.1
723.77	7229.86
728.378	4164.93
732.984	3248.08
737.588	2666.03
742.189	3103.14
746.787	3349.75
751.383	3457.45
755.976	3201.25
760.567	2481.62
765.155	1979.07
769.741	1349.4
774.324	1191.47
778.904	870.627
783.482	809.098
788.058	989.824
792.631	792.352
797.201	412.33
801.769	271.705
806.334	64.4375
810.897	168.367
815.457	146.17
820.014	138.217
824.569	46.3184
829.122	128.393
833.671	24.0078
838.219	14.0117
842.763	80.7168
847.306	134.065
851.845	178.898
856.382	197.754
860.917	157.678
865.448	64.3633
869.978	67.2656
874.505	8.89453
879.029	73.9863
883.55	229.707
888.069	177.389
892.586	326.383
897.1	143.494
901.611	364.941
906.12	541.766
910.626	601.018
915.129	843.732
919.63	932.061
924.129	548.906
928.625	705.199
933.118	463.094
937.609	631.205
942.097	604.875
946.582	702.205
951.065	851.023
955.546	846.246
960.023	1354.59
964.499	1348.17
968.971	878.57
973.441	949
977.909	1042.63
982.374	1112.95
986.836	1016.03
991.295	1559
995.753	1353.99
1000.21	1297.48
1004.66	1620.09
1009.11	1190.89
1013.55	1567.53
1018	1627.54
1022.44	1454.2
1026.88	1123.66
1031.32	1019.27
1035.75	1080.84
1040.18	915.887
1044.61	1185.09
1049.04	1515.7
1053.46	1817.21
1057.88	2054.41
1062.3	2120.84
1066.71	2043.81
1071.13	2020.8
1075.54	2233.14
1079.94	2208.61
1084.35	2604.18
1088.75	2578.16
1093.15	2309.35
1097.55	2488.01
1101.94	2405.3
1106.34	2627.04
1110.73	3064.24
1115.11	3254.91
1119.5	3450.12
1123.88	3662.41
1128.26	3551.5
1132.63	3434.14
1137.01	3211.62
1141.38	2262.38
1145.75	1482.77
1150.12	772.43
1154.48	399.269
1158.84	251.883
1163.2	387.129
1167.55	212.738
1171.91	71.5547
1176.26	173.684
1180.61	156.352
1184.95	21.3867
1189.29	149.461
1193.63	115.016
1197.97	55.375
1202.31	13.0195
1206.64	219.461
1210.97	299.734
1215.29	71.6133
1219.62	388.102
1223.94	306.356
1228.26	30.625
1232.57	79.0391
1236.89	266.613
1241.2	196.727
1245.51	161.176
1249.81	138.449
1254.12	86.1484
1258.42	40.8672
1262.72	259.367
1267.01	393.379
1271.3	190.32
1275.59	96.1836
1279.88	193.641
1284.17	138.609
1288.45	247.031
1292.73	183.406
1297.01	214.359
1301.28	484.062
1305.55	328.848
1309.82	214.188
1314.09	182.141
1318.35	384.254
1322.61	302.543
1326.87	301.312
1331.13	403.012
1335.38	368.484
1339.63	384.621
1343.88	624.223
1348.12	286.82
1352.37	423.5
1356.61	407.766
1360.85	306.133
1365.08	480.336
1369.31	50.5078
1373.54	1067.06
1377.77	383.672
1381.99	157.176
1386.22	261.492
1390.43	144.184
1394.65	182.184
1398.87	442.523
1403.08	480.035
1407.29	250.098
1411.49	234.613
1415.69	94.8945
1419.89	212.91
1424.09	231.152
1428.29	110.602
1432.48	289.102
1436.67	299.734
1440.86	227.445
1445.04	205.727
1449.23	444.074
1453.4	485.727
1457.58	145.988
1461.76	214.207
1465.93	501.629
1470.1	148.387
1474.26	308.57
1478.43	324.43
1482.59	53.5703
1486.75	274.238
1490.9	147.137
1495.06	118.93
1499.21	218.812
1503.35	601.664
1507.5	202.875
1511.64	192.637
1515.78	169.723
1519.92	282.09
1524.05	315.512
1528.18	301.367
1532.31	265.336
1536.44	442.219
1540.56	146.238
1544.69	50.4688
1548.8	106.664
1552.92	514.148
1557.03	611.879
1561.14	92.7852
1565.25	320.582
1569.36	144.883
