Measurement: Raman, 514 nm, ccw, Raman Data Processed
Mineral: Polylithionite
Rruff sample: R050132
Ideal chemistry: KLi_2_AlSi_4_O_10_F_2_
Locality: Brown Derby mine, Ohio City, Gunnison County, Colorado, USA
Source: Dave Bunk Minerals
Description: Purple scaly aggregate, polytype 2M1
Measured chemistry: (K_0.90_Rb_0.10_)(Li_0.62_Al_0.38_)_3_(Si_0.93_Al_0.07_)_4_O_10_(F_0.69_(OH)_0.31_)_2_
Pin_id: M00149
Orientation: Laser parallel to -b* (0 -1 0). Fiducial mark perpendicular to laser is parallel to -c [0 0 -1]
Raman shift (cm-1)	intensity
126.749	0
131.668	304.207
136.585	99.7441
141.5	296.256
146.412	104.092
151.321	153.443
156.229	539.408
161.134	1201.7
166.036	2954.71
170.936	5284.02
175.834	8569
180.729	10208.8
185.622	9331.48
190.512	8301.31
195.4	7291.8
200.286	5635.49
205.169	4373.99
210.049	3989.38
214.928	3908.2
219.803	3620.99
224.677	3620.82
229.548	4779.71
234.416	5751.6
239.282	7258.56
244.146	8748.35
249.007	10681.8
253.866	13883.4
258.722	18480.3
263.576	16290.1
268.427	9999.02
273.276	5294.78
278.123	2939.66
282.967	1984.05
287.809	1370.81
292.648	1091.95
297.485	1014.93
302.319	834.295
307.151	685.197
311.98	306.344
316.807	714.629
321.631	556.621
326.454	500.246
331.273	438.391
336.09	211.938
340.905	12.0859
345.717	109.82
350.527	99.9981
355.334	23.2363
360.139	119.633
364.941	425.615
369.741	797.047
374.538	1218.3
379.333	1250.19
384.126	1710.92
388.916	1955.33
393.703	1940.62
398.488	2371.75
403.271	2698.71
408.051	2300.51
412.828	1813.16
417.603	1199.66
422.376	800.15
427.146	588.76
431.914	459.453
436.679	535.246
441.442	521.356
446.202	586.756
450.96	329.402
455.715	312.957
460.467	420.297
465.218	291.467
469.965	653.453
474.711	522.24
479.454	403.809
484.194	443.139
488.932	163.844
493.667	166.225
498.4	290.869
503.13	161.385
507.858	13.3711
512.583	46.0898
517.306	204.975
522.026	96.5625
526.744	496.935
531.459	431.309
536.172	506.836
540.882	746.648
545.59	1003.68
550.295	1334.12
554.998	1808.04
559.698	2003.31
564.396	1915.54
569.091	1490.57
573.784	849.34
578.474	606.828
583.162	581.979
587.847	419.758
592.529	350.176
597.209	495.184
601.887	689.951
606.562	817.518
611.235	1018.75
615.905	1253.63
620.572	1184.13
625.237	1382.96
629.9	1185.4
634.56	996.805
639.217	849.143
643.872	775.719
648.524	587.854
653.174	818.676
657.821	999.25
662.466	980.721
667.108	907.938
671.748	1650.97
676.385	1809.03
681.02	2596.33
685.652	4027.14
690.281	5716.3
694.908	8719.27
699.533	13696.9
704.155	19969.9
708.774	24786.4
713.391	20827.3
718.005	12116.9
722.617	6300.73
727.226	3934.68
731.833	2813.25
736.437	2243.98
741.039	2272.38
745.638	2423.6
750.234	2688.72
754.828	2384.97
759.419	2004.55
764.008	1423.88
768.595	918.291
773.178	852.357
777.759	655.852
782.338	768.244
786.914	506.682
791.488	654.363
796.059	256.717
800.627	254.205
805.193	85.0117
809.756	100.002
814.317	23.5215
818.875	115.068
823.431	7.68945
827.984	41.9824
832.534	190.977
837.082	73.7969
841.627	121.602
846.17	126.24
850.71	243.883
855.248	335.576
859.783	660.406
864.316	303.06
868.846	197.543
873.373	18.7324
877.898	132.074
882.42	126.848
886.94	160.879
891.457	199.992
895.971	262.223
900.483	369.637
904.993	266.277
909.5	308.184
914.004	347.418
918.505	301.996
923.004	9.77344
927.501	115.887
931.995	158.223
936.486	309.84
940.975	357.973
945.461	281.504
949.945	513.512
954.426	439.715
958.904	557.043
963.38	287.684
967.853	342.332
972.324	604.344
976.792	618.688
981.258	660.035
985.72	803.504
990.181	790.223
994.639	978.672
999.094	1388.17
1003.55	1279.08
1008	809.188
1012.44	938.074
1016.89	1093.45
1021.33	1236.59
1025.77	980.527
1030.21	1086.62
1034.64	881.18
1039.07	1265.94
1043.5	1528.41
1047.93	1934.99
1052.35	2439.73
1056.78	2685.5
1061.19	2633.12
1065.61	2224.22
1070.02	2457.45
1074.43	2422.19
1078.84	2327.85
1083.25	2297.59
1087.65	2232.72
1092.05	2394.07
1096.45	2181.64
1100.85	2470.69
1105.24	2615.43
1109.63	3054.66
1114.02	3409.51
1118.4	3811.24
1122.78	4229
1127.16	4461.76
1131.54	4729.52
1135.92	4646.33
1140.29	4005.23
1144.66	2320.29
1149.02	934.551
1153.39	354.898
1157.75	406.352
1162.11	104.879
1166.46	419.477
1170.82	89.8672
1175.17	131.621
1179.52	138.996
1183.86	30.2852
1188.21	6.37109
1192.55	181.5
1196.89	86.9453
1201.22	8.02344
1205.55	10.4805
1209.88	32.7148
1214.21	75.4727
1218.54	214.984
1222.86	257.43
1227.18	203.852
1231.5	108.266
1235.81	196.699
1240.12	545.141
1244.43	359.652
1248.74	509.301
1253.04	265.305
1257.34	155.371
1261.64	401.523
1265.94	854.742
1270.23	520.035
1274.52	740.379
1278.81	792.777
1283.1	438.231
1287.38	700.731
1291.66	761.422
1295.94	278.047
1300.21	688.059
1304.48	749.613
1308.75	790.734
1313.02	459.617
1317.29	867.391
1321.55	943.832
1325.81	735.766
1330.06	855.449
1334.32	713.816
1338.57	584.047
1342.82	556.445
1347.06	463
1351.31	751.098
1355.55	326.863
1359.79	511.992
1364.02	438.344
1368.26	363.199
1372.49	424.481
1376.71	557.16
1380.94	365.766
1385.16	447.582
1389.38	293.723
1393.6	127.477
1397.81	259.102
1402.02	418.195
1406.23	172.305
1410.44	80.6172
1414.64	319.992
1418.85	187.953
1423.04	15.6406
1427.24	200.539
1431.43	500.371
1435.62	640.797
1439.81	812.449
1444	1362.91
1448.18	1331.83
1452.36	1569.6
1456.54	1219.41
1460.71	1085.48
1464.89	1005.32
1469.06	608.707
1473.22	336.578
1477.39	280.199
1481.55	550.723
1485.71	384.504
1489.86	270.652
1494.02	171.227
1498.17	147.785
1502.32	183.594
1506.46	137.43
1510.61	164.473
1514.75	32.0352
1518.88	375.582
1523.02	232.965
1527.15	338.465
1531.28	379.711
1535.41	367.434
1539.53	196.594
1543.66	373.832
1547.78	586.852
1551.89	273.402
1556.01	317.727
1560.12	437.438
1564.23	183.547
1568.33	354.793
1572.43	0
