Measurement: Raman, 514 nm, ccw, Raman Data Processed
Mineral: Polylithionite
Rruff sample: R050132
Ideal chemistry: KLi_2_AlSi_4_O_10_F_2_
Locality: Brown Derby mine, Ohio City, Gunnison County, Colorado, USA
Source: Dave Bunk Minerals
Description: Purple scaly aggregate, polytype 2M1
Measured chemistry: (K_0.90_Rb_0.10_)(Li_0.62_Al_0.38_)_3_(Si_0.93_Al_0.07_)_4_O_10_(F_0.69_(OH)_0.31_)_2_
Pin_id: L01426
Orientation: Laser parallel to -a* (-1 0 0). Fiducial mark perpendicular to laser is parallel to -b [0 -1 0]
Raman shift (cm-1)	intensity
157.455	0
162.359	479.453
167.261	825.211
172.161	2176.28
177.058	4637.16
181.952	5756.17
186.845	5561.98
191.734	4655.16
196.622	4606.27
201.507	3770.32
206.389	2430.5
211.269	2047.88
216.147	2023.93
221.022	1160.16
225.895	1238.3
230.765	1459.8
235.633	2414.05
240.498	3309.87
245.361	4859.94
250.222	6341.67
255.08	9574.3
259.936	14997.9
264.789	15795.9
269.64	10349.6
274.488	5222.58
279.334	2423.69
284.178	1331.39
289.019	759.561
293.857	658.201
298.693	543.318
303.527	443.648
308.358	403.201
313.187	207.268
318.013	139.688
322.837	359.352
327.659	204.065
332.478	3.96289
337.294	80.7285
342.108	102.51
346.92	311.06
351.729	307.254
356.535	5.01953
361.34	185.812
366.141	612.262
370.94	1034.37
375.737	1333
380.531	1914.65
385.323	2153.04
390.113	2713.75
394.9	3226.86
399.684	4156.2
404.466	4462.47
409.245	4255.13
414.022	3542.47
418.797	2614.46
423.569	1859.12
428.338	1488.44
433.105	1427.45
437.87	1468.15
442.632	1754.55
447.391	1274.11
452.149	1463.76
456.903	1172.66
461.655	1161.22
466.405	1137.37
471.152	1049.92
475.897	1349.42
480.639	1049.12
485.378	664.156
490.116	326.301
494.85	131.56
499.582	81.9023
504.312	140.445
509.039	86.0254
513.764	113.715
518.486	42.5312
523.206	345.582
527.923	583.434
532.638	704.047
537.35	685.531
542.059	833.269
546.766	1263.19
551.471	1531.41
556.173	2157.66
560.873	2696.29
565.57	2625.16
570.264	1984.11
574.957	1411.09
579.646	890.391
584.333	561.809
589.018	306.328
593.7	287.908
598.379	582.67
603.056	714.4
607.73	791.156
612.402	1050.89
617.072	1198.79
621.739	1089
626.403	1467.69
631.065	1528.48
635.724	1634.7
640.381	1276.6
645.035	752.65
649.687	483.367
654.336	852.078
658.983	942.106
663.627	760.951
668.268	1122.06
672.907	1415.07
677.544	1762.01
682.178	2670.21
686.809	4094.03
691.438	6147.37
696.065	9402.13
700.688	14285.6
705.31	20932.9
709.929	27981.5
714.545	25072.3
719.158	14833.5
723.77	7938.03
728.378	4527.15
732.984	3255.3
737.588	2699.24
742.189	2689.75
746.787	3439.1
751.383	3525.17
755.976	3325.86
760.567	2849.84
765.155	2098.2
769.741	1387.04
774.324	1096.37
778.904	1101.51
783.482	929.785
788.058	983.32
792.631	842.852
797.201	509.93
801.769	395.582
806.334	223.734
810.897	38.6387
815.457	146.107
820.014	281.49
824.569	13.252
829.122	24.4883
833.671	3.7207
838.219	12.2832
842.763	196.096
847.306	62.5098
851.845	111.662
856.382	154.695
860.917	48.1191
865.448	106.219
869.978	64.7422
874.505	131.404
879.029	18.5059
883.55	179.644
888.069	12.8164
892.586	34.0332
897.1	4.31836
901.611	155.777
906.12	445.406
910.626	445.59
915.129	504.543
919.63	400.328
924.129	567.824
928.625	430.106
933.118	478.031
937.609	419.668
942.097	551.68
946.582	685.062
951.065	753.68
955.546	942.121
960.023	940.934
964.499	1008.41
968.971	854.723
973.441	1252.36
977.909	1247.67
982.374	1372.93
986.836	1293.5
991.295	1283.79
995.753	1407.84
1000.21	1344.61
1004.66	1437.59
1009.11	1575.97
1013.55	1654.24
1018	1498.33
1022.44	1348.26
1026.88	1342.26
1031.32	1366.46
1035.75	1143.69
1040.18	1268.68
1044.61	1321.81
1049.04	1656.95
1053.46	2007.55
1057.88	2303.48
1062.3	2588.9
1066.71	2556.52
1071.13	2235.51
1075.54	2160.46
1079.94	2335.57
1084.35	2436.06
1088.75	2453.2
1093.15	2393.3
1097.55	2406.1
1101.94	2332.5
1106.34	2681.62
1110.73	2942.13
1115.11	2859.29
1119.5	3651.7
1123.88	3605.24
1128.26	3526.85
1132.63	3636.04
1137.01	3617.73
1141.38	3117.48
1145.75	1869.97
1150.12	1032.53
1154.48	629.625
1158.84	120.844
1163.2	270.848
1167.55	1033.78
1171.91	226.828
1176.26	104.914
1180.61	14.6016
1184.95	95.1562
1189.29	363.738
1193.63	54.6719
1197.97	65.2227
1202.31	57.0234
1206.64	199.297
1210.97	112.695
1215.29	106.137
1219.62	328.856
1223.94	121.469
1228.26	397.363
1232.57	13.582
1236.89	151.699
1241.2	149.734
1245.51	250.734
1249.81	166.738
1254.12	85.5625
1258.42	53.0781
1262.72	211.644
1267.01	217.68
1271.3	122.375
1275.59	38.3242
1279.88	259.164
1284.17	35.3984
1288.45	88.9648
1292.73	247.277
1297.01	210.211
1301.28	358.672
1305.55	237.227
1309.82	469.969
1314.09	165.996
1318.35	593.387
1322.61	297.379
1326.87	491.801
1331.13	173.793
1335.38	530.312
1339.63	289.707
1343.88	199.07
1348.12	504.414
1352.37	136.441
1356.61	6.78516
1360.85	453.871
1365.08	302.473
1369.31	569.363
1373.54	164.578
1377.77	555.844
1381.99	275.863
1386.22	430.316
1390.43	396.848
1394.65	333.992
1398.87	187.848
1403.08	85.8906
1407.29	464.336
1411.49	300.805
1415.69	63.9766
1419.89	256.801
1424.09	265.93
1428.29	372.176
1432.48	237.945
1436.67	231.781
1440.86	346.356
1445.04	195.836
1449.23	420.211
1453.4	316.902
1457.58	309.098
1461.76	258.578
1465.93	366.305
1470.1	229.281
1474.26	491.141
1478.43	468.762
1482.59	258.852
1486.75	444.039
1490.9	354.688
1495.06	37.25
1499.21	85.6758
1503.35	199.18
1507.5	375.887
1511.64	274.801
1515.78	245.406
1519.92	228.394
1524.05	215.867
1528.18	250.891
1532.31	438.098
1536.44	464.551
1540.56	83.5156
1544.69	324.438
1548.8	210.848
1552.92	206.777
1557.03	261.258
1561.14	170.828
1565.25	4.05078
1569.36	0.242188
