Measurement: Raman, 514 nm, ccw, Raman Data Processed
Mineral: Polylithionite
Rruff sample: R050132
Ideal chemistry: KLi_2_AlSi_4_O_10_F_2_
Locality: Brown Derby mine, Ohio City, Gunnison County, Colorado, USA
Source: Dave Bunk Minerals
Description: Purple scaly aggregate, polytype 2M1
Measured chemistry: (K_0.90_Rb_0.10_)(Li_0.62_Al_0.38_)_3_(Si_0.93_Al_0.07_)_4_O_10_(F_0.69_(OH)_0.31_)_2_
Pin_id: M00149
Orientation: Laser parallel to -b* (0 -1 0). Fiducial mark perpendicular to laser is parallel to -c [0 0 -1]
Raman shift (cm-1)	intensity
126.749	0
131.668	345.75
136.585	17.0762
141.5	375.459
146.412	158.457
151.321	483.602
156.229	915.572
161.134	1701.65
166.036	3631.86
170.936	7050
175.834	10670.4
180.729	12707.6
185.622	12324.1
190.512	11151.8
195.4	9439.98
200.286	7333.93
205.169	5880.63
210.049	5108.12
214.928	5072.14
219.803	4963.2
224.677	5255.34
229.548	6615.94
234.416	8099.4
239.282	9758.66
244.146	11379.5
249.007	13564
253.866	17412
258.722	22181.9
263.576	19542.5
268.427	12427.8
273.276	6608.74
278.123	3595.17
282.967	2527.62
287.809	1659.49
292.648	1180.62
297.485	1144.38
302.319	844.992
307.151	797.096
311.98	340.068
316.807	275.894
321.631	74.8906
326.454	139.967
331.273	109.887
336.09	152.652
340.905	215.258
345.717	95.4609
350.527	89.7383
355.334	332.006
360.139	385.236
364.941	345.699
369.741	374.713
374.538	672.354
379.333	793.902
384.126	1071.5
388.916	1347.21
393.703	1602.72
398.488	2005.27
403.271	2201.21
408.051	2058.22
412.828	1610.09
417.603	810.826
422.376	823.477
427.146	527.068
431.914	494.6
436.679	593.078
441.442	348.404
446.202	82.6367
450.96	327.555
455.715	399.256
460.467	301.758
465.218	398.053
469.965	395.147
474.711	560.791
479.454	331.363
484.194	86.9258
488.932	133.629
493.667	69.332
498.4	112.83
503.13	69.668
507.858	16.9902
512.583	57.9121
517.306	142.773
522.026	170.463
526.744	238.199
531.459	304.106
536.172	473.256
540.882	470.615
545.59	907.644
550.295	1324.12
554.998	1335.08
559.698	2023.44
564.396	1788.28
569.091	1329.25
573.784	933.348
578.474	508.576
583.162	277.938
587.847	206.522
592.529	173.121
597.209	137.478
601.887	713.389
606.562	608.459
611.235	830.697
615.905	1132.23
620.572	1128.58
625.237	1363.98
629.9	964.859
634.56	811.76
639.217	681.488
643.872	624.672
648.524	886.33
653.174	801.098
657.821	957.129
662.466	1078.67
667.108	962.602
671.748	1375.55
676.385	1742.51
681.02	2541.09
685.652	3730.21
690.281	5951.33
694.908	8639.66
699.533	13567.3
704.155	20050.7
708.774	24685.2
713.391	20856.7
718.005	11596.3
722.617	6311.9
727.226	3486.51
731.833	2293.28
736.437	2106.65
741.039	2223.5
745.638	2409.83
750.234	2388
754.828	2240.61
759.419	1765.49
764.008	1072.5
768.595	647.494
773.178	523.961
777.759	531.553
782.338	386.207
786.914	516.943
791.488	397.019
796.059	231.207
800.627	188.236
805.193	198.621
809.756	57.1387
814.317	115.342
818.875	275.76
823.431	3.72656
827.984	118.383
832.534	41.7344
837.082	70.1016
841.627	158.281
846.17	318.231
850.71	458.953
855.248	895.441
859.783	1074.69
864.316	550.727
868.846	684.519
873.373	337.062
877.898	40.3477
882.42	54.3711
886.94	132.141
891.457	13.7578
895.971	290.68
900.483	48.8711
904.993	135.731
909.5	294.035
914.004	69.9961
918.505	165.227
923.004	55.9609
927.501	49.4688
931.995	178.844
936.486	196.125
940.975	235.277
945.461	181.102
949.945	316.094
954.426	432.434
958.904	290.273
963.38	196.996
967.853	414.168
972.324	265.422
976.792	372.859
981.258	382.238
985.72	768.57
990.181	547.859
994.639	1054.11
999.094	1332.33
1003.55	1603.53
1008	1460.17
1012.44	1480.9
1016.89	1524.84
1021.33	1513.02
1025.77	1672.69
1030.21	1527.83
1034.64	1476.73
1039.07	1829.25
1043.5	2340.24
1047.93	2606.78
1052.35	3507.65
1056.78	3812.02
1061.19	3631.41
1065.61	3516.28
1070.02	3450
1074.43	3068.07
1078.84	2960.41
1083.25	2933.05
1087.65	2789.48
1092.05	2964.68
1096.45	2830.75
1100.85	2608.66
1105.24	3507.39
1109.63	3690.21
1114.02	4160.19
1118.4	4215.34
1122.78	4451.66
1127.16	5450.15
1131.54	5796.83
1135.92	5965.69
1140.29	4966.75
1144.66	2962.02
1149.02	1592.54
1153.39	785.348
1157.75	576.684
1162.11	806.371
1166.46	454.277
1170.82	802.481
1175.17	345.047
1179.52	189.859
1183.86	57.2109
1188.21	33.5234
1192.55	98.6641
1196.89	47.6758
1201.22	63.8086
1205.55	59.3359
1209.88	2.34375
1214.21	182.016
1218.54	31.9102
1222.86	25.6523
1227.18	59.8086
1231.5	349.961
1235.81	193.496
1240.12	341.012
1244.43	150.715
1248.74	403.621
1253.04	396.75
1257.34	260.07
1261.64	335.629
1265.94	573.496
1270.23	462.566
1274.52	731.391
1278.81	563.844
1283.1	455.773
1287.38	429.262
1291.66	716.606
1295.94	709.133
1300.21	1164.84
1304.48	1096.68
1308.75	897.672
1313.02	915.797
1317.29	1093.89
1321.55	917.977
1325.81	746.867
1330.06	467.977
1334.32	107.984
1338.57	218.734
1342.82	149.516
1347.06	812.894
1351.31	371.945
1355.55	106.699
1359.79	283.789
1364.02	267.926
1368.26	537.281
1372.49	376.789
1376.71	628.102
1380.94	150.281
1385.16	253.543
1389.38	279.984
1393.6	168.656
1397.81	21.9297
1402.02	111.57
1406.23	122.984
1410.44	299.434
1414.64	243.211
1418.85	386.176
1423.04	179.727
1427.24	533.426
1431.43	1242.83
1435.62	1794.79
1439.81	2531.51
1444	2732.37
1448.18	3005.32
1452.36	2576.36
1456.54	2713.54
1460.71	2195.6
1464.89	1719.24
1469.06	1053.19
1473.22	972.793
1477.39	1016.74
1481.55	722.008
1485.71	343.285
1489.86	294.773
1494.02	168.742
1498.17	179.336
1502.32	358.281
1506.46	261.738
1510.61	322.004
1514.75	367.484
1518.88	183.211
1523.02	10.5938
1527.15	488.269
1531.28	271.496
1535.41	367.644
1539.53	310.809
1543.66	457.894
1547.78	288.406
1551.89	640.801
1556.01	253.418
1560.12	100.481
1564.23	279.231
1568.33	123.199
1572.43	0
