Measurement: Raman, 514 nm, ccw, Raman Data Processed
Mineral: Polylithionite
Rruff sample: R050132
Ideal chemistry: KLi_2_AlSi_4_O_10_F_2_
Locality: Brown Derby mine, Ohio City, Gunnison County, Colorado, USA
Source: Dave Bunk Minerals
Description: Purple scaly aggregate, polytype 2M1
Measured chemistry: (K_0.90_Rb_0.10_)(Li_0.62_Al_0.38_)_3_(Si_0.93_Al_0.07_)_4_O_10_(F_0.69_(OH)_0.31_)_2_
Pin_id: L00606
Orientation: Laser parallel to (1 0 1). Fiducial mark perpendicular to laser is parallel to -b [0 -1 0]
Raman shift (cm-1)	intensity
157.455	0
162.359	318.924
167.261	2754.76
172.161	7441.69
177.058	12702
181.952	13693.6
186.845	11367
191.734	9972.46
196.622	8277.29
201.507	5636.6
206.389	4177
211.269	3992.41
216.147	3745.25
221.022	3802.04
225.895	4881.95
230.765	6912.2
235.633	9293.57
240.498	11823
245.361	14622.9
250.222	18234.5
255.08	25008.5
259.936	30916.2
264.789	24868.6
269.64	13723.6
274.488	7005.7
279.334	4005.01
284.178	2497.55
289.019	1683.08
293.857	1277.65
298.693	1051.33
303.527	821.019
308.358	245.94
313.187	219.023
318.013	75.7715
322.837	218.667
327.659	202.987
332.478	269.545
337.294	232.691
342.108	433.495
346.92	398.534
351.729	263.141
356.535	138.566
361.34	106.866
366.141	399.231
370.94	842.282
375.737	1275.97
380.531	1585.49
385.323	2223.03
390.113	2818.86
394.9	3311.13
399.684	3836.41
404.466	3973.05
409.245	3347.55
414.022	2553
418.797	1746.43
423.569	1364.85
428.338	1197.31
433.105	1267.83
437.87	1328.47
442.632	1187.26
447.391	1101.25
452.149	1287.6
456.903	1398.91
461.655	1270.72
466.405	1228.24
471.152	1117.62
475.897	1099.65
480.639	850.652
485.378	645.114
490.116	65.0478
494.85	29.9717
499.582	302.917
504.312	106.236
509.039	233.062
513.764	542.169
518.486	634.517
523.206	808.261
527.923	859.46
532.638	807.213
537.35	846.748
542.059	1001.5
546.766	1359.83
551.471	2056.61
556.173	2742.64
560.873	3002.08
565.57	2908.14
570.264	2083.89
574.957	1258.28
579.646	939.381
584.333	526.033
589.018	545.154
593.7	524.672
598.379	736.64
603.056	887.223
607.73	1076.88
612.402	1331.33
617.072	1588.39
621.739	1650.52
626.403	1858.04
631.065	1894.49
635.724	1863.53
640.381	1635.22
645.035	1159.56
649.687	1114.39
654.336	1316.19
658.983	1671.72
663.627	1930.42
668.268	2150.2
672.907	2571.04
677.544	3241.8
682.178	4644.63
686.809	6563.74
691.438	9398.92
696.065	14154.5
700.688	21855.2
705.31	33098.6
709.929	39956.1
714.545	30186.8
719.158	16298.6
723.77	8719.19
728.378	5251.33
732.984	3659.63
737.588	3398.18
742.189	3467.78
746.787	3803.71
751.383	3955.45
755.976	3504.39
760.567	2764.16
765.155	2120.46
769.741	1346.71
774.324	1150.87
778.904	1034.88
783.482	958.346
788.058	957.292
792.631	642.741
797.201	429.461
801.769	293.849
806.334	123.544
810.897	5.67969
815.457	195.073
820.014	302.384
824.569	79.583
829.122	116.886
833.671	89.5674
838.219	99.6025
842.763	42.4111
847.306	18.6318
851.845	23.251
856.382	40.3408
860.917	60.9424
865.448	4.52344
869.978	94.833
874.505	102.03
879.029	7.92383
883.55	56.9912
888.069	32.8916
892.586	49.375
897.1	161.18
901.611	19.1484
906.12	139.451
910.626	243.312
915.129	112.459
919.63	174.871
924.129	247.568
928.625	409.557
933.118	308.856
937.609	289.486
942.097	483.455
946.582	557.473
951.065	521.977
955.546	560.191
960.023	755.781
964.499	749.307
968.971	698.201
973.441	877.891
977.909	1010.48
982.374	1118.14
986.836	1202.35
991.295	1419.12
995.753	1123.46
1000.21	1409.76
1004.66	1445.99
1009.11	1517.58
1013.55	1659.15
1018	1656.04
1022.44	1574.89
1026.88	1698.34
1031.32	1691.41
1035.75	1878.95
1040.18	2307.07
1044.61	2935.6
1049.04	3682.25
1053.46	4618.84
1057.88	5007.36
1062.3	4983.08
1066.71	4413.99
1071.13	4153.68
1075.54	3944.49
1079.94	3745.46
1084.35	4091.73
1088.75	3828.67
1093.15	3663.38
1097.55	3663.43
1101.94	3997.77
1106.34	4353.75
1110.73	4810.41
1115.11	5369.34
1119.5	6089.2
1123.88	7144.53
1128.26	7827.93
1132.63	8527.08
1137.01	8084.4
1141.38	6327.46
1145.75	3283.57
1150.12	1639.94
1154.48	862.58
1158.84	424.287
1163.2	318.047
1167.55	394.502
1171.91	278.869
1176.26	169.85
1180.61	3.62305
1184.95	150.81
1189.29	24.3086
1193.63	125.203
1197.97	11.1992
1202.31	46.4023
1206.64	147.035
1210.97	16.6797
1215.29	89.9766
1219.62	123.01
1223.94	93.7812
1228.26	218.127
1232.57	62.9414
1236.89	220.484
1241.2	70.4688
1245.51	19.7852
1249.81	134.92
1254.12	23.7598
1258.42	262.535
1262.72	80.9102
1267.01	29.041
1271.3	173.744
1275.59	42.0684
1279.88	111.643
1284.17	39.9258
1288.45	252.734
1292.73	308.916
1297.01	152.475
1301.28	102.799
1305.55	277.797
1309.82	436.547
1314.09	314.826
1318.35	255.102
1322.61	221.752
1326.87	297.096
1331.13	420.207
1335.38	253.045
1339.63	338.106
1343.88	321.996
1348.12	271.934
1352.37	315.24
1356.61	257.801
1360.85	546.008
1365.08	454.875
1369.31	348.56
1373.54	358.168
1377.77	211.32
1381.99	174.418
1386.22	233.84
1390.43	217.935
1394.65	240.352
1398.87	162.342
1403.08	367.959
1407.29	112.471
1411.49	323.379
1415.69	225.5
1419.89	308.117
1424.09	148.762
1428.29	373.141
1432.48	369.523
1436.67	436.748
1440.86	382.227
1445.04	320.772
1449.23	213.008
1453.4	377.967
1457.58	390.578
1461.76	268.664
1465.93	187.527
1470.1	337.94
1474.26	250.312
1478.43	176.953
1482.59	105.701
1486.75	252.887
1490.9	252.527
1495.06	99.0391
1499.21	116.211
1503.35	119.615
1507.5	163.342
1511.64	305.566
1515.78	236.978
1519.92	380.641
1524.05	104.023
1528.18	69.2227
1532.31	341.205
1536.44	146.19
1540.56	124.193
1544.69	203.209
1548.8	142.525
1552.92	173.072
1557.03	251.957
1561.14	8.52734
1565.25	107.404
1569.36	82.4785
