Measurement: Raman, 514 nm, ccw, Raman Data Processed
Mineral: Pyrite
Rruff sample: R050070
Ideal chemistry: FeS_2_
Locality: Mina San Jose de Huanzala, Minero de Huallanca District, Department de Huanuco, Peru
Source: Rock Currier
Description: Brass-yellow metallic cube
Measured chemistry: Fe_1.00_S_2.00_
Pin_id: L00302
Orientation: Laser parallel to c* (0 0 1). Fiducial mark perpendicular to laser is parallel to -a [-1 0 0]
Raman shift (cm-1)	intensity
284.283	0
288.372	181.365
292.459	143.902
296.544	98.773
300.627	373.184
304.709	360.705
308.788	188.293
312.865	105.221
316.941	234.818
321.015	281.09
325.086	98.984
329.156	2.936
333.224	120.883
337.29	402.258
341.354	477.197
345.416	1002.02
349.476	1157.56
353.534	897.072
357.591	736.252
361.645	485.799
365.698	291.016
369.748	435.436
373.797	680.449
377.844	1803.97
381.889	2609.82
385.932	3361.97
389.973	3073.09
394.012	2024.6
398.049	810.117
402.084	327.234
406.118	143.463
410.15	56.869
414.179	25.365
418.207	40.582
422.233	13.961
426.257	0.283
430.279	14.217
434.299	209.441
438.318	272.41
442.334	289.395
446.349	193.541
450.361	264.59
454.372	205.338
458.381	54.49
462.388	38.326
466.394	79.297
470.397	111.385
474.398	163.832
478.398	266.148
482.396	323.062
486.391	478.443
490.385	675.062
494.377	602.852
498.368	758.177
502.356	754.083
506.342	695.212
510.327	766.819
514.31	1022.19
518.291	825.028
522.27	1028.86
526.247	779.895
530.222	936.604
534.196	1131.19
538.167	1417.82
542.137	1348.86
546.105	1350.25
550.071	1327.31
554.035	1400.17
557.998	1489.26
561.958	1499.84
565.917	1489.96
569.874	1450.6
573.829	1656.46
577.782	1635.26
581.733	1121.49
585.683	886.538
589.63	644.824
593.576	496.334
597.52	505.656
601.462	382.709
605.402	285.505
609.341	312.077
613.277	381.443
617.212	460.539
621.145	302.735
625.076	226.697
629.006	248.408
632.933	227.401
636.859	229.669
640.783	145.1
644.705	175.206
648.625	162.075
652.543	154.63
656.46	125.145
660.375	14.176
664.288	76.714
668.199	48.228
672.108	26.891
676.016	17.027
679.921	167.197
683.825	102.002
687.727	96.733
691.628	84.691
695.526	85.694
699.423	111.395
703.318	25.895
707.211	5.882
711.102	25.259
714.992	100.114
718.879	29.245
722.765	63.452
726.649	164.282
730.532	234.354
734.412	238.447
738.291	112.102
742.168	123.952
746.043	152.503
749.916	153.476
753.788	223.589
757.658	170.234
761.526	184.809
765.392	168.348
769.257	128.639
773.119	248.565
776.98	213.802
780.839	26.103
784.697	61.385
788.552	115.722
792.406	127.712
796.258	116.946
800.108	54.479
803.957	134.66
807.804	99.592
811.649	4.769
815.492	34.588
819.333	65.355
823.173	6.983
827.011	68.2
830.847	46.407
834.681	5.83
838.514	65.782
842.345	20.316
846.174	43.547
850.001	19.104
853.827	32.732
857.651	63.779
861.473	84.21
865.293	91.189
869.112	32.073
872.928	5.338
876.744	115.954
880.557	133.733
884.369	62.733
888.178	33.445
891.987	1.27
895.793	145.3
899.598	114.018
903.401	182.39
907.202	67.672
911.001	53.334
914.799	117.719
918.595	2.812
922.389	53.558
926.182	155.212
929.972	71.607
933.761	102.348
937.549	10.048
941.334	92.111
945.118	300.738
948.9	219.773
952.681	272.706
956.459	167.196
960.236	155.196
964.012	150.947
967.785	188.257
971.557	196.539
975.327	109.143
979.095	213.113
982.862	183.243
986.627	154.574
990.39	226.109
994.152	243.603
997.912	273.856
1001.67	340.757
1005.43	230.659
1009.18	142.382
1012.93	200.135
1016.68	330.023
1020.43	394.251
1024.18	297.967
1027.93	346.747
1031.67	242.955
1035.42	290.311
1039.16	372.371
1042.9	293.472
1046.63	394.32
1050.37	427.572
1054.11	366.037
1057.84	379.623
1061.57	317.562
1065.3	336.258
1069.03	410.703
1072.75	339.926
1076.47	456.474
1080.2	312.949
1083.92	261.038
1087.64	265.915
1091.36	269.942
1095.07	354.867
1098.79	339.662
1102.5	307.234
1106.21	274.006
1109.92	187.05
1113.62	237.506
1117.33	182.547
1121.04	352.341
1124.74	268.094
1128.44	160.887
1132.14	210.686
1135.83	66.566
1139.53	68.347
1143.22	99.413
1146.92	204.174
1150.61	31.381
1154.3	114.626
1157.98	127.717
1161.67	4.865
1165.35	159.854
1169.04	40.479
1172.72	38.924
1176.4	113.216
1180.07	137.672
1183.75	109.533
1187.42	249.833
1191.1	122.948
1194.77	34.212
1198.44	15.247
1202.1	150.121
1205.77	118.203
1209.43	3.369
1213.1	103.473
1216.76	82.576
1220.42	145.651
1224.07	21.268
1227.73	68.252
1231.38	147.12
1235.04	119.159
1238.69	267.821
1242.34	207.089
1245.99	131.408
1249.63	161.569
1253.28	96.574
1256.92	59.435
1260.56	86.129
1264.2	188.65
1267.84	163.954
1271.48	188.953
1275.11	152.751
1278.74	117.858
1282.38	148.57
1286.01	87.069
1289.63	120.238
1293.26	79.01
1296.89	117.371
1300.51	183.741
1304.13	98.52
1307.75	136.425
1311.37	21.368
1314.99	23.752
1318.6	2.816
1322.22	80.78
1325.83	56.853
1329.44	117.416
1333.05	175.433
1336.66	191.264
1340.26	124.392
1343.87	150.195
1347.47	14.75
1351.07	48.16
1354.67	27.464
1358.27	91.183
1361.86	146.392
1365.46	126.894
1369.05	38.922
1372.64	251.106
1376.23	215.7
1379.82	168.814
1383.41	166.617
1386.99	202.564
1390.57	209.072
1394.16	213.066
1397.74	250.802
1401.32	330.974
1404.89	236.073
1408.47	355.544
1412.04	252.431
1415.61	220.28
1419.18	202.629
1422.75	126.867
1426.32	83.335
1429.89	94.336
1433.45	270.408
1437.01	77.563
1440.58	165.151
1444.13	195.892
1447.69	349.488
1451.25	354.497
1454.81	268.519
1458.36	214.257
1461.91	128.809
1465.46	103.243
1469.01	118.658
1472.56	141.066
1476.1	0.135
1479.64	84.071
1483.19	135.246
1486.73	161.628
1490.27	157.413
1493.81	159.269
1497.34	157.231
1500.88	152.829
1504.41	31.873
1507.94	72.759
1511.47	2.722
1515	136.634
