Measurement: Raman, 514 nm, ccw, Raman Data Processed
Mineral: Pyrite
Rruff sample: R050070
Ideal chemistry: FeS_2_
Locality: Mina San Jose de Huanzala, Minero de Huallanca District, Department de Huanuco, Peru
Source: Rock Currier
Description: Brass-yellow metallic cube
Measured chemistry: Fe_1.00_S_2.00_
Pin_id: L00302
Orientation: Laser parallel to c* (0 0 1). Fiducial mark perpendicular to laser is parallel to -a [-1 0 0]
Raman shift (cm-1)	intensity
224.087	0
228.204	196.332
232.32	5.637
236.434	88.568
240.545	278.379
244.655	338.516
248.763	55.203
252.869	0.258
256.973	99.908
261.075	171.291
265.175	481.676
269.273	495.908
273.369	325.248
277.463	262.459
281.556	362.104
285.646	410.871
289.734	272.48
293.821	216.031
297.905	285.537
301.988	154.648
306.069	13.754
310.147	44.217
314.224	41.098
318.299	167.82
322.372	38.285
326.443	53.23
330.512	123.068
334.579	277.275
338.645	412.779
342.708	851.258
346.769	1810.47
350.829	2377.73
354.887	2376.82
358.942	1468.35
362.996	658.826
367.048	306.029
371.098	181.682
375.146	541.781
379.192	1318.46
383.236	2164.82
387.279	2834.58
391.319	2308.1
395.358	1194.06
399.394	389.527
403.429	65.004
407.462	40.736
411.493	23.572
415.522	86.887
419.549	8.753
423.575	2.997
427.598	40.802
431.619	45.732
435.639	91.018
439.657	169.321
443.673	198.146
447.687	206.284
451.699	210.232
455.709	88.437
459.717	183.76
463.724	153.495
467.728	323.718
471.731	220.686
475.732	231.783
479.731	285.002
483.728	264.938
487.723	287.369
491.716	259.875
495.708	418.827
499.697	434.044
503.685	468.188
507.671	380.562
511.655	359.357
515.637	477.626
519.617	632.011
523.596	683.455
527.572	500.57
531.547	585.714
535.52	810.483
539.491	716.143
543.46	711.556
547.427	837.439
551.393	795.993
555.356	1030.91
559.318	918.638
563.278	1110.21
567.236	1006.12
571.192	1054.82
575.147	1025.79
579.099	835.672
583.05	633.444
586.999	544.68
590.946	498.089
594.891	249.575
598.834	284.957
602.776	222.405
606.715	221.297
610.653	184.253
614.589	225.554
618.523	255.462
622.456	242.785
626.386	178.602
630.315	124.71
634.242	205.304
638.167	169.329
642.09	158.184
646.012	246.484
649.931	192.961
653.849	97.709
657.765	94.434
661.679	146.78
665.592	112.78
669.502	142.013
673.411	99.029
677.318	65.117
681.223	123.402
685.126	71.867
689.028	15.484
692.927	139.842
696.825	141.022
700.721	35.329
704.616	185.026
708.508	76.553
712.399	145.172
716.288	107.783
720.175	63.778
724.06	52.768
727.944	105.471
731.825	130.155
735.705	84.126
739.584	131.28
743.46	100.857
747.334	209.086
751.207	237.87
755.078	226.302
758.947	211.661
762.815	112.261
766.68	130.736
770.544	248.125
774.406	173.748
778.267	88.881
782.125	155.771
785.982	216.85
789.837	74.481
793.69	160.517
797.542	99.754
801.391	160.767
805.239	154.675
809.085	175.808
812.93	97.842
816.772	110.45
820.613	178.604
824.452	154.164
828.29	219.739
832.125	56.094
835.959	8.182
839.791	14.009
843.621	79.771
847.45	78.189
851.277	143.599
855.102	23.012
858.925	100.09
862.746	46.105
866.566	59.14
870.384	39.242
874.2	2.022
878.015	41.301
881.828	19.038
885.639	115.756
889.448	58.638
893.256	147.208
897.061	207.403
900.865	74.655
904.668	155.006
908.468	93.454
912.267	187.777
916.064	162.203
919.86	251.883
923.653	159.824
927.445	143.915
931.236	217.782
935.024	158.478
938.811	148.349
942.596	94.436
946.379	136.88
950.161	177.325
953.94	178.89
957.719	131.518
961.495	222.957
965.27	134.724
969.043	39.436
972.814	1.881
976.583	191.078
980.351	173.193
984.117	356.478
987.882	219.23
991.644	173.414
995.405	204.401
999.165	268.37
1002.92	335.014
1006.68	329.939
1010.43	313.033
1014.18	364.378
1017.93	239.003
1021.68	228.299
1025.43	238.995
1029.18	186.158
1032.92	247.583
1036.66	247.585
1040.4	319.273
1044.14	357.235
1047.88	296.697
1051.62	388.159
1055.35	421.21
1059.08	405.964
1062.81	421.895
1066.54	406.713
1070.27	333.436
1073.99	252.314
1077.72	320.985
1081.44	298.669
1085.16	430.553
1088.88	431.45
1092.59	471.757
1096.31	168.721
1100.02	312.786
1103.73	261.676
1107.44	336.017
1111.15	281.999
1114.86	240.831
1118.57	322.272
1122.27	208.083
1125.97	104.787
1129.67	48.082
1133.37	118.438
1137.07	238.768
1140.76	199.02
1144.45	247.547
1148.15	11.87
1151.84	9.663
1155.53	21.836
1159.21	44.853
1162.9	89.011
1166.58	44.697
1170.26	180.761
1173.94	148.474
1177.62	45.435
1181.3	138.497
1184.97	40.372
1188.65	5.211
1192.32	173.575
1195.99	145.987
1199.66	242.985
1203.33	127.727
1206.99	96.508
1210.65	82.352
1214.32	43.075
1217.98	144.425
1221.64	263.436
1225.29	188.159
1228.95	149.035
1232.6	212.889
1236.26	36.796
1239.91	179.615
1243.56	75.57
1247.2	156.407
1250.85	206.226
1254.49	202.805
1258.13	209.237
1261.78	185.257
1265.41	195.464
1269.05	219.132
1272.69	54.26
1276.32	77.077
1279.95	133.432
1283.59	116.554
1287.21	230.425
1290.84	183.321
1294.47	247.57
1298.09	47.436
1301.72	24.195
1305.34	96.397
1308.96	55.348
1312.58	58.204
1316.19	131.189
1319.81	90.528
1323.42	13.162
1327.03	195.483
1330.64	146.36
1334.25	4.429
1337.86	85.952
1341.46	48.46
1345.07	49.153
1348.67	59.832
1352.27	52.59
1355.87	182.363
1359.46	170.281
1363.06	237.365
1366.65	213.994
1370.25	258.07
1373.84	95.344
1377.43	175.335
1381.02	94.336
1384.6	221.805
1388.18	323.394
1391.77	267.981
1395.35	223.595
1398.93	366.95
1402.51	255.618
1406.08	264.183
1409.66	123.125
1413.23	147.289
1416.8	231.088
1420.37	175.824
1423.94	177.864
1427.51	168.858
1431.08	344.979
1434.64	240.208
1438.2	198.446
1441.76	180.571
1445.32	283.952
1448.88	99.248
1452.43	58.348
1455.99	172.056
1459.54	86.872
1463.09	214.794
1466.64	288.612
1470.19	201.996
1473.74	310.466
1477.28	195.75
1480.83	66.214
1484.37	223.69
1487.91	137.801
1491.45	181.539
1494.98	14.864
1498.52	4.619
1502.05	34.391
1505.59	196.596
1509.12	323.711
1512.65	0
