Measurement: Raman, 514 nm, ccw, Raman Data Processed
Mineral: Pyrite
Rruff sample: R050070
Ideal chemistry: FeS_2_
Locality: Mina San Jose de Huanzala, Minero de Huallanca District, Department de Huanuco, Peru
Source: Rock Currier
Description: Brass-yellow metallic cube
Measured chemistry: Fe_1.00_S_2.00_
Pin_id: L00302
Orientation: Laser parallel to c* (0 0 1). Fiducial mark perpendicular to laser is parallel to -a [-1 0 0]
Raman shift (cm-1)	intensity
258.34	0
262.442	265.904
266.541	148.18
270.639	15.559
274.734	6.111
278.828	171.131
282.919	125.053
287.009	223.264
291.097	258.477
295.183	455.506
299.266	477.252
303.348	420.35
307.428	451.57
311.507	364.037
315.583	330.861
319.657	290.301
323.729	38.012
327.8	25.021
331.868	76.516
335.935	362.189
339.999	1005.66
344.062	2248.84
348.123	3125.41
352.182	3171.69
356.239	2636.48
360.294	1560.71
364.347	769.057
368.398	662.441
372.448	834.795
376.495	1632.46
380.54	2857.97
384.584	3544.6
388.626	3404.86
392.666	2269.71
396.704	1055.45
400.74	376.695
404.774	302.699
408.806	72.072
412.836	8.92
416.865	156.094
420.891	44.857
424.916	98.707
428.939	116.461
432.959	165.236
436.978	299.746
440.996	282.813
445.011	379.966
449.024	226.957
453.036	305.262
457.045	322.271
461.053	373.855
465.059	434.332
469.063	440.624
473.065	397.531
477.065	425.281
481.063	540.82
485.06	696.105
489.054	780.184
493.047	713.932
497.038	821.316
501.027	708.375
505.014	794.547
508.999	832.702
512.982	778.345
516.964	833.836
520.944	1080.57
524.921	1028.69
528.897	1025.11
532.871	1230.43
536.844	1305.53
540.814	1262.46
544.783	1216.6
548.749	1438.98
552.714	1399.35
556.677	1468.58
560.638	1440.19
564.597	1342.55
568.555	1313.97
572.511	1409.63
576.464	1373.22
580.416	1110
584.366	856.37
588.315	569.71
592.261	454.55
596.206	350.964
600.148	353.508
604.089	387.419
608.028	329.746
611.965	316.786
615.901	321.331
619.834	388.935
623.766	288.81
627.696	262.201
631.624	284.955
635.551	306.601
639.475	339.389
643.398	274.923
647.318	135.984
651.237	168.461
655.155	179.506
659.07	231.532
662.984	76.431
666.895	142.94
670.805	84.912
674.713	174.913
678.62	206.688
682.524	111.047
686.427	56.59
690.328	186.141
694.227	87.685
698.124	94.78
702.02	75.686
705.913	119.812
709.805	112.405
713.695	0.345
717.584	89.717
721.47	40.884
725.355	37.984
729.238	178.412
733.119	119.188
736.998	139.929
740.876	206.158
744.752	159.419
748.626	67.646
752.498	191.938
756.368	126.775
760.237	139.166
764.104	92.743
767.969	77.103
771.832	103.693
775.693	129.906
779.553	154.39
783.411	116.042
787.267	61.179
791.122	21.308
794.974	138.941
798.825	190.437
802.674	131.749
806.522	134.101
810.367	192.443
814.211	120.463
818.053	36.545
821.893	122.274
825.732	58.25
829.568	34.188
833.403	44.531
837.236	18.713
841.068	32.669
844.898	23.153
848.726	9.995
852.552	152.031
856.376	34.007
860.199	168.015
864.02	75.813
867.839	32.229
871.656	42.579
875.472	56.831
879.286	103.595
883.098	12.272
886.909	23.456
890.717	10.145
894.524	79.086
898.33	39.465
902.133	86.748
905.935	133.377
909.735	262.207
913.533	17.36
917.33	64.895
921.124	16.116
924.918	37.396
928.709	207.196
932.499	286.359
936.286	195.217
940.073	60.626
943.857	115.79
947.64	168.055
951.421	191.087
955.2	341.57
958.978	223.854
962.753	184.655
966.527	251.038
970.3	278.642
974.071	171.373
977.84	352.214
981.607	322.564
985.372	182.117
989.136	166.804
992.898	278.072
996.659	246.736
1000.42	191.547
1004.17	181.513
1007.93	267.543
1011.68	176.473
1015.43	296.22
1019.18	290.784
1022.93	309.929
1026.68	342.283
1030.42	309.383
1034.17	309.012
1037.91	311.136
1041.65	352.31
1045.39	335.892
1049.12	471.543
1052.86	325.416
1056.59	425.243
1060.33	387.804
1064.06	327.941
1067.78	288.778
1071.51	384.212
1075.23	415.007
1078.96	417.984
1082.68	437.647
1086.4	227.279
1090.12	189.451
1093.83	181.26
1097.55	281.101
1101.26	389.405
1104.97	326.566
1108.68	237.482
1112.39	246.142
1116.1	39.67
1119.8	79.156
1123.5	174.535
1127.2	198.009
1130.9	135.05
1134.6	230.198
1138.3	71.996
1141.99	3.479
1145.69	5.463
1149.38	127.561
1153.07	54.633
1156.76	73.688
1160.44	43.624
1164.13	67.873
1167.81	5.847
1171.49	42.529
1175.17	35.883
1178.85	50.319
1182.52	150.621
1186.2	229.928
1189.87	173.054
1193.54	176.136
1197.21	149.9
1200.88	72.322
1204.55	68.076
1208.21	106.202
1211.88	120.941
1215.54	164.523
1219.2	260.692
1222.86	281.218
1226.51	3.3
1230.17	227.477
1233.82	98.715
1237.47	112.757
1241.12	290.289
1244.77	164.667
1248.42	132.919
1252.06	177.384
1255.71	192.239
1259.35	104.938
1262.99	35.596
1266.63	79.365
1270.26	161.985
1273.9	173.122
1277.53	198.913
1281.16	196.453
1284.8	203.812
1288.42	3.287
1292.05	41.078
1295.68	58.401
1299.3	88.541
1302.92	143.339
1306.55	16.713
1310.16	38.216
1313.78	56.025
1317.4	25.231
1321.01	85.266
1324.62	25.677
1328.24	54.772
1331.85	12.839
1335.45	85.035
1339.06	133.683
1342.66	183.414
1346.27	237.619
1349.87	160.696
1353.47	70.996
1357.07	43.35
1360.66	63.333
1364.26	87.471
1367.85	170.995
1371.44	240.738
1375.04	193.477
1378.62	387.15
1382.21	296.181
1385.8	413.713
1389.38	320.126
1392.96	147.372
1396.54	213.599
1400.12	194.344
1403.7	226.141
1407.28	178.996
1410.85	259.354
1414.42	266.148
1417.99	205.34
1421.56	153.468
1425.13	294.345
1428.7	220.914
1432.26	283.71
1435.83	196.314
1439.39	85.191
1442.95	145.632
1446.51	210.835
1450.06	102.812
1453.62	206.664
1457.17	253.322
1460.73	354.255
1464.28	153.005
1467.83	176.684
1471.37	153.788
1474.92	244.466
1478.46	79.023
1482.01	30.146
1485.55	130.459
1489.09	4.172
1492.63	202.729
1496.16	162.072
1499.7	31.077
