Measurement: Raman, 514 nm, ccw, Raman Data Processed
Mineral: Pyrite
Rruff sample: R050190
Ideal chemistry: FeS_2_
Locality: Huanzala mine, Huallanca District, Dos de Mayo Province, Huanuco Department, Peru
Source: Dave Bunk Minerals
Description: Brass yellow modified cubes with typical pyrite striations
Measured chemistry: Fe_1.00_S_2.00_
Pin_id: L00393
Orientation: Laser parallel to b* (0 1 0). Fiducial mark perpendicular to laser is parallel to [1 0 1]
Raman shift (cm-1)	intensity
182.114	0
186.251	179.785
190.387	266.736
194.52	283.318
198.652	566.461
202.782	552.322
206.909	923.305
211.035	245.131
215.159	72.621
219.281	185.508
223.4	180.943
227.518	156.404
231.634	288.521
235.748	283.695
239.86	107.311
243.97	195.715
248.079	279.096
252.185	243.877
256.289	268.332
260.391	82.336
264.492	199.244
268.59	39.52
272.687	24.604
276.781	40.523
280.874	61.922
284.964	39.348
289.053	125.348
293.14	115.781
297.225	7.504
301.308	30.109
305.389	28.701
309.468	37.09
313.545	37.398
317.62	122.807
321.693	355.666
325.765	396.033
329.834	651.854
333.902	1953.88
337.967	5835.8
342.031	10103.7
346.093	8934.23
350.153	5075.88
354.21	2842.96
358.267	2024.59
362.321	2017.44
366.373	2792.36
370.423	5933.48
374.471	17179.7
378.518	30363.4
382.563	27575.5
386.605	14600.1
390.646	6682.61
394.685	3420.37
398.722	2067.28
402.757	1301.62
406.79	1052.87
410.821	904.912
414.851	878.641
418.878	955.705
422.904	1263.81
426.927	2030.79
430.949	2304.02
434.969	2242.45
438.987	1795.16
443.003	1290.71
447.018	769.504
451.03	729.102
455.041	490.174
459.049	377.975
463.056	266.029
467.061	76.199
471.064	290.904
475.065	62.389
479.064	41.314
483.062	55.238
487.057	156.092
491.051	181.184
495.043	121.986
499.032	187.854
503.02	149.203
507.007	124.209
510.991	255.783
514.973	166.443
518.954	84.908
522.933	230.018
526.91	120.723
530.885	85.92
534.858	232.277
538.829	67.797
542.799	265.799
546.766	317.586
550.732	402.953
554.696	706.617
558.658	302.133
562.618	348.748
566.576	443.523
570.533	296.84
574.488	304.494
578.44	316.033
582.391	230.908
586.341	185.729
590.288	152.541
594.233	119.34
598.177	81.047
602.119	19.67
606.059	81.199
609.997	92.084
613.933	268.342
617.868	196.131
621.801	271.557
625.731	36.254
629.66	190.551
633.588	399.77
637.513	136.225
641.437	240.396
645.358	155.602
649.278	262.08
653.196	151.109
657.113	57.271
661.027	112.197
664.94	170.32
668.851	170.824
672.76	46.457
676.667	186.877
680.572	65.084
684.476	41.916
688.378	204.264
692.278	4.861
696.176	148.107
700.072	55.258
703.967	0.27
707.86	59.826
711.751	22.326
715.64	152.266
719.527	58.725
723.413	65.09
727.297	100.367
731.179	105.197
735.059	254.516
738.937	214.08
742.814	134.592
746.689	146.738
750.562	107.615
754.433	23.898
758.303	127.434
762.17	187.201
766.036	200.549
769.901	231.758
773.763	229.172
777.624	242.309
781.482	175.484
785.339	162.301
789.195	243.732
793.048	284.607
796.9	325.625
800.75	376.281
804.598	211.283
808.445	207.25
812.289	308.562
816.132	155.607
819.973	261.027
823.813	123.975
827.65	100.105
831.486	245.24
835.32	95.379
839.152	227.973
842.983	109.617
846.812	91.322
850.639	66.648
854.464	118.396
858.288	133.348
862.11	194.977
865.93	237.934
869.748	21.018
873.564	8.395
877.379	40.871
881.192	76.373
885.004	3.145
888.813	23.814
892.621	72.402
896.427	69.635
900.232	12.877
904.034	2.029
907.835	110.266
911.634	119.375
915.432	76.65
919.227	133.098
923.021	206.662
926.813	137.34
930.604	195.145
934.393	294.91
938.18	191.166
941.965	183.371
945.749	300.701
949.53	422.15
953.311	191.723
957.089	279.42
960.866	234.25
964.641	316.211
968.414	372.371
972.185	425.752
975.955	427.271
979.723	402.975
983.49	208.861
987.254	400.875
991.017	534.033
994.779	559.357
998.538	674.375
1002.3	682.605
1006.05	558.525
1009.81	711.66
1013.56	777.916
1017.31	766.479
1021.06	889.871
1024.81	605.074
1028.55	676.598
1032.3	769.615
1036.04	770.113
1039.78	745.279
1043.52	950.025
1047.26	756.818
1050.99	719.098
1054.73	817.051
1058.46	642.842
1062.19	884.457
1065.92	697.9
1069.65	667.516
1073.37	640.883
1077.1	601.961
1080.82	635.898
1084.54	757.287
1088.26	511.037
1091.97	551.199
1095.69	596.945
1099.4	564.842
1103.12	580.24
1106.83	535.732
1110.54	425.715
1114.24	468.016
1117.95	148.992
1121.65	380.324
1125.35	165.889
1129.06	31.092
1132.75	272.525
1136.45	219.836
1140.15	81.271
1143.84	95.135
1147.53	154.201
1151.22	87.1
1154.91	27.16
1158.6	40.488
1162.28	99.742
1165.97	66.928
1169.65	140.17
1173.33	89.732
1177.01	91.445
1180.69	64.654
1184.36	175.738
1188.04	194.469
1191.71	51.887
1195.38	146.021
1199.05	55.734
1202.71	22.375
1206.38	130.605
1210.04	68.668
1213.71	108.854
1217.37	278.836
1221.03	296.504
1224.68	295.49
1228.34	239.451
1231.99	157.494
1235.65	310.152
1239.3	198.129
1242.95	254.865
1246.59	189.383
1250.24	179.633
1253.88	105.547
1257.53	240.6
1261.17	148.639
1264.81	127.734
1268.45	195.074
1272.08	159.992
1275.72	194.24
1279.35	168.338
1282.98	184.402
1286.61	129.709
1290.24	34.529
1293.87	112.789
1297.49	199.533
1301.11	146.768
1304.73	155.398
1308.36	109.557
1311.97	43.213
1315.59	34.865
1319.2	27.209
1322.82	42.965
1326.43	71.033
1330.04	37.961
1333.65	187.543
1337.26	54.965
1340.86	107.668
1344.47	151.686
1348.07	176.66
1351.67	94.67
1355.27	114.408
1358.87	4.895
1362.46	133.248
1366.06	150.99
1369.65	460.5
1373.24	249.109
1376.83	387.756
1380.42	388.787
1384	556.904
1387.59	546.949
1391.17	524.232
1394.75	775.541
1398.33	254.021
1401.91	450.486
1405.49	405.508
1409.06	503.123
1412.64	331.461
1416.21	309.225
1419.78	183.525
1423.35	281.004
1426.91	373.941
1430.48	203.34
1434.05	789.646
1437.61	390.359
1441.17	340.088
1444.73	367.084
1448.29	374.609
1451.84	309.703
1455.4	279.814
1458.95	296.809
1462.5	231.033
1466.05	224.941
1469.6	243.621
1473.15	169.668
1476.69	62.459
1480.24	144.027
1483.78	58.326
1487.32	12.049
1490.86	0.559
1494.39	0
