Measurement: Raman, 514 nm, ccw, Raman Data Processed
Mineral: Pyrite
Rruff sample: R050190
Ideal chemistry: FeS_2_
Locality: Huanzala mine, Huallanca District, Dos de Mayo Province, Huanuco Department, Peru
Source: Dave Bunk Minerals
Description: Brass yellow modified cubes with typical pyrite striations
Measured chemistry: Fe_1.00_S_2.00_
Pin_id: L00393
Orientation: Laser parallel to b* (0 1 0). Fiducial mark perpendicular to laser is parallel to [1 0 1]
Raman shift (cm-1)	intensity
176.594	0
180.734	128.602
184.872	322.504
189.008	147.83
193.143	519.908
197.275	742.945
201.405	1031.67
205.534	1105.6
209.66	763.322
213.784	124.9
217.907	396.764
222.027	345.365
226.146	400.256
230.263	151.158
234.377	287.201
238.49	468.381
242.601	477.822
246.709	402.279
250.816	592.055
254.921	180.332
259.024	295.6
263.125	154.65
267.224	229.396
271.321	72.225
275.416	27.812
279.51	50.477
283.601	7.957
287.69	132.076
291.778	38.16
295.863	11.508
299.947	126.74
304.029	291.465
308.108	11.453
312.186	207.426
316.262	219.885
320.336	389.846
324.408	345.559
328.478	680.463
332.546	1591.44
336.612	5481.14
340.677	12357.8
344.739	17082.5
348.799	14186.3
352.858	8320.98
356.915	4574.35
360.969	2759
365.022	2596.71
369.073	3950.97
373.122	10905.5
377.169	23258.1
381.215	27475.3
385.258	18629.7
389.299	9547.37
393.339	5188.28
397.376	2364.03
401.412	1687.88
405.446	992.242
409.478	694.309
413.508	640.867
417.536	667.363
421.562	658.146
425.586	1206.46
429.609	1463.1
433.629	1257.1
437.648	810.84
441.665	847.582
445.68	536.787
449.693	366.512
453.704	137.744
457.713	242.547
461.721	207.889
465.726	183.312
469.73	87.74
473.731	15.639
477.731	51.973
481.729	22.566
485.725	156.076
489.72	195.984
493.712	228.838
497.703	146.393
501.691	249.383
505.678	79.369
509.663	279.932
513.646	151.096
517.627	130.389
521.607	276.986
525.584	454.146
529.56	288.695
533.534	247.238
537.506	320.27
541.476	275.105
545.444	435.215
549.41	361.652
553.375	451.533
557.337	507.588
561.298	408.086
565.257	492.906
569.214	472.777
573.17	420.309
577.123	348.662
581.075	225.828
585.024	336.855
588.972	177.727
592.918	281.463
596.863	114.238
600.805	159.016
604.746	186.664
608.685	97.791
612.621	186.127
616.557	233.678
620.49	247.418
624.421	254.465
628.351	150.314
632.279	139.02
636.205	296.246
640.129	219.562
644.051	67.09
647.972	200.072
651.89	77.646
655.807	218.232
659.722	279.572
663.636	163.965
667.547	10.023
671.457	13.449
675.365	69.662
679.271	24.5
683.175	5.445
687.077	57.561
690.978	39.809
694.877	35.422
698.774	147.555
702.669	42.26
706.562	130.582
710.454	22.549
714.344	143.418
718.232	65.703
722.118	111.971
726.002	27.344
729.885	111.516
733.766	56.213
737.645	107.109
741.522	81.441
745.397	91.168
749.271	250.811
753.143	230.143
757.013	247.105
760.881	185.492
764.748	99.527
768.613	138.98
772.476	116.576
776.337	254.055
780.196	162.076
784.054	92.455
787.91	273.594
791.764	226.361
795.616	345.164
799.467	364.775
803.316	437.607
807.163	291.363
811.008	218.746
814.851	143.5
818.693	370.463
822.533	265.25
826.371	334.305
830.208	218.469
834.042	339.494
837.875	188.766
841.706	124.248
845.536	268.961
849.363	38.055
853.189	154.605
857.013	206.354
860.836	42.779
864.656	195.17
868.475	205.852
872.292	173.914
876.108	46.107
879.922	69.17
883.733	39.797
887.544	24.447
891.352	49
895.159	105.541
898.964	151.227
902.767	132.068
906.568	171.096
910.368	139.293
914.166	187.662
917.962	233.219
921.757	241.969
925.55	191.895
929.341	176.09
933.13	295.369
936.918	278.271
940.703	265.475
944.488	74.299
948.27	270.293
952.051	245.475
955.83	247.836
959.607	319.402
963.383	559.23
967.156	210.262
970.928	236.473
974.699	466.887
978.468	330.523
982.234	465.363
986	413.484
989.763	224.828
993.525	702.406
997.285	524.191
1001.04	339.277
1004.8	419.855
1008.55	588.316
1012.31	488.934
1016.06	676.609
1019.81	642.844
1023.56	760.66
1027.31	601.574
1031.05	626.816
1034.79	769.59
1038.53	737.547
1042.27	713.828
1046.01	653.051
1049.75	847.117
1053.48	714.348
1057.22	757.039
1060.95	716.559
1064.68	529.926
1068.4	569.391
1072.13	783.199
1075.86	792.23
1079.58	829.859
1083.3	844.898
1087.02	645.574
1090.74	642.84
1094.45	585.223
1098.17	609.379
1101.88	510.164
1105.59	674.117
1109.3	489.922
1113.01	511.68
1116.71	443.555
1120.42	441.738
1124.12	417.125
1127.82	406.555
1131.52	268.094
1135.22	235.473
1138.91	137.242
1142.61	205.969
1146.3	199.461
1149.99	105.68
1153.68	139.242
1157.37	147.617
1161.06	108.859
1164.74	95.406
1168.42	20.219
1172.1	87.957
1175.78	214.414
1179.46	183.02
1183.14	324.656
1186.81	285.75
1190.48	172.613
1194.15	179.281
1197.83	21.461
1201.49	356.082
1205.16	125.316
1208.82	213.762
1212.49	349.789
1216.15	97.625
1219.81	142.348
1223.46	259.129
1227.12	136.719
1230.78	410.359
1234.43	248.711
1238.08	304.039
1241.73	323.699
1245.38	270.164
1249.03	393.398
1252.67	207.652
1256.31	254.461
1259.95	172.699
1263.6	317.562
1267.23	194.074
1270.87	470.129
1274.51	399.434
1278.14	317.535
1281.77	336.195
1285.4	278.176
1289.03	230.496
1292.66	192.238
1296.28	288.367
1299.91	156.902
1303.53	119.355
1307.15	144.441
1310.77	221.91
1314.38	54.027
1318	34.449
1321.61	8.996
1325.23	26.008
1328.84	131.145
1332.45	130.672
1336.06	46.547
1339.66	89.488
1343.27	138.5
1346.87	253.047
1350.47	162.426
1354.07	174.984
1357.67	205.441
1361.26	163.84
1364.86	127.133
1368.45	284.926
1372.04	476.84
1375.63	206.609
1379.22	372.348
1382.81	499.25
1386.39	402.691
1389.98	565.41
1393.56	346.469
1397.14	345.57
1400.72	536.477
1404.3	506.785
1407.87	566.145
1411.45	498.121
1415.02	264.281
1418.59	476.211
1422.16	277.328
1425.73	461.031
1429.29	270.59
1432.86	328.859
1436.42	372.309
1439.98	365.746
1443.54	314.574
1447.1	333.621
1450.66	434.648
1454.21	328.492
1457.77	367.758
1461.32	396.75
1464.87	374.387
1468.42	345.719
1471.96	199.559
1475.51	224.629
1479.06	223.164
1482.6	464.055
1486.14	64.359
1489.68	77.734
1493.22	146.164
1496.75	137.027
1500.29	130.312
1503.82	106.211
1507.35	218.793
1510.88	177.531
1514.41	17.254
1517.94	48.262
