Measurement: Raman, 514 nm, ccw, Raman Data Processed
Mineral: Pyrite
Rruff sample: R050190
Ideal chemistry: FeS_2_
Locality: Huanzala mine, Huallanca District, Dos de Mayo Province, Huanuco Department, Peru
Source: Dave Bunk Minerals
Description: Brass yellow modified cubes with typical pyrite striations
Measured chemistry: Fe_1.00_S_2.00_
Pin_id: L00393
Orientation: Laser parallel to b* (0 1 0). Fiducial mark perpendicular to laser is parallel to [1 0 1]
Raman shift (cm-1)	intensity
177.974	0
182.114	5.793
186.251	270.613
190.387	402.652
194.52	549.016
198.652	698.27
202.782	791.26
206.909	1019.84
211.035	340.529
215.159	227.922
219.281	363.512
223.4	222.666
227.518	256.578
231.634	49.373
235.748	375.104
239.86	397.656
243.97	454.213
248.079	491.709
252.185	374.213
256.289	334.871
260.391	175.391
264.492	137.195
268.59	69.293
272.687	62.883
276.781	54.256
280.874	61.777
284.964	67.887
289.053	74.168
293.14	33.43
297.225	166.816
301.308	64.99
305.389	156.883
309.468	29.592
313.545	3.535
317.62	100.541
321.693	171.117
325.765	309.457
329.834	538.826
333.902	1583.64
337.967	4780.24
342.031	8458.52
346.093	8336.77
350.153	5553.07
354.21	3203.67
358.267	2177.71
362.321	2027.5
366.373	2391.02
370.423	4883.49
374.471	13670.9
378.518	23459.9
382.563	22731.4
386.605	15976.8
390.646	7877.84
394.685	3982.52
398.722	1863.62
402.757	1178.34
406.79	1005.15
410.821	563.783
414.851	867.053
418.878	638.473
422.904	976.527
426.927	1471.09
430.949	1895.9
434.969	1992.81
438.987	1809.72
443.003	1401.54
447.018	1260.28
451.03	812.105
455.041	468.994
459.049	408.941
463.056	361.26
467.061	181.766
471.064	679.189
475.065	379.199
479.064	118.629
483.062	30.729
487.057	180.207
491.051	35.941
495.043	262.881
499.032	162.262
503.02	107.211
507.007	201.898
510.991	262.027
514.973	294.498
518.954	267.047
522.933	326.41
526.91	365.801
530.885	268.592
534.858	278.781
538.829	244.354
542.799	223.498
546.766	433.098
550.732	284.51
554.696	200.646
558.658	440.908
562.618	490.08
566.576	408.318
570.533	507.361
574.488	376.254
578.44	445.684
582.391	298.287
586.341	179.824
590.288	212.264
594.233	112.619
598.177	317.027
602.119	222.404
606.059	20.748
609.997	16.107
613.933	313.285
617.868	153.639
621.801	183.502
625.731	138.646
629.66	236.182
633.588	321.299
637.513	242.277
641.437	168.346
645.358	156.025
649.278	99.006
653.196	171.662
657.113	253.119
661.027	139.92
664.94	94.506
668.851	87.584
672.76	100.76
676.667	7.225
680.572	78.6
684.476	12.047
688.378	132.896
692.278	14.508
696.176	59.225
700.072	54.514
703.967	156.564
707.86	63.641
711.751	46.137
715.64	86.908
719.527	136.635
723.413	15.338
727.297	74.268
731.179	182.484
735.059	63.752
738.937	69.219
742.814	80.771
746.689	313.334
750.562	324.926
754.433	359.986
758.303	215.723
762.17	134.566
766.036	299.543
769.901	243.322
773.763	197.77
777.624	106.877
781.482	276.586
785.339	178.113
789.195	333.092
793.048	122.254
796.9	241.691
800.75	196.041
804.598	251.059
808.445	247.406
812.289	341.809
816.132	283.254
819.973	425.432
823.813	135.529
827.65	103.863
831.486	131.164
835.32	161.254
839.152	68.002
842.983	152.838
846.812	131.016
850.639	28.855
854.464	29.293
858.288	27.613
862.11	22.326
865.93	153.836
869.748	145.637
873.564	47.619
877.379	80.746
881.192	107.258
885.004	68.713
888.813	114.906
892.621	187.691
896.427	56.547
900.232	337.549
904.034	114.289
907.835	251.932
911.634	328.307
915.432	116.842
919.227	67.553
923.021	306.432
926.813	181.48
930.604	414.693
934.393	442.092
938.18	380.656
941.965	388.396
945.749	193.307
949.53	170.393
953.311	240.664
957.089	228.125
960.866	247.775
964.641	416.609
968.414	509.629
972.185	431.865
975.955	366.303
979.723	492.967
983.49	376.08
987.254	274.5
991.017	624.223
994.779	494.16
998.538	408.723
1002.3	434.062
1006.05	487.293
1009.81	578.592
1013.56	535.346
1017.31	914.592
1021.06	595.555
1024.81	685.014
1028.55	604.352
1032.3	597.783
1036.04	789.578
1039.78	643.74
1043.52	713.5
1047.26	688.066
1050.99	624.814
1054.73	688.865
1058.46	764.912
1062.19	567.863
1065.92	521.334
1069.65	793.295
1073.37	622.953
1077.1	718.582
1080.82	782.268
1084.54	873.062
1088.26	694.475
1091.97	674.611
1095.69	426.85
1099.4	482.531
1103.12	523.43
1106.83	522.441
1110.54	664.271
1114.24	666.156
1117.95	511.965
1121.65	508.547
1125.35	239.693
1129.06	255.197
1132.75	247.004
1136.45	316.408
1140.15	159.266
1143.84	97.33
1147.53	154.707
1151.22	276.316
1154.91	130.051
1158.6	73.766
1162.28	312.014
1165.97	385.412
1169.65	162.191
1173.33	25.59
1177.01	219.572
1180.69	392.125
1184.36	266.283
1188.04	368.129
1191.71	311.537
1195.38	64.816
1199.05	242.734
1202.71	293.727
1206.38	164.246
1210.04	213.08
1213.71	238.67
1217.37	222.986
1221.03	297.635
1224.68	260.574
1228.34	284.531
1231.99	248.268
1235.65	411.047
1239.3	216.783
1242.95	155.27
1246.59	226.426
1250.24	147.328
1253.88	331.934
1257.53	365.328
1261.17	337.438
1264.81	175.16
1268.45	166.5
1272.08	265.436
1275.72	371.248
1279.35	324.734
1282.98	301.258
1286.61	252.953
1290.24	145.852
1293.87	183.402
1297.49	140.695
1301.11	137.023
1304.73	126.305
1308.36	49.949
1311.97	195.512
1315.59	20.785
1319.2	0.77
1322.82	33.234
1326.43	64.246
1330.04	63.535
1333.65	31.742
1337.26	162.406
1340.86	251.887
1344.47	185.859
1348.07	260.367
1351.67	231.484
1355.27	142.605
1358.87	173.836
1362.46	207.109
1366.06	178.945
1369.65	246.52
1373.24	446.879
1376.83	367.164
1380.42	374.641
1384	406.965
1387.59	593.113
1391.17	415.855
1394.75	502.594
1398.33	542.344
1401.91	493.547
1405.49	581.676
1409.06	573.672
1412.64	628.566
1416.21	801.32
1419.78	684.477
1423.35	560.375
1426.91	389.531
1430.48	331.934
1434.05	380.617
1437.61	144.828
1441.17	289.863
1444.73	287.102
1448.29	311.242
1451.84	328.492
1455.4	298.109
1458.95	343.285
1462.5	276.441
1466.05	540.477
1469.6	291.332
1473.15	306.328
1476.69	11.355
1480.24	128.926
1483.78	253.355
1487.32	529.047
1490.86	165.832
1494.39	117.332
1497.93	227.016
1501.46	188.723
1505	68.008
1508.53	122.266
1512.06	102.461
1515.59	144.559
1519.11	12.164
