Measurement: Raman, 514 nm, ccw, Raman Data Processed
Mineral: Pyromorphite
Rruff sample: R050015
Ideal chemistry: Pb_5_(PO_4_)_3_Cl
Locality: Bunker Hill mine, Shoshone County, Idaho, USA
Source: Eugene Schlepp
Description: Yellowish green prismatic hexagonal single crystals
Measured chemistry: Pb_5.00_((P_0.88_As_0.12_)O_4_)_3_Cl_1.00_
Pin_id: L00424
Orientation: Laser parallel to -c* (0 0 -1). Fiducial mark perpendicular to laser is parallel to -b [0 -1 0]
Raman shift (cm-1)	intensity
98.251	0
102.428	2312.97
106.604	13052.3
110.777	11746.9
114.949	4658.96
119.119	2189.21
123.286	709.428
127.452	83.835
131.615	38.113
135.777	109.1
139.937	245.907
144.094	749.519
148.25	1792.49
152.403	2840.7
156.555	3414.93
160.705	3399.76
164.853	3197.23
168.998	2704.38
173.142	2265.6
177.284	2389.8
181.424	2584.13
185.562	2377.45
189.698	2209.93
193.831	2167.4
197.963	2029.49
202.093	1771.6
206.221	1630
210.347	1630.89
214.472	1338.73
218.594	1104.88
222.714	825.751
226.832	676.994
230.948	425.011
235.063	265.058
239.175	195.64
243.286	218.28
247.394	77.866
251.501	24.119
255.605	0.745
259.708	17.571
263.808	95.052
267.907	105.324
272.004	61.491
276.099	56.845
280.192	92.066
284.283	24.148
288.372	33.823
292.459	95.157
296.544	112.729
300.627	196.988
304.709	200.008
308.788	359.036
312.865	518.431
316.941	692.777
321.015	902.288
325.086	1018.15
329.156	988.483
333.224	1146.76
337.29	1133.29
341.354	1228.29
345.416	1344.5
349.476	1320.26
353.534	1190.52
357.591	1049.82
361.645	1020.66
365.698	1092.89
369.748	1211.61
373.797	1411.48
377.844	1716.91
381.889	1929.77
385.932	2199.57
389.973	2846.65
394.012	3300.54
398.049	2764.11
402.084	2314
406.118	2367.7
410.15	3030.13
414.179	4093.88
418.207	4683.02
422.233	3504.67
426.257	2360.11
430.279	1769.2
434.299	1469.36
438.318	1297.81
442.334	979.237
446.349	744.466
450.361	701.987
454.372	637.57
458.381	554.453
462.388	530.51
466.394	512.812
470.397	512.064
474.398	422.417
478.398	429.338
482.396	431.467
486.391	381.917
490.385	399.92
494.377	378.463
498.368	438.84
502.356	381.179
506.342	430.127
510.327	430.244
514.31	390.397
518.291	399.049
522.27	431.525
526.247	410.46
530.222	461.958
534.196	438.348
538.167	593.954
542.137	881.903
546.105	1068.63
550.071	878.406
554.035	1113.74
557.998	1042.85
561.958	781.582
565.917	730.999
569.874	994.932
573.829	1875.8
577.782	1805.85
581.733	851.576
585.683	559.479
589.63	498.644
593.576	447.499
597.52	465.372
601.462	382.256
605.402	399.926
609.341	382.339
613.277	349.029
617.212	277.711
621.145	356.181
625.076	294.401
629.006	247.538
632.933	232.277
636.859	201.088
640.783	233.104
644.705	154.202
648.625	146.983
652.543	86.547
656.46	89.895
660.375	45.78
664.288	45.746
668.199	110.769
672.108	30.138
676.016	70.859
679.921	41.223
683.825	48.663
687.727	68.576
691.628	64.615
695.526	135.241
699.423	87.558
703.318	34.432
707.211	18.781
711.102	17.556
714.992	36.705
718.879	51.201
722.765	18.964
726.649	49.996
730.532	30.784
734.412	76.544
738.291	12.93
742.168	96.32
746.043	29.632
749.916	35.716
753.788	139.862
757.658	138.764
761.526	284.949
765.392	454.016
769.257	593.998
773.119	902.633
776.98	1399.66
780.839	2188.41
784.697	3022.61
788.552	3387.29
792.406	2822.17
796.258	2342.67
800.108	2406.17
803.957	2764.63
807.804	3714.4
811.649	7057.83
815.492	17024.3
819.333	30908.9
823.173	18874.1
827.011	8839.94
830.847	4965.83
834.681	2745.93
838.514	1945.46
842.345	1581.92
846.174	1609.78
850.001	2027.36
853.827	2114.62
857.651	1071.77
861.473	454.304
865.293	340.214
869.112	230.129
872.928	252.549
876.744	294.508
880.557	157.287
884.369	347.485
888.178	337.771
891.987	598.916
895.793	861.401
899.598	1166.2
903.401	1821.84
907.202	3154.07
911.001	6532.92
914.799	16992.4
918.595	43892.5
922.389	42603.1
926.182	19254.2
929.972	8585.92
933.761	5808.21
937.549	6131.11
941.334	8394.6
945.118	10558.7
948.9	10033.3
952.681	7088.6
956.459	4494.45
960.236	3330.91
964.012	2207.95
967.785	1777.62
971.557	1389.93
975.327	1402.87
979.095	1374.43
982.862	1424.69
986.627	1577.75
990.39	1465.52
994.152	1668.03
997.912	1865.32
1001.67	2455.39
1005.43	3150.28
1009.18	3685.92
1012.93	3832.28
1016.68	3120.4
1020.43	2371.15
1024.18	1894.17
1027.93	1440.35
1031.67	1097.38
1035.42	958
1039.16	823.708
1042.9	632.816
1046.63	612.516
1050.37	525.882
1054.11	417.852
1057.84	309.469
1061.57	450.455
1065.3	415.195
1069.03	482.132
1072.75	399.407
1076.47	383.763
1080.2	449.184
1083.92	516.024
1087.64	555.404
1091.36	462.741
1095.07	425.353
1098.79	325.792
1102.5	285.207
1106.21	334.566
1109.92	273.81
1113.62	205.305
1117.33	239.882
1121.04	131.387
1124.74	150.739
1128.44	135.984
1132.14	144.389
1135.83	105.399
1139.53	227.225
1143.22	299.145
1146.92	297.5
1150.61	327.776
1154.3	223.43
1157.98	148.384
1161.67	7.504
1165.35	12.869
1169.04	1.998
1172.72	52.114
1176.4	5.89
1180.07	36.61
1183.75	108.585
1187.42	91.798
1191.1	93.047
1194.77	73.509
1198.44	18.741
1202.1	35.385
1205.77	19.816
1209.43	24.985
1213.1	1.602
1216.76	31.447
1220.42	88.397
1224.07	41.575
1227.73	123.422
1231.38	192.032
1235.04	147.55
1238.69	110.319
1242.34	35.175
1245.99	48.617
1249.63	179.482
1253.28	13.014
1256.92	112.724
1260.56	56.987
1264.2	86.826
1267.84	158.578
1271.48	190.03
1275.11	26.537
1278.74	37.028
1282.38	107.646
1286.01	106.957
1289.63	57.332
1293.26	145.548
1296.89	68.428
1300.51	88.013
1304.13	175.306
1307.75	122.306
1311.37	79.009
1314.99	93.748
1318.6	145.406
1322.22	167.82
1325.83	184.034
1329.44	163.377
1333.05	139.326
1336.66	126.009
1340.26	52.231
1343.87	53.681
1347.47	106.215
1351.07	133.773
1354.67	235.01
1358.27	76.461
1361.86	195.906
1365.46	140.259
1369.05	111.639
1372.64	134.833
1376.23	14.036
1379.82	114.351
1383.41	115.479
1386.99	67.514
1390.57	172.239
1394.16	195.842
1397.74	178.883
1401.32	271.759
1404.89	262.572
1408.47	234.519
1412.04	65.91
1415.61	92.662
1419.18	98.035
1422.75	53.57
1426.32	76.919
1429.89	103.825
1433.45	73.248
1437.01	246.382
1440.58	218.019
1444.13	93.378
1447.69	90.105
1451.25	168.378
1454.81	112.02
1458.36	34.912
1461.91	124.277
1465.46	134.864
1469.01	168.169
1472.56	279.542
1476.1	236.581
1479.64	164.233
1483.19	217.938
1486.73	221.847
1490.27	68.746
1493.81	151.917
1497.34	144.563
1500.88	104.271
1504.41	21.205
1507.94	27.304
1511.47	131.164
1515	93.053
1518.53	194.066
