Measurement: Raman, 514 nm, ccw, Raman Data Processed
Mineral: Pyromorphite
Rruff sample: R050015
Ideal chemistry: Pb_5_(PO_4_)_3_Cl
Locality: Bunker Hill mine, Shoshone County, Idaho, USA
Source: Eugene Schlepp
Description: Yellowish green prismatic hexagonal single crystals
Measured chemistry: Pb_5.00_((P_0.88_As_0.12_)O_4_)_3_Cl_1.00_
Pin_id: M00344
Orientation: Laser parallel to -a* (-1 0 0). Fiducial mark perpendicular to laser is parallel to -c [0 0 -1]
Raman shift (cm-1)	intensity
81.463	0
85.664	418.489
89.863	1742.95
94.059	1760.55
98.254	3104.67
102.446	9320.93
106.637	11778.7
110.825	6629.83
115.011	3890.96
119.195	2401.2
123.377	1789.77
127.556	1217.05
131.734	1013.49
135.909	1302.67
140.083	1767.52
144.254	2111.18
148.423	2753.61
152.59	3306.67
156.755	3210.96
160.918	2754.7
165.078	2520.07
169.237	2364.67
173.393	2114.72
177.548	2067.61
181.7	2298.85
185.85	2107.06
189.998	1901.49
194.144	1851.87
198.288	1831.32
202.429	1522.24
206.569	1285.85
210.707	1200.82
214.842	995.417
218.976	680.976
223.107	453.338
227.236	417.362
231.363	176.226
235.488	7.507
239.611	12.148
243.732	34.027
247.851	134.144
251.967	173.824
256.082	113.797
260.195	136.687
264.305	159.491
268.414	193.383
272.52	121.13
276.624	81.275
280.726	143.148
284.827	121.691
288.925	47.35
293.021	22.862
297.115	0.189
301.207	143.997
305.296	251.179
309.384	411.859
313.47	500.636
317.554	724.907
321.635	875.34
325.715	936.327
329.792	941.707
333.868	1102.83
337.941	1295.76
342.013	1452.1
346.082	1529.4
350.15	1346.25
354.215	1145.14
358.278	1059.74
362.339	946.105
366.399	1183.26
370.456	1568.03
374.511	1854.14
378.564	1829.74
382.615	2036.87
386.664	2503.88
390.711	2852.95
394.756	2489.68
398.799	2113.34
402.84	2057.74
406.879	2541.64
410.916	3204.81
414.951	4230.34
418.983	3514.4
423.014	2454.91
427.043	1826.3
431.07	1547.88
435.095	1428.36
439.118	1137.04
443.138	855.358
447.157	595.503
451.174	555.652
455.189	485.801
459.202	421.581
463.212	358.956
467.221	378.408
471.228	388.753
475.233	329.28
479.236	303.465
483.237	286.01
487.235	353.562
491.232	347.977
495.227	271.708
499.22	397.291
503.211	339.418
507.2	349.435
511.187	285.896
515.172	362.409
519.155	346.955
523.136	399.184
527.115	378.897
531.092	450.665
535.067	528.537
539.04	790.303
543.011	944.534
546.98	802.103
550.947	890.727
554.913	965.683
558.876	765.627
562.837	692.555
566.797	754.937
570.754	1214.66
574.709	1495.03
578.663	963.074
582.614	487.892
586.564	425.54
590.511	385.103
594.457	380.625
598.401	295.139
602.343	280.429
606.282	253.669
610.22	259.851
614.156	254.45
618.09	228.251
622.022	203.698
625.952	192.659
629.88	216.385
633.807	147.122
637.731	168.049
641.653	8.456
645.574	37.543
649.492	72.788
653.409	10.233
657.323	4.305
661.236	25.352
665.147	5.019
669.056	3.582
672.963	61.397
676.868	101.993
680.771	86.21
684.672	115.256
688.571	41.09
692.468	47.71
696.364	89.161
700.257	76.996
704.149	73.206
708.038	30.739
711.926	91.501
715.812	57.625
719.696	17.67
723.578	108.66
727.458	185.611
731.336	190.545
735.213	119.478
739.087	138.421
742.96	212.297
746.83	379.619
750.699	530.067
754.566	485.187
758.431	577.501
762.294	747.982
766.155	1200.43
770.014	1714.69
773.872	2544.04
777.727	3351.68
781.581	4048.55
785.433	4694.85
789.282	5090.71
793.13	5293.15
796.977	5302.64
800.821	5475.23
804.663	6408.48
808.504	9816.07
812.342	19208.2
816.179	32893.6
820.014	25155.1
823.847	15504.5
827.678	11926.2
831.507	8565.37
835.334	6946.13
839.16	5835.78
842.983	5517.75
846.805	7364.23
850.625	8830.36
854.443	6180.78
858.259	2644.87
862.074	1213.27
865.886	669.914
869.697	572.438
873.506	662.97
877.313	662.186
881.118	565.37
884.921	470.319
888.722	453.024
892.522	688.434
896.319	988.562
900.115	1485.39
903.909	2527.91
907.701	4576.14
911.492	9787.07
915.28	24708.6
919.067	34810.8
922.852	20743.6
926.635	9587.07
930.416	5221.12
934.195	4445.79
937.973	5341.09
941.748	6987.05
945.522	7253.64
949.294	5590.89
953.064	3558.8
956.832	2261.36
960.599	1570.62
964.364	1316.8
968.127	1313.85
971.888	1151.21
975.647	1107.29
979.404	1016.14
983.16	926.902
986.914	1189.46
990.666	1271.95
994.416	1481.08
998.164	1662.98
1001.91	1983.63
1005.65	2189.02
1009.4	2259.06
1013.14	2205.37
1016.88	1723.5
1020.62	1383.4
1024.35	1049.6
1028.09	812.084
1031.82	666.558
1035.55	507.14
1039.28	584.3
1043	667.566
1046.73	624.622
1050.45	401.135
1054.17	295.822
1057.89	241.525
1061.61	231.152
1065.33	323.504
1069.04	353.31
1072.75	349.381
1076.46	317.303
1080.17	219.15
1083.88	232.509
1087.59	324.759
1091.29	216.969
1094.99	318.155
1098.69	186.754
1102.39	98.391
1106.09	97.484
1109.78	21.532
1113.47	101.116
1117.16	18.629
1120.85	113.251
1124.54	84.261
1128.23	5.486
1131.91	9.294
1135.59	16.138
1139.27	94.792
1142.95	214.188
1146.63	203.274
1150.3	189.692
1153.98	138.541
1157.65	17.512
1161.32	103.536
1164.99	56.285
1168.65	109.363
1172.32	100.455
1175.98	34.537
1179.64	10.589
1183.3	40.397
1186.96	21.662
1190.62	67.413
1194.27	93.676
1197.92	73.162
1201.57	81.842
1205.22	72.096
1208.87	86.808
1212.51	93.899
1216.16	137.18
1219.8	73.299
1223.44	109.933
1227.08	86.938
1230.72	168.214
1234.35	160.041
1237.98	159.256
1241.62	225.006
1245.25	155.878
1248.87	182.992
1252.5	185.831
1256.12	200.623
1259.75	163.364
1263.37	190.133
1266.99	127.443
1270.61	176.932
1274.22	178.854
1277.84	213.497
1281.45	125.73
1285.06	119.692
1288.67	118.465
1292.28	138.24
1295.88	178.815
1299.49	160.325
1303.09	195.323
1306.69	247.765
1310.29	180.632
1313.89	143.156
1317.48	134.875
1321.08	104.512
1324.67	41.766
1328.26	51.893
1331.85	127.011
1335.44	128.841
1339.02	163.709
1342.61	166.538
1346.19	77.592
1349.77	102.548
1353.35	150.412
1356.92	115.965
1360.5	106.244
1364.07	87.739
1367.64	79.473
1371.21	136.724
1374.78	153.024
1378.35	184.158
1381.91	196.531
1385.48	119.909
1389.04	46.134
1392.6	157.895
1396.16	138.761
1399.71	160.407
1403.27	131.145
1406.82	168.727
1410.38	142.84
1413.92	134.89
1417.47	109
1421.02	103.095
1424.57	79.541
1428.11	16.961
1431.65	136.438
1435.19	7.802
1438.73	87.207
1442.27	175.405
1445.8	84.225
1449.33	144.189
1452.87	141.731
1456.4	109.498
1459.92	184.438
1463.45	96.425
1466.98	92.602
1470.5	203.065
1474.02	169.209
1477.54	136.354
1481.06	100.001
1484.58	252.496
1488.09	237.208
1491.61	191.223
1495.12	165.434
1498.63	122.687
1502.14	72.852
1505.64	7.482
1509.15	5.921
1512.65	23.672
1516.15	0.264
