Measurement: Raman, 514 nm, ccw, Raman Data Processed
Mineral: Pyromorphite
Rruff sample: R050085
Ideal chemistry: Pb_5_(PO_4_)_3_Cl
Locality: Bunker Hill mine, Shoshone County, Idaho, USA
Source: Eugene Schlepp
Description: Group of orange hexagonal prisms
Measured chemistry: Pb_5.00_(P_0.96_As_0.04_O_4_)_3_Cl_1.00_
Pin_id: L00459
Orientation: Laser parallel to a* (1 0 0). Fiducial mark perpendicular to laser is parallel to c [0 0 1]
Raman shift (cm-1)	intensity
51.274	0
55.47	221.03
59.664	285.256
63.855	5.274
68.045	11.744
72.233	1587.78
76.418	4535.77
80.602	8752.05
84.784	16663.7
88.964	27150.1
93.142	23406.4
97.318	17479.1
101.492	21416.1
105.664	30036.3
109.834	24790.2
114.002	15745
118.168	10965.2
122.332	8376.47
126.495	7274.9
130.655	7010.78
134.813	6984.46
138.97	7436.11
143.124	8215.93
147.277	8974.49
151.427	9482.48
155.576	10030.1
159.723	10177.6
163.867	10172.5
168.01	10749.3
172.151	11920.3
176.29	13115.7
180.427	13139.5
184.562	12559
188.696	11567.1
192.827	9611.6
196.956	7836.44
201.084	6099.22
205.209	4966.06
209.333	4134.31
213.454	3481.93
217.574	3151.86
221.692	2670.17
225.808	2251.96
229.922	1878.34
234.034	1552.49
238.144	1320.48
242.252	1141.62
246.359	988.606
250.463	862.177
254.566	673.097
258.666	577.182
262.765	447.305
266.862	323.377
270.957	169.322
275.05	101.054
279.141	2.416
283.23	44.889
287.317	97.176
291.403	135.904
295.486	211.768
299.568	206.521
303.647	218.05
307.725	216.444
311.801	94.112
315.875	75.562
319.947	301.805
324.018	517.646
328.086	541.098
332.153	453.921
336.217	458.737
340.28	769.974
344.341	1082.87
348.4	1030.74
352.457	721.174
356.512	538.1
360.566	525.515
364.617	558.227
368.667	800.405
372.715	1154.3
376.761	1723.37
380.805	2795.88
384.847	5084.06
388.887	9506.9
392.926	12324.4
396.962	8901.66
400.997	6389.51
405.03	7805.93
409.061	9790.84
413.09	7870.18
417.117	5536.9
421.143	3704.92
425.166	2315.16
429.188	1607.51
433.208	1202.68
437.226	972.882
441.242	802.479
445.256	653.272
449.269	546.116
453.28	551.688
457.288	435.694
461.295	342.419
465.3	255.071
469.304	173.371
473.305	74.493
477.305	32.348
481.303	46.81
485.298	48.805
489.293	33.822
493.285	56.168
497.275	72.089
501.264	85.481
505.251	109.887
509.236	165.417
513.219	181.77
517.2	199.517
521.18	211.027
525.157	256.034
529.133	314.338
533.107	435.282
537.079	591.503
541.05	943.557
545.018	1121.86
548.985	1513.09
552.95	2025.36
556.913	1456.44
560.875	927.578
564.834	794.287
568.792	1050.29
572.748	1807.97
576.702	1781.91
580.654	1068.7
584.605	721.676
588.553	568.5
592.5	522.264
596.445	511.971
600.389	492.2
604.33	520.014
608.27	505.196
612.208	498.953
616.144	501.86
620.078	437.84
624.011	397.068
627.941	390.808
631.87	320.289
635.798	319.684
639.723	243.107
643.647	216.427
647.568	187.508
651.488	130.188
655.407	99.566
659.323	84.636
663.238	44.042
667.151	53.167
671.062	29.929
674.971	2.873
678.879	16.017
682.785	5.374
686.689	1.623
690.591	27.062
694.491	36.47
698.39	21.799
702.287	46.03
706.182	93.18
710.076	110.292
713.968	104.347
717.857	77.355
721.746	72.269
725.632	55.963
729.517	83.367
733.4	51.393
737.281	11.145
741.16	48.649
745.038	82.823
748.913	60.431
752.788	19.442
756.66	28.144
760.531	68.798
764.399	122.387
768.267	253.879
772.132	344.265
775.996	551.611
779.857	808.782
783.718	1173.93
787.576	1582.54
791.433	1779.83
795.288	1840.96
799.141	1986.84
802.992	1993.49
806.842	1895.51
810.69	2672.88
814.536	5647.91
818.381	11261.3
822.223	8214.81
826.065	5517.54
829.904	3762.53
833.741	2949.79
837.577	3210.06
841.412	3358.3
845.244	3617.22
849.075	5463.66
852.904	5819.41
856.731	2784.13
860.556	845.137
864.38	334.695
868.202	162.592
872.023	187.479
875.842	271.174
879.658	415.982
883.474	431.442
887.287	484.741
891.099	639.248
894.909	869.935
898.718	1335.06
902.524	2464.63
906.329	4609.48
910.133	9204.96
913.934	21099.6
917.734	47355.1
921.532	44431.5
925.329	26278.9
929.124	17067.2
932.917	16476.4
936.708	21376.5
940.498	31607.6
944.286	42959.6
948.072	41792.5
951.857	29096.4
955.64	18441.2
959.421	11856.9
963.201	8123.69
966.979	6291.45
970.755	5460.22
974.529	5408.02
978.302	5199.86
982.073	4740.82
985.843	4003.91
989.611	3439.14
993.377	3111.47
997.141	3112.87
1000.9	3369.37
1004.66	4067.98
1008.42	4648.68
1012.18	5341.48
1015.94	5850.4
1019.69	6423.4
1023.45	6360.51
1027.2	5630.05
1030.95	4623.68
1034.69	3835.56
1038.44	3138.48
1042.18	3030.82
1045.93	2870.8
1049.67	2412.44
1053.41	2003.35
1057.14	1735.38
1060.88	1502.72
1064.62	1270.92
1068.35	1267.78
1072.08	1362.06
1075.81	1364.27
1079.54	1255.29
1083.26	1166.11
1086.99	971.135
1090.71	933.783
1094.43	918.099
1098.15	788.298
1101.87	687.223
1105.59	600.368
1109.3	434.344
1113.01	391.725
1116.72	401.954
1120.43	524.601
1124.14	881.067
1127.85	1890.84
1131.55	1677.74
1135.26	1010.1
1138.96	737.285
1142.66	719.413
1146.36	755.846
1150.05	725.076
1153.75	572.488
1157.44	487.968
1161.13	296.368
1164.82	140.053
1168.51	58.364
1172.2	58.656
1175.88	77.038
1179.57	94.931
1183.25	74.913
1186.93	73.623
1190.61	69.078
1194.28	98.131
1197.96	50.824
1201.63	63.846
1205.31	65.462
1208.98	57.427
1212.64	23.113
1216.31	16.426
1219.98	12.936
1223.64	4.137
1227.31	21.947
1230.97	23.449
1234.62	21.745
1238.28	0.919
1241.94	52.147
1245.59	53.326
1249.25	77.853
1252.9	75.794
1256.55	55.545
1260.2	59.328
1263.84	76.533
1267.49	83.322
1271.13	113.451
1274.77	121.321
1278.41	147.078
1282.05	135.371
1285.69	142.699
1289.32	151.452
1292.96	150.72
1296.59	152.889
1300.22	199.553
1303.85	190.268
1307.48	223.114
1311.1	241.955
1314.72	271.838
1318.35	272.545
1321.97	280.842
1325.59	259.601
1329.21	257.246
1332.82	290.441
1336.44	256.935
1340.05	260.683
1343.66	247.851
1347.27	291.744
1350.88	295.017
1354.49	250.463
1358.09	250.991
1361.7	222.625
1365.3	202.98
1368.9	216.647
1372.5	207.868
1376.1	164.092
1379.69	204.932
1383.29	178.355
1386.88	156.583
1390.47	160.95
1394.06	173.772
1397.65	133.944
1401.23	145.581
1404.82	125.548
1408.4	158.379
1411.98	169.014
1415.56	119.988
1419.14	60.484
1422.72	99.961
1426.3	88.098
1429.87	81.196
1433.44	62.923
1437.01	77.367
1440.58	61.925
1444.15	82.135
1447.71	75.615
1451.28	85.802
1454.84	102.761
1458.4	93.561
1461.96	79.069
1465.52	117.178
1469.08	76.294
1472.64	60.581
1476.19	25.441
1479.74	20.543
1483.29	3.665
1486.84	7.097
1490.39	28.747
1493.94	10.866
1497.48	42.715
1501.02	34.993
1504.57	42.136
1508.11	285.59
1511.64	485.982
1515.18	225.735
1518.72	218.901
1522.25	253.57
1525.78	0
