Measurement: Raman, 514 nm, ccw, Raman Data Processed
Mineral: Pyromorphite
Rruff sample: R050027
Ideal chemistry: Pb_5_(PO_4_)_3_Cl
Locality: Yangshuo, Guangxi Autonomous Region, China
Source: Eugene Schlepp
Description: Light green hexagonal prismatic hoppered single crystals
Measured chemistry: Pb_5.00_(P_1.00_O_4_)_3_Cl_1.00_
Pin_id: M00303
Orientation: Laser parallel to -c* (0 0 -1). Fiducial mark perpendicular to laser is parallel to a [1 0 0]
Raman shift (cm-1)	intensity
49.184	0
53.401	80.492
57.617	151.503
61.83	227.065
66.041	178.855
70.25	57.322
74.456	7.769
78.661	24.073
82.863	154.837
87.064	1649.63
91.262	3471.14
95.458	2943.16
99.652	4019.37
103.843	10400.4
108.033	14179.2
112.22	9728.68
116.406	6704.73
120.589	4998.62
124.77	4252.58
128.949	3812.16
133.126	3667.31
137.301	3772.06
141.473	4156.39
145.644	4809.9
149.812	5859.2
153.979	6727.53
158.143	7012.06
162.305	6358.79
166.465	5365.73
170.623	4500.89
174.778	4016.29
178.932	3635.92
183.083	3370.84
187.233	3232.36
191.38	3132.33
195.525	3076.66
199.669	2998.87
203.81	2831.22
207.949	2789.25
212.085	2611.77
216.22	2475.07
220.353	2169.43
224.483	1833.39
228.612	1565.78
232.738	1404.47
236.863	1220.77
240.985	1068.54
245.105	991.534
249.223	874.563
253.339	818.048
257.453	726.746
261.565	668.634
265.675	578.691
269.783	517.904
273.888	488.26
277.992	381.749
282.093	303.43
286.193	258.551
290.29	193.151
294.386	126.391
298.479	103.922
302.57	62.539
306.659	15.17
310.746	13.823
314.831	6.99
318.914	27.211
322.995	23.68
327.074	17.673
331.151	21.616
335.226	4.244
339.299	12.832
343.37	1.695
347.438	2.703
351.505	11.215
355.57	28.326
359.632	40.064
363.693	12.685
367.751	2.205
371.808	28.518
375.862	67.71
379.914	80.918
383.965	178.097
388.013	352.031
392.06	515.357
396.104	524.541
400.146	473.809
404.186	692.179
408.225	1250.7
412.261	2180.34
416.295	3261.05
420.327	2868.8
424.357	1489.58
428.386	671.387
432.412	335.188
436.436	182.981
440.458	108.726
444.478	52.395
448.496	26.958
452.513	33.389
456.527	54.69
460.539	28.858
464.549	31.883
468.557	15.763
472.563	19.597
476.567	3.613
480.57	9.037
484.57	7.447
488.568	29.16
492.564	16.891
496.558	13.1
500.551	16.858
504.541	30.127
508.529	40.089
512.515	48.547
516.5	53.191
520.482	84.934
524.462	71.359
528.441	99.273
532.417	160.933
536.391	331.211
540.364	748.482
544.334	859.157
548.303	461.837
552.269	607.805
556.234	639.668
560.197	417.861
564.157	399.965
568.116	687.496
572.073	1851.12
576.027	2443.71
579.98	1159.86
583.931	584.149
587.88	379.933
591.827	297.343
595.772	280.232
599.715	248.3
603.656	262.136
607.595	243.433
611.532	221.511
615.468	217.167
619.401	184.438
623.332	197.521
627.262	150.267
631.189	142.867
635.115	134.585
639.039	159.198
642.96	65.323
646.88	107.051
650.798	105.929
654.714	80.266
658.628	74.591
662.54	57.89
666.45	50.958
670.358	39.792
674.264	20.07
678.169	35.563
682.071	4.617
685.972	17.273
689.87	18.977
693.767	16.583
697.662	9.498
701.555	34.263
705.446	1.769
709.335	19.063
713.222	20.248
717.107	34.758
720.99	33.596
724.872	29.776
728.751	47.783
732.629	44.279
736.504	64.566
740.378	31.231
744.25	42.206
748.12	37.454
751.988	22.969
755.854	29.665
759.719	7.499
763.581	44.575
767.442	93.582
771.3	105.52
775.157	110.404
779.012	155.243
782.865	202.957
786.716	237.613
790.565	310.096
794.413	361.701
798.258	396.687
802.102	343.044
805.943	220.242
809.783	129.276
813.621	131.362
817.457	252.005
821.292	271.525
825.124	328.376
828.954	289.568
832.783	108.667
836.61	54.22
840.435	58.466
844.258	92.158
848.079	228.138
851.898	350.67
855.715	175.926
859.531	58.113
863.345	55.868
867.157	81.91
870.967	131.741
874.775	193.604
878.581	257.172
882.386	472.259
886.188	598.741
889.989	902.197
893.788	1214.89
897.585	1588.4
901.38	2383.24
905.174	4116.96
908.965	7960.61
912.755	18082.5
916.543	48214.8
920.329	55247.4
924.113	26530.5
927.895	11924
931.676	7048.76
935.454	6355.97
939.231	7980.57
943.006	10881.5
946.78	11836.8
950.551	9102.5
954.32	6020.53
958.088	3768.92
961.854	2581.67
965.618	1873.78
969.38	1487.28
973.141	1426.18
976.9	1320.44
980.656	1270.1
984.411	1369.17
988.165	1428.63
991.916	1553.49
995.665	1827.75
999.413	2505.39
1003.16	3525.43
1006.9	4716.85
1010.65	5219.63
1014.39	4686.81
1018.12	3747.4
1021.86	2892.36
1025.6	2260.71
1029.33	1710.78
1033.06	1291.51
1036.79	1075.98
1040.52	1097.48
1044.25	1127.86
1047.97	1026.63
1051.69	764.518
1055.41	624.919
1059.13	662.613
1062.85	640.033
1066.57	679.679
1070.28	767.764
1073.99	781.155
1077.7	709.768
1081.41	710.177
1085.12	727.865
1088.82	711.872
1092.52	717.794
1096.22	706.093
1099.92	641.903
1103.62	558.324
1107.32	428.418
1111.01	367.273
1114.7	355.027
1118.39	325.938
1122.08	344.735
1125.77	273.155
1129.45	274.766
1133.14	253.442
1136.82	288.07
1140.5	331.537
1144.18	426.683
1147.85	517.108
1151.53	498.031
1155.2	406.688
1158.87	261.353
1162.54	179.861
1166.21	103.414
1169.88	56.846
1173.54	25.176
1177.2	26.524
1180.86	24.332
1184.52	53.303
1188.18	39.423
1191.83	48.766
1195.49	46.038
1199.14	3.752
1202.79	50.743
1206.44	69.03
1210.08	48.515
1213.73	54.453
1217.37	33.425
1221.01	52.577
1224.65	29.268
1228.29	32.094
1231.93	28.845
1235.56	7.42
1239.19	5.271
1242.83	4.797
1246.46	27.283
1250.08	8.029
1253.71	27.3
1257.33	43.698
1260.96	27.748
1264.58	42.495
1268.19	62.689
1271.81	59.382
1275.43	69.828
1279.04	105.718
1282.65	55.337
1286.27	54.666
1289.87	124.862
1293.48	93.76
1297.09	121.6
1300.69	137.169
1304.29	117.271
1307.89	100.063
1311.49	142.57
1315.09	116.948
1318.68	127.001
1322.28	125.664
1325.87	162.559
1329.46	132.407
1333.05	142.383
1336.63	111.399
1340.22	142.763
1343.8	157.161
1347.38	123.358
1350.96	88.694
1354.54	116.786
1358.12	97.022
1361.69	64.544
1365.26	67.282
1368.83	41.509
1372.4	32.709
1375.97	59.391
1379.54	22.385
1383.1	21.186
1386.66	51.653
1390.23	47.917
1393.79	14.953
1397.34	30.595
1400.9	37.903
1404.45	55.363
1408.01	28.026
1411.56	40.317
1415.11	19.46
1418.66	50.429
1422.2	27.053
1425.75	55.514
1429.29	43.506
1432.83	60.792
1436.37	60.06
1439.91	20.486
1443.44	35.762
1446.98	32.805
1450.51	42.889
1454.04	21.65
1457.57	18.248
1461.1	71.689
1464.63	69.884
1468.15	72.344
1471.67	42.365
1475.19	62.148
1478.71	84.002
1482.23	92.745
1485.75	98.703
1489.26	94.898
1492.78	116.247
1496.29	80.582
1499.8	87.62
1503.31	99.475
1506.81	30.391
1510.32	27.962
1513.82	40.335
1517.32	0
