Measurement: Raman, 514 nm, ccw, Raman Data Processed
Mineral: Pyromorphite
Rruff sample: R050027
Ideal chemistry: Pb_5_(PO_4_)_3_Cl
Locality: Yangshuo, Guangxi Autonomous Region, China
Source: Eugene Schlepp
Description: Light green hexagonal prismatic hoppered single crystals
Measured chemistry: Pb_5.00_(P_1.00_O_4_)_3_Cl_1.00_
Pin_id: M00303
Orientation: Laser parallel to -c* (0 0 -1). Fiducial mark perpendicular to laser is parallel to a [1 0 0]
Raman shift (cm-1)	intensity
49.184	0
53.401	109.147
57.617	209.752
61.83	240.259
66.041	273.621
70.25	70.968
74.456	7.809
78.661	44.566
82.863	124.217
87.064	1344.88
91.262	2861.34
95.458	2566.28
99.652	3479.39
103.843	9386.26
108.033	12558.7
112.22	8841.77
116.406	6099.43
120.589	4645.23
124.77	3988.41
128.949	3740.08
133.126	3508.94
137.301	3565.61
141.473	3882.61
145.644	4603.16
149.812	5417.81
153.979	6248.28
158.143	6482.86
162.305	6083.56
166.465	5421.39
170.623	4941.36
174.778	4620.72
178.932	4247.22
183.083	3811.04
187.233	3366.23
191.38	3015
195.525	2973.05
199.669	2779.33
203.81	2680.4
207.949	2650.38
212.085	2461.08
216.22	2240.3
220.353	1972.52
224.483	1723.34
228.612	1478.55
232.738	1261.51
236.863	1091.32
240.985	957.645
245.105	902.883
249.223	838.873
253.339	770.532
257.453	676.354
261.565	588.315
265.675	504.394
269.783	488.578
273.888	373.363
277.992	307.222
282.093	264.766
286.193	198.691
290.29	151.724
294.386	129.844
298.479	73.002
302.57	64.717
306.659	24.508
310.746	22.443
314.831	0.02
318.914	13.231
322.995	20.179
327.074	14.091
331.151	22.638
335.226	43.171
339.299	11.844
343.37	30.692
347.438	22.27
351.505	24.585
355.57	29.781
359.632	13.343
363.693	33.456
367.751	55.458
371.808	123.082
375.862	211.61
379.914	392.103
383.965	789.452
388.013	1738.7
392.06	2342.9
396.104	1911.17
400.146	1176.49
404.186	1173.92
408.225	1683.47
412.261	2402.16
416.295	3156.88
420.327	2565.63
424.357	1341.42
428.386	610.202
432.412	322.984
436.436	157.755
440.458	95.453
444.478	68.06
448.496	52.543
452.513	32.883
456.527	43.073
460.539	58.964
464.549	31.619
468.557	33.79
472.563	13.509
476.567	2.408
480.57	2.013
484.57	2.651
488.568	22.861
492.564	24.732
496.558	4.445
500.551	31.101
504.541	37.771
508.529	40.831
512.515	19.342
516.5	14.192
520.482	44.231
524.462	55.765
528.441	89.771
532.417	150.504
536.391	289.572
540.364	750.551
544.334	806.361
548.303	519.435
552.269	718.691
556.234	672.354
560.197	417.077
564.157	404.437
568.116	620.773
572.073	1652.79
576.027	2066.84
579.98	1003.77
583.931	519.319
587.88	335.751
591.827	286.802
595.772	286.932
599.715	256.194
603.656	229.124
607.595	212.629
611.532	212.512
615.468	202.181
619.401	185.579
623.332	151.557
627.262	156.141
631.189	122.791
635.115	124.236
639.039	120.344
642.96	104.486
646.88	75.497
650.798	48.431
654.714	76.83
658.628	45.579
662.54	54.882
666.45	57.166
670.358	33.104
674.264	41.727
678.169	12.245
682.071	21.707
685.972	18.028
689.87	27.171
693.767	8.38
697.662	13.118
701.555	5.551
705.446	3.656
709.335	29.603
713.222	8.723
717.107	2.745
720.99	5.452
724.872	21.124
728.751	26.045
732.629	28.345
736.504	50.046
740.378	58.13
744.25	58.553
748.12	52.325
751.988	12.388
755.854	25.632
759.719	12.035
763.581	47.456
767.442	53.867
771.3	95.205
775.157	110.455
779.012	136.591
782.865	156.63
786.716	211.548
790.565	258.318
794.413	289.14
798.258	289.816
802.102	247.404
805.943	219.555
809.783	141.597
813.621	85.742
817.457	234.782
821.292	233.894
825.124	251.768
828.954	223.09
832.783	105.746
836.61	63.331
840.435	16.198
844.258	67.016
848.079	162.273
851.898	245.553
855.715	184.298
859.531	111.977
863.345	70.43
867.157	115.85
870.967	115.466
874.775	214.862
878.581	296.43
882.386	428.616
886.188	613.909
889.989	831.106
893.788	1084.56
897.585	1441.64
901.38	2181.56
905.174	3666.13
908.965	7244.88
912.755	16561.8
916.543	44613.7
920.329	50495.9
924.113	24248.4
927.895	11081.3
931.676	7028.5
935.454	6804.02
939.231	9061.9
943.006	12416.1
946.78	13480.7
950.551	10315.7
954.32	6665.98
958.088	4177.62
961.854	2926.61
965.618	2162.95
969.38	1903.63
973.141	1807.63
976.9	1835.97
980.656	1839.63
984.411	1693.65
988.165	1662.03
991.916	1697.78
995.665	1911.88
999.413	2431.33
1003.16	3318.14
1006.9	4365.31
1010.65	4771.86
1014.39	4162.81
1018.12	3342.16
1021.86	2611.59
1025.6	1921.93
1029.33	1471.81
1033.06	1170.8
1036.79	990.833
1040.52	1008.09
1044.25	1015.32
1047.97	927.684
1051.69	709.7
1055.41	632.405
1059.13	634.86
1062.85	632.569
1066.57	656.915
1070.28	746.451
1073.99	733.699
1077.7	714.751
1081.41	668.637
1085.12	657.759
1088.82	677.141
1092.52	699.399
1096.22	686.872
1099.92	632.638
1103.62	542.38
1107.32	460.006
1111.01	437.221
1114.7	354.633
1118.39	323.826
1122.08	314.332
1125.77	252.252
1129.45	246.419
1133.14	290.886
1136.82	327.268
1140.5	307.64
1144.18	390.433
1147.85	490.903
1151.53	527.305
1155.2	419.652
1158.87	248.837
1162.54	167.867
1166.21	94.361
1169.88	78.372
1173.54	16.327
1177.2	2.429
1180.86	9.604
1184.52	0.197
1188.18	47.16
1191.83	46.257
1195.49	27.741
1199.14	30.757
1202.79	6.873
1206.44	22.074
1210.08	26.77
1213.73	9.901
1217.37	25.056
1221.01	6.504
1224.65	14.365
1228.29	2.909
1231.93	24.062
1235.56	20.872
1239.19	22.428
1242.83	27.159
1246.46	2.199
1250.08	26.728
1253.71	13.881
1257.33	56.828
1260.96	61.036
1264.58	47.628
1268.19	47.915
1271.81	58.424
1275.43	55.062
1279.04	74.287
1282.65	78.704
1286.27	81.407
1289.87	101.01
1293.48	77.292
1297.09	112.115
1300.69	147.779
1304.29	129.141
1307.89	76.249
1311.49	117.022
1315.09	117.557
1318.68	112.851
1322.28	131.395
1325.87	168.115
1329.46	136.572
1333.05	94.126
1336.63	112.707
1340.22	136.23
1343.8	102.057
1347.38	97.701
1350.96	89.581
1354.54	85.716
1358.12	59.076
1361.69	79.181
1365.26	54.248
1368.83	67.879
1372.4	38.304
1375.97	30.824
1379.54	18.996
1383.1	17.058
1386.66	31.42
1390.23	19.608
1393.79	44.233
1397.34	29.981
1400.9	31.706
1404.45	9.268
1408.01	12.906
1411.56	34.816
1415.11	64.451
1418.66	32.144
1422.2	0.342
1425.75	28.104
1429.29	4.883
1432.83	81.787
1436.37	68.138
1439.91	55.139
1443.44	61.496
1446.98	94.125
1450.51	59.173
1454.04	35.824
1457.57	57.834
1461.1	33.576
1464.63	46.752
1468.15	49.622
1471.67	82.53
1475.19	26.864
1478.71	72.818
1482.23	79.582
1485.75	71.696
1489.26	101.952
1492.78	97.314
1496.29	49.198
1499.8	32.617
1503.31	48.66
1506.81	31.61
1510.32	10.999
1513.82	21.843
1517.32	30.254
