Measurement: Raman, 514 nm, ccw, Raman Data Processed
Mineral: Pyrope
Rruff sample: R040159
Ideal chemistry: Mg_3_Al_2_(SiO_4_)_3_
Locality: Meronitz, Bohemia
Source: University of Arizona Mineral Museum
Description: Deep red crystal fragments
Measured chemistry: (Mg_2.17_Fe^2+^_0.47_Ca_0.34_Mn_0.02_)_Σ=3_(Al_1.86_Cr_0.11_Ti_0.03_)_Σ=2_((Si_0.99_Al_0.01_)_Σ=1_O_4_)_3_; trace amounts of Rb?
Pin_id: L00224
Orientation: Laser parallel to -a* (-1 0 0). Fiducial mark perpendicular to laser is parallel to c [0 0 1]
Raman shift (cm-1)	intensity
114.949	0
119.119	26.955
123.286	118.768
127.452	71.113
131.615	203.058
135.777	249.662
139.937	398.918
144.094	509.597
148.25	499.155
152.403	398.671
156.555	240.571
160.705	141.273
164.853	2.616
168.998	44.639
173.142	27.052
177.284	101.727
181.424	274.72
185.562	576.93
189.698	776.364
193.831	751.041
197.963	553.469
202.093	441.405
206.221	377.416
210.347	423.902
214.472	308.469
218.594	299.851
222.714	303.816
226.832	315.64
230.948	327.656
235.063	397.254
239.175	444.908
243.286	536.264
247.394	550.771
251.501	542.426
255.605	642.235
259.708	636.228
263.808	526.414
267.907	474.796
272.004	526.999
276.099	516.809
280.192	625.691
284.283	699.738
288.372	707.182
292.459	742.976
296.544	807.577
300.627	870.876
304.709	1001.62
308.788	1082.96
312.865	1217.26
316.941	1318.96
321.015	1466.44
325.086	1699.9
329.156	2051.11
333.224	2726.24
337.29	3511.62
341.354	4423.2
345.416	5502.6
349.476	7077.92
353.534	9554.6
357.591	13362.4
361.645	15860.3
365.698	13678.2
369.748	9906.3
373.797	7040.45
377.844	5465.62
381.889	4098.9
385.932	3051.22
389.973	2208.78
394.012	1582.84
398.049	1174.16
402.084	795.693
406.118	578.373
410.15	412.182
414.179	313.13
418.207	139.182
422.233	71.338
426.257	9.606
430.279	5.051
434.299	41.672
438.318	27.379
442.334	21.195
446.349	2.213
450.361	1.411
454.372	17.251
458.381	61.826
462.388	157.344
466.394	250.826
470.397	247.296
474.398	300.784
478.398	293.298
482.396	280.847
486.391	302.451
490.385	306.165
494.377	338.089
498.368	420.246
502.356	545.564
506.342	592.927
510.327	728.289
514.31	891.633
518.291	991.173
522.27	1211.32
526.247	1299.08
530.222	1451.82
534.196	1610.54
538.167	1957.96
542.137	2531.4
546.105	3596.51
550.071	5427.49
554.035	8799.05
557.998	12290
561.958	10107.2
565.917	5405.49
569.874	2755.54
573.829	1634.61
577.782	1069.3
581.733	833.983
585.683	687.992
589.63	596.867
593.576	525.791
597.52	491.949
601.462	459.911
605.402	375.557
609.341	396.225
613.277	424.83
617.212	360.519
621.145	324.353
625.076	407.078
629.006	453.596
632.933	591.973
636.859	699.208
640.783	884.299
644.705	816.243
648.625	707.04
652.543	611.686
656.46	470.176
660.375	396.508
664.288	248.679
668.199	169.691
672.108	124.541
676.016	78.226
679.921	24.734
683.825	49.046
687.727	16.842
691.628	20.045
695.526	28.626
699.423	40.644
703.318	25.083
707.211	43.945
711.102	50.28
714.992	34.074
718.879	4.248
722.765	5.715
726.649	7.463
730.532	8.493
734.412	8.24
738.291	3.273
742.168	6.044
746.043	7.254
749.916	20.865
753.788	4.651
757.658	17.327
761.526	31.902
765.392	49.375
769.257	67.744
773.119	49.007
776.98	38.162
780.839	72.214
784.697	103.165
788.552	93.02
792.406	104.782
796.258	155.455
800.108	150.041
803.957	268.548
807.804	279.979
811.649	362.342
815.492	398.651
819.333	534.925
823.173	665.139
827.011	701.251
830.847	786.968
834.681	820.569
838.514	941.781
842.345	1147.24
846.174	1476.77
850.001	1808.29
853.827	2208.61
857.651	2743.99
861.473	2999.33
865.293	2809.85
869.112	2609.36
872.928	2488.36
876.744	2505.29
880.557	2626.35
884.369	2945.38
888.178	3577.68
891.987	4317.42
895.793	5474.63
899.598	7101.26
903.401	10268.1
907.202	16356.5
911.001	27604.9
914.799	44063.6
918.595	52272.5
922.389	40901.7
926.182	24611.1
929.972	15700.6
933.761	10680.2
937.549	7259.94
941.334	5149.75
945.118	3660.66
948.9	2857.68
952.681	2373.79
956.459	2031.25
960.236	1774.76
964.012	1632.89
967.785	1441.59
971.557	1318.18
975.327	1163.94
979.095	1137.81
982.862	1076.92
986.627	1018.39
990.39	905.838
994.152	786.812
997.912	742.733
1001.67	641.474
1005.43	625.752
1009.18	639.147
1012.93	680.297
1016.68	785
1020.43	861.964
1024.18	970.113
1027.93	1013.42
1031.67	1026.88
1035.42	1031.48
1039.16	985.219
1042.9	1001.1
1046.63	1012.12
1050.37	1048.27
1054.11	980.523
1057.84	785.882
1061.57	559.337
1065.3	389.884
1069.03	273.549
1072.75	200.292
1076.47	150.106
1080.2	110.994
1083.92	96.957
1087.64	82.998
1091.36	74.122
1095.07	42.323
1098.79	43.582
1102.5	11.079
1106.21	8.319
1109.92	2.223
1113.62	3.742
1117.33	23.269
1121.04	31.188
1124.74	32.68
1128.44	37.797
1132.14	26.338
1135.83	20.969
1139.53	9.687
1143.22	33.518
1146.92	25.568
1150.61	41.81
1154.3	5.223
1157.98	22.736
1161.67	7.346
1165.35	24.988
1169.04	59.307
1172.72	45.606
1176.4	86.883
1180.07	110.133
1183.75	120.403
1187.42	113.587
1191.1	122.784
1194.77	126.016
1198.44	120.505
1202.1	126.283
1205.77	129.802
1209.43	131.163
1213.1	140.847
1216.76	132.361
1220.42	116.638
1224.07	148.094
1227.73	124.701
1231.38	143.967
1235.04	107.349
1238.69	139.021
1242.34	126.852
1245.99	95.419
1249.63	120.74
1253.28	129.364
1256.92	137.765
1260.56	149.382
1264.2	159.479
1267.84	157.59
1271.48	136.636
1275.11	142.368
1278.74	195.669
1282.38	189.216
1286.01	214.094
1289.63	142.746
1293.26	136.665
1296.89	144.499
1300.51	119.656
1304.13	99.594
1307.75	124.77
1311.37	139.733
1314.99	115.388
1318.6	71.009
1322.22	102.336
1325.83	92.728
1329.44	53.845
1333.05	69.881
1336.66	25.812
1340.26	43.572
1343.87	40.203
1347.47	1.698
1351.07	35.053
1354.67	31.32
1358.27	18.415
1361.86	19.377
1365.46	39.241
1369.05	23.017
1372.64	13.181
1376.23	6.617
1379.82	21.8
1383.41	18.347
1386.99	16.246
1390.57	28.93
1394.16	39.528
1397.74	13.978
1401.32	34.43
1404.89	35.997
1408.47	39.916
1412.04	50.144
1415.61	74.508
1419.18	31.842
1422.75	50.128
1426.32	58.307
1429.89	18.261
1433.45	93.513
1437.01	86.212
1440.58	43.058
1444.13	22.227
1447.69	40.399
1451.25	36.001
1454.81	15.642
1458.36	17
1461.91	43.253
1465.46	5.193
1469.01	46.052
1472.56	41.172
1476.1	56.38
1479.64	70.648
1483.19	37.08
1486.73	31.595
1490.27	59.229
1493.81	33.443
1497.34	45.143
1500.88	44.822
1504.41	53.358
1507.94	63.335
1511.47	3.111
1515	74.734
1518.53	0
