Measurement: Raman, 514 nm, ccw, Raman Data Processed
Mineral: Pyromorphite
Rruff sample: R050027
Ideal chemistry: Pb_5_(PO_4_)_3_Cl
Locality: Yangshuo, Guangxi Autonomous Region, China
Source: Eugene Schlepp
Description: Light green hexagonal prismatic hoppered single crystals
Measured chemistry: Pb_5.00_(P_1.00_O_4_)_3_Cl_1.00_
Pin_id: M00303
Orientation: Laser parallel to -c* (0 0 -1). Fiducial mark perpendicular to laser is parallel to a [1 0 0]
Raman shift (cm-1)	intensity
49.184	0
53.401	12.26
57.617	163.269
61.83	143.428
66.041	160.508
70.25	32.092
74.456	37.319
78.661	59.573
82.863	142.78
87.064	1340.09
91.262	2780.19
95.458	2587.8
99.652	3926.58
103.843	10488.2
108.033	13880.4
112.22	9683.3
116.406	6788.79
120.589	4984.47
124.77	4259.4
128.949	3830.75
133.126	3742.38
137.301	3772.68
141.473	4168.2
145.644	4958.42
149.812	6166.03
153.979	7211.55
158.143	7696.22
162.305	7179.05
166.465	6160.04
170.623	5421.2
174.778	4835.55
178.932	4396.4
183.083	3929.25
187.233	3677.25
191.38	3338.43
195.525	3127.3
199.669	2992.24
203.81	2941.66
207.949	2846.04
212.085	2744.47
216.22	2523.61
220.353	2288.07
224.483	1878.53
228.612	1642.31
232.738	1408.19
236.863	1177.69
240.985	1036.75
245.105	968.983
249.223	859.068
253.339	782.217
257.453	714.543
261.565	635.022
265.675	554.634
269.783	511.365
273.888	468.203
277.992	325.139
282.093	282.275
286.193	242.689
290.29	150.311
294.386	98.239
298.479	95.085
302.57	61.039
306.659	21.189
310.746	15.563
314.831	33.4
318.914	35.698
322.995	30.137
327.074	9.132
331.151	46.331
335.226	37.734
339.299	14.502
343.37	7.059
347.438	23.881
351.505	28.92
355.57	30.412
359.632	21.709
363.693	72.784
367.751	63.628
371.808	126.306
375.862	215.796
379.914	339.266
383.965	709.621
388.013	1391.88
392.06	1940.14
396.104	1594.43
400.146	1136.76
404.186	1148.14
408.225	1735.6
412.261	2864.17
416.295	4192.76
420.327	3625.36
424.357	1865.97
428.386	861.574
432.412	390.173
436.436	259.774
440.458	129.353
444.478	79.859
448.496	47.23
452.513	47.448
456.527	65.503
460.539	50.386
464.549	47.044
468.557	46.479
472.563	13.035
476.567	7.366
480.57	10.483
484.57	6.784
488.568	32.854
492.564	16.223
496.558	16.057
500.551	29.431
504.541	36.547
508.529	51.453
512.515	50.711
516.5	76.191
520.482	70.618
524.462	85.057
528.441	99.942
532.417	163.863
536.391	382.715
540.364	958.742
544.334	1035.03
548.303	643.388
552.269	689.543
556.234	647.309
560.197	400.578
564.157	375.083
568.116	633.03
572.073	1668.87
576.027	2061.84
579.98	1008.83
583.931	531.53
587.88	354.385
591.827	311.508
595.772	302.241
599.715	249.971
603.656	245.758
607.595	252.242
611.532	247.033
615.468	226.327
619.401	199.296
623.332	184.928
627.262	148.091
631.189	156.57
635.115	181.917
639.039	146.652
642.96	102.533
646.88	111.794
650.798	77.526
654.714	80.309
658.628	71.212
662.54	72.412
666.45	38.043
670.358	50.985
674.264	53.164
678.169	21.967
682.071	22.68
685.972	2.28
689.87	33.728
693.767	4.928
697.662	31.775
701.555	12.337
705.446	13.572
709.335	8.434
713.222	1.928
717.107	13.895
720.99	23.989
724.872	35.396
728.751	40.153
732.629	21.318
736.504	51.842
740.378	61.734
744.25	64.997
748.12	56.626
751.988	26.627
755.854	32.916
759.719	16.403
763.581	24.003
767.442	61.324
771.3	60.572
775.157	92.759
779.012	108.881
782.865	169.728
786.716	219.636
790.565	243.25
794.413	287.119
798.258	272.773
802.102	252.087
805.943	156.347
809.783	114.434
813.621	101.089
817.457	212.634
821.292	255.79
825.124	282.761
828.954	184.811
832.783	60.741
836.61	64.903
840.435	62.649
844.258	50.79
848.079	172.294
851.898	264.846
855.715	129.226
859.531	84.217
863.345	67.027
867.157	77.032
870.967	155.84
874.775	223.706
878.581	330.986
882.386	452.74
886.188	621.804
889.989	889.736
893.788	1130.27
897.585	1465.14
901.38	2216.53
905.174	3689.5
908.965	7248.45
912.755	16432.1
916.543	44303.5
920.329	50005.2
924.113	24357.3
927.895	11229.9
931.676	6966.78
935.454	6573.07
939.231	8629.73
943.006	11793.8
946.78	13098.2
950.551	10193
954.32	6801.15
958.088	4400.7
961.854	3005.63
965.618	2321.93
969.38	2015.6
973.141	1897.63
976.9	1891.04
980.656	1878.83
984.411	1885.99
988.165	1889.54
991.916	2029.48
995.665	2319.82
999.413	3059.55
1003.16	4230.68
1006.9	5506.16
1010.65	6182.05
1014.39	5387.35
1018.12	4286.05
1021.86	3308.12
1025.6	2533.55
1029.33	1905.77
1033.06	1565.04
1036.79	1330.44
1040.52	1202.81
1044.25	1216.42
1047.97	1116.98
1051.69	863.109
1055.41	770.839
1059.13	747.124
1062.85	751.576
1066.57	779.769
1070.28	814.538
1073.99	836.226
1077.7	763.938
1081.41	743.616
1085.12	766.792
1088.82	744.681
1092.52	762.062
1096.22	701.843
1099.92	644.794
1103.62	604.283
1107.32	464.495
1111.01	416.812
1114.7	402.628
1118.39	381.232
1122.08	431.011
1125.77	267.8
1129.45	276.796
1133.14	308.647
1136.82	339.412
1140.5	355.964
1144.18	415.091
1147.85	528.154
1151.53	513.393
1155.2	414.362
1158.87	239.584
1162.54	192.407
1166.21	94.24
1169.88	58.082
1173.54	23.849
1177.2	5.627
1180.86	10.646
1184.52	34.893
1188.18	76.32
1191.83	68.919
1195.49	35.863
1199.14	52.935
1202.79	10.344
1206.44	20.822
1210.08	16.771
1213.73	30.785
1217.37	46.929
1221.01	33.377
1224.65	24.961
1228.29	16.229
1231.93	26.693
1235.56	6.366
1239.19	3.306
1242.83	25.716
1246.46	29.147
1250.08	27.32
1253.71	9.676
1257.33	14.159
1260.96	71.382
1264.58	61.587
1268.19	33.913
1271.81	77.911
1275.43	40.967
1279.04	119.717
1282.65	70.92
1286.27	75.928
1289.87	104.805
1293.48	100.422
1297.09	123.845
1300.69	84.726
1304.29	125.381
1307.89	126.88
1311.49	126.133
1315.09	163.988
1318.68	135.528
1322.28	137.404
1325.87	161.126
1329.46	186.134
1333.05	140.902
1336.63	163.164
1340.22	120.084
1343.8	120.741
1347.38	112.281
1350.96	113.474
1354.54	97.314
1358.12	100.315
1361.69	86.612
1365.26	86.9
1368.83	24.884
1372.4	50.332
1375.97	67.688
1379.54	24.106
1383.1	59.804
1386.66	30.911
1390.23	18.829
1393.79	61.205
1397.34	12.605
1400.9	65.573
1404.45	71.219
1408.01	46.807
1411.56	33.719
1415.11	49.045
1418.66	16.915
1422.2	30.279
1425.75	23.052
1429.29	23.789
1432.83	26.289
1436.37	16.83
1439.91	84.408
1443.44	81.649
1446.98	53.727
1450.51	12.498
1454.04	26.756
1457.57	31.825
1461.1	20.049
1464.63	37.343
1468.15	91.685
1471.67	74.241
1475.19	37.17
1478.71	86.368
1482.23	93.332
1485.75	74.437
1489.26	125.178
1492.78	110.613
1496.29	82.433
1499.8	103.687
1503.31	55.72
1506.81	81.908
1510.32	20.663
1513.82	40.126
1517.32	5.994
