Measurement: Raman, 514 nm, ccw, Raman Data Processed
Mineral: Pyrope
Rruff sample: R040159
Ideal chemistry: Mg_3_Al_2_(SiO_4_)_3_
Locality: Meronitz, Bohemia
Source: University of Arizona Mineral Museum
Description: Deep red crystal fragments
Measured chemistry: (Mg_2.17_Fe^2+^_0.47_Ca_0.34_Mn_0.02_)_Σ=3_(Al_1.86_Cr_0.11_Ti_0.03_)_Σ=2_((Si_0.99_Al_0.01_)_Σ=1_O_4_)_3_; trace amounts of Rb?
Pin_id: L00224
Orientation: Laser parallel to -a* (-1 0 0). Fiducial mark perpendicular to laser is parallel to c [0 0 1]
Raman shift (cm-1)	intensity
113.559	0
117.729	80.919
121.897	83.352
126.063	140.704
130.228	199.357
134.39	182.989
138.55	349.011
142.709	513.37
146.865	436.113
151.019	384.781
155.171	309.078
159.322	159.2
163.47	45.241
167.617	22.957
171.761	13.664
175.904	4.106
180.044	197.709
184.183	469.791
188.319	731.148
192.454	717.794
196.586	581.956
200.717	491.35
204.846	438.816
208.972	426.756
213.097	384.845
217.22	338.856
221.341	308.638
225.46	352.59
229.577	345.71
233.692	410.855
237.805	416.198
241.916	559.737
246.025	589.474
250.132	616.414
254.237	627.563
258.34	664.935
262.442	574.539
266.541	510.379
270.639	538.529
274.734	565.94
278.828	624.837
282.919	714.869
287.009	699.28
291.097	776.882
295.183	831.537
299.266	870.105
303.348	977.028
307.428	1034.37
311.507	1164.77
315.583	1262.32
319.657	1429.46
323.729	1617.67
327.8	1858.66
331.868	2426.16
335.935	3145.05
339.999	4146.02
344.062	5126.64
348.123	6128.52
352.182	8331.96
356.239	12037.5
360.294	15293.2
364.347	14749.1
368.398	11145
372.448	8081.11
376.495	5961.37
380.54	4464.78
384.584	3338.39
388.626	2471.23
392.666	1780.32
396.704	1271.62
400.74	889.17
404.774	654.948
408.806	472.915
412.836	312.049
416.865	181.363
420.891	80.85
424.916	5.486
428.939	32.766
432.959	21.952
436.978	3.114
440.996	6.269
445.011	18.537
449.024	44.92
453.036	13.569
457.045	64.015
461.053	134.449
465.059	180.887
469.063	243.347
473.065	315.851
477.065	266.41
481.063	221.024
485.06	245.708
489.054	296.495
493.047	326.457
497.038	367.815
501.027	462.097
505.014	593.619
508.999	675.173
512.982	798.74
516.964	919.481
520.944	1087.54
524.921	1243.71
528.897	1371.1
532.871	1528.24
536.844	1789.46
540.814	2342.07
544.783	3165.11
548.749	4527.69
552.714	7180.17
556.677	11359.7
560.638	11539.9
564.597	6761.68
568.555	3414.18
572.511	1882.05
576.464	1236.14
580.416	935.429
584.366	703.518
588.315	614.613
592.261	519.829
596.206	466.401
600.148	471.296
604.089	402.056
608.028	373.289
611.965	379.607
615.901	357.382
619.834	326.077
623.766	329.719
627.696	412.134
631.624	526.421
635.551	689.579
639.475	824.606
643.398	831.5
647.318	764.302
651.237	578.879
655.155	489.357
659.07	390.689
662.984	277.873
666.895	207.907
670.805	139.791
674.713	92.522
678.62	37.09
682.524	5.479
686.427	1.634
690.328	11.507
694.227	17.902
698.124	30.644
702.02	33.779
705.913	65.32
709.805	13.308
713.695	56.655
717.584	27.146
721.47	1.607
725.355	2.923
729.238	22.842
733.119	21.547
736.998	15.339
740.876	6.994
744.752	1.148
748.626	35.159
752.498	39.045
756.368	32.797
760.237	22.439
764.104	75.992
767.969	31.461
771.832	48.819
775.693	62.071
779.553	50.22
783.411	82.269
787.267	88.223
791.122	106.085
794.974	160.859
798.825	172.547
802.674	198.154
806.522	228.682
810.367	353.137
814.211	431.544
818.053	499.903
821.893	588.198
825.732	698.433
829.568	757.345
833.403	797.844
837.236	856.729
841.068	1044.98
844.898	1318.27
848.726	1612.27
852.552	2035.87
856.376	2498.69
860.199	2947.18
864.02	2897
867.839	2619.73
871.656	2446.4
875.472	2370.13
879.286	2542.79
883.098	2851.14
886.909	3315.94
890.717	3899.8
894.524	4872.62
898.33	6395.2
902.133	9051.54
905.935	13869.5
909.735	22498.2
913.533	37306.9
917.33	50976.1
921.124	45945.2
924.918	30434.5
928.709	18214.1
932.499	12063.7
936.286	8065.41
940.073	5629.27
943.857	4045.22
947.64	3146.28
951.421	2562.44
955.2	2154.7
958.978	1845.07
962.753	1597.07
966.527	1495.86
970.3	1366.56
974.071	1179.36
977.84	1082.27
981.607	1009.53
985.372	1007.21
989.136	939.934
992.898	812.048
996.659	747.034
1000.42	663.217
1004.17	672.283
1007.93	576.127
1011.68	675.286
1015.43	774.229
1019.18	919.092
1022.93	967.177
1026.68	1030.46
1030.42	995.911
1034.17	981.532
1037.91	996.334
1041.65	981.296
1045.39	1056.4
1049.12	1052.61
1052.86	1017.93
1056.59	859.341
1060.33	620.851
1064.06	409.455
1067.78	284.151
1071.51	245.937
1075.23	180.805
1078.96	124.76
1082.68	124.793
1086.4	56.924
1090.12	42.142
1093.83	59.439
1097.55	28.802
1101.26	33.224
1104.97	5.715
1108.68	4.259
1112.39	34.159
1116.1	5.782
1119.8	48.988
1123.5	43.23
1127.2	3.266
1130.9	62.093
1134.6	36.612
1138.3	44.267
1141.99	25.078
1145.69	50.033
1149.38	1.818
1153.07	2.485
1156.76	12.913
1160.44	3.576
1164.13	19.032
1167.81	53.479
1171.49	50.911
1175.17	97.321
1178.85	105.709
1182.52	149.067
1186.2	148.415
1189.87	140.746
1193.54	130.144
1197.21	97.875
1200.88	107.739
1204.55	151.549
1208.21	167.012
1211.88	150.974
1215.54	123.704
1219.2	160.308
1222.86	162.404
1226.51	121.086
1230.17	116.206
1233.82	111.067
1237.47	147.943
1241.12	138.3
1244.77	117.027
1248.42	91.559
1252.06	101.056
1255.71	126.807
1259.35	126.261
1262.99	165.977
1266.63	181.275
1270.26	183.396
1273.9	177.424
1277.53	194.571
1281.16	173.572
1284.8	172.24
1288.42	172.538
1292.05	131.099
1295.68	146.38
1299.3	126.415
1302.92	127.59
1306.55	98.907
1310.16	140.131
1313.78	89.028
1317.4	117.734
1321.01	73.442
1324.62	69.901
1328.24	70.247
1331.85	54.515
1335.45	50.723
1339.06	29.762
1342.66	10.652
1346.27	15.365
1349.87	13.943
1353.47	24.387
1357.07	2.295
1360.66	16.881
1364.26	1.928
1367.85	6.141
1371.44	33.728
1375.04	2.451
1378.62	8.669
1382.21	7.784
1385.8	3.912
1389.38	25.817
1392.96	4.423
1396.54	32.206
1400.12	22.68
1403.7	35.317
1407.28	46.203
1410.85	34.415
1414.42	53.845
1417.99	60.284
1421.56	15.659
1425.13	54.984
1428.7	46.179
1432.26	53.381
1435.83	38.289
1439.39	48.357
1442.95	27.836
1446.51	70.61
1450.06	58.911
1453.62	13.303
1457.17	37.42
1460.73	21.206
1464.28	26.384
1467.83	33.328
1471.37	22.135
1474.92	30.235
1478.46	35.549
1482.01	26.423
1485.55	35.861
1489.09	32.007
1492.63	35.5
1496.16	41.896
1499.7	50.713
1503.23	25.732
1506.76	26.776
1510.29	23.235
1513.82	26.711
1517.35	0.935
1520.88	0
