Measurement: Raman, 514 nm, ccw, Raman Data Processed
Mineral: Pyromorphite
Rruff sample: R050015
Ideal chemistry: Pb_5_(PO_4_)_3_Cl
Locality: Bunker Hill mine, Shoshone County, Idaho, USA
Source: Eugene Schlepp
Description: Yellowish green prismatic hexagonal single crystals
Measured chemistry: Pb_5.00_((P_0.88_As_0.12_)O_4_)_3_Cl_1.00_
Pin_id: L00424
Orientation: Laser parallel to -c* (0 0 -1). Fiducial mark perpendicular to laser is parallel to -b [0 -1 0]
Raman shift (cm-1)	intensity
98.251	0
102.428	2389.36
106.604	13278.6
110.777	11809.5
114.949	4897.72
119.119	2469.73
123.286	981.576
127.452	125.25
131.615	154.25
135.777	96.393
139.937	379.152
144.094	942.447
148.25	1967.78
152.403	3238.87
156.555	4025.44
160.705	4173.94
164.853	3556.26
168.998	2893.6
173.142	2154.45
177.284	2110.19
181.424	2068.02
185.562	2014.84
189.698	1935.72
193.831	2019.68
197.963	1993.95
202.093	1847.28
206.221	1706.66
210.347	1708.31
214.472	1525.97
218.594	1119.68
222.714	937.987
226.832	773.894
230.948	485.758
235.063	301.238
239.175	279.348
243.286	109.262
247.394	83
251.501	83.269
255.605	46.227
259.708	97.731
263.808	135.147
267.907	82.455
272.004	28.672
276.099	50.357
280.192	57.328
284.283	36.595
288.372	7.217
292.459	44.807
296.544	96.379
300.627	86.502
304.709	215.358
308.788	271.534
312.865	428.804
316.941	596.623
321.015	740.668
325.086	798.897
329.156	891.56
333.224	1076.07
337.29	1168.24
341.354	1164.31
345.416	1417.13
349.476	1439.84
353.534	1306.9
357.591	1088.85
361.645	1075.67
365.698	1094.37
369.748	1283.93
373.797	1488.62
377.844	1745.55
381.889	1918.43
385.932	2031.65
389.973	2304.9
394.012	2506.23
398.049	2249.06
402.084	2023.5
406.118	2310.85
410.15	3128.8
414.179	4554.19
418.207	5423.65
422.233	4096.04
426.257	2484.78
430.279	1893.73
434.299	1613.69
438.318	1368.26
442.334	1093.63
446.349	848.826
450.361	707.782
454.372	556.26
458.381	572.767
462.388	590.638
466.394	565.72
470.397	477.232
474.398	417.843
478.398	428.738
482.396	442.534
486.391	397.571
490.385	443.145
494.377	405.14
498.368	358.844
502.356	363.985
506.342	394.167
510.327	389.371
514.31	400.825
518.291	402.353
522.27	436.819
526.247	399.538
530.222	424.433
534.196	466.999
538.167	671.967
542.137	1047.36
546.105	1169.43
550.071	869.396
554.035	1006.58
557.998	992.782
561.958	749.366
565.917	781.232
569.874	987.89
573.829	1899.15
577.782	1807.16
581.733	834.006
585.683	558.479
589.63	545.914
593.576	436.332
597.52	403.675
601.462	356.982
605.402	479.779
609.341	345.63
613.277	388.96
617.212	288.963
621.145	291.811
625.076	284.483
629.006	243.572
632.933	190.339
636.859	204.573
640.783	156.496
644.705	155.055
648.625	142.522
652.543	72.573
656.46	28.475
660.375	5.097
664.288	41.807
668.199	80.204
672.108	20.598
676.016	44.934
679.921	52.082
683.825	11.929
687.727	59.875
691.628	43.796
695.526	99.298
699.423	85.648
703.318	63.639
707.211	44.112
711.102	59.071
714.992	22.448
718.879	79.115
722.765	4.068
726.649	7.73
730.532	9.334
734.412	38.181
738.291	15.213
742.168	53.578
746.043	136.927
749.916	145.902
753.788	156.875
757.658	213.652
761.526	358.727
765.392	501.72
769.257	708.826
773.119	956.974
776.98	1485.93
780.839	2434.31
784.697	3324.22
788.552	3681.18
792.406	3384.69
796.258	2876.04
800.108	2968.36
803.957	3384.15
807.804	4279.94
811.649	7529.32
815.492	17417.9
819.333	30488.2
823.173	17946.9
827.011	8132.05
830.847	4478.98
834.681	2557.4
838.514	1696.27
842.345	1495.2
846.174	1634.79
850.001	2097.53
853.827	2163.49
857.651	1174.9
861.473	443.892
865.293	315.519
869.112	252.564
872.928	247.501
876.744	255.373
880.557	154.237
884.369	256.458
888.178	313.963
891.987	642.803
895.793	913.271
899.598	1189.41
903.401	1899.22
907.202	3306.68
911.001	6879.79
914.799	17533.5
918.595	44947.9
922.389	43002.8
926.182	19478.4
929.972	8534.55
933.761	5671.3
937.549	5798.63
941.334	7846.54
945.118	9845.04
948.9	9444.12
952.681	6753.78
956.459	4454.05
960.236	2904.92
964.012	2061.37
967.785	1691.43
971.557	1389.16
975.327	1310.56
979.095	1384.63
982.862	1412.38
986.627	1642.87
990.39	1816.13
994.152	1852.12
997.912	2070.93
1001.67	2918.52
1005.43	3837.96
1009.18	4568.18
1012.93	4539.14
1016.68	3621.53
1020.43	2655.9
1024.18	2065.14
1027.93	1614.03
1031.67	1213.34
1035.42	1091.71
1039.16	913.939
1042.9	810.454
1046.63	679.746
1050.37	634.097
1054.11	482.108
1057.84	373.092
1061.57	532.928
1065.3	541.742
1069.03	479.574
1072.75	530.228
1076.47	442.588
1080.2	413.153
1083.92	575.669
1087.64	609.964
1091.36	498.063
1095.07	498.892
1098.79	423.971
1102.5	274.417
1106.21	323.529
1109.92	187.383
1113.62	169.341
1117.33	248.346
1121.04	182.094
1124.74	428.274
1128.44	66.443
1132.14	19.567
1135.83	99.817
1139.53	196.287
1143.22	327.645
1146.92	272.704
1150.61	356.781
1154.3	218.188
1157.98	150.27
1161.67	63.378
1165.35	79.282
1169.04	45.689
1172.72	11.993
1176.4	14.321
1180.07	82.183
1183.75	104.516
1187.42	81.156
1191.1	139.254
1194.77	109.75
1198.44	106.208
1202.1	17.042
1205.77	21.743
1209.43	48.933
1213.1	14.868
1216.76	20.952
1220.42	81.535
1224.07	32.327
1227.73	16.717
1231.38	75.167
1235.04	70.661
1238.69	89.04
1242.34	116.658
1245.99	38.505
1249.63	139.479
1253.28	87.31
1256.92	161.046
1260.56	199.364
1264.2	197.328
1267.84	76.19
1271.48	229.463
1275.11	51.648
1278.74	24.865
1282.38	94.424
1286.01	104.816
1289.63	109.944
1293.26	202.87
1296.89	195.62
1300.51	62.801
1304.13	145.307
1307.75	133.609
1311.37	96.955
1314.99	75.223
1318.6	130.573
1322.22	101.223
1325.83	149.079
1329.44	176.465
1333.05	137.588
1336.66	163.804
1340.26	75.886
1343.87	68.899
1347.47	37.842
1351.07	78.366
1354.67	144.226
1358.27	68.72
1361.86	165.963
1365.46	152.41
1369.05	148.55
1372.64	160.887
1376.23	84.596
1379.82	2.856
1383.41	110.607
1386.99	71.562
1390.57	159.293
1394.16	221.14
1397.74	192.04
1401.32	222.252
1404.89	157.491
1408.47	75.627
1412.04	48.431
1415.61	6.98
1419.18	86.527
1422.75	145.466
1426.32	66.885
1429.89	78.177
1433.45	206.913
1437.01	127.512
1440.58	56.984
1444.13	98.45
1447.69	105.47
1451.25	151.149
1454.81	73.283
1458.36	34.407
1461.91	38.03
1465.46	104.926
1469.01	215.671
1472.56	194.621
1476.1	232.198
1479.64	151.22
1483.19	191.442
1486.73	168.326
1490.27	149.166
1493.81	141.929
1497.34	159.644
1500.88	137.155
1504.41	55.37
1507.94	12.389
1511.47	169.171
1515	140.43
1518.53	237.898
1522.05	196.146
