Measurement: Raman, 514 nm, ccw, Raman Data Processed
Mineral: Pyromorphite
Rruff sample: R050027
Ideal chemistry: Pb_5_(PO_4_)_3_Cl
Locality: Yangshuo, Guangxi Autonomous Region, China
Source: Eugene Schlepp
Description: Light green hexagonal prismatic hoppered single crystals
Measured chemistry: Pb_5.00_(P_1.00_O_4_)_3_Cl_1.00_
Pin_id: L00481
Orientation: Laser parallel to -a* (-1 0 0). Fiducial mark perpendicular to laser is parallel to -c [0 0 -1]
Raman shift (cm-1)	intensity
46.637	0
50.856	124.291
55.072	333.695
59.287	497.746
63.499	590.984
67.709	262.221
71.917	71.558
76.123	43.583
80.327	52.986
84.529	600.864
88.728	2914.74
92.926	3172.35
97.121	2676.39
101.314	5279.44
105.505	11865.3
109.694	10510
113.881	6627.31
118.066	4577.43
122.249	3697.82
126.43	3289.9
130.608	3087.57
134.785	3051.89
138.959	3139.63
143.131	3613.41
147.301	4251.69
151.469	5162.65
155.635	5686.83
159.799	5568.26
163.961	4825.93
168.121	4135.85
172.278	3704.02
176.434	3259.45
180.587	3023.48
184.739	2848.69
188.888	2760.94
193.035	2710.92
197.18	2581.98
201.324	2424.87
205.465	2361.48
209.603	2248.38
213.74	2145.28
217.875	1996.49
222.008	1683.11
226.139	1424.9
230.267	1295.06
234.394	1087.11
238.518	961.399
242.641	874.068
246.761	790.311
250.879	729.253
254.996	648.002
259.11	625.964
263.222	580.117
267.332	478.444
271.44	397.932
275.546	377.569
279.65	289.342
283.752	218.461
287.852	198.986
291.95	151.424
296.046	105.917
300.14	103.653
304.231	84.698
308.321	43.011
312.409	30.861
316.495	30.616
320.578	3.268
324.66	18.63
328.739	53.026
332.817	29.837
336.892	14.069
340.966	18.506
345.037	20.703
349.107	29.905
353.174	3.091
357.24	21.701
361.303	17.755
365.365	28.997
369.424	28.648
373.481	46.311
377.537	91.993
381.59	159.648
385.642	356.307
389.691	623.007
393.738	741.772
397.784	537.586
401.827	489.434
405.868	772.421
409.908	1336.59
413.945	2193.85
417.98	2748.14
422.014	1797.44
426.045	778.754
430.075	334.104
434.102	172.456
438.127	145.769
442.151	66.01
446.172	17.166
450.192	59.215
454.209	29.155
458.225	33.979
462.238	21.694
466.25	10.314
470.259	25.896
474.267	4.042
478.273	32.639
482.276	29.772
486.278	12.981
490.278	33.986
494.276	11.855
498.271	17.973
502.265	35.568
506.257	63.806
510.247	88.321
514.235	62.277
518.221	66.279
522.205	87.307
526.187	108.405
530.167	161.188
534.145	200.454
538.122	421.389
542.096	805.548
546.068	534.241
550.039	386.821
554.007	649.741
557.973	514.062
561.938	388.455
565.901	438.577
569.861	947.342
573.82	2302.43
577.777	1680.47
581.732	743.867
585.685	398.642
589.636	263.896
593.585	260.246
597.532	253.025
601.477	237.801
605.42	228.131
609.361	224.649
613.301	198.779
617.238	183.82
621.174	165.357
625.108	163.274
629.039	143.068
632.969	141.333
636.897	124.755
640.823	118.104
644.747	75.154
648.669	72.854
652.589	84.144
656.508	58.904
660.424	38.668
664.339	31.746
668.251	21.406
672.162	26.557
676.071	8.452
679.978	20.653
683.883	17.076
687.786	8.546
691.687	8.694
695.586	2.535
699.484	30.928
703.379	3.767
707.273	4.976
711.165	17.533
715.055	21.358
718.943	10.457
722.829	15.854
726.713	21.508
730.595	37.435
734.476	44.647
738.354	17.151
742.231	47.935
746.106	39.039
749.978	24.38
753.849	16.883
757.719	25.499
761.586	72.783
765.451	72.993
769.315	110.139
773.177	139.228
777.036	205.257
780.894	243.215
784.75	268.98
788.605	388.83
792.457	426.535
796.307	523.425
800.156	479.946
804.003	406.654
807.848	329.928
811.691	231.42
815.532	235.222
819.371	305.267
823.209	385.134
827.045	441.672
830.878	245.453
834.71	139.848
838.54	91.162
842.369	129.51
846.195	178.546
850.02	386.541
853.842	363.493
857.663	112.659
861.482	40.11
865.299	53.463
869.115	105.922
872.928	127.194
876.74	167.683
880.55	324.49
884.358	445.351
888.164	649.812
891.969	934.067
895.771	1169.54
899.572	1613.94
903.371	2533.39
907.168	4717.94
910.963	9806.99
914.757	24857
918.548	56097.3
922.338	37787.9
926.126	15748.9
929.912	7760.19
933.697	5575.8
937.479	6001.74
941.26	7986.04
945.039	10238.7
948.816	9411.67
952.591	6567.98
956.365	4098.62
960.136	2596.62
963.906	1892.97
967.674	1447.64
971.441	1360.69
975.205	1355.11
978.968	1367.9
982.729	1381.06
986.488	1267.63
990.245	1231.6
994	1290.95
997.754	1614.66
1001.51	2169.74
1005.26	3017.19
1009	3732.07
1012.75	3703.35
1016.5	3086.01
1020.24	2516.02
1023.98	1934.38
1027.72	1525.1
1031.46	1114.81
1035.19	848.903
1038.93	820.016
1042.66	854.248
1046.39	880.972
1050.12	652.134
1053.85	507.685
1057.57	485.9
1061.29	515.192
1065.02	481.405
1068.74	561.982
1072.45	640.377
1076.17	651.551
1079.88	614.629
1083.6	565.796
1087.31	561.898
1091.02	561.37
1094.72	590.042
1098.43	553.64
1102.13	499.826
1105.84	405.72
1109.54	320.662
1113.24	321.893
1116.93	241.97
1120.63	222.036
1124.32	215.903
1128.01	233.81
1131.7	218.602
1135.39	235.798
1139.08	246.975
1142.76	287.404
1146.45	415.016
1150.13	461.927
1153.81	390.164
1157.48	293.959
1161.16	182.973
1164.84	114.181
1168.51	62.183
1172.18	0.687
1175.85	31.596
1179.52	33.841
1183.18	8.098
1186.85	45.458
1190.51	22.936
1194.17	31.758
1197.83	24.047
1201.48	1.666
1205.14	41.239
1208.79	4.911
1212.44	28.073
1216.09	13.772
1219.74	17.908
1223.39	9.324
1227.03	3.172
1230.68	7.385
1234.32	25.502
1237.96	2.183
1241.6	15.966
1245.23	42.902
1248.87	13.576
1252.5	32.091
1256.13	49.63
1259.76	31.577
1263.39	31.088
1267.02	33.241
1270.64	31.33
1274.26	34.112
1277.88	41.967
1281.5	70.943
1285.12	80.981
1288.74	67.793
1292.35	94.356
1295.96	59.977
1299.57	65.054
1303.18	74.313
1306.79	43.858
1310.4	100.148
1314	128.203
1317.6	100.985
1321.2	134.614
1324.8	113.013
1328.4	108.382
1331.99	86.834
1335.59	91.134
1339.18	87.51
1342.77	68.356
1346.36	91.56
1349.95	103.918
1353.53	96.82
1357.12	68.542
1360.7	54.171
1364.28	65.292
1367.86	28.779
1371.44	40.246
1375.01	45.382
1378.59	83.546
1382.16	79.239
1385.73	51.531
1389.3	57.451
1392.87	32.902
1396.43	30.815
1399.99	34.237
1403.56	52.655
1407.12	20.129
1410.68	1.327
1414.23	75.251
1417.79	31.657
1421.34	81.493
1424.9	20.964
1428.45	85.25
1431.99	54.035
1435.54	6.268
1439.09	73.203
1442.63	6.117
1446.17	29.104
1449.71	37.234
1453.26	16.021
1456.79	81.571
1460.33	43.378
1463.86	104.707
1467.39	62.796
1470.92	108.292
1474.45	33.731
1477.98	4.851
1481.51	35.371
1485.03	59.774
1488.56	57.254
1492.08	101.829
1495.6	94.148
1499.11	157.035
1502.63	124.745
1506.14	24.755
1509.66	46.777
1513.17	34.499
1516.68	31.583
