Measurement: Raman, 514 nm, ccw, Raman Data Processed
Mineral: Pyrope
Rruff sample: R050112
Ideal chemistry: Mg_3_Al_2_(SiO_4_)_3_
Locality: Cruzeiro mine, San Jose, Minas Gerais, Brazil
Source: Carlos and Paulo Vasconcelos
Description: Dark red crystal fragment
Measured chemistry: (Mg_1.49_Fe^2+^_1.18_Ca_0.29_Mn_0.04_)_Σ=3_(Al_1.99_Fe^3+^_0.01_)_Σ=2_(Si_1.00_O_4_)_3_
Pin_id: L00493
Orientation: Laser parallel to -a* (-1 0 0). Fiducial mark perpendicular to laser is parallel to -b [0 -1 0]
Raman shift (cm-1)	intensity
75.28	0
79.474	19.311
83.667	106.833
87.858	26.032
92.046	138.826
96.233	91.668
100.418	98.699
104.6	106.451
108.781	171.429
112.959	128.866
117.136	167.234
121.31	234.87
125.482	154.882
129.653	156.411
133.821	132.059
137.987	216.924
142.152	184.924
146.314	142.407
150.474	142.474
154.633	97.115
158.789	23.158
162.943	29.735
167.095	8.784
171.246	106.585
175.394	322.124
179.54	552.794
183.684	344.466
187.826	184.01
191.967	50.292
196.105	9.274
200.241	32.858
204.375	81.657
208.507	54.754
212.638	85.706
216.766	80.511
220.892	102.06
225.016	93.098
229.139	149.994
233.259	144.726
237.377	217.342
241.493	300.868
245.608	334.386
249.72	387.769
253.83	416.368
257.939	413.741
262.045	408.12
266.15	475.175
270.252	452.021
274.353	493.876
278.451	484.17
282.548	549.748
286.642	579.612
290.735	607.687
294.826	620.27
298.914	683.734
303.001	724.727
307.086	795.385
311.168	894.301
315.249	1011.54
319.328	1119.41
323.405	1402.51
327.48	1751.25
331.553	2464.43
335.624	3230.65
339.693	4284.99
343.76	5277.56
347.826	7183.06
351.889	10057.7
355.95	12261.9
360.01	10483.6
364.067	7390.63
368.123	5611.85
372.176	4768.43
376.228	4106.85
380.277	3196.58
384.325	2263.5
388.371	1538.77
392.415	1041.58
396.457	726.691
400.497	518.749
404.535	345.247
408.571	288.548
412.605	189.651
416.638	135.579
420.668	42.396
424.697	60.086
428.723	33.649
432.748	24.085
436.77	24.602
440.791	1.471
444.81	12.475
448.827	35.631
452.842	35.947
456.855	33.597
460.867	31.047
464.876	51.407
468.883	27.683
472.889	68.884
476.892	102.022
480.894	149.112
484.894	164.171
488.892	142.254
492.888	181.459
496.882	245.689
500.874	291.867
504.865	468.962
508.853	495.971
512.84	440.461
516.824	519.788
520.807	591.643
524.788	701.162
528.767	717.67
532.744	738.542
536.719	859.471
540.693	1129.62
544.664	1507
548.634	2208.57
552.601	3693.53
556.567	5848.05
560.531	6417.59
564.493	3943.31
568.453	2124.88
572.412	1222.69
576.368	756.627
580.323	573.461
584.275	463.6
588.226	444.581
592.175	397.664
596.122	359.807
600.068	385.208
604.011	414.221
607.952	459.77
611.892	481.9
615.83	334.961
619.766	216.745
623.7	200.922
627.632	205.102
631.563	245.508
635.491	329.925
639.418	410.429
643.343	361.928
647.266	339.308
651.187	261.568
655.106	222.707
659.024	152.725
662.939	109.623
666.853	65.402
670.765	77.057
674.675	39.583
678.583	53.973
682.49	11.772
686.394	27.285
690.297	9.859
694.198	40.28
698.097	23.031
701.995	1.112
705.89	44.462
709.784	27.129
713.675	19.077
717.565	17.32
721.453	20.757
725.34	5.624
729.224	9.152
733.107	22.073
736.988	25.144
740.867	7.383
744.744	13.276
748.62	0.855
752.493	27.368
756.365	2.857
760.235	56.3
764.103	71.732
767.969	48.153
771.834	33.556
775.697	19.931
779.558	54.359
783.417	64.591
787.274	40.876
791.13	61.133
794.983	47.361
798.835	101.562
802.686	125.74
806.534	154.898
810.38	269.038
814.225	324.173
818.068	361.342
821.909	342.4
825.749	353.123
829.586	415.763
833.422	415.126
837.256	455.101
841.088	528.498
844.919	656.568
848.748	901.169
852.575	1052.55
856.4	1455.99
860.223	1811.13
864.045	2024.67
867.864	1903.03
871.682	1686.93
875.499	1716.26
879.313	1812.44
883.126	2068
886.937	2475.37
890.746	3073.98
894.553	3804.31
898.359	5054.64
902.163	6980.21
905.965	10713
909.765	18060.7
913.564	31318.7
917.361	46526.9
921.156	46715.1
924.949	30593.5
928.74	17852
932.53	10840.6
936.318	7108.29
940.104	4852.1
943.889	3393.02
947.672	2582.06
951.453	1989.21
955.232	1616.48
959.01	1355.87
962.785	1185.37
966.559	1103.08
970.332	969.952
974.102	918.931
977.871	880.911
981.638	872.155
985.404	836.609
989.167	770.1
992.929	698.322
996.689	574.167
1000.45	494.096
1004.2	520.73
1007.96	500.828
1011.71	533.331
1015.46	639.531
1019.21	706.375
1022.96	740.393
1026.71	736.539
1030.45	775.818
1034.19	836.212
1037.94	852.727
1041.68	899.365
1045.41	957.151
1049.15	961.038
1052.88	914.023
1056.62	749.091
1060.35	506.258
1064.08	360.527
1067.8	227.895
1071.53	159.348
1075.25	127.888
1078.97	93.494
1082.7	61.189
1086.41	47.973
1090.13	60.847
1093.85	39.785
1097.56	63.775
1101.27	436.818
1104.98	217.908
1108.69	525.045
1112.4	57.232
1116.1	33.578
1119.81	24.468
1123.51	67.583
1127.21	29.351
1130.91	30.328
1134.61	35.412
1138.3	50.642
1141.99	31.073
1145.68	2.684
1149.38	19.388
1153.06	17.179
1156.75	0.96
1160.43	1.946
1164.12	50.102
1167.8	65.126
1171.48	66.122
1175.16	113.133
1178.83	112.087
1182.51	129.144
1186.18	160.331
1189.85	137.946
1193.52	135.703
1197.19	163.961
1200.86	126.352
1204.52	169.92
1208.19	122.79
1211.85	138.236
1215.51	156.705
1219.17	120.901
1222.82	125.661
1226.48	111.322
1230.13	124.184
1233.78	160.169
1237.43	136.158
1241.08	99.519
1244.73	138.407
1248.37	138.817
1252.01	115.13
1255.66	128.328
1259.3	148.679
1262.93	177.799
1266.57	164.811
1270.21	204.25
1273.84	192.071
1277.47	191.651
1281.1	146.308
1284.73	185.269
1288.36	137.871
1291.98	164.387
1295.6	163.972
1299.23	144.02
1302.85	131.496
1306.46	97.41
1310.08	95.322
1313.7	99.043
1317.31	83.653
1320.92	67.06
1324.53	59.398
1328.14	63.528
1331.75	47.491
1335.35	13.713
1338.96	18.883
1342.56	17.314
1346.16	21.583
1349.76	21.772
1353.36	4.714
1356.95	11.519
1360.55	10.079
1364.14	22.526
1367.73	21.83
1371.32	22.982
1374.91	19.915
1378.49	6.876
1382.08	17.647
1385.66	31.817
1389.24	12.773
1392.82	6.512
1396.4	15.24
1399.97	2.874
1403.55	17.593
1407.12	35.609
1410.69	39.771
1414.26	33.975
1417.83	15.149
1421.4	31.186
1424.96	39.947
1428.53	50.179
1432.09	69.009
1435.65	37.21
1439.21	78.249
1442.76	56.495
1446.32	56.431
1449.87	24.589
1453.43	59.963
1456.98	22.173
1460.53	30.417
1464.07	38.353
1467.62	44.985
1471.16	54.753
1474.71	65.761
1478.25	49.195
1481.79	57.68
1485.32	29.546
1488.86	41.165
1492.39	6.835
1495.93	34.209
1499.46	28.105
1502.99	30.622
1506.52	73.021
1510.05	34.739
1513.57	21.659
1517.09	23.206
1520.62	0
