Measurement: Raman, 514 nm, ccw, Raman Data Processed
Mineral: Pyromorphite
Rruff sample: R050015
Ideal chemistry: Pb_5_(PO_4_)_3_Cl
Locality: Bunker Hill mine, Shoshone County, Idaho, USA
Source: Eugene Schlepp
Description: Yellowish green prismatic hexagonal single crystals
Measured chemistry: Pb_5.00_((P_0.88_As_0.12_)O_4_)_3_Cl_1.00_
Pin_id: M00344
Orientation: Laser parallel to -a* (-1 0 0). Fiducial mark perpendicular to laser is parallel to -c [0 0 -1]
Raman shift (cm-1)	intensity
82.863	0
87.064	622.018
91.262	1521.6
95.458	1513.26
99.652	3798.36
103.843	10648.3
108.033	8533.09
112.22	4454.08
116.406	3343.8
120.589	2141.11
124.77	1438.23
128.949	1402.08
133.126	1800.5
137.301	2064.63
141.473	2276.66
145.644	2993.25
149.812	3367.07
153.979	3191.04
158.143	3460.29
162.305	4073.45
166.465	4252.29
170.623	5055.18
174.778	6256.67
178.932	6783.98
183.083	6219.66
187.233	5434.03
191.38	4712.37
195.525	3550.38
199.669	2528.41
203.81	2024.02
207.949	1817.55
212.085	1238.57
216.22	940.578
220.353	873.199
224.483	556.28
228.612	365.812
232.738	182.756
236.863	211.051
240.985	32.614
245.105	54.815
249.223	175.319
253.339	113.525
257.453	123.721
261.565	241.003
265.675	242.628
269.783	145.773
273.888	142.025
277.992	122.468
282.093	57.528
286.193	0.942
290.29	31.258
294.386	121.456
298.479	330.731
302.57	569.712
306.659	789.301
310.746	1316.19
314.831	2016.08
318.914	2387.84
322.995	2536.72
327.074	2672.53
331.151	2857.5
335.226	2893.25
339.299	2737.56
343.37	3038.36
347.438	2926.41
351.505	2354.3
355.57	1842.71
359.632	1673.53
363.693	1597.3
367.751	1774.89
371.808	1972.3
375.862	2342.81
379.914	2883.26
383.965	3884.24
388.013	5410.93
392.06	6661.77
396.104	5498.31
400.146	4072.2
404.186	4136.7
408.225	5371.6
412.261	5481
416.295	4239.66
420.327	2895.27
424.357	2104.78
428.386	1703.73
432.412	1390.34
436.436	1111
440.458	876.609
444.478	770.097
448.496	608.283
452.513	540.694
456.527	451.621
460.539	387.7
464.549	465.038
468.557	398.994
472.563	337.531
476.567	320.383
480.57	348.753
484.57	345.414
488.568	316.422
492.564	327.282
496.558	354.868
500.551	391.894
504.541	353.998
508.529	343.186
512.515	382.131
516.5	393.646
520.482	367.437
524.462	343.229
528.441	389.011
532.417	521.677
536.391	536.142
540.364	644.861
544.334	813.832
548.303	950.557
552.269	1187.82
556.234	942.934
560.197	577.082
564.157	519.638
568.116	630.87
572.073	802.651
576.027	765.607
579.98	499.753
583.931	413.168
587.88	394.763
591.827	329.481
595.772	296.227
599.715	228.69
603.656	240.852
607.595	325.43
611.532	257.44
615.468	233.682
619.401	192.96
623.332	190.967
627.262	170.708
631.189	150.194
635.115	160.312
639.039	82.434
642.96	96.676
646.88	54.597
650.798	46.233
654.714	33.679
658.628	1.001
662.54	56.139
666.45	8.057
670.358	4.762
674.264	12.803
678.169	37.917
682.071	33.567
685.972	26.289
689.87	53.988
693.767	110.703
697.662	54.567
701.555	49.765
705.446	68.524
709.335	83.788
713.222	73.503
717.107	50.511
720.99	9.08
724.872	30.297
728.751	42.166
732.629	31.488
736.504	23.756
740.378	145.257
744.25	225.296
748.12	191.842
751.988	281.703
755.854	332.177
759.719	553.61
763.581	699.645
767.442	951.371
771.3	1186.05
775.157	1815.6
779.012	2657.27
782.865	3255.07
786.716	3359.21
790.565	3331.47
794.413	3415.56
798.258	3963.93
802.102	4558.1
805.943	5767.89
809.783	9618.05
813.621	21320.3
817.457	34239.5
821.292	21900.4
825.124	12565.1
828.954	8371.76
832.783	5752.04
836.61	4688.59
840.435	4248.73
844.258	4698.38
848.079	6256.84
851.898	6088.53
855.715	3450.33
859.531	1585.59
863.345	923.142
867.157	824.041
870.967	723.133
874.775	710.296
878.581	595.05
882.386	521.21
886.188	443.056
889.989	371.746
893.788	454.056
897.585	531.044
901.38	852.711
905.174	1506.97
908.965	3224.86
912.755	7701.39
916.543	17381.6
920.329	18992.4
924.113	11463.8
927.895	7115.77
931.676	7128.37
935.454	9761.54
939.231	14365.3
943.006	17529.7
946.78	15904.7
950.551	11050.3
954.32	7416.48
958.088	5023.29
961.854	3683.11
965.618	2751.34
969.38	2362.88
973.141	2152.33
976.9	2161.44
980.656	2127.64
984.411	2066.94
988.165	1782.41
991.916	1507.46
995.665	1521.26
999.413	1634.75
1003.16	2041.93
1006.9	2398.83
1010.65	2562.44
1014.39	2668.16
1018.12	2517.53
1021.86	2200.55
1025.6	1952.08
1029.33	1705.15
1033.06	1511.24
1036.79	1264.95
1040.52	1131.28
1044.25	1013.57
1047.97	947.854
1051.69	842.019
1055.41	730.143
1059.13	655.876
1062.85	533.242
1066.57	386.714
1070.28	362.253
1073.99	421.385
1077.7	408.93
1081.41	405.54
1085.12	362.039
1088.82	352.236
1092.52	267.594
1096.22	203.353
1099.92	93.419
1103.62	92.588
1107.32	121.916
1111.01	1.024
1114.7	25.05
1118.39	56.064
1122.08	304.88
1125.77	23.681
1129.45	69.322
1133.14	33.647
1136.82	159.685
1140.5	231.842
1144.18	237.9
1147.85	158.393
1151.53	136.354
1155.2	41.605
1158.87	23.769
1162.54	23.9
1166.21	17.652
1169.88	2.028
1173.54	55.57
1177.2	18.286
1180.86	76.356
1184.52	88.319
1188.18	44.373
1191.83	11.67
1195.49	10.237
1199.14	63.743
1202.79	17.846
1206.44	18.583
1210.08	3.09
1213.73	2.326
1217.37	23.508
1221.01	41.402
1224.65	159.222
1228.29	172.965
1231.93	212.605
1235.56	41.275
1239.19	99.822
1242.83	19.158
1246.46	110.413
1250.08	128.438
1253.71	155.819
1257.33	167.481
1260.96	210.391
1264.58	151.75
1268.19	109.765
1271.81	104.232
1275.43	91.006
1279.04	124.907
1282.65	92.2
1286.27	174.449
1289.87	228.292
1293.48	170.851
1297.09	123.109
1300.69	162.251
1304.29	110.801
1307.89	62.398
1311.49	145.522
1315.09	113.625
1318.68	154.766
1322.28	176.954
1325.87	229.018
1329.46	90.749
1333.05	98.282
1336.63	147.215
1340.22	102.911
1343.8	116.717
1347.38	87.727
1350.96	142.85
1354.54	137.918
1358.12	166.192
1361.69	186.487
1365.26	165.534
1368.83	92.332
1372.4	99.115
1375.97	60.087
1379.54	15.282
1383.1	107.671
1386.66	187.129
1390.23	179.117
1393.79	234.958
1397.34	213.515
1400.9	118.189
1404.45	189.132
1408.01	117.932
1411.56	90.935
1415.11	62.312
1418.66	75.651
1422.2	121.305
1425.75	102.561
1429.29	112.157
1432.83	107.309
1436.37	41.796
1439.91	141.012
1443.44	103.577
1446.98	130.343
1450.51	157.415
1454.04	132.661
1457.57	73.033
1461.1	125.952
1464.63	122.001
1468.15	210.266
1471.67	184.959
1475.19	137.155
1478.71	154.844
1482.23	145.336
1485.75	144.318
1489.26	140.273
1492.78	14.971
1496.29	37.604
1499.8	100.452
1503.31	80.997
1506.81	131.144
1510.32	132.277
1513.82	138.49
1517.32	161.443
