Measurement: Raman, 514 nm, ccw, Raman Data Processed
Mineral: Pyrope
Rruff sample: R050112
Ideal chemistry: Mg_3_Al_2_(SiO_4_)_3_
Locality: Cruzeiro mine, San Jose, Minas Gerais, Brazil
Source: Carlos and Paulo Vasconcelos
Description: Dark red crystal fragment
Measured chemistry: (Mg_1.49_Fe^2+^_1.18_Ca_0.29_Mn_0.04_)_Σ=3_(Al_1.99_Fe^3+^_0.01_)_Σ=2_(Si_1.00_O_4_)_3_
Pin_id: L00493
Orientation: Laser parallel to -a* (-1 0 0). Fiducial mark perpendicular to laser is parallel to -b [0 -1 0]
Raman shift (cm-1)	intensity
75.28	0
79.474	32.738
83.667	85.914
87.858	8.808
92.046	69.164
96.233	114.543
100.418	91.904
104.6	40.145
108.781	180.366
112.959	102.527
117.136	142.886
121.31	158.263
125.482	190.428
129.653	142.605
133.821	211.311
137.987	257.294
142.152	271.346
146.314	270.173
150.474	245.013
154.633	230.557
158.789	144.494
162.943	77.684
167.095	34.603
171.246	46.072
175.394	2.882
179.54	41.357
183.684	52.551
187.826	33.521
191.967	96.201
196.105	230.607
200.241	398.74
204.375	559.461
208.507	748.269
212.638	730.49
216.766	529.36
220.892	390.014
225.016	234.575
229.139	168.053
233.259	130.456
237.377	158.766
241.493	171.852
245.608	218.801
249.72	239.324
253.83	195.641
257.939	244.666
262.045	266.159
266.15	240.355
270.252	246.22
274.353	272.183
278.451	280.068
282.548	291.966
286.642	290.58
290.735	344.641
294.826	358.977
298.914	405.192
303.001	456.243
307.086	575.233
311.168	761.07
315.249	1026.99
319.328	1053.54
323.405	1024.93
327.48	1086.76
331.553	1373.32
335.624	1850.64
339.693	2589.59
343.76	3491.5
347.826	5607.66
351.889	8452.14
355.95	10706.9
360.01	8843.93
364.067	5818.06
368.123	4016.24
372.176	2948.39
376.228	2280.52
380.277	1671.69
384.325	1191.88
388.371	808.97
392.415	536.379
396.457	352.428
400.497	227.337
404.535	153.425
408.571	131.653
412.605	82.867
416.638	38.984
420.668	22.083
424.697	18.05
428.723	20.075
432.748	47.316
436.77	2.278
440.791	11.316
444.81	10.896
448.827	21.049
452.842	64.839
456.855	53.608
460.867	73.267
464.876	144.817
468.883	150.272
472.889	253.63
476.892	446.887
480.894	685.047
484.894	979.119
488.892	724.119
492.888	542.082
496.882	747.114
500.874	1417.2
504.865	2320.26
508.853	1910.26
512.84	1045.24
516.824	771.642
520.807	737.759
524.788	673.599
528.767	705.803
532.744	743.975
536.719	816.366
540.693	1061.38
544.664	1455.17
548.634	2160.92
552.601	3524.59
556.567	5608.24
560.531	6179.44
564.493	3881.05
568.453	2034.24
572.412	1196.37
576.368	752.844
580.323	623.151
584.275	594.567
588.226	615.394
592.175	526.007
596.122	382.81
600.068	328.526
604.011	269.921
607.952	287.617
611.892	308.727
615.83	271.97
619.766	231.477
623.7	257.696
627.632	386.959
631.563	607.097
635.491	1035.11
639.418	1472.99
643.343	1217.76
647.266	794.395
651.187	521.911
655.106	332.303
659.024	231.571
662.939	138.715
666.853	128.737
670.765	67.636
674.675	77.406
678.583	16.029
682.49	14.5
686.394	6.804
690.297	11.887
694.198	40.261
698.097	12.733
701.995	20.473
705.89	6.493
709.784	38.779
713.675	11.371
717.565	2.206
721.453	0.782
725.34	7.619
729.224	13.309
733.107	7.886
736.988	32.656
740.867	6.351
744.744	28.884
748.62	26.896
752.493	1.264
756.365	13.4
760.235	4.518
764.103	38.607
767.969	46.666
771.834	29.699
775.697	13.706
779.558	40.683
783.417	30.628
787.274	46.542
791.13	55.431
794.983	64.297
798.835	104.143
802.686	156.974
806.534	216.794
810.38	275.612
814.225	285.443
818.068	370.301
821.909	381.174
825.749	425.854
829.586	434.293
833.422	528.627
837.256	609.565
841.088	782.924
844.919	1084.81
848.748	1526.15
852.575	2211.7
856.4	3240.21
860.223	4473.09
864.045	4703.07
867.864	3788.77
871.682	2871.72
875.499	2528.75
879.313	2377.8
883.126	2514.2
886.937	2998.49
890.746	3647.81
894.553	4719.46
898.359	5838.28
902.163	7274.95
905.965	10682.1
909.765	17539.7
913.564	30207.4
917.361	44854.6
921.156	45122.7
924.949	29610.9
928.74	17239.3
932.53	10517.7
936.318	6820.27
940.104	4668.95
943.889	3326.75
947.672	2395.66
951.453	1904.69
955.232	1555.84
959.01	1344.38
962.785	1137.54
966.559	1039.42
970.332	955.541
974.102	842.831
977.871	842.939
981.638	861.847
985.404	825.203
989.167	817.144
992.929	686.577
996.689	597.998
1000.45	547.718
1004.2	513.952
1007.96	559.709
1011.71	579.01
1015.46	643.563
1019.21	750.204
1022.96	816.998
1026.71	884.912
1030.45	1044.95
1034.19	1215.1
1037.94	1477.36
1041.68	1798.76
1045.41	2211.28
1049.15	2513.91
1052.88	2368.64
1056.62	1911.47
1060.35	1291.4
1064.08	795.427
1067.8	462.547
1071.53	384.763
1075.25	260.073
1078.97	198.458
1082.7	162.905
1086.41	103.422
1090.13	77.021
1093.85	63.659
1097.56	66.359
1101.27	30.187
1104.98	0.954
1108.69	6.236
1112.4	7.59
1116.1	2.608
1119.81	12.826
1123.51	62.946
1127.21	20.729
1130.91	34.531
1134.61	44.954
1138.3	13.608
1141.99	29.473
1145.68	17.503
1149.38	2.309
1153.06	12.982
1156.75	9.373
1160.43	22.156
1164.12	26.649
1167.8	62.102
1171.48	71.55
1175.16	95.009
1178.83	112.584
1182.51	111.563
1186.18	129.791
1189.85	143.76
1193.52	136.993
1197.19	142.649
1200.86	132.101
1204.52	115.428
1208.19	128.436
1211.85	127.734
1215.51	112.321
1219.17	124.38
1222.82	146.304
1226.48	132.794
1230.13	90.54
1233.78	119.279
1237.43	118.965
1241.08	86.402
1244.73	67.776
1248.37	99.589
1252.01	128.965
1255.66	148.347
1259.3	126.1
1262.93	129.398
1266.57	181.094
1270.21	156.717
1273.84	169.82
1277.47	175.099
1281.1	174.232
1284.73	166.388
1288.36	147.162
1291.98	136.747
1295.6	131.386
1299.23	105.537
1302.85	136.015
1306.46	74.789
1310.08	81.336
1313.7	66.743
1317.31	74.031
1320.92	69.076
1324.53	19.946
1328.14	30.661
1331.75	55.176
1335.35	23.528
1338.96	30.644
1342.56	2.439
1346.16	4.29
1349.76	27.163
1353.36	3.819
1356.95	31.336
1360.55	4.686
1364.14	14.107
1367.73	5.73
1371.32	4.355
1374.91	11.26
1378.49	9.104
1382.08	11.858
1385.66	41.502
1389.24	1.994
1392.82	40.293
1396.4	17.44
1399.97	30.434
1403.55	32.641
1407.12	48.125
1410.69	35.766
1414.26	55.447
1417.83	58.005
1421.4	54.347
1424.96	52.056
1428.53	45.408
1432.09	49.832
1435.65	85.189
1439.21	55.75
1442.76	69.573
1446.32	63.903
1449.87	61.53
1453.43	55.975
1456.98	22.526
1460.53	61.902
1464.07	50.534
1467.62	55.264
1471.16	100.712
1474.71	60.257
1478.25	69.393
1481.79	59.919
1485.32	67.135
1488.86	59.956
1492.39	54.496
1495.93	63.919
1499.46	32.405
1502.99	28.697
1506.52	25.544
1510.05	7.223
1513.57	49.333
1517.09	30.342
