Measurement: Raman, 514 nm, ccw, Raman Data Processed
Mineral: Pyromorphite
Rruff sample: R050015
Ideal chemistry: Pb_5_(PO_4_)_3_Cl
Locality: Bunker Hill mine, Shoshone County, Idaho, USA
Source: Eugene Schlepp
Description: Yellowish green prismatic hexagonal single crystals
Measured chemistry: Pb_5.00_((P_0.88_As_0.12_)O_4_)_3_Cl_1.00_
Pin_id: M00344
Orientation: Laser parallel to -a* (-1 0 0). Fiducial mark perpendicular to laser is parallel to -c [0 0 -1]
Raman shift (cm-1)	intensity
81.463	0
85.664	119.955
89.863	1212.98
94.059	1460.27
98.254	2214.12
102.446	6878.99
106.637	10118.1
110.825	6181.72
115.011	3679.33
119.195	2885.8
123.377	2747.11
127.556	2576.63
131.734	2639.63
135.909	3341.96
140.083	3932.07
144.254	3858.75
148.423	4153.22
152.59	4392.88
156.755	4217.69
160.918	3939.39
165.078	4492.91
169.237	5068.73
173.393	5390.98
177.548	6394.04
181.7	7662.83
185.85	7347.05
189.998	5883.88
194.144	4881.92
198.288	3935.29
202.429	2727.45
206.569	2155.44
210.707	1905.62
214.842	1585.65
218.976	1163.18
223.107	890.921
227.236	851.813
231.363	624.828
235.488	390.923
239.611	310.091
243.732	263.342
247.851	50.602
251.967	18.361
256.082	49.451
260.195	59.274
264.305	170.866
268.414	217.478
272.52	151.922
276.624	103.793
280.726	159.497
284.827	151.276
288.925	123.69
293.021	127.468
297.115	150.485
301.207	17.351
305.296	153.608
309.384	283.368
313.47	465.801
317.554	765.069
321.635	1120.43
325.715	1369.92
329.792	1785.82
333.868	2395.27
337.941	2934.3
342.013	2919.45
346.082	2744.62
350.15	2499.58
354.215	2068.54
358.278	1573.86
362.339	1342.79
366.399	1281.28
370.456	1362.91
374.511	1354.37
378.564	1511.11
382.615	1910.45
386.664	2468.15
390.711	2917.33
394.756	2949.95
398.799	3253.97
402.84	4892.41
406.879	7569.17
410.916	7786.59
414.951	5522.43
418.983	3649.67
423.014	2449.14
427.043	1728.61
431.07	1376.39
435.095	1190.89
439.118	930.698
443.138	757.071
447.157	605.783
451.174	611.708
455.189	551.828
459.202	491.94
463.212	378.947
467.221	387.033
471.228	350.066
475.233	253.314
479.236	213.821
483.237	254.476
487.235	248.535
491.232	244.115
495.227	237.306
499.22	267.949
503.211	280.283
507.2	290.573
511.187	292.342
515.172	268.172
519.155	276.198
523.136	307.465
527.115	310.823
531.092	311.791
535.067	347.431
539.04	455.067
543.011	548.886
546.98	660.081
550.947	796.079
554.913	802.479
558.876	573.127
562.837	452.529
566.797	361.5
570.754	411.925
574.709	454.828
578.663	423.497
582.614	308.059
586.564	244.493
590.511	265.769
594.457	261.813
598.401	259.215
602.343	267.457
606.282	279.362
610.22	260.228
614.156	195.888
618.09	228.185
622.022	170.189
625.952	138.73
629.88	166.237
633.807	156.84
637.731	127.051
641.653	61.176
645.574	64.17
649.492	101.214
653.409	86.939
657.323	31.806
661.236	30.502
665.147	28.283
669.056	24.143
672.963	10.287
676.868	68.555
680.771	24.971
684.672	9.161
688.571	15.595
692.468	60.839
696.364	35.251
700.257	30.734
704.149	70.735
708.038	23.324
711.926	8.634
715.812	61.782
719.696	73.611
723.578	46.448
727.458	3.811
731.336	30.051
735.213	14.218
739.087	42.992
742.96	60.677
746.83	118.16
750.699	187.602
754.566	212.1
758.431	292.383
762.294	408.967
766.155	727.604
770.014	1118.64
773.872	1635.91
777.727	2099.37
781.581	2378.55
785.433	2688.1
789.282	2619.44
793.13	2272.56
796.977	2349.18
800.821	2733.87
804.663	4013.79
808.504	8138.65
812.342	21426.8
816.179	43454.2
820.014	32111
823.847	14424.6
827.678	8425.93
831.507	6124.85
835.334	4957.48
839.16	4160.83
842.983	3930.76
846.805	4739.18
850.625	5408.68
854.443	4037.33
858.259	2069.43
862.074	1200.99
865.886	873.922
869.697	817.735
873.506	977.375
877.313	882.457
881.118	571.059
884.921	290.341
888.722	160.669
892.522	181.881
896.319	346.259
900.115	489.177
903.909	941.644
907.701	1667.71
911.492	3303.33
915.28	8820.57
919.067	14533.4
922.852	12026.7
926.635	9030.61
930.416	9045.02
934.195	12889.9
937.973	20475.4
941.748	29291.4
945.522	29677.9
949.294	21405
953.064	13112.6
956.832	8040.77
960.599	5439.51
964.364	4044.89
968.127	3165.14
971.888	2532.84
975.647	2107.92
979.404	1761.66
983.16	1534.13
986.914	1514.29
990.666	1437.06
994.416	1425.48
998.164	1467.57
1001.91	1583.36
1005.65	1872.81
1009.4	2424.92
1013.14	3205.69
1016.88	3715.29
1020.62	3549.11
1024.35	2949.67
1028.09	2337.98
1031.82	2009.23
1035.55	1797.95
1039.28	1762.48
1043	1692.63
1046.73	1444.36
1050.45	1066.92
1054.17	851.575
1057.89	666.827
1061.61	670.473
1065.33	613.524
1069.04	616.838
1072.75	572.076
1076.46	467.72
1080.17	322.195
1083.88	356.551
1087.59	470.537
1091.29	345.419
1094.99	308.769
1098.69	253.702
1102.39	132.124
1106.09	78.249
1109.78	11.009
1113.47	0.827
1117.16	40.173
1120.85	169.712
1124.54	63.432
1128.23	0.162
1131.91	9.869
1135.59	38.483
1139.27	176.672
1142.95	276.3
1146.63	326.839
1150.3	337.953
1153.98	192.282
1157.65	47.809
1161.32	25.692
1164.99	37.73
1168.65	70.415
1172.32	97.913
1175.98	45.18
1179.64	39.947
1183.3	56.977
1186.96	34.882
1190.62	49.389
1194.27	38.666
1197.92	52.601
1201.57	48.608
1205.22	59.896
1208.87	24.3
1212.51	44.466
1216.16	23.225
1219.8	4.807
1223.44	48.807
1227.08	69.903
1230.72	87.036
1234.35	73.196
1237.98	88.83
1241.62	129.74
1245.25	148.433
1248.87	124.875
1252.5	107.223
1256.12	165.54
1259.75	150.413
1263.37	93.884
1266.99	122.185
1270.61	135.95
1274.22	55.702
1277.84	133.706
1281.45	110.805
1285.06	83.435
1288.67	101.446
1292.28	99.67
1295.88	135.697
1299.49	160.388
1303.09	88.533
1306.69	127.155
1310.29	146.115
1313.89	145.542
1317.48	127.032
1321.08	93.333
1324.67	104.178
1328.26	100.418
1331.85	117.068
1335.44	145.026
1339.02	140.063
1342.61	89.655
1346.19	118.147
1349.77	105.451
1353.35	145.329
1356.92	78.072
1360.5	83.643
1364.07	56.978
1367.64	94.34
1371.21	123.131
1374.78	89.599
1378.35	86.459
1381.91	157.419
1385.48	132.358
1389.04	111.688
1392.6	90.483
1396.16	55.682
1399.71	51.039
1403.27	166.46
1406.82	70.467
1410.38	107.841
1413.92	55.457
1417.47	87.157
1421.02	63.313
1424.57	4.951
1428.11	25.179
1431.65	67.238
1435.19	98.815
1438.73	81.845
1442.27	92.294
1445.8	110.437
1449.33	113.062
1452.87	133.008
1456.4	160.657
1459.92	177.627
1463.45	117.227
1466.98	152.521
1470.5	114.292
1474.02	65.861
1477.54	31.592
1481.06	112.599
1484.58	135.602
1488.09	63.662
1491.61	111.404
1495.12	82.365
1498.63	55.877
1502.14	46.517
1505.64	1.984
1509.15	99.708
1512.65	92.042
1516.15	100.674
1519.66	0
