Measurement: Raman, 514 nm, ccw, Raman Data Processed
Mineral: Pyromorphite
Rruff sample: R050085
Ideal chemistry: Pb_5_(PO_4_)_3_Cl
Locality: Bunker Hill mine, Shoshone County, Idaho, USA
Source: Eugene Schlepp
Description: Group of orange hexagonal prisms
Measured chemistry: Pb_5.00_(P_0.96_As_0.04_O_4_)_3_Cl_1.00_
Pin_id: L00335
Orientation: Laser parallel to c* (0 0 1). Fiducial mark perpendicular to laser is parallel to a [1 0 0]
Raman shift (cm-1)	intensity
51.274	0
55.47	5.263
59.664	89.741
63.855	630.08
68.045	853.392
72.233	1424.69
76.418	2051.58
80.602	2444.88
84.784	6416.26
88.964	16274.8
93.142	16893.6
97.318	10229.3
101.492	10849.5
105.664	17923.1
109.834	17981
114.002	10456.8
118.168	6011.59
122.332	3740.33
126.495	2551.98
130.655	2065.79
134.813	1884.86
138.97	1819.37
143.124	2098.23
147.277	2618.15
151.427	3464.47
155.576	4088.29
159.723	4297.61
163.867	3819.79
168.01	3184.33
172.151	2469.14
176.29	2169.68
180.427	1890.14
184.562	1836.71
188.696	1815.05
192.827	1808.53
196.956	1756.18
201.084	1675.82
205.209	1566.18
209.333	1513.29
213.454	1321.02
217.574	1276.14
221.692	999.341
225.808	779.367
229.922	537.331
234.034	453.59
238.144	346.404
242.252	264.267
246.359	241.829
250.463	153.827
254.566	149.033
258.666	110.267
262.765	110.402
266.862	19.347
270.957	11.026
275.05	30.667
279.141	77.916
283.23	52.871
287.317	102.864
291.403	4.619
295.486	70.401
299.568	84.959
303.647	96.223
307.725	102.376
311.801	61.474
315.875	63.306
319.947	28.088
324.018	6.719
328.086	33.575
332.153	72.498
336.217	118.021
340.28	151.199
344.341	226.557
348.4	316.013
352.457	290.439
356.512	231.829
360.566	211.281
364.617	240.238
368.667	280.45
372.715	358.698
376.761	468.94
380.805	497.519
384.847	538.772
388.887	701.656
392.926	860.096
396.962	841.007
400.997	770.376
405.03	998.571
409.061	1477.35
413.09	2272.84
417.117	3325.64
421.143	2996.7
425.166	1843.01
429.188	1175.09
433.208	870.677
437.226	704.768
441.242	622.1
445.256	506.713
449.269	467.106
453.28	466.289
457.288	437.415
461.295	383.979
465.3	363.315
469.304	323.978
473.305	275.204
477.305	250.336
481.303	233.75
485.298	215.063
489.293	213.752
493.285	217.702
497.275	214.842
501.264	197.858
505.251	235.999
509.236	221.185
513.219	225.167
517.2	255.452
521.18	247.884
525.157	269.21
529.133	301.918
533.107	333.137
537.079	432.785
541.05	774.648
545.018	941.749
548.985	590.127
552.95	704.396
556.913	804.92
560.875	639.999
564.834	608.209
568.792	802.27
572.748	1750.33
576.702	2351.98
580.654	1196.61
584.605	681.708
588.553	465.361
592.5	403.677
596.445	389.706
600.389	345.91
604.33	337.511
608.27	328.151
612.208	324.631
616.144	308.906
620.078	250.814
624.011	290.505
627.941	230.987
631.87	213.336
635.798	176.461
639.723	167.564
643.647	152.468
647.568	88.371
651.488	91.198
655.407	68.821
659.323	54.923
663.238	42.131
667.151	26.151
671.062	5.635
674.971	3.887
678.879	22.227
682.785	6.768
686.689	25.455
690.591	26.19
694.491	34.881
698.39	43.877
702.287	32.311
706.182	54.185
710.076	28.49
713.968	51.15
717.857	69.208
721.746	36.631
725.632	27.297
729.517	17.96
733.4	0.811
737.281	2.312
741.16	20.511
745.038	17.804
748.913	21.171
752.788	3.578
756.66	61.004
760.531	113.593
764.399	158.206
768.267	225.858
772.132	313.558
775.996	419.309
779.857	574.137
783.718	803.037
787.576	1168.99
791.433	1369.71
795.288	1512.89
799.141	1489.23
802.992	1452.55
806.842	1280.91
810.69	1421.18
814.536	2383.37
818.381	5562.6
822.223	5930.67
826.065	4825.07
829.904	3549.77
833.741	2061.15
837.577	1786
841.412	1893.5
845.244	2002.55
849.075	3251.82
852.904	4363.23
856.731	2521.39
860.556	785.112
864.38	225.711
868.202	79.808
872.023	96.447
875.842	147.812
879.658	201.583
883.474	232.155
887.287	371.119
891.099	584.56
894.909	888.219
898.718	1226.85
902.524	1965.72
906.329	3461.38
910.133	6772.78
913.934	15683.7
917.734	40278.1
921.532	48433
925.329	24318.4
929.124	11254.3
932.917	6644.64
936.708	5727.51
940.498	6763.84
944.286	8962.65
948.072	9870.93
951.857	7527.69
955.64	4834.93
959.421	2981.66
963.201	1949.88
966.979	1467.59
970.755	1212.82
974.529	1100.58
978.302	997.872
982.073	933.707
985.843	1002.12
989.611	1037.13
993.377	1182.73
997.141	1501.92
1000.9	1986.67
1004.66	2817.97
1008.42	3605.84
1012.18	4044.28
1015.94	3634.27
1019.69	2852.79
1023.45	2156.86
1027.2	1623.43
1030.95	1221.88
1034.69	973.154
1038.44	711.991
1042.18	745.036
1045.93	717.155
1049.67	629.732
1053.41	508.842
1057.14	480.669
1060.88	433.15
1064.62	439.462
1068.35	478.395
1072.08	548.045
1075.81	593.369
1079.54	580.814
1083.26	531.762
1086.99	496.768
1090.71	510.539
1094.43	465.991
1098.15	436.196
1101.87	433.432
1105.59	362.274
1109.3	270.729
1113.01	253.737
1116.72	232.496
1120.43	261.932
1124.14	273.434
1127.85	422.202
1131.55	519.151
1135.26	426.853
1138.96	321.336
1142.66	356.02
1146.36	370.387
1150.05	393.018
1153.75	366.925
1157.44	223.63
1161.13	157.194
1164.82	110.157
1168.51	35.532
1172.2	3.75
1175.88	42.536
1179.57	32.73
1183.25	55.205
1186.93	69.008
1190.61	71.197
1194.28	57.789
1197.96	50.952
1201.63	34.456
1205.31	36.241
1208.98	3.235
1212.64	14.389
1216.31	5.83
1219.98	1.859
1223.64	2.256
1227.31	6.701
1230.97	16.743
1234.62	46.88
1238.28	45.434
1241.94	30.778
1245.59	41.924
1249.25	37.854
1252.9	52.225
1256.55	67.527
1260.2	59.448
1263.84	87.98
1267.49	95.251
1271.13	77.368
1274.77	91.07
1278.41	86.605
1282.05	84.874
1285.69	110.763
1289.32	121.536
1292.96	133.447
1296.59	115.413
1300.22	112.628
1303.85	121.406
1307.48	110.192
1311.1	141.619
1314.72	134.261
1318.35	142.589
1321.97	157.507
1325.59	165.64
1329.21	154.546
1332.82	145.425
1336.44	131.256
1340.05	138.805
1343.66	135.188
1347.27	122.397
1350.88	109.339
1354.49	96.955
1358.09	85.349
1361.7	91.591
1365.3	102.01
1368.9	71.864
1372.5	88.881
1376.1	74.028
1379.69	73.037
1383.29	74.395
1386.88	60.022
1390.47	82.018
1394.06	72.308
1397.65	66.257
1401.23	67.316
1404.82	61.334
1408.4	63.166
1411.98	39.287
1415.56	41.027
1419.14	50.834
1422.72	47.058
1426.3	47.896
1429.87	25.586
1433.44	40.502
1437.01	21.724
1440.58	48.317
1444.15	33.988
1447.71	46.282
1451.28	20.999
1454.84	45.693
1458.4	33.988
1461.96	43.234
1465.52	33.159
1469.08	18.221
1472.64	42.165
1476.19	27.51
1479.74	13.096
1483.29	30.877
1486.84	17.596
1490.39	11.267
1493.94	14.597
1497.48	28.83
1501.02	9.938
1504.57	21.492
1508.11	67.35
1511.64	176.374
1515.18	130.195
1518.72	41.814
1522.25	118.916
