Measurement: Raman, 514 nm, ccw, Raman Data Processed
Mineral: Pyromorphite
Rruff sample: R050085
Ideal chemistry: Pb_5_(PO_4_)_3_Cl
Locality: Bunker Hill mine, Shoshone County, Idaho, USA
Source: Eugene Schlepp
Description: Group of orange hexagonal prisms
Measured chemistry: Pb_5.00_(P_0.96_As_0.04_O_4_)_3_Cl_1.00_
Pin_id: L00335
Orientation: Laser parallel to c* (0 0 1). Fiducial mark perpendicular to laser is parallel to a [1 0 0]
Raman shift (cm-1)	intensity
51.274	0
55.47	37.554
59.664	231.902
63.855	711.547
68.045	1021.45
72.233	1232.99
76.418	1611.97
80.602	1931.83
84.784	5514.33
88.964	15115.3
93.142	16266.6
97.318	9954.7
101.492	10327.3
105.664	16703.3
109.834	17363.9
114.002	10193.8
118.168	5692.33
122.332	3397.27
126.495	2241.53
130.655	1892.73
134.813	1610.94
138.97	1580.44
143.124	1831.25
147.277	2371.08
151.427	3144.28
155.576	3950.99
159.723	4082.61
163.867	3751.69
168.01	2987.09
172.151	2348.14
176.29	2026.85
180.427	1877.3
184.562	1764.57
188.696	1736.43
192.827	1645.67
196.956	1590.14
201.084	1500.69
205.209	1455.11
209.333	1396.34
213.454	1258.51
217.574	1061.34
221.692	965.948
225.808	724.724
229.922	524.067
234.034	386.717
238.144	245.907
242.252	186.12
246.359	158
250.463	147.277
254.566	100.72
258.666	98.148
262.765	61.434
266.862	18.486
270.957	35.229
275.05	50.451
279.141	56.57
283.23	67.77
287.317	126.141
291.403	131.401
295.486	94.472
299.568	60.717
303.647	103.693
307.725	73.769
311.801	85.739
315.875	61.401
319.947	14.889
324.018	18.146
328.086	54.903
332.153	88.122
336.217	125.579
340.28	205.445
344.341	294.696
348.4	335.366
352.457	277.476
356.512	228.654
360.566	231.866
364.617	244.31
368.667	314.087
372.715	416.495
376.761	557.607
380.805	566.933
384.847	595.91
388.887	812.464
392.926	1022.79
396.962	963.062
400.997	876.023
405.03	1016.38
409.061	1473.09
413.09	2272.13
417.117	3333.46
421.143	3029.07
425.166	1795.8
429.188	1184.2
433.208	840.236
437.226	763.186
441.242	630.714
445.256	498.86
449.269	463.389
453.28	445.265
457.288	442.303
461.295	386.187
465.3	373.352
469.304	331.221
473.305	285.193
477.305	253.228
481.303	234.892
485.298	213.099
489.293	211.138
493.285	222.005
497.275	200.414
501.264	211.879
505.251	209.391
509.236	218.292
513.219	222.538
517.2	253.026
521.18	269.4
525.157	231.571
529.133	270.914
533.107	281.478
537.079	402.981
541.05	710.628
545.018	962.535
548.985	618.32
552.95	671.522
556.913	791.561
560.875	591.551
564.834	532.813
568.792	725.735
572.748	1559.92
576.702	2114.09
580.654	1126.39
584.605	636.848
588.553	465.925
592.5	381.313
596.445	345.135
600.389	337.27
604.33	328.154
608.27	314.564
612.208	294.759
616.144	271.698
620.078	252.89
624.011	253.166
627.941	228.743
631.87	184.197
635.798	196.37
639.723	155.36
643.647	134.427
647.568	115.31
651.488	87.961
655.407	71.391
659.323	38.7
663.238	45.682
667.151	46.465
671.062	5.18
674.971	4.356
678.879	0.09
682.785	19.772
686.689	9.56
690.591	16.035
694.491	15.214
698.39	23.692
702.287	20.544
706.182	16.763
710.076	31.36
713.968	49.333
717.857	22.668
721.746	60.301
725.632	11.215
729.517	19.346
733.4	22.642
737.281	37.073
741.16	21.645
745.038	30.325
748.913	43.114
752.788	26.012
756.66	25.053
760.531	66.118
764.399	113.201
768.267	152.311
772.132	223.46
775.996	278.654
779.857	396.904
783.718	645.207
787.576	858.445
791.433	1038.69
795.288	1046.83
799.141	1041.83
802.992	988.676
806.842	961.572
810.69	1159.71
814.536	2128.49
818.381	5169.49
822.223	5733.51
826.065	4872.7
829.904	3710.44
833.741	2036.12
837.577	1589.15
841.412	1609.99
845.244	1747.76
849.075	2700.23
852.904	3604.88
856.731	2097.73
860.556	711.498
864.38	234.456
868.202	146.143
872.023	107.405
875.842	142.307
879.658	224.309
883.474	260.817
887.287	394.476
891.099	603.483
894.909	854.546
898.718	1196.07
902.524	1759.12
906.329	3087.9
910.133	6161.41
913.934	14175.4
917.734	36489.9
921.532	45674.8
925.329	23490.2
929.124	10716
932.917	6328.31
936.708	5416.05
940.498	6575.22
944.286	8673.8
948.072	9501.81
951.857	7338.28
955.64	4816.18
959.421	3029.52
963.201	2048.32
966.979	1456.56
970.755	1191.27
974.529	1107.43
978.302	1033.08
982.073	1013.22
985.843	1025.88
989.611	1058.05
993.377	1184.72
997.141	1359.92
1000.9	1935.63
1004.66	2728.84
1008.42	3453.54
1012.18	3992.75
1015.94	3493.47
1019.69	2786.68
1023.45	2118.58
1027.2	1625.64
1030.95	1182.73
1034.69	925.433
1038.44	749.379
1042.18	708.622
1045.93	646.743
1049.67	580.16
1053.41	467.804
1057.14	428.104
1060.88	406.743
1064.62	440.677
1068.35	463.322
1072.08	487.84
1075.81	575.484
1079.54	544.705
1083.26	509.789
1086.99	452.608
1090.71	492.988
1094.43	462.816
1098.15	437.908
1101.87	413.97
1105.59	367.685
1109.3	279.915
1113.01	247.948
1116.72	211.644
1120.43	238.405
1124.14	298.066
1127.85	404.949
1131.55	465.804
1135.26	358.858
1138.96	332.665
1142.66	355.499
1146.36	358.532
1150.05	367.511
1153.75	311.232
1157.44	269.232
1161.13	141.308
1164.82	67.264
1168.51	41.085
1172.2	10.946
1175.88	52.236
1179.57	57.895
1183.25	49.577
1186.93	47.466
1190.61	58.995
1194.28	49.912
1197.96	32.474
1201.63	30.589
1205.31	31.244
1208.98	13.323
1212.64	32.602
1216.31	6.226
1219.98	10.028
1223.64	15.84
1227.31	10.677
1230.97	12.901
1234.62	26.526
1238.28	34.545
1241.94	28.247
1245.59	23.393
1249.25	46.476
1252.9	50.486
1256.55	65.279
1260.2	50.589
1263.84	61.573
1267.49	70.285
1271.13	86.986
1274.77	77.565
1278.41	63.587
1282.05	77.98
1285.69	85.742
1289.32	89.025
1292.96	107.875
1296.59	124.193
1300.22	126.395
1303.85	106.07
1307.48	116.66
1311.1	126.548
1314.72	123.521
1318.35	131.427
1321.97	162.98
1325.59	160.618
1329.21	126.25
1332.82	135.365
1336.44	139.43
1340.05	125.684
1343.66	127.257
1347.27	108.048
1350.88	121.507
1354.49	105.506
1358.09	98.723
1361.7	103.843
1365.3	91.331
1368.9	103.02
1372.5	68.519
1376.1	50.282
1379.69	55.828
1383.29	61.708
1386.88	65.711
1390.47	80.639
1394.06	53.078
1397.65	56.239
1401.23	57.412
1404.82	50.424
1408.4	53.272
1411.98	57.456
1415.56	29.025
1419.14	65.387
1422.72	64.638
1426.3	28.02
1429.87	47.085
1433.44	34.806
1437.01	40.249
1440.58	35.611
1444.15	37.53
1447.71	23.219
1451.28	37.979
1454.84	11.515
1458.4	54.584
1461.96	10.025
1465.52	37.642
1469.08	50.517
1472.64	40.721
1476.19	39.728
1479.74	30.78
1483.29	2.815
1486.84	29.586
1490.39	34.58
1493.94	25.32
1497.48	7.87
1501.02	25.755
1504.57	6.286
1508.11	57.503
1511.64	171.13
1515.18	105.821
1518.72	41.78
1522.25	85.508
