Measurement: Raman, 514 nm, ccw, Raman Data Processed
Mineral: Pyromorphite
Rruff sample: R050027
Ideal chemistry: Pb_5_(PO_4_)_3_Cl
Locality: Yangshuo, Guangxi Autonomous Region, China
Source: Eugene Schlepp
Description: Light green hexagonal prismatic hoppered single crystals
Measured chemistry: Pb_5.00_(P_1.00_O_4_)_3_Cl_1.00_
Pin_id: L00481
Orientation: Laser parallel to -a* (-1 0 0). Fiducial mark perpendicular to laser is parallel to -c [0 0 -1]
Raman shift (cm-1)	intensity
46.637	0
50.856	123.73
55.072	468.723
59.287	599.352
63.499	869.239
67.709	463.082
71.917	189.577
76.123	3.111
80.327	65.94
84.529	447.952
88.728	2494.33
92.926	3078.55
97.121	2883.14
101.314	5291.59
105.505	12023.6
109.694	11950.2
113.881	7280.04
118.066	5132.69
122.249	4377.95
126.43	4179.11
130.608	4175.94
134.785	4432.1
138.959	4742.47
143.131	5389.54
147.301	5886.72
151.469	6331.92
155.635	6566.08
159.799	6533.21
163.961	6336.34
168.121	6187.59
172.278	6412.48
176.434	6724.78
180.587	6907.82
184.739	7028.42
188.888	7012.63
193.035	6364.66
197.18	5048.2
201.324	4015.41
205.465	3353.53
209.603	2865.73
213.74	2651.82
217.875	2362.73
222.008	2082.59
226.139	1830.77
230.267	1584.48
234.394	1395.1
238.518	1202.51
242.641	1097.46
246.761	967.966
250.879	877.021
254.996	795.615
259.11	681.284
263.222	608.004
267.332	544.759
271.44	448.534
275.546	332.322
279.65	279.107
283.752	215.856
287.852	175.533
291.95	117.126
296.046	68.536
300.14	24.027
304.231	9.356
308.321	26.285
312.409	41.59
316.495	49.113
320.578	54.54
324.66	44.376
328.739	30.021
332.817	16.825
336.892	30.008
340.966	79.77
345.037	49.168
349.107	36.847
353.174	103.295
357.24	146.18
361.303	138.951
365.365	146.541
369.424	204.758
373.481	297.883
377.537	502.934
381.59	922.825
385.642	1840.57
389.691	3612.22
393.738	4302.79
397.784	3133.28
401.827	3449.76
405.868	5969.25
409.908	6742.91
413.945	4558.64
417.98	3157.32
422.014	1822.98
426.045	1037.55
430.075	610.028
434.102	481.411
438.127	310.722
442.151	274.96
446.172	218.209
450.192	187.034
454.209	214.08
458.225	206.275
462.238	205.918
466.25	143.683
470.259	136.482
474.267	68.749
478.273	47.704
482.276	10.294
486.278	20.911
490.278	14.757
494.276	28.917
498.271	38.858
502.265	21.129
506.257	84.135
510.247	43.478
514.235	89.6
518.221	65.676
522.205	67.976
526.187	110.492
530.167	136.911
534.145	230.386
538.122	310.772
542.096	585.646
546.068	568.168
550.039	760.223
554.007	951.687
557.973	563.722
561.938	375.343
565.901	343.526
569.861	571.222
573.82	1264.99
577.777	937.975
581.732	482.251
585.685	274.413
589.636	229.884
593.585	246.735
597.532	215.721
601.477	161.129
605.42	222.145
609.361	215.949
613.301	179.123
617.238	206.02
621.174	134.646
625.108	120.1
629.039	106.779
632.969	100.833
636.897	86.73
640.823	73.927
644.747	82.935
648.669	69.011
652.589	54.932
656.508	38.804
660.424	47.102
664.339	38.566
668.251	18.61
672.162	14.514
676.071	19.072
679.978	10.381
683.883	17.57
687.786	23.61
691.687	28.283
695.586	3.352
699.484	33.339
703.379	3.27
707.273	6.498
711.165	11.388
715.055	33.808
718.943	15.514
722.829	12.351
726.713	34.873
730.595	71.906
734.476	80.105
738.354	48.694
742.231	15.605
746.106	37.793
749.978	28.297
753.849	44.142
757.719	18.414
761.586	4.634
765.451	26.777
769.315	74.188
773.177	93.485
777.036	128.32
780.894	149.844
784.75	150.266
788.605	178.459
792.457	262.683
796.307	273.725
800.156	319.579
804.003	293.636
807.848	181.249
811.691	122.394
815.532	174.629
819.371	272.652
823.209	256.819
827.045	263.181
830.878	150.802
834.71	109.675
838.54	60.751
842.369	87.542
846.195	169.83
850.02	297.768
853.842	303.547
857.663	110.745
861.482	5.397
865.299	31.831
869.115	37.508
872.928	43.062
876.74	107.372
880.55	186.562
884.358	267.527
888.164	434.788
891.969	598.234
895.771	831.8
899.572	1100.76
903.371	1703.17
907.168	3145.04
910.963	6409.68
914.757	15816.9
918.548	36773.8
922.338	27171.4
926.126	13609.3
929.912	9497.58
933.697	10356.2
937.479	14825.2
941.26	23424.5
945.039	31634.1
948.816	28494.1
952.591	18964.4
956.365	11365.1
960.136	7246.18
963.906	4855.59
967.674	3641.36
971.441	3081.54
975.205	2838.12
978.968	2793.13
982.729	2636.56
986.488	2220.38
990.245	1973.63
994	1852.34
997.754	1858.46
1001.51	2161.96
1005.26	2703.86
1009	3314.2
1012.75	3790.95
1016.5	4183.86
1020.24	4664.39
1023.98	4590.21
1027.72	4000.51
1031.46	3347.03
1035.19	2581.2
1038.93	2271.35
1042.66	2044.16
1046.39	1946.48
1050.12	1634.27
1053.85	1316.58
1057.57	1139.18
1061.29	1008.93
1065.02	864.425
1068.74	893.657
1072.45	952.896
1076.17	895.51
1079.88	854.293
1083.6	826.336
1087.31	778.052
1091.02	745.235
1094.72	700.588
1098.43	624.636
1102.13	550.598
1105.84	458.359
1109.54	364.988
1113.24	259.663
1116.93	227.998
1120.63	220.808
1124.32	177.545
1128.01	251.945
1131.7	244.581
1135.39	271.799
1139.08	227.388
1142.76	241.526
1146.45	414.119
1150.13	493.273
1153.81	492.686
1157.48	325.468
1161.16	250.888
1164.84	154.73
1168.51	81
1172.18	7.597
1175.85	31.829
1179.52	26.1
1183.18	5.595
1186.85	9.187
1190.51	26.547
1194.17	42.64
1197.83	40.372
1201.48	87.112
1205.14	54.5
1208.79	16.156
1212.44	35.143
1216.09	32.957
1219.74	13.928
1223.39	22.272
1227.03	16.088
1230.68	3.069
1234.32	17.261
1237.96	12.776
1241.6	33.174
1245.23	16.972
1248.87	56.743
1252.5	38.69
1256.13	44.904
1259.76	54.983
1263.39	20.128
1267.02	5.606
1270.64	1.763
1274.26	47.718
1277.88	67.326
1281.5	64.573
1285.12	60.082
1288.74	52.031
1292.35	67.009
1295.96	53.354
1299.57	82.582
1303.18	90.178
1306.79	61.436
1310.4	128.414
1314	134.118
1317.6	175.594
1321.2	108.905
1324.8	139.133
1328.4	66.36
1331.99	91.863
1335.59	86.342
1339.18	102.266
1342.77	82.602
1346.36	97.617
1349.95	115.27
1353.53	110.037
1357.12	78.901
1360.7	56.216
1364.28	111.844
1367.86	0.943
1371.44	65.299
1375.01	75.743
1378.59	80.597
1382.16	23.416
1385.73	145.803
1389.3	92.889
1392.87	52.452
1396.43	73.356
1399.99	55.039
1403.56	54.118
1407.12	54.208
1410.68	44.922
1414.23	57.567
1417.79	81.536
1421.34	104.196
1424.9	111.514
1428.45	91.18
1431.99	80.029
1435.54	69.793
1439.09	32.185
1442.63	45.552
1446.17	69.469
1449.71	46.21
1453.26	88.708
1456.79	81.195
1460.33	98.396
1463.86	103.043
1467.39	128.244
1470.92	156.359
1474.45	2.129
1477.98	33.475
1481.51	83.838
1485.03	51.988
1488.56	78.316
1492.08	14.747
1495.6	86.451
1499.11	135.486
1502.63	136.189
1506.14	126.163
1509.66	91.575
1513.17	53.205
1516.68	0
