Measurement: Raman, 514 nm, ccw, Raman Data Processed
Mineral: Pyromorphite
Rruff sample: R050085
Ideal chemistry: Pb_5_(PO_4_)_3_Cl
Locality: Bunker Hill mine, Shoshone County, Idaho, USA
Source: Eugene Schlepp
Description: Group of orange hexagonal prisms
Measured chemistry: Pb_5.00_(P_0.96_As_0.04_O_4_)_3_Cl_1.00_
Pin_id: L00459
Orientation: Laser parallel to a* (1 0 0). Fiducial mark perpendicular to laser is parallel to c [0 0 1]
Raman shift (cm-1)	intensity
51.274	0
55.47	178.252
59.664	36.622
63.855	7.609
68.045	99.458
72.233	611.617
76.418	1631.27
80.602	4159.52
84.784	11754.3
88.964	20875.8
93.142	15964.2
97.318	11267.6
101.492	15114.4
105.664	21154
109.834	16595.9
114.002	10060.1
118.168	6834.79
122.332	5000.94
126.495	4175.36
130.655	3683.54
134.813	3431.58
138.97	3541.74
143.124	3836.1
147.277	4412.22
151.427	5140.35
155.576	5615.61
159.723	5418.04
163.867	4676.66
168.01	4076.48
172.151	3514.42
176.29	3134.96
180.427	2964.3
184.562	2959.89
188.696	2829.5
192.827	2732.49
196.956	2557.9
201.084	2387.56
205.209	2304.34
209.333	2126.4
213.454	2057.53
217.574	1845.24
221.692	1580.92
225.808	1376.9
229.922	1161.65
234.034	946.965
238.144	751.755
242.252	699.516
246.359	667.032
250.463	651.143
254.566	462.71
258.666	509.615
262.765	369.766
266.862	277.101
270.957	215.567
275.05	135.122
279.141	104.726
283.23	89.311
287.317	41.404
291.403	2.413
295.486	56.557
299.568	43.725
303.647	83.87
307.725	73.01
311.801	86.305
315.875	107.974
319.947	64.79
324.018	69.189
328.086	54.552
332.153	9.926
336.217	38.279
340.28	126.789
344.341	190.829
348.4	210.544
352.457	111.717
356.512	70.346
360.566	41.363
364.617	52.931
368.667	158.018
372.715	264.046
376.761	372.111
380.805	356.982
384.847	544.834
388.887	900.717
392.926	967.549
396.962	768.281
400.997	695.845
405.03	950.203
409.061	1541.32
413.09	2420.14
417.117	3069.66
421.143	2265.82
425.166	1253.61
429.188	822.01
433.208	623.02
437.226	457.628
441.242	326.825
445.256	250.604
449.269	231.952
453.28	232.168
457.288	223.468
461.295	190.205
465.3	183.946
469.304	160.896
473.305	105.719
477.305	82.271
481.303	60.348
485.298	71.542
489.293	43.953
493.285	60.014
497.275	70.346
501.264	79.14
505.251	88.679
509.236	114.173
513.219	101.542
517.2	115.668
521.18	146.095
525.157	138.232
529.133	210.532
533.107	254
537.079	448.414
541.05	845.194
545.018	745.464
548.985	571.46
552.95	750.051
556.913	761.988
560.875	592.713
564.834	615.22
568.792	1048.45
572.748	2250.94
576.702	1961.84
580.654	941.496
584.605	583.616
588.553	420.272
592.5	355.44
596.445	349.139
600.389	336.372
604.33	324.98
608.27	316.193
612.208	298.762
616.144	284.321
620.078	281.371
624.011	238.977
627.941	207.929
631.87	184.073
635.798	169.288
639.723	163.95
643.647	94.349
647.568	76.199
651.488	58.487
655.407	59.911
659.323	55.31
663.238	7.086
667.151	3.015
671.062	24.087
674.971	13.524
678.879	32.011
682.785	46.085
686.689	49.309
690.591	29.608
694.491	22.063
698.39	65.052
702.287	71.615
706.182	82.706
710.076	78.301
713.968	26.376
717.857	57.82
721.746	38.627
725.632	15.724
729.517	27.053
733.4	34.422
737.281	27.773
741.16	27.74
745.038	26.179
748.913	59.266
752.788	63.396
756.66	111.282
760.531	163.243
764.399	244.2
768.267	328.168
772.132	504.165
775.996	706.205
779.857	985.304
783.718	1325.38
787.576	1686.42
791.433	1947.21
795.288	2187.16
799.141	2156.45
802.992	1938.55
806.842	1859.1
810.69	2291.82
814.536	4215.73
818.381	7388.37
822.223	5899.66
826.065	5010.15
829.904	3606.35
833.741	2901.15
837.577	3346.02
841.412	3308.89
845.244	3677.51
849.075	5474.33
852.904	5430.5
856.731	2529.36
860.556	831.122
864.38	301.172
868.202	155.585
872.023	162.271
875.842	233.823
879.658	268.493
883.474	379.669
887.287	499.494
891.099	780.018
894.909	1054.2
898.718	1662.96
902.524	2751.33
906.329	5151.28
910.133	10311.8
913.934	24045
917.734	50838.7
921.532	41183.1
925.329	20748.1
929.124	10363.6
932.917	6908.74
936.708	6285.42
940.498	7846.65
944.286	9701.45
948.072	9259.83
951.857	6565.78
955.64	4089.32
959.421	2605.45
963.201	1766.18
966.979	1458.51
970.755	1410.46
974.529	1410.08
978.302	1269.38
982.073	1187.37
985.843	1185.07
989.611	1137.49
993.377	1231.64
997.141	1561.49
1000.9	2007.01
1004.66	2712.2
1008.42	3113.08
1012.18	3148.62
1015.94	2756.82
1019.69	2311.68
1023.45	1741.42
1027.2	1334.13
1030.95	925.853
1034.69	767.373
1038.44	663.241
1042.18	721.249
1045.93	795.2
1049.67	618.886
1053.41	505.429
1057.14	454.916
1060.88	427.95
1064.62	428.868
1068.35	503.01
1072.08	624.224
1075.81	655.912
1079.54	615.624
1083.26	488.502
1086.99	413.893
1090.71	454.476
1094.43	488.941
1098.15	421.693
1101.87	371.44
1105.59	377.861
1109.3	211.928
1113.01	173.28
1116.72	166.287
1120.43	213.002
1124.14	296.45
1127.85	526.803
1131.55	587.639
1135.26	455.875
1138.96	313.7
1142.66	368.762
1146.36	395.933
1150.05	403.413
1153.75	297.254
1157.44	218.632
1161.13	148.135
1164.82	28.334
1168.51	3.518
1172.2	53.786
1175.88	97.498
1179.57	75.565
1183.25	79.958
1186.93	83.027
1190.61	38.485
1194.28	40.191
1197.96	30.319
1201.63	16.236
1205.31	27.23
1208.98	31.633
1212.64	20.507
1216.31	4.884
1219.98	13.305
1223.64	17.287
1227.31	1.846
1230.97	40.156
1234.62	34.124
1238.28	24.831
1241.94	57.971
1245.59	70.08
1249.25	62.515
1252.9	52.492
1256.55	82.477
1260.2	82.895
1263.84	86.725
1267.49	82.505
1271.13	107.093
1274.77	110.123
1278.41	113.789
1282.05	125.991
1285.69	115.591
1289.32	144.07
1292.96	136.452
1296.59	129.051
1300.22	155.375
1303.85	139.27
1307.48	133.554
1311.1	162.538
1314.72	162.939
1318.35	199.905
1321.97	181.076
1325.59	179.857
1329.21	173.654
1332.82	165.615
1336.44	171.444
1340.05	162.298
1343.66	154.662
1347.27	147.206
1350.88	135.825
1354.49	132.823
1358.09	128.531
1361.7	136.372
1365.3	110.758
1368.9	129.896
1372.5	108.165
1376.1	101.994
1379.69	99.332
1383.29	89.732
1386.88	94.015
1390.47	88.237
1394.06	109.287
1397.65	87.158
1401.23	72.934
1404.82	86.695
1408.4	85.156
1411.98	65.029
1415.56	72.511
1419.14	66.801
1422.72	70.221
1426.3	69.259
1429.87	56.603
1433.44	43.757
1437.01	52.113
1440.58	43.071
1444.15	29.268
1447.71	42.282
1451.28	50.048
1454.84	50.365
1458.4	56.068
1461.96	45.776
1465.52	63.915
1469.08	14.719
1472.64	2.424
1476.19	41.988
1479.74	4.384
1483.29	13.616
1486.84	29.048
1490.39	41.299
1493.94	52.279
1497.48	18.128
1501.02	15.249
1504.57	11.972
1508.11	126.599
1511.64	240.08
1515.18	94.51
1518.72	47.741
1522.25	7.132
