Measurement: Raman, 514 nm, ccw, Raman Data Processed
Mineral: Pyrope
Rruff sample: R050112
Ideal chemistry: Mg_3_Al_2_(SiO_4_)_3_
Locality: Cruzeiro mine, San Jose, Minas Gerais, Brazil
Source: Carlos and Paulo Vasconcelos
Description: Dark red crystal fragment
Measured chemistry: (Mg_1.49_Fe^2+^_1.18_Ca_0.29_Mn_0.04_)_Σ=3_(Al_1.99_Fe^3+^_0.01_)_Σ=2_(Si_1.00_O_4_)_3_
Pin_id: L00493
Orientation: Laser parallel to -a* (-1 0 0). Fiducial mark perpendicular to laser is parallel to -b [0 -1 0]
Raman shift (cm-1)	intensity
79.474	0
83.667	1.464
87.858	7.526
92.046	114.308
96.233	58.406
100.418	79.65
104.6	93.11
108.781	177.593
112.959	111.078
117.136	155.456
121.31	150.424
125.482	148.954
129.653	111.929
133.821	122.714
137.987	156.323
142.152	177.791
146.314	167.939
150.474	132.904
154.633	86.205
158.789	35.117
162.943	4.476
167.095	13.201
171.246	54.873
175.394	331.431
179.54	502.231
183.684	365.141
187.826	160.084
191.967	56.883
196.105	15.534
200.241	18.257
204.375	84.595
208.507	2.656
212.638	42.3
216.766	51.844
220.892	92.174
225.016	144.123
229.139	174.807
233.259	164.296
237.377	229.66
241.493	230.976
245.608	292.417
249.72	361.859
253.83	379.274
257.939	391.322
262.045	395.061
266.15	442.85
270.252	439.779
274.353	507.449
278.451	541.264
282.548	528.547
286.642	564.535
290.735	583.208
294.826	595.136
298.914	657.861
303.001	746.117
307.086	748.306
311.168	807.968
315.249	968.196
319.328	1109.46
323.405	1332.41
327.48	1689.61
331.553	2306.31
335.624	3066.5
339.693	4010.86
343.76	5038.16
347.826	6949.39
351.889	9696.07
355.95	11950.6
360.01	10301.9
364.067	7297.99
368.123	5534.95
372.176	4739.21
376.228	4029.31
380.277	3181.78
384.325	2237.64
388.371	1543.06
392.415	1048.15
396.457	683.816
400.497	486.073
404.535	373.375
408.571	269.631
412.605	200.682
416.638	92.574
420.668	64.311
424.697	56.903
428.723	28.33
432.748	2.612
436.77	0.242
440.791	15.247
444.81	2.396
448.827	20.67
452.842	27.101
456.855	19.324
460.867	4.645
464.876	9.871
468.883	79.006
472.889	66.072
476.892	81.075
480.894	113.027
484.894	129.94
488.892	132.849
492.888	138.806
496.882	205.85
500.874	258.851
504.865	395.773
508.853	403.712
512.84	383.669
516.824	461.994
520.807	576.333
524.788	714.994
528.767	698.566
532.744	742.335
536.719	858.899
540.693	1047.71
544.664	1429.81
548.634	2109.37
552.601	3543.66
556.567	5598.67
560.531	6194.86
564.493	3738.7
568.453	2032.11
572.412	1169.72
576.368	741.233
580.323	545.009
584.275	465.005
588.226	409.589
592.175	379.021
596.122	339.738
600.068	341.907
604.011	361.213
607.952	456.865
611.892	452.668
615.83	339.354
619.766	198.037
623.7	183.16
627.632	199.514
631.563	249.041
635.491	282.567
639.418	322.795
643.343	316.634
647.266	289.054
651.187	249.364
655.106	198.563
659.024	163.651
662.939	131.629
666.853	92.499
670.765	58.257
674.675	24.897
678.583	17.415
682.49	40.804
686.394	1.05
690.297	32.896
694.198	27.13
698.097	50.706
701.995	11.652
705.89	50.859
709.784	31.381
713.675	2.828
717.565	26.838
721.453	23.689
725.34	26.43
729.224	20.941
733.107	4.513
736.988	6.843
740.867	16.063
744.744	37.22
748.62	4.695
752.493	11.33
756.365	18.313
760.235	40.263
764.103	52.181
767.969	75.091
771.834	56.987
775.697	64.863
779.558	13.712
783.417	32.536
787.274	34.332
791.13	60.102
794.983	43.847
798.835	87.569
802.686	134.271
806.534	234.955
810.38	260.627
814.225	303.296
818.068	317.996
821.909	379.601
825.749	382.992
829.586	381.98
833.422	354.038
837.256	442.049
841.088	514.291
844.919	629.079
848.748	814.622
852.575	996.102
856.4	1309.24
860.223	1700.98
864.045	1837.65
867.864	1780.49
871.682	1590.19
875.499	1614.87
879.313	1724.93
883.126	1916.2
886.937	2371.4
890.746	2855.51
894.553	3644.21
898.359	4800.85
902.163	6664.08
905.965	10193.1
909.765	17191.3
913.564	30099.8
917.361	44918
921.156	45286.6
924.949	29565.3
928.74	17294.1
932.53	10533.1
936.318	6944.06
940.104	4786.17
943.889	3346.39
947.672	2496.7
951.453	1952.12
955.232	1566.65
959.01	1370.37
962.785	1197.38
966.559	1060.4
970.332	999.884
974.102	902.139
977.871	872.297
981.638	868.419
985.404	818.697
989.167	813.209
992.929	688.079
996.689	563.068
1000.45	547.294
1004.2	494.519
1007.96	549.589
1011.71	534.956
1015.46	581.283
1019.21	654.196
1022.96	715.236
1026.71	730.385
1030.45	749.62
1034.19	807.961
1037.94	786.417
1041.68	824.981
1045.41	829.635
1049.15	919.37
1052.88	796.19
1056.62	687.096
1060.35	495.083
1064.08	332.138
1067.8	236.268
1071.53	168.467
1075.25	116.74
1078.97	90.106
1082.7	69.541
1086.41	78.031
1090.13	59.602
1093.85	45.242
1097.56	39.946
1101.27	0.702
1104.98	26.509
1108.69	4.351
1112.4	16.218
1116.1	3.92
1119.81	26.89
1123.51	119.688
1127.21	27.493
1130.91	26.726
1134.61	43.025
1138.3	12.494
1141.99	41.1
1145.68	24.888
1149.38	25.81
1153.06	21.829
1156.75	18.91
1160.43	2.054
1164.12	55.761
1167.8	88.554
1171.48	92.321
1175.16	132.09
1178.83	154.927
1182.51	151.637
1186.18	151.37
1189.85	139.859
1193.52	127.784
1197.19	183.86
1200.86	155.86
1204.52	151.306
1208.19	159.236
1211.85	153.484
1215.51	113.152
1219.17	114.063
1222.82	131.757
1226.48	139.06
1230.13	110.846
1233.78	154.523
1237.43	123.742
1241.08	90.139
1244.73	98.753
1248.37	127.981
1252.01	152.963
1255.66	156.748
1259.3	152.22
1262.93	142.913
1266.57	184.91
1270.21	184.298
1273.84	194.231
1277.47	203.459
1281.1	170.152
1284.73	166.929
1288.36	149.922
1291.98	160.591
1295.6	150.876
1299.23	143.53
1302.85	132.391
1306.46	121.731
1310.08	104.716
1313.7	71.821
1317.31	87.522
1320.92	66.026
1324.53	52.408
1328.14	69.653
1331.75	15.754
1335.35	54.701
1338.96	13.49
1342.56	20.125
1346.16	2.388
1349.76	14.922
1353.36	14.091
1356.95	3.119
1360.55	29.003
1364.14	10.244
1367.73	1.627
1371.32	14.851
1374.91	17.243
1378.49	22.408
1382.08	5.663
1385.66	6.042
1389.24	8.029
1392.82	40.927
1396.4	23.76
1399.97	26.473
1403.55	19.199
1407.12	29.156
1410.69	25.339
1414.26	17.583
1417.83	33.816
1421.4	2.025
1424.96	54.802
1428.53	20.683
1432.09	22.83
1435.65	41.581
1439.21	41.446
1442.76	60.465
1446.32	46.888
1449.87	40.321
1453.43	2.957
1456.98	6.545
1460.53	33.943
1464.07	68.942
1467.62	58.418
1471.16	59.069
1474.71	52.008
1478.25	72.972
1481.79	26.401
1485.32	23.885
1488.86	8.749
1492.39	18.015
1495.93	61.395
1499.46	39.837
1502.99	51.666
1506.52	48.117
1510.05	35.421
1513.57	38.004
1517.09	10.839
1520.62	48.627
