Measurement: Raman, 514 nm, ccw, Raman Data Processed
Mineral: Pyrosmalite-(Fe)
Rruff sample: R050158
Ideal chemistry: Fe^2+^_8_Si_6_O_15_(OH)_10_
Locality: Burguillos del Cerro, Badajos, Spain
Source: Jim McGlasson
Description: Green subhedral crystal aggregate
Measured chemistry: (Fe^2+^_0.92_Mn^2+^_0.06_Mg_0.02_)_8_Si_6_O_15_(OH_0.83_Cl_0.17_)_10_
Pin_id: L00508
Orientation: Laser parallel to -a* (-1 0 0). Fiducial mark perpendicular to laser is parallel to c [0 0 1]
Raman shift (cm-1)	intensity
133.821	0
137.987	183.922
142.152	455.141
146.314	628.224
150.474	384.815
154.633	294.718
158.789	393.815
162.943	539.111
167.095	619.097
171.246	615.864
175.394	776.248
179.54	1142.53
183.684	1599.8
187.826	1748.8
191.967	1601.66
196.105	1143.72
200.241	677.802
204.375	421.687
208.507	226.587
212.638	53.681
216.766	19.837
220.892	62.375
225.016	16.767
229.139	51.076
233.259	24.946
237.377	74.466
241.493	166.278
245.608	258.559
249.72	375.603
253.83	602.441
257.939	783.744
262.045	769.843
266.15	795.796
270.252	1834.02
274.353	1301.94
278.451	177.73
282.548	126.371
286.642	168.858
290.735	169.568
294.826	361.957
298.914	679.963
303.001	1116.7
307.086	1421.76
311.168	1195.56
315.249	1077.28
319.328	1499.72
323.405	3362.76
327.48	4515.32
331.553	2244.66
335.624	960.95
339.693	549.937
343.76	404.22
347.826	406.078
351.889	442.183
355.95	514.485
360.01	847.39
364.067	1128.82
368.123	1065.09
372.176	788.885
376.228	645.015
380.277	596.091
384.325	468.942
388.371	465.765
392.415	466.518
396.457	474.689
400.497	517.59
404.535	616.994
408.571	752.705
412.605	1197.9
416.638	1733.67
420.668	1795.98
424.697	1280.88
428.723	810.663
432.748	559.32
436.77	427.864
440.791	312.771
444.81	167.932
448.827	58.926
452.842	41.824
456.855	6.978
460.867	59.285
464.876	191.601
468.883	230.572
472.889	189.222
476.892	399.568
480.894	1120.62
484.894	1590.41
488.892	929.937
492.888	403.223
496.882	195.281
500.874	119.124
504.865	74.758
508.853	4.964
512.84	19.218
516.824	58.93
520.807	67.201
524.788	8.052
528.767	30.314
532.744	4.17
536.719	10.829
540.693	39.748
544.664	47.347
548.634	16.039
552.601	6.558
556.567	28.242
560.531	19.001
564.493	10.17
568.453	48.26
572.412	81.245
576.368	95.119
580.323	160.88
584.275	193.542
588.226	337.16
592.175	422.74
596.122	673.238
600.068	1089.64
604.011	2035.57
607.952	4321.13
611.892	8810.48
615.83	12827.5
619.766	9555.5
623.7	4955.94
627.632	2543.42
631.563	1520
635.491	924.853
639.418	646.445
643.343	534.107
647.266	494.537
651.187	411.889
655.106	295.165
659.024	219.81
662.939	287.765
666.853	305.958
670.765	246.911
674.675	148.295
678.583	134.854
682.49	113.852
686.394	112.161
690.297	5.199
694.198	36.162
698.097	42.883
701.995	151.961
705.89	134.859
709.784	66.099
713.675	68.16
717.565	134.849
721.453	159.122
725.34	271.744
729.224	295.439
733.107	400.761
736.988	413.738
740.867	482.143
744.744	436.899
748.62	279.067
752.493	166.235
756.365	90.708
760.235	133.646
764.103	237.631
767.969	277.372
771.834	208.818
775.697	141.38
779.558	113.964
783.417	151.428
787.274	123.843
791.13	73.253
794.983	25.684
798.835	115.941
802.686	185.148
806.534	324.309
810.38	362.422
814.225	437.492
818.068	491.531
821.909	514.546
825.749	332.542
829.586	172.515
833.422	143.464
837.256	74.388
841.088	52.133
844.919	39.624
848.748	15.258
852.575	44.931
856.4	4.739
860.223	16.45
864.045	27.826
867.864	63.954
871.682	2.757
875.499	49.484
879.313	4.152
883.126	22.227
886.937	14.322
890.746	56.827
894.553	7.747
898.359	36.497
902.163	18.609
905.965	18.665
909.765	8.673
913.564	80.642
917.361	83.579
921.156	38.487
924.949	36.35
928.74	67.18
932.53	72.985
936.318	72.769
940.104	85.531
943.889	106.094
947.672	88.669
951.453	87.374
955.232	40.066
959.01	200.745
962.785	173.416
966.559	151.073
970.332	109.712
974.102	135.334
977.871	119.94
981.638	200.53
985.404	240.108
989.167	254.67
992.929	238.209
996.689	302.456
1000.45	438.757
1004.2	561.667
1007.96	760.738
1011.71	1135.42
1015.46	1692.76
1019.21	2714.47
1022.96	3571.33
1026.71	3951.47
1030.45	3232.05
1034.19	2384.72
1037.94	1693.04
1041.68	1252.61
1045.41	961.815
1049.15	744.861
1052.88	554.545
1056.62	519.669
1060.35	515.503
1064.08	405.897
1067.8	337.488
1071.53	277.927
1075.25	249.599
1078.97	172.212
1082.7	183.032
1086.41	223.618
1090.13	196.439
1093.85	179.75
1097.56	124.27
1101.27	66.967
1104.98	98.487
1108.69	166.944
1112.4	144.92
1116.1	189.516
1119.81	208.135
1123.51	213.767
1127.21	246.413
1130.91	207.241
1134.61	214.147
1138.3	162.903
1141.99	155.095
1145.68	63.6
1149.38	93.281
1153.06	9.04
1156.75	44.246
1160.43	45.406
1164.12	62.214
1167.8	107.901
1171.48	58.91
1175.16	86.752
1178.83	40.689
1182.51	34.662
1186.18	83.479
1189.85	87.572
1193.52	76.394
1197.19	81.275
1200.86	79.187
1204.52	28.278
1208.19	25.208
1211.85	6.574
1215.51	10.275
1219.17	58.053
1222.82	76.057
1226.48	53.134
1230.13	138.901
1233.78	128.623
1237.43	42.578
1241.08	17.303
1244.73	17.048
1248.37	7.856
1252.01	79.807
1255.66	56.41
1259.3	155.99
1262.93	76.76
1266.57	83.292
1270.21	29.8
1273.84	3.285
1277.47	1.797
1281.1	39.163
1284.73	109.648
1288.36	80.979
1291.98	95.217
1295.6	97.422
1299.23	45.325
1302.85	21.175
1306.46	10.202
1310.08	58.188
1313.7	85.775
1317.31	57.639
1320.92	147.471
1324.53	135.552
1328.14	126.385
1331.75	78.044
1335.35	59.607
1338.96	32.126
1342.56	23.457
1346.16	56.884
1349.76	43.292
1353.36	104.557
1356.95	85.45
1360.55	129.656
1364.14	137.88
1367.73	116.112
1371.32	35.556
1374.91	137.374
1378.49	6.385
1382.08	99.592
1385.66	91.939
1389.24	110.972
1392.82	130.661
1396.4	203.631
1399.97	181.022
1403.55	76.769
1407.12	55.817
1410.69	58.504
1414.26	38.273
1417.83	27.944
1421.4	51.693
1424.96	92.536
1428.53	128.642
1432.09	156.558
1435.65	193.301
1439.21	150.064
1442.76	96.894
1446.32	79.769
1449.87	49.942
1453.43	30.439
1456.98	43.493
1460.53	35.524
1464.07	166.955
1467.62	151.743
1471.16	143.32
1474.71	172.693
1478.25	169.18
1481.79	106.887
1485.32	41.754
1488.86	88.594
1492.39	10.688
1495.93	45.269
1499.46	17.496
1502.99	76.105
1506.52	19.766
1510.05	117.709
1513.57	111.641
1517.09	135.617
