Measurement: Raman, 514 nm, ccw, Raman Data Processed
Mineral: Pyrope
Rruff sample: R050113
Ideal chemistry: Mg_3_Al_2_(SiO_4_)_3_
Locality: Warsik, Pakistan
Source: Farooq and Nazia Sawal
Description: Reddish-purple fragment
Measured chemistry: (Mg_1.83_Fe^2+^_1.12_Ca_0.03_Mn_0.02_)_Σ=3_(Al_1.82_Fe^3+^_0.18_)_Σ=2_((Si_0.99_Al_0.01_)_Σ=1_O_4_)_3_
Pin_id: L00210
Orientation: Laser parallel to -a* (-1 0 0). Fiducial mark perpendicular to laser is parallel to b [0 1 0]
Raman shift (cm-1)	intensity
110.174	0
114.351	37.53
118.527	102.816
122.701	86.981
126.873	63.503
131.042	111.782
135.21	37.307
139.376	122.793
143.539	19.396
147.701	16.886
151.861	197.193
156.018	404.361
160.174	915.98
164.327	1372.76
168.479	1152.92
172.628	820.451
176.776	570.82
180.922	278.682
185.065	115.507
189.207	18.152
193.346	51.019
197.484	15.487
201.619	128.513
205.753	350.487
209.884	878.121
214.014	1531.66
218.141	1577.05
222.267	986.26
226.391	599.261
230.512	392.027
234.632	219.24
238.749	195.577
242.865	104.534
246.979	50.689
251.09	16.859
255.2	12.621
259.308	19.294
263.414	2.537
267.517	22.148
271.619	18.847
275.719	20.053
279.817	27.539
283.913	103.883
288.007	95.363
292.099	159.849
296.189	280.005
300.277	331.291
304.363	454.247
308.447	661.545
312.529	1084.64
316.609	1466.03
320.687	1909.91
324.764	1932.29
328.838	2011.37
332.91	2706.18
336.981	4841.73
341.049	9289
345.116	12829.9
349.18	8659.36
353.243	4374.31
357.304	2419.98
361.362	1850.4
365.419	2052.97
369.474	2811.41
373.527	2679.33
377.578	1645.23
381.627	805.087
385.674	487.862
389.719	314.56
393.762	238.199
397.804	182.53
401.843	123.97
405.881	67.547
409.916	93.834
413.95	92.656
417.981	36.524
422.011	25.741
426.039	10.923
430.065	2.522
434.089	26.277
438.111	18.209
442.131	67.889
446.149	30.75
450.166	113.801
454.18	98.977
458.193	172.278
462.203	154.603
466.212	276.722
470.219	637.646
474.224	1052.39
478.227	793.963
482.228	430.357
486.227	428.58
490.224	708.695
494.22	1434.92
498.213	2697.36
502.205	2096.77
506.194	1100.36
510.182	631.518
514.168	444.802
518.152	393.292
522.134	382.727
526.114	413.346
530.093	461.283
534.069	535.083
538.044	716.766
542.017	976.812
545.987	1705.36
549.956	3116.96
553.923	3939.2
557.889	2930.43
561.852	1590.5
565.813	945.075
569.773	660.076
573.731	598.397
577.686	590.836
581.64	533.611
585.593	426.173
589.543	442.561
593.491	443.008
597.438	368.152
601.382	325.027
605.325	308.854
609.266	273.967
613.205	342.068
617.142	377.66
621.078	463.143
625.011	662.958
628.943	887.393
632.872	733.685
636.8	437.834
640.726	275.844
644.651	163.715
648.573	119.45
652.494	70.046
656.412	42.497
660.329	48.799
664.244	1.949
668.157	6.093
672.069	26.359
675.978	39.885
679.886	12.671
683.792	3.726
687.696	36.105
691.598	28.852
695.498	42.93
699.397	25.294
703.293	26.885
707.188	50.707
711.081	43.79
714.972	21.897
718.862	5.555
722.749	16.881
726.635	28.225
730.519	4.486
734.401	29.688
738.281	48.849
742.16	52.979
746.036	53.081
749.911	147.162
753.784	192.233
757.655	235.28
761.525	190.302
765.392	137.301
769.258	89.275
773.122	70.056
776.984	82.145
780.844	92.042
784.703	146.918
788.56	164.778
792.415	210.121
796.268	190.466
800.119	252.3
803.969	282.073
807.816	400.404
811.662	389.516
815.506	408.737
819.349	350.973
823.189	305.821
827.028	304.703
830.865	311.858
834.7	391.715
838.534	492.299
842.365	633.973
846.195	864.238
850.023	1218.2
853.85	1789.71
857.674	2215.42
861.497	2006.6
865.318	1654.99
869.137	1607.32
872.955	1641.67
876.77	1897.88
880.584	2426.2
884.396	3305.39
888.207	4354.14
892.015	5462.13
895.822	6975.21
899.627	10061.5
903.43	16597.8
907.232	28094.3
911.032	40610.9
914.83	36427.7
918.626	22564.6
922.42	13131.6
926.213	8018.73
930.004	5115.01
933.793	3343.43
937.581	2364.98
941.366	1724.68
945.15	1348.52
948.932	1139.49
952.713	1009.61
956.491	918.999
960.268	875.298
964.044	911.311
967.817	1111.04
971.589	1277.9
975.359	1460.39
979.127	1479.66
982.893	1004.71
986.658	738.804
990.421	604.788
994.183	509.923
997.942	494.995
1001.7	495.08
1005.46	548.76
1009.21	524.627
1012.96	620.682
1016.71	779.938
1020.46	924.382
1024.21	1204.98
1027.96	1768.72
1031.7	2318.61
1035.44	2319.61
1039.18	1706.72
1042.92	1103.94
1046.66	675.254
1050.39	494.668
1054.13	363.188
1057.86	235.812
1061.59	190.527
1065.32	103.33
1069.05	127.233
1072.77	66.276
1076.49	81.323
1080.22	35.511
1083.94	51.791
1087.65	122.079
1091.37	96.423
1095.09	66.818
1098.8	44.255
1102.51	24.734
1106.22	4.777
1109.93	38.317
1113.63	37.987
1117.34	53.838
1121.04	7.865
1124.74	45.076
1128.44	37.008
1132.14	3.779
1135.84	25.568
1139.53	21.083
1143.22	18.23
1146.91	36.438
1150.61	50.603
1154.29	86.91
1157.98	123.05
1161.66	144.269
1165.35	152.392
1169.03	130.597
1172.71	142.691
1176.38	177.071
1180.06	162.267
1183.73	169.244
1187.41	165.925
1191.08	106.196
1194.75	168.731
1198.41	148.736
1202.08	121.065
1205.74	122.921
1209.41	135.603
1213.07	111.101
1216.73	122.847
1220.38	100.136
1224.04	125.109
1227.69	124.722
1231.35	137.248
1235	159.806
1238.65	189.999
1242.3	189.586
1245.94	168.608
1249.59	230.149
1253.23	249.995
1256.87	247.476
1260.51	234.812
1264.15	197.61
1267.78	214.843
1271.42	278.295
1275.05	198.235
1278.68	179.796
1282.31	170.26
1285.94	166.878
1289.56	107.801
1293.19	86.597
1296.81	59.425
1300.43	7.19
1304.05	65.693
1307.67	37.829
1311.29	54.758
1314.9	11.562
1318.52	2.161
1322.13	7.408
1325.74	4.424
1329.34	0.216
1332.95	45.782
1336.56	13.127
1340.16	56.248
1343.76	19.156
1347.36	29.83
1350.96	12.282
1354.56	40.527
1358.15	11.118
1361.74	3.737
1365.34	52.325
1368.93	20.163
1372.52	15.936
1376.1	21.015
1379.69	59.478
1383.27	22.664
1386.85	6.613
1390.43	25.562
1394.01	43.357
1397.59	48.659
1401.17	57.752
1404.74	46.027
1408.31	50.079
1411.88	54.145
1415.45	86.953
1419.02	52.67
1422.59	83.678
1426.15	73.71
1429.71	58.769
1433.28	63.79
1436.84	73.339
1440.39	37.28
1443.95	27.315
1447.5	85.39
1451.06	62.762
1454.61	89.724
1458.16	117.224
1461.71	99.19
1465.26	85.798
1468.8	89.494
1472.34	83.192
1475.89	51.27
1479.43	54.288
1482.97	93.49
1486.5	99.31
1490.04	56.885
1493.57	63.609
1497.11	55.549
1500.64	11.896
1504.17	51.687
1507.69	28.212
1511.22	33.824
1514.74	0.015
