Measurement: Raman, 514 nm, ccw, Raman Data Processed
Mineral: Pyromorphite
Rruff sample: R050027
Ideal chemistry: Pb_5_(PO_4_)_3_Cl
Locality: Yangshuo, Guangxi Autonomous Region, China
Source: Eugene Schlepp
Description: Light green hexagonal prismatic hoppered single crystals
Measured chemistry: Pb_5.00_(P_1.00_O_4_)_3_Cl_1.00_
Pin_id: L00481
Orientation: Laser parallel to -a* (-1 0 0). Fiducial mark perpendicular to laser is parallel to -c [0 0 -1]
Raman shift (cm-1)	intensity
46.637	0
50.856	293.503
55.072	688.423
59.287	996.001
63.499	1375.33
67.709	678.897
71.917	243.569
76.123	71.333
80.327	10.261
84.529	782.167
88.728	3592.42
92.926	4602.76
97.121	4455.57
101.314	7672.16
105.505	16671.2
109.694	16481.6
113.881	10083.4
118.066	7538.28
122.249	6560.92
126.43	6237.11
130.608	6424.84
134.785	6681.53
138.959	7317.87
143.131	8087.27
147.301	8685.71
151.469	9453.69
155.635	9782.06
159.799	10080.8
163.961	10090
168.121	10659.6
172.278	11989.6
176.434	12720.5
180.587	12473.1
184.739	11783.2
188.888	10928.1
193.035	9484.62
197.18	7556.27
201.324	5928.08
205.465	4960.16
209.603	4261.48
213.74	3850.9
217.875	3418.9
222.008	2945.47
226.139	2728.27
230.267	2271.36
234.394	2037.14
238.518	1785.03
242.641	1603.51
246.761	1402.87
250.879	1282.55
254.996	1150.13
259.11	974.092
263.222	861.382
267.332	814.972
271.44	669.839
275.546	522.962
279.65	468.32
283.752	359.875
287.852	287.587
291.95	198.443
296.046	124.434
300.14	74.548
304.231	14.176
308.321	30.798
312.409	78.396
316.495	58.171
320.578	35.049
324.66	35.213
328.739	29.923
332.817	7.834
336.892	22.046
340.966	57.976
345.037	96.637
349.107	157.01
353.174	156.264
357.24	133.209
361.303	201.092
365.365	285.89
369.424	467.613
373.481	707.206
377.537	1289.85
381.59	2409.48
385.642	5104.09
389.691	9842.73
393.738	11298.5
397.784	6996.34
401.827	5860.23
405.868	8466.36
409.908	9172.87
413.945	6006.54
417.98	3929.24
422.014	2318.97
426.045	1230.72
430.075	725.504
434.102	525.228
438.127	362.007
442.151	307.662
446.172	224.224
450.192	157.673
454.209	168.009
458.225	224.366
462.238	207.515
466.25	136.427
470.259	63.976
474.267	12.404
478.273	11.198
482.276	5.531
486.278	10.658
490.278	16.038
494.276	22.159
498.271	10.29
502.265	54.256
506.257	50.777
510.247	57.057
514.235	69.146
518.221	99.646
522.205	112.107
526.187	134.165
530.167	204.412
534.145	266.713
538.122	420.169
542.096	762.337
546.068	855.879
550.039	1401.66
554.007	1601.54
557.973	923.056
561.938	486.395
565.901	457.751
569.861	704.544
573.82	1450.68
577.777	1079.56
581.732	583.318
585.685	391.001
589.636	313.363
593.585	343.226
597.532	283.635
601.477	310.413
605.42	284.886
609.361	314.712
613.301	264.626
617.238	261.094
621.174	213.115
625.108	237.633
629.039	164.396
632.969	189.406
636.897	186.727
640.823	143.592
644.747	116.906
648.669	98.794
652.589	83.664
656.508	89.528
660.424	98.454
664.339	84.796
668.251	56.139
672.162	48.246
676.071	20.447
679.978	16.675
683.883	4.413
687.786	59.622
691.687	18.82
695.586	3.18
699.484	8.347
703.379	31.405
707.273	2.419
711.165	0.389
715.055	14.635
718.943	34.489
722.829	16.199
726.713	63.465
730.595	47.28
734.476	49.126
738.354	58.312
742.231	30.615
746.106	53.343
749.978	48.471
753.849	26.095
757.719	2.97
761.586	17.155
765.451	38.441
769.315	58.746
773.177	52.773
777.036	157.502
780.894	166.986
784.75	162.759
788.605	240.847
792.457	303.6
796.307	344.652
800.156	379.904
804.003	247.817
807.848	212.257
811.691	98.383
815.532	200.295
819.371	391.132
823.209	346.509
827.045	373.082
830.878	187.638
834.71	83.736
838.54	91.996
842.369	133.259
846.195	188.088
850.02	396.028
853.842	295.99
857.663	123.702
861.482	0.575
865.299	34.96
869.115	17.521
872.928	57.352
876.74	105.181
880.55	208.352
884.358	390.072
888.164	552.812
891.969	780.155
895.771	970.827
899.572	1413.7
903.371	2262.68
907.168	3952.9
910.963	8084.27
914.757	19540.8
918.548	45270.8
922.338	34431.3
926.126	17932.4
929.912	12914
933.697	14436.1
937.479	21128.7
941.26	32901.9
945.039	44775.6
948.816	40179.8
952.591	26944.5
956.365	16459.7
960.136	10605.5
963.906	7191.74
967.674	5518.55
971.441	4937.88
975.205	4881.73
978.968	4854.17
982.729	4688.23
986.488	3814.93
990.245	3135.33
994	2832.3
997.754	2813.85
1001.51	3178.99
1005.26	3754.7
1009	4540
1012.75	5195.4
1016.5	5899.69
1020.24	6574.72
1023.98	6740.26
1027.72	5836.39
1031.46	4826.78
1035.19	3774.97
1038.93	3308.86
1042.66	3043.35
1046.39	2844.49
1050.12	2400.04
1053.85	1995.09
1057.57	1716.55
1061.29	1499.71
1065.02	1270.75
1068.74	1274.25
1072.45	1380.86
1076.17	1322.35
1079.88	1209.63
1083.6	1174.04
1087.31	1102.48
1091.02	1080.2
1094.72	1073.25
1098.43	932.199
1102.13	789.768
1105.84	677.797
1109.54	582.29
1113.24	452.475
1116.93	306.152
1120.63	302.542
1124.32	298.242
1128.01	326.825
1131.7	387.666
1135.39	393.389
1139.08	355.869
1142.76	437.571
1146.45	565.847
1150.13	797.099
1153.81	703.003
1157.48	530.543
1161.16	367.483
1164.84	240.904
1168.51	104.855
1172.18	76.351
1175.85	30.862
1179.52	36.305
1183.18	14.49
1186.85	21.13
1190.51	63.064
1194.17	27.356
1197.83	10.674
1201.48	97.127
1205.14	87.302
1208.79	8.573
1212.44	53.317
1216.09	20.623
1219.74	27.955
1223.39	19.323
1227.03	15.298
1230.68	53.343
1234.32	28.754
1237.96	16.271
1241.6	9.432
1245.23	72.534
1248.87	27.992
1252.5	9.511
1256.13	65.696
1259.76	59.601
1263.39	49.553
1267.02	82.308
1270.64	70.12
1274.26	112.143
1277.88	145.314
1281.5	82.467
1285.12	103.822
1288.74	73.116
1292.35	43.026
1295.96	55.521
1299.57	77.711
1303.18	56.369
1306.79	124.55
1310.4	150.36
1314	191.749
1317.6	183.777
1321.2	176.74
1324.8	143.097
1328.4	190.006
1331.99	173.861
1335.59	167.916
1339.18	181.932
1342.77	131.711
1346.36	194.93
1349.95	195.87
1353.53	192.059
1357.12	173.71
1360.7	129.295
1364.28	117.527
1367.86	99.906
1371.44	67.38
1375.01	114.599
1378.59	85.328
1382.16	161.599
1385.73	141.747
1389.3	168.749
1392.87	140.43
1396.43	138.459
1399.99	62.911
1403.56	153.983
1407.12	60.54
1410.68	101.114
1414.23	133.975
1417.79	87.77
1421.34	115.153
1424.9	126.338
1428.45	126.52
1431.99	104.608
1435.54	82.333
1439.09	42.242
1442.63	71.325
1446.17	76.741
1449.71	63.623
1453.26	199.625
1456.79	179.465
1460.33	197.535
1463.86	167.237
1467.39	252.202
1470.92	216.199
1474.45	85.948
1477.98	102.701
1481.51	55.154
1485.03	92.604
1488.56	177.682
1492.08	221.253
1495.6	209.312
1499.11	219.559
1502.63	205.271
1506.14	220.72
1509.66	161.707
1513.17	159.641
1516.68	178.42
1520.19	0
