Measurement: Raman, 514 nm, ccw, Raman Data Processed
Mineral: Pyromorphite
Rruff sample: R050015
Ideal chemistry: Pb_5_(PO_4_)_3_Cl
Locality: Bunker Hill mine, Shoshone County, Idaho, USA
Source: Eugene Schlepp
Description: Yellowish green prismatic hexagonal single crystals
Measured chemistry: Pb_5.00_((P_0.88_As_0.12_)O_4_)_3_Cl_1.00_
Pin_id: L00424
Orientation: Laser parallel to -c* (0 0 -1). Fiducial mark perpendicular to laser is parallel to -b [0 -1 0]
Raman shift (cm-1)	intensity
81.521	0
85.706	661.278
89.89	3928.9
94.071	5499.42
98.251	3963.58
102.428	5269.92
106.604	14724
110.777	12865.9
114.949	5881.41
119.119	3118.34
123.286	1534.55
127.452	559.314
131.615	280.04
135.777	287.976
139.937	557.984
144.094	1128.04
148.25	1821.78
152.403	2689.9
156.555	3262.75
160.705	3195.26
164.853	2866.57
168.998	2397.41
173.142	1877.65
177.284	1968.11
181.424	2123.66
185.562	1977.51
189.698	1934.24
193.831	1930.04
197.963	1741.07
202.093	1558.58
206.221	1387.12
210.347	1391.31
214.472	1136.36
218.594	883.452
222.714	621.08
226.832	468.878
230.948	243.755
235.063	147.552
239.175	5.545
243.286	11.406
247.394	108.759
251.501	154.551
255.605	81.422
259.708	105.575
263.808	168.276
267.907	180.903
272.004	135.293
276.099	111.088
280.192	155.69
284.283	104.192
288.372	39.899
292.459	42.027
296.544	2.209
300.627	67.836
304.709	175.914
308.788	216.722
312.865	368.735
316.941	492.169
321.015	644.675
325.086	724.852
329.156	785.418
333.224	892.518
337.29	1031.76
341.354	1048.52
345.416	1169.07
349.476	1227.12
353.534	1058.16
357.591	952.416
361.645	947.803
365.698	1045.33
369.748	1206.48
373.797	1381.95
377.844	1556.71
381.889	1800.25
385.932	1961.78
389.973	2306.26
394.012	2546.65
398.049	2227.09
402.084	2072.66
406.118	2272.74
410.15	2964.87
414.179	4066.77
418.207	4698.47
422.233	3521.33
426.257	2342.13
430.279	1797.38
434.299	1595.53
438.318	1343.57
442.334	1042.14
446.349	891.926
450.361	793.181
454.372	659.49
458.381	603.166
462.388	625.735
466.394	532.727
470.397	518.856
474.398	456.733
478.398	456.397
482.396	465.375
486.391	436.146
490.385	420.674
494.377	437.045
498.368	427.479
502.356	454.604
506.342	458.922
510.327	428.455
514.31	440.617
518.291	412.609
522.27	425.902
526.247	451.415
530.222	492.361
534.196	509.869
538.167	635.685
542.137	922.221
546.105	1028.53
550.071	817.154
554.035	1087.04
557.998	1112.1
561.958	765.936
565.917	685.571
569.874	1031.13
573.829	1922.71
577.782	1840.59
581.733	886.066
585.683	556.942
589.63	548.717
593.576	494.463
597.52	408.262
601.462	379.057
605.402	370.431
609.341	389.201
613.277	345.261
617.212	306.257
621.145	277.438
625.076	291.065
629.006	269.407
632.933	226.036
636.859	208.982
640.783	188.871
644.705	191.362
648.625	109.462
652.543	88.394
656.46	67.16
660.375	23.546
664.288	54.026
668.199	36.125
672.108	12.043
676.016	31.528
679.921	12.355
683.825	4.804
687.727	11.341
691.628	31.523
695.526	62.195
699.423	68.716
703.318	53.823
707.211	83.441
711.102	40.608
714.992	82.121
718.879	60.93
722.765	20.933
726.649	1.964
730.532	12.211
734.412	36.48
738.291	14.183
742.168	5.977
746.043	63.472
749.916	100.111
753.788	180.641
757.658	287.999
761.526	369.364
765.392	521.055
769.257	698.654
773.119	1019.09
776.98	1404.71
780.839	2233.21
784.697	3077.03
788.552	3508.5
792.406	3225.99
796.258	2905.74
800.108	2832.67
803.957	3253.35
807.804	4181.29
811.649	7174.2
815.492	16776
819.333	30468.9
823.173	18141.6
827.011	8319.61
830.847	4547.21
834.681	2657.65
838.514	1807.59
842.345	1512.67
846.174	1645.35
850.001	2263.79
853.827	2409.57
857.651	1318.43
861.473	523.911
865.293	264.96
869.112	231.69
872.928	310.929
876.744	194.828
880.557	174.642
884.369	251.724
888.178	306.445
891.987	629.655
895.793	897.91
899.598	1256.88
903.401	1804.5
907.202	3281.74
911.001	6691.6
914.799	17289
918.595	44527.1
922.389	43355.6
926.182	19224.7
929.972	8384.36
933.761	5684.59
937.549	5855.38
941.334	7936.72
945.118	9888.63
948.9	9351.09
952.681	6624.11
956.459	4247.72
960.236	2800.91
964.012	1970.67
967.785	1605.03
971.557	1203.99
975.327	1122.55
979.095	1089.76
982.862	1206.63
986.627	1393.23
990.39	1472.54
994.152	1435.54
997.912	1626.21
1001.67	2261.6
1005.43	2953.76
1009.18	3684.65
1012.93	3638.3
1016.68	2941.4
1020.43	2281.09
1024.18	1789.71
1027.93	1387.54
1031.67	1099.8
1035.42	897.853
1039.16	749.569
1042.9	660.72
1046.63	579.896
1050.37	525.435
1054.11	430.465
1057.84	299.569
1061.57	451.251
1065.3	503.627
1069.03	434.802
1072.75	417.529
1076.47	374.895
1080.2	413.563
1083.92	442.647
1087.64	547.869
1091.36	486.795
1095.07	414.476
1098.79	401.565
1102.5	308.177
1106.21	280.966
1109.92	181.554
1113.62	207.07
1117.33	124.021
1121.04	141.823
1124.74	194.982
1128.44	52.724
1132.14	51.506
1135.83	42.089
1139.53	201.586
1143.22	239.989
1146.92	253.162
1150.61	283.18
1154.3	218.154
1157.98	126.615
1161.67	70.466
1165.35	6.542
1169.04	25.577
1172.72	95.557
1176.4	31.561
1180.07	45.13
1183.75	84.426
1187.42	65.55
1191.1	44.537
1194.77	111.302
1198.44	83.954
1202.1	40.175
1205.77	66.78
1209.43	7.661
1213.1	26.043
1216.76	3.594
1220.42	57.168
1224.07	47.931
1227.73	128.342
1231.38	168.677
1235.04	71.465
1238.69	67.115
1242.34	65.941
1245.99	62.649
1249.63	42.712
1253.28	91.299
1256.92	162.037
1260.56	155.458
1264.2	66.422
1267.84	102.604
1271.48	103.344
1275.11	40.338
1278.74	48.835
1282.38	1.415
1286.01	113.58
1289.63	71.588
1293.26	98.747
1296.89	175.744
1300.51	128.054
1304.13	77.103
1307.75	116.592
1311.37	77.72
1314.99	71.602
1318.6	79.757
1322.22	109.298
1325.83	94.951
1329.44	153.396
1333.05	167.456
1336.66	151.934
1340.26	131.335
1343.87	94.868
1347.47	72.583
1351.07	130.256
1354.67	212.573
1358.27	127.056
1361.86	118.837
1365.46	124.18
1369.05	109.2
1372.64	122.143
1376.23	55.896
1379.82	50.137
1383.41	109.239
1386.99	102.548
1390.57	113.593
1394.16	196.589
1397.74	250.263
1401.32	203.258
1404.89	82.809
1408.47	141.133
1412.04	134.468
1415.61	46.867
1419.18	44.775
1422.75	95.108
1426.32	86.493
1429.89	67.548
1433.45	191.935
1437.01	117.713
1440.58	150.794
1444.13	146.64
1447.69	60.12
1451.25	70.809
1454.81	77.499
1458.36	4.947
1461.91	85.906
1465.46	133.631
1469.01	188.639
1472.56	198.65
1476.1	153.101
1479.64	186.883
1483.19	114.039
1486.73	209.281
1490.27	118.099
1493.81	111.237
1497.34	87.829
1500.88	72.773
1504.41	74.754
1507.94	34.868
1511.47	14.368
1515	71.643
1518.53	8.541
