Measurement: Raman, 514 nm, ccw, Raman Data Processed
Mineral: Pyrosmalite-(Fe)
Rruff sample: R050158
Ideal chemistry: Fe^2+^_8_Si_6_O_15_(OH)_10_
Locality: Burguillos del Cerro, Badajos, Spain
Source: Jim McGlasson
Description: Green subhedral crystal aggregate
Measured chemistry: (Fe^2+^_0.92_Mn^2+^_0.06_Mg_0.02_)_8_Si_6_O_15_(OH_0.83_Cl_0.17_)_10_
Pin_id: L00098
Orientation: Laser parallel to c* (0 0 1). Fiducial mark perpendicular to laser is parallel to a [1 0 0]
Raman shift (cm-1)	intensity
128.263	0
132.432	60.493
136.599	608.935
140.764	1423.54
144.927	1838.98
149.088	1575.95
153.247	1445.46
157.404	1567.3
161.559	1891.72
165.711	2115.15
169.862	2339.68
174.011	2869.12
178.158	3622.61
182.303	4672.47
186.446	5260.38
190.587	4698.12
194.726	3601.01
198.862	2215.64
202.997	1161.82
207.13	461.131
211.261	42.684
215.39	122.558
219.517	84.743
223.642	35.678
227.765	75.028
231.886	70.96
236.005	30.417
240.122	346.812
244.237	748.135
248.35	1339.27
252.461	1970.5
256.57	2593.07
260.677	2884.45
264.782	2757.85
268.885	2286.54
272.986	1592.79
277.085	909.649
281.182	554.361
285.278	406.914
289.371	590.441
293.462	949.695
297.552	1676.16
301.639	2819.08
305.724	3509.4
309.808	3139.75
313.889	2779.58
317.969	3844.86
322.046	7790.18
326.122	10820.8
330.196	6350.25
334.267	2655.43
338.337	1411.24
342.405	890.264
346.471	726.753
350.535	824.87
354.597	1178.38
358.657	1816.86
362.715	2480.14
366.771	2646.59
370.825	2132.8
374.877	1671.48
378.928	1408.11
382.976	1166.19
387.023	1148.77
391.067	1019.68
395.11	1143.91
399.15	1333.78
403.189	1669.49
407.226	2147.75
411.261	3032.37
415.294	4177.05
419.325	4839.34
423.354	3730.13
427.381	2353.73
431.406	1614.15
435.43	1392.39
439.451	1124.44
443.471	708.314
447.488	376.181
451.504	236.389
455.518	168.606
459.53	186.369
463.54	224.625
467.548	343.387
471.554	548.697
475.558	874.578
479.561	2165.05
483.561	3452.12
487.559	2550.82
491.556	1235.16
495.551	594.158
499.544	265.839
503.535	115.224
507.524	42.301
511.511	76.052
515.496	252.492
519.48	266.658
523.461	140.569
527.441	24.186
531.418	56.395
535.394	58.517
539.368	58.684
543.34	59.577
547.311	64.742
551.279	74.217
555.245	12.952
559.21	18.146
563.173	25.052
567.133	55.682
571.092	163.027
575.049	294.116
579.005	335.99
582.958	451.68
586.909	616.195
590.859	978.597
594.807	1530.84
598.753	2587.94
602.697	4798.88
606.639	9733.53
610.579	20154.4
614.518	31253.9
618.454	26863.3
622.389	14362.8
626.322	7373.86
630.253	4192.36
634.182	2791.74
638.109	1969.92
642.035	1427.92
645.958	1176.72
649.88	945.352
653.8	762.8
657.718	640.637
661.634	659.5
665.549	631.464
669.461	516.536
673.372	383.901
677.281	289.737
681.188	291.345
685.093	261.501
688.997	253.607
692.898	91.104
696.798	257.11
700.696	221.914
704.592	278.113
708.486	286.67
712.378	277.682
716.269	293.921
720.158	520.324
724.045	544.758
727.93	733.315
731.813	811.62
735.694	1108.12
739.574	1235.44
743.452	1160.86
747.328	861.444
751.202	641.152
755.075	454.6
758.945	470.133
762.814	587.609
766.681	793.973
770.546	789.817
774.409	623.657
778.271	373.224
782.131	343.011
785.989	288.379
789.845	350.643
793.699	357.816
797.552	435.9
801.402	516.896
805.251	726.808
809.098	965.636
812.944	1182.38
816.787	1286.08
820.629	1301.73
824.469	954.366
828.307	544.964
832.144	296.511
835.978	171.002
839.811	120.467
843.642	61.798
847.472	34.882
851.299	45.623
855.125	36.391
858.949	3.295
862.771	3.062
866.591	3.725
870.41	14.567
874.227	5.783
878.042	6.957
881.855	3.913
885.667	21.861
889.476	24.929
893.284	12.141
897.09	16.53
900.895	16.837
904.698	27.938
908.499	3.896
912.298	15.034
916.095	41.669
919.891	41.305
923.685	65.876
927.477	48.404
931.267	5.887
935.056	52.318
938.843	96.71
942.628	91.063
946.411	109.38
950.193	54.666
953.973	106.926
957.751	117.17
961.527	117.438
965.302	173.688
969.075	191.922
972.846	230.128
976.615	261.306
980.383	300.456
984.149	424.579
987.913	434.676
991.675	503.766
995.436	603.724
999.195	824.399
1002.95	1075.74
1006.71	1500.06
1010.46	2251.11
1014.21	3684.05
1017.96	5856.95
1021.71	8601.91
1025.46	10053.8
1029.2	8697.02
1032.95	6484.82
1036.69	4475.93
1040.43	3373.19
1044.17	2477.46
1047.9	1954.77
1051.64	1518.94
1055.37	1198.16
1059.1	1105.76
1062.83	874.212
1066.56	705.55
1070.29	619.544
1074.01	521.142
1077.73	408.347
1081.46	350.637
1085.17	338.261
1088.89	303.901
1092.61	282.546
1096.32	225.198
1100.04	246.269
1103.75	234.81
1107.46	302.462
1111.16	316.907
1114.87	372.549
1118.57	587.539
1122.28	731.237
1125.98	868.943
1129.67	874.658
1133.37	642.411
1137.07	460.478
1140.76	378.799
1144.45	169.555
1148.14	164.327
1151.83	177.127
1155.52	125.965
1159.21	87.844
1162.89	98.751
1166.57	60.723
1170.25	49.743
1173.93	85.803
1177.61	61.889
1181.28	96.002
1184.96	44.164
1188.63	13.614
1192.3	196.658
1195.97	49.965
1199.64	10.454
1203.3	42.914
1206.97	79.448
1210.63	37.088
1214.29	52.78
1217.95	17.482
1221.6	15.269
1225.26	21.054
1228.91	81.126
1232.57	98.982
1236.21	13.875
1239.86	33.793
1243.51	6.282
1247.16	9.41
1250.8	22.55
1254.44	29.696
1258.08	5.864
1261.72	4.04
1265.36	60.791
1268.99	120.646
1272.63	15.527
1276.26	58.434
1279.89	17.365
1283.52	28.68
1287.15	103.322
1290.77	73.305
1294.4	43.318
1298.02	60.36
1301.64	70.432
1305.26	15.529
1308.88	24.649
1312.49	73.796
1316.11	48.357
1319.72	32.568
1323.33	80.815
1326.94	65.099
1330.55	145.423
1334.15	91.065
1337.76	108.47
1341.36	102.171
1344.96	17.832
1348.56	35.34
1352.16	49.009
1355.75	26.595
1359.35	77.34
1362.94	110.364
1366.53	111.278
1370.12	79.286
1373.71	57.421
1377.3	112.14
1380.88	93.557
1384.46	67.819
1388.05	32.328
1391.63	46.937
1395.2	36.153
1398.78	81.727
1402.36	234.893
1405.93	120.556
1409.5	100.135
1413.07	86.734
1416.64	0.353
1420.21	98.005
1423.78	28.682
1427.34	20.371
1430.9	29.1
1434.46	90.005
1438.02	40.992
1441.58	72.985
1445.13	50.009
1448.69	70.505
1452.24	66.431
1455.79	62.607
1459.34	37.117
1462.89	56.777
1466.44	46.771
1469.98	63.67
1473.53	43.86
1477.07	45.104
1480.61	75.7
1484.14	87.564
1487.68	96.834
1491.22	83.518
1494.75	70.65
1498.28	103.279
1501.81	36.69
1505.34	16.219
1508.87	47.82
1512.4	57.874
1515.92	130.227
1519.44	0
