Measurement: Raman, 514 nm, ccw, Raman Data Processed
Mineral: Pyromorphite
Rruff sample: R050085
Ideal chemistry: Pb_5_(PO_4_)_3_Cl
Locality: Bunker Hill mine, Shoshone County, Idaho, USA
Source: Eugene Schlepp
Description: Group of orange hexagonal prisms
Measured chemistry: Pb_5.00_(P_0.96_As_0.04_O_4_)_3_Cl_1.00_
Pin_id: L00335
Orientation: Laser parallel to c* (0 0 1). Fiducial mark perpendicular to laser is parallel to a [1 0 0]
Raman shift (cm-1)	intensity
51.274	0
55.47	30.916
59.664	282.083
63.855	617.535
68.045	585.235
72.233	437.513
76.418	538.195
80.602	1198.86
84.784	5423.69
88.964	15262.6
93.142	17061.2
97.318	10995.9
101.492	11674.6
105.664	18696.3
109.834	19263.3
114.002	11539.8
118.168	6495.23
122.332	3913.97
126.495	2613.39
130.655	2088.13
134.813	1749.26
138.97	1718.36
143.124	2112.56
147.277	2674.55
151.427	3625.64
155.576	4452.54
159.723	4700.04
163.867	4246.87
168.01	3557.81
172.151	2953.07
176.29	2453.55
180.427	2223.7
184.562	2070.17
188.696	1953.72
192.827	1872.2
196.956	1829.46
201.084	1704.73
205.209	1723.46
209.333	1539.17
213.454	1445.89
217.574	1291.15
221.692	1080.84
225.808	856.101
229.922	630.426
234.034	449.896
238.144	283.656
242.252	231.207
246.359	158.206
250.463	183.395
254.566	165.546
258.666	97.487
262.765	59.089
266.862	31.264
270.957	41.068
275.05	39.075
279.141	75.951
283.23	87.726
287.317	76.163
291.403	82.134
295.486	113.257
299.568	70.802
303.647	100.291
307.725	80.047
311.801	47.683
315.875	19.07
319.947	12.765
324.018	31.166
328.086	95.309
332.153	102.698
336.217	178.255
340.28	265.859
344.341	351.388
348.4	394.165
352.457	343.518
356.512	303.82
360.566	295.997
364.617	330.479
368.667	358.221
372.715	512.83
376.761	655.106
380.805	665.695
384.847	754.819
388.887	1074.41
392.926	1419.44
396.962	1242.82
400.997	1079.47
405.03	1201.35
409.061	1735.43
413.09	2586.68
417.117	3757.1
421.143	3413.33
425.166	2165.63
429.188	1405.6
433.208	984.917
437.226	811.068
441.242	689.535
445.256	612.244
449.269	541.577
453.28	499.815
457.288	489.186
461.295	442.235
465.3	420.341
469.304	373.033
473.305	350.905
477.305	316.639
481.303	265.052
485.298	238.51
489.293	251.344
493.285	249.395
497.275	247.579
501.264	249.026
505.251	275.442
509.236	270.041
513.219	260.4
517.2	277.6
521.18	279.645
525.157	280.209
529.133	332.316
533.107	381.62
537.079	536.099
541.05	874.168
545.018	1114.81
548.985	759.739
552.95	799.656
556.913	908.911
560.875	689.102
564.834	666.603
568.792	850.829
572.748	1714.76
576.702	2342.18
580.654	1286.48
584.605	748.562
588.553	508.638
592.5	433.343
596.445	404.291
600.389	377.312
604.33	378.74
608.27	360.415
612.208	341.39
616.144	305.326
620.078	289.22
624.011	280.892
627.941	251.454
631.87	236.754
635.798	192.839
639.723	138.687
643.647	158.093
647.568	113.517
651.488	98.724
655.407	63.748
659.323	59.564
663.238	43.366
667.151	35.772
671.062	12.881
674.971	9.3
678.879	11.703
682.785	25.572
686.689	25.008
690.591	16.669
694.491	15.517
698.39	25.805
702.287	43.546
706.182	71.796
710.076	25.611
713.968	34.818
717.857	39.35
721.746	35.181
725.632	41.243
729.517	31.523
733.4	25.007
737.281	6.248
741.16	17.323
745.038	23.088
748.913	18.916
752.788	25.218
756.66	39.348
760.531	73.494
764.399	166.671
768.267	206.899
772.132	303.188
775.996	387.546
779.857	578.971
783.718	838.451
787.576	1119.9
791.433	1388.15
795.288	1441.04
799.141	1488.22
802.992	1433.32
806.842	1366.34
810.69	1485.81
814.536	2516.14
818.381	5735.01
822.223	6527.35
826.065	5922.49
829.904	4726.13
833.741	2847.88
837.577	2312.56
841.412	2364.6
845.244	2285.99
849.075	3482.13
852.904	4445.77
856.731	2709.1
860.556	874.233
864.38	268.751
868.202	137.24
872.023	73.843
875.842	120.371
879.658	230.452
883.474	271.478
887.287	428.706
891.099	636.3
894.909	892.302
898.718	1305.46
902.524	2068.34
906.329	3631.32
910.133	7021.17
913.934	15887.6
917.734	39551.5
921.532	48826
925.329	26121.1
929.124	12206.6
932.917	7218.71
936.708	6126.29
940.498	7248.39
944.286	9564.02
948.072	10542.2
951.857	8230.89
955.64	5400.11
959.421	3426.86
963.201	2263.14
966.979	1688.95
970.755	1411.3
974.529	1305.2
978.302	1229.67
982.073	1254.72
985.843	1221.38
989.611	1268.67
993.377	1426.6
997.141	1674.15
1000.9	2228.31
1004.66	3088.08
1008.42	3958.45
1012.18	4379.48
1015.94	3971.16
1019.69	3175.39
1023.45	2390.56
1027.2	1820.43
1030.95	1359.96
1034.69	1056.89
1038.44	844.689
1042.18	815.93
1045.93	878.129
1049.67	710.218
1053.41	612.716
1057.14	503.439
1060.88	534.797
1064.62	524.331
1068.35	489.09
1072.08	572.476
1075.81	658.74
1079.54	653.388
1083.26	585.294
1086.99	510.938
1090.71	548.027
1094.43	509.418
1098.15	480.173
1101.87	446.16
1105.59	357.333
1109.3	332.629
1113.01	256.086
1116.72	206.123
1120.43	229.81
1124.14	257.952
1127.85	387.506
1131.55	526.054
1135.26	408.757
1138.96	351.266
1142.66	395.555
1146.36	372.191
1150.05	414.042
1153.75	392.58
1157.44	250.911
1161.13	155.276
1164.82	85.382
1168.51	32.339
1172.2	33.703
1175.88	44.082
1179.57	70.851
1183.25	87.509
1186.93	81.824
1190.61	63.817
1194.28	56.248
1197.96	42.096
1201.63	18.033
1205.31	33.281
1208.98	23.176
1212.64	36.313
1216.31	23.972
1219.98	1.309
1223.64	2.206
1227.31	39.588
1230.97	35.894
1234.62	19.928
1238.28	20.761
1241.94	35.027
1245.59	40.291
1249.25	57.02
1252.9	59.642
1256.55	95.667
1260.2	100.153
1263.84	88.202
1267.49	99.917
1271.13	78.448
1274.77	111.905
1278.41	102.123
1282.05	120.897
1285.69	123.296
1289.32	119.434
1292.96	124.23
1296.59	122.582
1300.22	145.397
1303.85	134.028
1307.48	137.145
1311.1	153.675
1314.72	164.963
1318.35	159.509
1321.97	195.652
1325.59	175.529
1329.21	144.596
1332.82	145.811
1336.44	148.518
1340.05	144.724
1343.66	134.177
1347.27	125.303
1350.88	133.938
1354.49	135.206
1358.09	124.747
1361.7	100.004
1365.3	106.97
1368.9	111.924
1372.5	80.202
1376.1	104.689
1379.69	75.533
1383.29	82.349
1386.88	71.474
1390.47	60.795
1394.06	75.135
1397.65	80.715
1401.23	90.625
1404.82	85.916
1408.4	105.937
1411.98	77.611
1415.56	64.239
1419.14	67.637
1422.72	35.421
1426.3	53.884
1429.87	59.862
1433.44	35.43
1437.01	40.998
1440.58	51.033
1444.15	38.714
1447.71	52.124
1451.28	60.57
1454.84	42.42
1458.4	33.235
1461.96	39.446
1465.52	41.88
1469.08	29.588
1472.64	41.32
1476.19	48.195
1479.74	24.16
1483.29	29.547
1486.84	33.87
1490.39	39.735
1493.94	23.419
1497.48	12.83
1501.02	11.574
1504.57	3.103
1508.11	32.293
1511.64	202.443
1515.18	100.601
1518.72	25.297
1522.25	0
