Measurement: Raman, 514 nm, ccw, Raman Data Processed
Mineral: Pyromorphite
Rruff sample: R050085
Ideal chemistry: Pb_5_(PO_4_)_3_Cl
Locality: Bunker Hill mine, Shoshone County, Idaho, USA
Source: Eugene Schlepp
Description: Group of orange hexagonal prisms
Measured chemistry: Pb_5.00_(P_0.96_As_0.04_O_4_)_3_Cl_1.00_
Pin_id: L00459
Orientation: Laser parallel to a* (1 0 0). Fiducial mark perpendicular to laser is parallel to c [0 0 1]
Raman shift (cm-1)	intensity
51.274	0
55.47	12.041
59.664	57.866
63.855	452.226
68.045	812.986
72.233	1569.37
76.418	2251.97
80.602	3449.8
84.784	8203.75
88.964	16990
93.142	16292.2
97.318	11985.1
101.492	16135.5
105.664	25341.6
109.834	22082.3
114.002	13051.3
118.168	8796.43
122.332	6823.33
126.495	6129.51
130.655	6053.29
134.813	6334.95
138.97	6943.61
143.124	7830.35
147.277	8296.26
151.427	8191.85
155.576	7857.38
159.723	7532.94
163.867	7338.6
168.01	7287.63
172.151	7554.02
176.29	8365.53
180.427	9605.87
184.562	11146.5
188.696	12153.5
192.827	11071.7
196.956	8873.39
201.084	6596.21
205.209	5094.85
209.333	4114.2
213.454	3431.45
217.574	3002.44
221.692	2599.25
225.808	2215.61
229.922	1817.41
234.034	1598.99
238.144	1308.29
242.252	1057.6
246.359	944.397
250.463	842.302
254.566	663.987
258.666	558.179
262.765	414.688
266.862	295.377
270.957	145.143
275.05	108.904
279.141	26.55
283.23	20.133
287.317	42.442
291.403	148.514
295.486	96.487
299.568	67.373
303.647	251.226
307.725	272.199
311.801	197.845
315.875	197.937
319.947	127.219
324.018	59.933
328.086	25.857
332.153	190.338
336.217	367.83
340.28	583.688
344.341	873.874
348.4	853.648
352.457	761.325
356.512	744.858
360.566	1314.7
364.617	538.177
368.667	454.193
372.715	511.473
376.761	650.359
380.805	879.974
384.847	1246
388.887	1828.9
392.926	2503.53
396.962	3283.85
400.997	5291.82
405.03	10403.4
409.061	14950.6
413.09	11177.2
417.117	6255.27
421.143	3681.71
425.166	2417.49
429.188	1745.59
433.208	1363.04
437.226	1119.95
441.242	1005.22
445.256	905.548
449.269	830.17
453.28	826.716
457.288	768.579
461.295	732.798
465.3	580.238
469.304	459.659
473.305	381.853
477.305	264.624
481.303	214.849
485.298	131.057
489.293	100.288
493.285	138.141
497.275	149.868
501.264	189.578
505.251	183.913
509.236	217.859
513.219	228.884
517.2	248.918
521.18	252.134
525.157	269
529.133	298.507
533.107	361.998
537.079	427.36
541.05	465.27
545.018	588.943
548.985	795.619
552.95	1221.99
556.913	1005.21
560.875	661.363
564.834	524.617
568.792	559.443
572.748	573.915
576.702	563.078
580.654	524.4
584.605	459.737
588.553	414.974
592.5	388.82
596.445	389.196
600.389	400.122
604.33	438.192
608.27	419.555
612.208	439.068
616.144	434.38
620.078	440.506
624.011	385.638
627.941	366.692
631.87	307.447
635.798	279.458
639.723	214.804
643.647	181.038
647.568	157.945
651.488	114.943
655.407	92.754
659.323	87.589
663.238	55.177
667.151	64.549
671.062	27.467
674.971	45.939
678.879	55.055
682.785	10.682
686.689	16.865
690.591	3.992
694.491	17.171
698.39	1.008
702.287	24.453
706.182	19.566
710.076	46.312
713.968	62.739
717.857	52.89
721.746	44.713
725.632	43.135
729.517	54.068
733.4	24.443
737.281	1.845
741.16	25.137
745.038	61.158
748.913	87.135
752.788	70.367
756.66	40.985
760.531	14.804
764.399	22.204
768.267	68.089
772.132	144.884
775.996	209.6
779.857	375.249
783.718	547.839
787.576	737.338
791.433	740.694
795.288	602.421
799.141	539.732
802.992	573.63
806.842	834.745
810.69	1764.85
814.536	4692.46
818.381	10389.1
822.223	6880.85
826.065	3389.14
829.904	2116.56
833.741	1625.65
837.577	1679.6
841.412	1729.94
845.244	1972.1
849.075	2917.54
852.904	3122.36
856.731	1605.96
860.556	536.168
864.38	235.401
868.202	148.156
872.023	227.193
875.842	304.142
879.658	278.718
883.474	139.704
887.287	145.285
891.099	163.777
894.909	299.93
898.718	499.419
902.524	927.637
906.329	1761.61
910.133	3554.26
913.934	7722.22
917.734	18570.5
921.532	21569.5
925.329	16739.2
929.124	14849.5
932.917	18220.4
936.708	26951.9
940.498	41834.1
944.286	57836.9
948.072	56980.4
951.857	39754.6
955.64	24899.4
959.421	15614.9
963.201	10171.1
966.979	7313.94
970.755	5512.53
974.529	4633.83
978.302	4035.86
982.073	3451.63
985.843	3061.13
989.611	2629.38
993.377	2364.38
997.141	2233.14
1000.9	2374.67
1004.66	2708.99
1008.42	3075.09
1012.18	4252.95
1015.94	5599.58
1019.69	7163.98
1023.45	7822.23
1027.2	7228.7
1030.95	6069.41
1034.69	5067.23
1038.44	4150.05
1042.18	3767.4
1045.93	3329.47
1049.67	2844.04
1053.41	2500.45
1057.14	2080.39
1060.88	1741.59
1064.62	1481.43
1068.35	1296.2
1072.08	1263.43
1075.81	1251.99
1079.54	1171.9
1083.26	1104.49
1086.99	923.488
1090.71	861.944
1094.43	825.358
1098.15	695.048
1101.87	567.134
1105.59	482.564
1109.3	394.951
1113.01	284.752
1116.72	276.484
1120.43	394.289
1124.14	790.145
1127.85	1833.64
1131.55	1674.28
1135.26	874.74
1138.96	602.148
1142.66	604.667
1146.36	693.754
1150.05	644.919
1153.75	586.488
1157.44	411.623
1161.13	262.476
1164.82	133.813
1168.51	61.478
1172.2	15.27
1175.88	48.282
1179.57	58.036
1183.25	49.368
1186.93	52.233
1190.61	53.074
1194.28	18.34
1197.96	56.617
1201.63	48.103
1205.31	19.924
1208.98	35.958
1212.64	61.367
1216.31	26.183
1219.98	20.272
1223.64	6.632
1227.31	23.594
1230.97	9.897
1234.62	9.268
1238.28	10.364
1241.94	3.772
1245.59	27.194
1249.25	17.728
1252.9	43.898
1256.55	30.624
1260.2	36.781
1263.84	43.564
1267.49	43.839
1271.13	66.846
1274.77	53.543
1278.41	59.838
1282.05	85.914
1285.69	91.388
1289.32	124.455
1292.96	82.902
1296.59	99.739
1300.22	126.044
1303.85	122.134
1307.48	152.775
1311.1	188.609
1314.72	209.789
1318.35	198.02
1321.97	194.451
1325.59	187.17
1329.21	172.825
1332.82	205.209
1336.44	219.661
1340.05	215.283
1343.66	214.133
1347.27	220.957
1350.88	210.244
1354.49	217.195
1358.09	219.701
1361.7	211.166
1365.3	196.402
1368.9	197.308
1372.5	184.118
1376.1	167.102
1379.69	165.393
1383.29	160.587
1386.88	166.19
1390.47	171.671
1394.06	133.449
1397.65	141.945
1401.23	145.468
1404.82	127.829
1408.4	132.904
1411.98	117.775
1415.56	127.544
1419.14	112.722
1422.72	121.897
1426.3	115.632
1429.87	112.448
1433.44	85.564
1437.01	99.63
1440.58	105.018
1444.15	91.094
1447.71	74.545
1451.28	101.005
1454.84	102.208
1458.4	121.555
1461.96	123.05
1465.52	156.401
1469.08	122.837
1472.64	136.111
1476.19	65.049
1479.74	53.114
1483.29	26.178
1486.84	12.32
1490.39	22.404
1493.94	6.649
1497.48	29.796
1501.02	33.717
1504.57	36.779
1508.11	168.865
1511.64	236.722
1515.18	78.095
1518.72	0.75
1522.25	0
