Measurement: Raman, 514 nm, ccw, Raman Data Processed
Mineral: Pyrosmalite-(Fe)
Rruff sample: R050158
Ideal chemistry: Fe^2+^_8_Si_6_O_15_(OH)_10_
Locality: Burguillos del Cerro, Badajos, Spain
Source: Jim McGlasson
Description: Green subhedral crystal aggregate
Measured chemistry: (Fe^2+^_0.92_Mn^2+^_0.06_Mg_0.02_)_8_Si_6_O_15_(OH_0.83_Cl_0.17_)_10_
Pin_id: L00098
Orientation: Laser parallel to c* (0 0 1). Fiducial mark perpendicular to laser is parallel to a [1 0 0]
Raman shift (cm-1)	intensity
128.263	0
132.432	95.454
136.599	565.67
140.764	1361.07
144.927	1918.88
149.088	1613.96
153.247	1447.21
157.404	1547.44
161.559	1725.17
165.711	1817.63
169.862	1992.69
174.011	2434.07
178.158	3120.55
182.303	4149.78
186.446	4451
190.587	4000.63
194.726	3093.26
198.862	1934.44
202.997	1015.94
207.13	394.388
211.261	101.725
215.39	62.708
219.517	90.953
223.642	74.603
227.765	66.165
231.886	77.046
236.005	4.385
240.122	249.779
244.237	642.987
248.35	1097.93
252.461	1625.76
256.57	2206.79
260.677	2417.37
264.782	2429.48
268.885	2047.87
272.986	1443.23
277.085	780.5
281.182	412.615
285.278	346.568
289.371	468.316
293.462	725.48
297.552	1352.42
301.639	2301.24
305.724	2925.05
309.808	2713.29
313.889	2258.55
317.969	3044.14
322.046	6198.63
326.122	9398.29
330.196	5822.52
334.267	2422.41
338.337	1157.17
342.405	912.468
346.471	687.328
350.535	760.896
354.597	1074.44
358.657	1599.28
362.715	2271.54
366.771	2337.79
370.825	1947.11
374.877	1507.56
378.928	1169.93
382.976	977.371
387.023	994.972
391.067	950.319
395.11	1033.69
399.15	1193.68
403.189	1391.96
407.226	1776.59
411.261	2522.22
415.294	3485.19
419.325	4154.02
423.354	3368.18
427.381	2047.07
431.406	1348.78
435.43	1074.32
439.451	907.676
443.471	494.266
447.488	262.109
451.504	157.246
455.518	104.622
459.53	175.627
463.54	189.101
467.548	281.048
471.554	398.504
475.558	759.511
479.561	1808.09
483.561	3044.25
487.559	2449.03
491.556	1110.44
495.551	568.493
499.544	192.221
503.535	126.633
507.524	45.736
511.511	63.535
515.496	220.037
519.48	236.285
523.461	149.781
527.441	43.232
531.418	45.891
535.394	39.48
539.368	85.472
543.34	99.823
547.311	11.52
551.279	67.385
555.245	35.376
559.21	7.693
563.173	11.438
567.133	57.155
571.092	143.493
575.049	176.582
579.005	243.439
582.958	379.108
586.909	547.581
590.859	869.938
594.807	1347.2
598.753	2202.33
602.697	4078.33
606.639	8297.19
610.579	17065.2
614.518	27682.2
618.454	24889.7
622.389	13467.2
626.322	6755.46
630.253	3828.96
634.182	2471.5
638.109	1655.86
642.035	1248.05
645.958	964.064
649.88	768.915
653.8	647.602
657.718	579.362
661.634	511.271
665.549	441.308
669.461	379.905
673.372	338.854
677.281	300.717
681.188	187.525
685.093	174.071
688.997	156.284
692.898	157.024
696.798	156.153
700.696	143.909
704.592	218.918
708.486	265.09
712.378	291.588
716.269	359.635
720.158	497.529
724.045	445.289
727.93	603.783
731.813	717.973
735.694	898.486
739.574	1104.37
743.452	969.694
747.328	734.833
751.202	551.008
755.075	387.057
758.945	627.455
762.814	580.448
766.681	721.23
770.546	726.957
774.409	485.099
778.271	374.318
782.131	300.228
785.989	260.202
789.845	255.898
793.699	247.531
797.552	267.041
801.402	353.46
805.251	473.791
809.098	699.035
812.944	868.198
816.787	951.87
820.629	1044.37
824.469	772.393
828.307	469.375
832.144	288.292
835.978	162.147
839.811	68.689
843.642	12.982
847.472	51.494
851.299	45.222
855.125	2.174
858.949	15.382
862.771	35.359
866.591	1.123
870.41	35.094
874.227	55.293
878.042	0.545
881.855	45.537
885.667	36.566
889.476	5.482
893.284	1.357
897.09	72.919
900.895	4.503
904.698	39.323
908.499	32.353
912.298	0.561
916.095	37.154
919.891	28.811
923.685	49.401
927.477	21.926
931.267	52.379
935.056	58.785
938.843	76.145
942.628	46.458
946.411	157.729
950.193	91.967
953.973	133.182
957.751	163.371
961.527	157.561
965.302	164.737
969.075	151.879
972.846	197.02
976.615	240.134
980.383	223.215
984.149	379.267
987.913	402.29
991.675	495.198
995.436	567.798
999.195	738.166
1002.95	995.811
1006.71	1372.99
1010.46	2004.31
1014.21	3164.77
1017.96	5176.43
1021.71	7703.37
1025.46	9014.58
1029.2	7914.35
1032.95	5797.55
1036.69	3991.71
1040.43	3001.84
1044.17	2267.75
1047.9	1766.24
1051.64	1449.78
1055.37	1110.62
1059.1	906.195
1062.83	893.043
1066.56	607.74
1070.29	534.725
1074.01	464.822
1077.73	380.141
1081.46	303.566
1085.17	302.12
1088.89	246.503
1092.61	268.045
1096.32	181.731
1100.04	212.642
1103.75	253.469
1107.46	213.066
1111.16	292.347
1114.87	320.958
1118.57	464.195
1122.28	594.197
1125.98	728.828
1129.67	755.583
1133.37	590.384
1137.07	484.057
1140.76	310.342
1144.45	195.042
1148.14	140.862
1151.83	89.609
1155.52	123.405
1159.21	3.767
1162.89	36.12
1166.57	71.088
1170.25	40.077
1173.93	38.073
1177.61	113.104
1181.28	112.166
1184.96	35.25
1188.63	74.374
1192.3	18.204
1195.97	26.555
1199.64	6.799
1203.3	38.267
1206.97	5.623
1210.63	2.557
1214.29	2.922
1217.95	47.736
1221.6	67.423
1225.26	43.527
1228.91	30.279
1232.57	117.049
1236.21	7.835
1239.86	35.644
1243.51	34.446
1247.16	12.209
1250.8	5.942
1254.44	75.341
1258.08	15.332
1261.72	69.017
1265.36	95.706
1268.99	80.388
1272.63	22.086
1276.26	11.757
1279.89	11.861
1283.52	9.118
1287.15	29.641
1290.77	69.409
1294.4	37.297
1298.02	60.101
1301.64	71.923
1305.26	59.661
1308.88	5.505
1312.49	72.365
1316.11	45.46
1319.72	80.359
1323.33	96.534
1326.94	103.226
1330.55	158.17
1334.15	137.099
1337.76	120.112
1341.36	130.775
1344.96	49.752
1348.56	4.75
1352.16	22.322
1355.75	65.772
1359.35	102.403
1362.94	120.881
1366.53	121.89
1370.12	35.356
1373.71	107.313
1377.3	80.942
1380.88	22.016
1384.46	39.9
1388.05	59.938
1391.63	21.138
1395.2	16.972
1398.78	87.986
1402.36	101.939
1405.93	146.31
1409.5	147.274
1413.07	112.365
1416.64	151.463
1420.21	5.416
1423.78	20.286
1427.34	77.841
1430.9	50.907
1434.46	64.035
1438.02	77.147
1441.58	89.859
1445.13	194.655
1448.69	153.689
1452.24	50.718
1455.79	119.931
1459.34	37.459
1462.89	37.126
1466.44	97.882
1469.98	92.703
1473.53	77.777
1477.07	23.419
1480.61	131.782
1484.14	76.585
1487.68	106.541
1491.22	58.586
1494.75	85.647
1498.28	64.261
1501.81	1.088
1505.34	59.485
1508.87	1.855
1512.4	9.202
1515.92	45.541
1519.44	0
