Measurement: Raman, 514 nm, ccw, Raman Data Processed
Mineral: Pyrosmalite-(Fe)
Rruff sample: R050158
Ideal chemistry: Fe^2+^_8_Si_6_O_15_(OH)_10_
Locality: Burguillos del Cerro, Badajos, Spain
Source: Jim McGlasson
Description: Green subhedral crystal aggregate
Measured chemistry: (Fe^2+^_0.92_Mn^2+^_0.06_Mg_0.02_)_8_Si_6_O_15_(OH_0.83_Cl_0.17_)_10_
Pin_id: L00098
Orientation: Laser parallel to c* (0 0 1). Fiducial mark perpendicular to laser is parallel to a [1 0 0]
Raman shift (cm-1)	intensity
128.263	0
132.432	96.625
136.599	657.957
140.764	1524.84
144.927	2191.97
149.088	1752.39
153.247	1567.56
157.404	1546.05
161.559	1812.79
165.711	1866.85
169.862	2003.92
174.011	2493.23
178.158	3183.32
182.303	4106.06
186.446	4598.39
190.587	4194.3
194.726	3306.37
198.862	2030.16
202.997	1078.48
207.13	531.934
211.261	83.728
215.39	72.33
219.517	102.315
223.642	33.734
227.765	44.048
231.886	61.641
236.005	4.876
240.122	237.896
244.237	662.542
248.35	1024.99
252.461	1648.46
256.57	2149.12
260.677	2593.25
264.782	2525.68
268.885	2143.55
272.986	1569.47
277.085	814.332
281.182	494.095
285.278	448.75
289.371	526.983
293.462	907.391
297.552	1580.12
301.639	2626.07
305.724	3208.85
309.808	2907.88
313.889	2466.35
317.969	3425.33
322.046	7156.37
326.122	10373.7
330.196	5976.8
334.267	2524.67
338.337	1365.49
342.405	913.34
346.471	795.446
350.535	847.242
354.597	1200.87
358.657	1842.44
362.715	2448.69
366.771	2633.08
370.825	2055.94
374.877	1702.8
378.928	1275.97
382.976	1124.56
387.023	1033.28
391.067	1049.67
395.11	1154.92
399.15	1376.48
403.189	1580.52
407.226	2136.31
411.261	2953.46
415.294	4053.85
419.325	4647.84
423.354	3691.48
427.381	2222.97
431.406	1541.3
435.43	1119.49
439.451	790.524
443.471	465.399
447.488	235.317
451.504	187.556
455.518	149.859
459.53	194.743
463.54	240.159
467.548	272.119
471.554	498.649
475.558	908.778
479.561	2154.52
483.561	3525.89
487.559	2634.92
491.556	1226.62
495.551	609.994
499.544	260.081
503.535	160.901
507.524	82.454
511.511	115.74
515.496	216.973
519.48	276.579
523.461	128.174
527.441	18.764
531.418	62.047
535.394	16.17
539.368	67.483
543.34	34.086
547.311	87.833
551.279	93.868
555.245	87.038
559.21	54.407
563.173	26.042
567.133	108.043
571.092	118.891
575.049	251.511
579.005	311.951
582.958	463.245
586.909	670.383
590.859	970.375
594.807	1615.28
598.753	2521.09
602.697	4775.77
606.639	9731.6
610.579	20160.7
614.518	31789.2
618.454	27117.7
622.389	14356.6
626.322	7276.2
630.253	4161.65
634.182	2712.93
638.109	1872.04
642.035	1453.98
645.958	1161.75
649.88	886.367
653.8	748.82
657.718	663.824
661.634	577.15
665.549	565.266
669.461	401.086
673.372	305.986
677.281	265.051
681.188	204.193
685.093	203.089
688.997	201.627
692.898	151.38
696.798	165.256
700.696	209.003
704.592	200.958
708.486	299.455
712.378	265.014
716.269	345.657
720.158	451.847
724.045	575.084
727.93	675.764
731.813	803.913
735.694	1013.88
739.574	1174.12
743.452	1078.89
747.328	785.708
751.202	587.9
755.075	435.817
758.945	508.093
762.814	616.538
766.681	801.036
770.546	750.083
774.409	596.421
778.271	426.607
782.131	315.615
785.989	268.189
789.845	223.532
793.699	244.818
797.552	312.962
801.402	358.01
805.251	480.964
809.098	657.823
812.944	834.592
816.787	987.288
820.629	1135.93
824.469	834.516
828.307	489.047
832.144	215.503
835.978	94.887
839.811	123.982
843.642	16.172
847.472	16.188
851.299	32.418
855.125	5.847
858.949	44.32
862.771	26.886
866.591	8.53
870.41	62.254
874.227	29.967
878.042	31.626
881.855	12.181
885.667	15.295
889.476	28.945
893.284	31.762
897.09	41.244
900.895	18.909
904.698	71.3
908.499	11.008
912.298	29.621
916.095	25.318
919.891	5.632
923.685	65.326
927.477	70.221
931.267	28.94
935.056	37.782
938.843	95.449
942.628	46.071
946.411	149.65
950.193	106.194
953.973	149.71
957.751	82.182
961.527	188.618
965.302	191.017
969.075	180.38
972.846	191.311
976.615	215.996
980.383	270.247
984.149	355.464
987.913	389.647
991.675	522.8
995.436	624.437
999.195	843.991
1002.95	1089
1006.71	1553.14
1010.46	2263.23
1014.21	3589.52
1017.96	5901.78
1021.71	8687.15
1025.46	9998.23
1029.2	8638.32
1032.95	6339.45
1036.69	4399.91
1040.43	3313.45
1044.17	2412.38
1047.9	1922.2
1051.64	1440.66
1055.37	1217.61
1059.1	1037.19
1062.83	882.61
1066.56	691.812
1070.29	657.115
1074.01	521.516
1077.73	420.086
1081.46	371.423
1085.17	285.025
1088.89	310.832
1092.61	329.208
1096.32	243.987
1100.04	265.029
1103.75	212.828
1107.46	206.638
1111.16	262.233
1114.87	387.393
1118.57	384.242
1122.28	602.234
1125.98	735.114
1129.67	753.024
1133.37	610.054
1137.07	418.994
1140.76	354.956
1144.45	147.954
1148.14	163.192
1151.83	119.264
1155.52	83.405
1159.21	67.629
1162.89	0.092
1166.57	45.323
1170.25	46.689
1173.93	0.931
1177.61	92.376
1181.28	72.308
1184.96	126.851
1188.63	27.466
1192.3	35.166
1195.97	43.027
1199.64	11.179
1203.3	63.77
1206.97	46.845
1210.63	40.931
1214.29	27.041
1217.95	38.196
1221.6	111.398
1225.26	96.29
1228.91	19.936
1232.57	110.284
1236.21	54.408
1239.86	89.793
1243.51	11.81
1247.16	50.586
1250.8	13.004
1254.44	15.545
1258.08	19.928
1261.72	28.434
1265.36	2.032
1268.99	43.534
1272.63	71.129
1276.26	14.735
1279.89	62.351
1283.52	42.882
1287.15	1.558
1290.77	94.268
1294.4	85.013
1298.02	44.793
1301.64	93.611
1305.26	112.464
1308.88	18.688
1312.49	63.176
1316.11	30.924
1319.72	74.476
1323.33	85.427
1326.94	84.416
1330.55	163.431
1334.15	44.465
1337.76	151.99
1341.36	39.048
1344.96	100.132
1348.56	37.334
1352.16	21.77
1355.75	34.277
1359.35	76.514
1362.94	68.757
1366.53	118.033
1370.12	71.035
1373.71	54.357
1377.3	93.341
1380.88	46.987
1384.46	70.049
1388.05	113.629
1391.63	79.702
1395.2	79.021
1398.78	121.507
1402.36	117.895
1405.93	155.431
1409.5	125.73
1413.07	90.353
1416.64	118.513
1420.21	47.54
1423.78	15.517
1427.34	40.102
1430.9	75.679
1434.46	91.405
1438.02	61.25
1441.58	152.178
1445.13	165.127
1448.69	183.1
1452.24	81.508
1455.79	201.598
1459.34	61.786
1462.89	60.048
1466.44	78.4
1469.98	38.983
1473.53	103.125
1477.07	17.007
1480.61	136.011
1484.14	97.192
1487.68	147.002
1491.22	123.16
1494.75	114.752
1498.28	80.742
1501.81	42.585
1505.34	97.051
1508.87	5.869
1512.4	114.917
1515.92	53.381
