Measurement: Raman, 514 nm, ccw, Raman Data Processed
Mineral: Pyrosmalite-(Fe)
Rruff sample: R050158
Ideal chemistry: Fe^2+^_8_Si_6_O_15_(OH)_10_
Locality: Burguillos del Cerro, Badajos, Spain
Source: Jim McGlasson
Description: Green subhedral crystal aggregate
Measured chemistry: (Fe^2+^_0.92_Mn^2+^_0.06_Mg_0.02_)_8_Si_6_O_15_(OH_0.83_Cl_0.17_)_10_
Pin_id: L00508
Orientation: Laser parallel to -a* (-1 0 0). Fiducial mark perpendicular to laser is parallel to c [0 0 1]
Raman shift (cm-1)	intensity
133.821	0
137.987	244.936
142.152	514.311
146.314	641.066
150.474	302.371
154.633	16.439
158.789	12.143
162.943	99.241
167.095	62.531
171.246	245.512
175.394	497.11
179.54	1071.68
183.684	1734.46
187.826	2329.95
191.967	2680.7
196.105	2424.21
200.241	1925.57
204.375	1814.34
208.507	1518.27
212.638	1032.5
216.766	617.073
220.892	380.807
225.016	325.352
229.139	159.383
233.259	39.626
237.377	36.068
241.493	37.405
245.608	23.648
249.72	154.202
253.83	143.544
257.939	232.588
262.045	151.468
266.15	137.732
270.252	92.103
274.353	5.433
278.451	22.779
282.548	50.454
286.642	5.632
290.735	78.835
294.826	153.832
298.914	429.961
303.001	798.752
307.086	963.437
311.168	1170.92
315.249	1118.25
319.328	1419.59
323.405	2461.67
327.48	2764.83
331.553	1402.49
335.624	777.336
339.693	448.617
343.76	344.012
347.826	281.697
351.889	238.726
355.95	405.607
360.01	673.949
364.067	862.967
368.123	787.213
372.176	640.047
376.228	479.462
380.277	426.566
384.325	409.917
388.371	373.175
392.415	442.506
396.457	436.046
400.497	436.417
404.535	416.841
408.571	377.313
412.605	515.696
416.638	699.384
420.668	703.562
424.697	496.608
428.723	417.758
432.748	369.751
436.77	350.679
440.791	306.78
444.81	150.833
448.827	101.551
452.842	73.429
456.855	37.684
460.867	158.62
464.876	432.865
468.883	751.801
472.889	525.445
476.892	414.836
480.894	664.986
484.894	942.892
488.892	458.565
492.888	225.995
496.882	52.184
500.874	54.105
504.865	27.323
508.853	3.019
512.84	35.349
516.824	59.093
520.807	11.637
524.788	46.971
528.767	5.896
532.744	35.036
536.719	28.117
540.693	52.057
544.664	5.682
548.634	41.817
552.601	65.425
556.567	47.756
560.531	20.061
564.493	82.309
568.453	98.458
572.412	175.567
576.368	223.64
580.323	239.659
584.275	325.604
588.226	478.5
592.175	631.341
596.122	945.16
600.068	1462
604.011	2677.51
607.952	5388.96
611.892	10609.7
615.83	14997.4
619.766	10836.2
623.7	5507.17
627.632	2920.34
631.563	1928.62
635.491	1325.17
639.418	780.833
643.343	657.403
647.266	551.843
651.187	480.208
655.106	378.406
659.024	471.878
662.939	564.95
666.853	529.443
670.765	399.505
674.675	269.89
678.583	228.035
682.49	169.303
686.394	105.295
690.297	8.451
694.198	87.623
698.097	7.294
701.995	38.738
705.89	29.534
709.784	23.987
713.675	9.793
717.565	37.598
721.453	70.65
725.34	172.067
729.224	142.114
733.107	292.661
736.988	275.015
740.867	331.11
744.744	377.406
748.62	230.748
752.493	154.504
756.365	80.953
760.235	64.017
764.103	150.023
767.969	190.688
771.834	114.552
775.697	61.391
779.558	24.188
783.417	40.936
787.274	53.612
791.13	49.164
794.983	44.64
798.835	66.074
802.686	196.468
806.534	306.823
810.38	500.147
814.225	614.458
818.068	799.77
821.909	872.096
825.749	595.432
829.586	347.776
833.422	170.106
837.256	62.424
841.088	29.728
844.919	77.788
848.748	16.971
852.575	31.638
856.4	52.185
860.223	36.063
864.045	15.458
867.864	4.765
871.682	28.081
875.499	20.979
879.313	8.886
883.126	53.247
886.937	18.485
890.746	28.173
894.553	59.818
898.359	54.4
902.163	6.043
905.965	2.458
909.765	14.926
913.564	41.367
917.361	51.801
921.156	41.21
924.949	69.356
928.74	57.958
932.53	67.156
936.318	104.242
940.104	67.11
943.889	59.546
947.672	93.566
951.453	79.065
955.232	78.352
959.01	146.632
962.785	178.98
966.559	159.418
970.332	168.787
974.102	128.014
977.871	189.229
981.638	310.43
985.404	254.623
989.167	410.802
992.929	385.865
996.689	525.022
1000.45	717.966
1004.2	865.887
1007.96	1092.8
1011.71	1527.34
1015.46	2228.08
1019.21	3230.51
1022.96	4216.35
1026.71	4181.18
1030.45	3353.91
1034.19	2171.9
1037.94	1562.22
1041.68	1066.27
1045.41	772.535
1049.15	566.196
1052.88	457.439
1056.62	407.447
1060.35	353.432
1064.08	215.582
1067.8	165.859
1071.53	122.483
1075.25	142.89
1078.97	122.223
1082.7	96.529
1086.41	75.439
1090.13	101.281
1093.85	28.54
1097.56	57.94
1101.27	49.327
1104.98	71.264
1108.69	61.567
1112.4	92.971
1116.1	44.158
1119.81	84.711
1123.51	58.075
1127.21	103.205
1130.91	98.096
1134.61	85.301
1138.3	110.58
1141.99	90.046
1145.68	83.469
1149.38	0.534
1153.06	20.328
1156.75	13.875
1160.43	15.557
1164.12	58.492
1167.8	29.443
1171.48	73.889
1175.16	108.935
1178.83	55.914
1182.51	44.292
1186.18	127.273
1189.85	111.11
1193.52	104.987
1197.19	59.069
1200.86	55.086
1204.52	31.853
1208.19	43.699
1211.85	29.571
1215.51	10.959
1219.17	20.49
1222.82	87.604
1226.48	101.284
1230.13	97.81
1233.78	53.407
1237.43	51.025
1241.08	13.303
1244.73	15.815
1248.37	1.797
1252.01	97.273
1255.66	55.307
1259.3	100.207
1262.93	69.971
1266.57	55.718
1270.21	62.566
1273.84	6.329
1277.47	3.002
1281.1	55.635
1284.73	92.197
1288.36	118.708
1291.98	181.103
1295.6	58.231
1299.23	27.093
1302.85	17.84
1306.46	12.274
1310.08	0.345
1313.7	49.426
1317.31	84.28
1320.92	97.952
1324.53	93.56
1328.14	57.101
1331.75	89.574
1335.35	46.983
1338.96	8.328
1342.56	49.091
1346.16	49.056
1349.76	61.043
1353.36	92.016
1356.95	112.864
1360.55	104.65
1364.14	94.554
1367.73	83.384
1371.32	10.385
1374.91	12.748
1378.49	1.539
1382.08	21.312
1385.66	85.021
1389.24	77.179
1392.82	140.695
1396.4	143.767
1399.97	132.995
1403.55	103.965
1407.12	52.002
1410.69	28.109
1414.26	53.169
1417.83	40.667
1421.4	86.416
1424.96	127.547
1428.53	84.02
1432.09	127.315
1435.65	139.218
1439.21	116.355
1442.76	99.144
1446.32	29.797
1449.87	50.35
1453.43	27.344
1456.98	37.2
1460.53	50.76
1464.07	115.783
1467.62	120.678
1471.16	183.53
1474.71	153.312
1478.25	138.965
1481.79	97.871
1485.32	98.865
1488.86	69.436
1492.39	44.398
1495.93	38.706
1499.46	84.44
1502.99	64.852
1506.52	86.211
1510.05	63.806
1513.57	150.321
1517.09	79.559
1520.62	94.042
