Measurement: Raman, 514 nm, ccw, Raman Data Processed
Mineral: Pyrope
Rruff sample: R050113
Ideal chemistry: Mg_3_Al_2_(SiO_4_)_3_
Locality: Warsik, Pakistan
Source: Farooq and Nazia Sawal
Description: Reddish-purple fragment
Measured chemistry: (Mg_1.83_Fe^2+^_1.12_Ca_0.03_Mn_0.02_)_Σ=3_(Al_1.82_Fe^3+^_0.18_)_Σ=2_((Si_0.99_Al_0.01_)_Σ=1_O_4_)_3_
Pin_id: L00210
Orientation: Laser parallel to -a* (-1 0 0). Fiducial mark perpendicular to laser is parallel to b [0 1 0]
Raman shift (cm-1)	intensity
100.418	0
104.6	36.604
108.781	50.417
112.959	90.155
117.136	104.603
121.31	99.883
125.482	89.652
129.653	150.456
133.821	180.008
137.987	197.093
142.152	187.663
146.314	193.225
150.474	344.496
154.633	516.633
158.789	976.547
162.943	2451.45
167.095	1617.67
171.246	563.068
175.394	316.485
179.54	169.747
183.684	41.426
187.826	15.875
191.967	0.641
196.105	25.771
200.241	45.588
204.375	21.746
208.507	105.847
212.638	327.494
216.766	415.882
220.892	358.633
225.016	211.849
229.139	172.89
233.259	173.367
237.377	167.73
241.493	126.716
245.608	162.954
249.72	162.124
253.83	109.612
257.939	100.838
262.045	106.676
266.15	152.848
270.252	137.445
274.353	191.188
278.451	272.366
282.548	330.333
286.642	434.841
290.735	546.432
294.826	704.423
298.914	945.958
303.001	1047.14
307.086	1146.22
311.168	1600.53
315.249	2820.96
319.328	4426.97
323.405	5051.05
327.48	4065.95
331.553	3641.16
335.624	4771.04
339.693	8749.68
343.76	13884.4
347.826	12154.7
351.889	6485.62
355.95	4021.42
360.01	3398.46
364.067	4334.05
368.123	6980.77
372.176	8591.88
376.228	5762.96
380.277	2912.68
384.325	1469.16
388.371	864.431
392.415	559.598
396.457	361.152
400.497	261.385
404.535	187.938
408.571	136.855
412.605	60.028
416.638	39.341
420.668	22.301
424.697	11.612
428.723	20.354
432.748	8.921
436.77	50.036
440.791	4.593
444.81	4.439
448.827	77.711
452.842	54.755
456.855	61.511
460.867	55
464.876	95.237
468.883	94.247
472.889	226.071
476.892	223.753
480.894	153.3
484.894	95.695
488.892	204.056
492.888	355.956
496.882	746.992
500.874	731.688
504.865	447.546
508.853	247.33
512.84	282.827
516.824	254.89
520.807	420.683
524.788	392.271
528.767	428.519
532.744	527.469
536.719	632.13
540.693	876.616
544.664	1470.61
548.634	2717.05
552.601	4213.5
556.567	3490.96
560.531	2031.77
564.493	1117.93
568.453	793.98
572.412	580.534
576.368	492.321
580.323	468.488
584.275	468.104
588.226	542.763
592.175	845.253
596.122	608.028
600.068	444.522
604.011	338.326
607.952	275.092
611.892	292.715
615.83	277.099
619.766	295.525
623.7	328.083
627.632	451.718
631.563	404.917
635.491	305.978
639.418	211.892
643.343	161.232
647.266	71.717
651.187	31.182
655.106	61.484
659.024	65.625
662.939	18.607
666.853	11.404
670.765	25.002
674.675	27.679
678.583	27.696
682.49	50.058
686.394	58.832
690.297	49.002
694.198	15.508
698.097	99.355
701.995	41.685
705.89	17.33
709.784	33.286
713.675	12.829
717.565	47.954
721.453	2.659
725.34	25.601
729.224	35.762
733.107	19.842
736.988	378.853
740.867	91.808
744.744	135.712
748.62	167.565
752.493	262.371
756.365	360.252
760.235	365.844
764.103	264.513
767.969	186.14
771.834	157.731
775.697	160.287
779.558	163.811
783.417	184.303
787.274	168.76
791.13	214.182
794.983	226.576
798.835	200.951
802.686	271.933
806.534	392.45
810.38	480.009
814.225	425.771
818.068	447.157
821.909	348.74
825.749	307.816
829.586	322.938
833.422	312.007
837.256	360.074
841.088	452.492
844.919	618.382
848.748	786.995
852.575	1034.33
856.4	1285.95
860.223	1364.97
864.045	1269.4
867.864	1284.02
871.682	1309.01
875.499	1593.91
879.313	1907.12
883.126	2511.82
886.937	3395.68
890.746	4555.94
894.553	6015.31
898.359	8852.8
902.163	14267.4
905.965	25322.2
909.765	40457
913.564	43242
917.361	29127.2
921.156	17312.4
924.949	10377.9
928.74	6579.4
932.53	4272.08
936.318	2904.9
940.104	2033.96
943.889	1600.96
947.672	1300.21
951.453	1177.86
955.232	1035.9
959.01	959.941
962.785	1001.52
966.559	1159.03
970.332	1314.65
974.102	1470.64
977.871	1636.12
981.638	1341.3
985.404	859.465
989.167	656.021
992.929	525.612
996.689	547.681
1000.45	504.543
1004.2	478.659
1007.96	500.054
1011.71	529.649
1015.46	571.477
1019.21	692.532
1022.96	876.474
1026.71	935.128
1030.45	1165.64
1034.19	1239.28
1037.94	1082.03
1041.68	786.908
1045.41	499.942
1049.15	371.086
1052.88	295.349
1056.62	251.723
1060.35	184.202
1064.08	118.794
1067.8	107.083
1071.53	92.273
1075.25	91.146
1078.97	44.089
1082.7	55.102
1086.41	45.179
1090.13	30.316
1093.85	60.059
1097.56	2.246
1101.27	2.975
1104.98	47.765
1108.69	30.689
1112.4	50.73
1116.1	32.96
1119.81	11.343
1123.51	211.229
1127.21	3.182
1130.91	60.684
1134.61	19.622
1138.3	15.183
1141.99	2.919
1145.68	68.998
1149.38	38.054
1153.06	117.529
1156.75	136.11
1160.43	128.386
1164.12	126.434
1167.8	214.915
1171.48	112.905
1175.16	200.598
1178.83	198.634
1182.51	174.976
1186.18	175.795
1189.85	173.625
1193.52	149.069
1197.19	203.027
1200.86	163.723
1204.52	159.722
1208.19	134.067
1211.85	144.788
1215.51	96.962
1219.17	154.08
1222.82	130.428
1226.48	153.905
1230.13	154.135
1233.78	149.497
1237.43	148.137
1241.08	176.448
1244.73	218.947
1248.37	208.366
1252.01	213.851
1255.66	237.181
1259.3	249.406
1262.93	224.647
1266.57	252.752
1270.21	225.4
1273.84	198.467
1277.47	179.166
1281.1	163.381
1284.73	131.12
1288.36	135.604
1291.98	142.837
1295.6	84.175
1299.23	23.994
1302.85	74.751
1306.46	24.372
1310.08	21.738
1313.7	8.156
1317.31	10.722
1320.92	22.405
1324.53	49.878
1328.14	32.127
1331.75	32.164
1335.35	0.971
1338.96	38.546
1342.56	2.934
1346.16	19.836
1349.76	75.136
1353.36	4.919
1356.95	48.525
1360.55	25.037
1364.14	45.298
1367.73	30.331
1371.32	27.056
1374.91	22.384
1378.49	55.245
1382.08	44.855
1385.66	42.341
1389.24	65.928
1392.82	41.726
1396.4	79.818
1399.97	55.28
1403.55	52.229
1407.12	79.081
1410.69	64.418
1414.26	85.13
1417.83	43.303
1421.4	62.767
1424.96	98.755
1428.53	55.509
1432.09	65.165
1435.65	36.503
1439.21	78.953
1442.76	31.537
1446.32	20.89
1449.87	34.75
1453.43	44.115
1456.98	57.609
1460.53	97.122
1464.07	97.689
1467.62	73.663
1471.16	75.584
1474.71	99.953
1478.25	88.236
1481.79	33.149
1485.32	17.352
1488.86	30.898
1492.39	103.437
1495.93	59.539
1499.46	59.273
1502.99	61.969
1506.52	65.22
1510.05	43.006
1513.57	69.109
