Measurement: Raman, 514 nm, ccw, Raman Data Processed
Mineral: Pyrosmalite-(Fe)
Rruff sample: R050158
Ideal chemistry: Fe^2+^_8_Si_6_O_15_(OH)_10_
Locality: Burguillos del Cerro, Badajos, Spain
Source: Jim McGlasson
Description: Green subhedral crystal aggregate
Measured chemistry: (Fe^2+^_0.92_Mn^2+^_0.06_Mg_0.02_)_8_Si_6_O_15_(OH_0.83_Cl_0.17_)_10_
Pin_id: L00508
Orientation: Laser parallel to -a* (-1 0 0). Fiducial mark perpendicular to laser is parallel to c [0 0 1]
Raman shift (cm-1)	intensity
133.821	0
137.987	517.232
142.152	1187.56
146.314	1356.52
150.474	492.078
154.633	12.558
158.789	39.622
162.943	330.923
167.095	427.789
171.246	1130.34
175.394	2389.91
179.54	4220.2
183.684	6336.08
187.826	8332.46
191.967	9606.08
196.105	8846.24
200.241	7816.01
204.375	7620.68
208.507	6677.39
212.638	4410.55
216.766	2831.26
220.892	2087.59
225.016	1624.76
229.139	1067.58
233.259	713.817
237.377	508.073
241.493	258.367
245.608	193.657
249.72	100.813
253.83	81.715
257.939	28.138
262.045	25.833
266.15	24.777
270.252	30.049
274.353	12.481
278.451	11.641
282.548	54.912
286.642	188.135
290.735	320.176
294.826	609.588
298.914	1008.21
303.001	1463.4
307.086	1529.33
311.168	1313.62
315.249	1470.37
319.328	2284.83
323.405	4126.4
327.48	4141.99
331.553	2172.68
335.624	1481.86
339.693	1076.91
343.76	808.809
347.826	622.429
351.889	657.146
355.95	1042.38
360.01	1906.39
364.067	2382.36
368.123	2113.14
372.176	1547.64
376.228	1221.16
380.277	994.257
384.325	891.135
388.371	833.88
392.415	818.241
396.457	813.419
400.497	816.318
404.535	719.319
408.571	623.705
412.605	624.367
416.638	589.228
420.668	518.723
424.697	337.501
428.723	251.647
432.748	146.608
436.77	100.092
440.791	21.082
444.81	22.941
448.827	76.916
452.842	41.864
456.855	15.268
460.867	40.027
464.876	90.677
468.883	190.969
472.889	203.97
476.892	494.825
480.894	1230.58
484.894	1631.32
488.892	867.974
492.888	308.443
496.882	168.705
500.874	126.747
504.865	27.565
508.853	50.153
512.84	87.517
516.824	80.658
520.807	101.605
524.788	60.375
528.767	82.982
532.744	129.449
536.719	135.792
540.693	116.05
544.664	95.502
548.634	199.624
552.601	231.006
556.567	274.293
560.531	318.231
564.493	375.033
568.453	501.796
572.412	606.532
576.368	738.262
580.323	896.008
584.275	1205.8
588.226	1577.12
592.175	2129.39
596.122	2907.12
600.068	4594.53
604.011	8032.65
607.952	15768.8
611.892	30154.3
615.83	40659.5
619.766	28802.1
623.7	14450.1
627.632	7531.74
631.563	4267.08
635.491	2727.11
639.418	1913.87
643.343	1478.62
647.266	1114.61
651.187	897.642
655.106	621.134
659.024	579.011
662.939	529.17
666.853	448.565
670.765	340.385
674.675	199.78
678.583	194.671
682.49	97.376
686.394	121.369
690.297	35.736
694.198	24
698.097	7.485
701.995	45.888
705.89	58.817
709.784	28.025
713.675	17.576
717.565	49.429
721.453	112.445
725.34	174.476
729.224	268.524
733.107	471.588
736.988	664.668
740.867	735.765
744.744	623.88
748.62	424.026
752.493	219.211
756.365	135.44
760.235	132.721
764.103	151.151
767.969	148.806
771.834	94.564
775.697	15.425
779.558	2.652
783.417	3.279
787.274	15.109
791.13	14.239
794.983	41.665
798.835	14.156
802.686	115.337
806.534	211.847
810.38	441.42
814.225	847.064
818.068	1513.75
821.909	1852.49
825.749	1275.29
829.586	682.131
833.422	351.012
837.256	125.93
841.088	80.875
844.919	16.863
848.748	49.88
852.575	14.795
856.4	27.498
860.223	8.354
864.045	36.569
867.864	61.526
871.682	76.116
875.499	16.952
879.313	61.798
883.126	34.655
886.937	111.52
890.746	77.394
894.553	77.276
898.359	83.166
902.163	29.066
905.965	99.975
909.765	111.894
913.564	158.82
917.361	161.753
921.156	137.687
924.949	163.621
928.74	187.499
932.53	221.14
936.318	254.471
940.104	289.778
943.889	222.364
947.672	213.985
951.453	207.466
955.232	238.008
959.01	371.455
962.785	357.081
966.559	381.895
970.332	400.438
974.102	458.684
977.871	554.109
981.638	696.798
985.404	788.317
989.167	877.821
992.929	930.393
996.689	1215.42
1000.45	1561.79
1004.2	2012.06
1007.96	2716.62
1011.71	3719.65
1015.46	5434.72
1019.21	7695.48
1022.96	9566.56
1026.71	8947.49
1030.45	6497.4
1034.19	4081.21
1037.94	2562.01
1041.68	1664.81
1045.41	1099.63
1049.15	744.545
1052.88	534.486
1056.62	518.489
1060.35	414.353
1064.08	318.317
1067.8	192.236
1071.53	182.046
1075.25	91.927
1078.97	112.689
1082.7	103.333
1086.41	67.884
1090.13	56.486
1093.85	6.852
1097.56	3.26
1101.27	0.563
1104.98	43.214
1108.69	45.792
1112.4	47.159
1116.1	42.51
1119.81	24.735
1123.51	17.266
1127.21	2.332
1130.91	1.731
1134.61	1.458
1138.3	80.69
1141.99	33.556
1145.68	81.843
1149.38	58.867
1153.06	20.686
1156.75	19.331
1160.43	24.946
1164.12	61.541
1167.8	82.057
1171.48	97.556
1175.16	84.108
1178.83	91.697
1182.51	93.98
1186.18	79.929
1189.85	83.99
1193.52	68.701
1197.19	67.159
1200.86	69.599
1204.52	64.844
1208.19	34.841
1211.85	27.316
1215.51	62.728
1219.17	77.037
1222.82	105.532
1226.48	151.474
1230.13	131.263
1233.78	136.196
1237.43	72.129
1241.08	88.605
1244.73	44.576
1248.37	77.667
1252.01	113.984
1255.66	85.899
1259.3	82.588
1262.93	105.97
1266.57	94.471
1270.21	59.833
1273.84	6.816
1277.47	70.502
1281.1	86.447
1284.73	64.125
1288.36	75.912
1291.98	67.25
1295.6	46.465
1299.23	33.423
1302.85	20.343
1306.46	34.922
1310.08	16.755
1313.7	10.18
1317.31	43.613
1320.92	37.105
1324.53	59.504
1328.14	55.905
1331.75	13.205
1335.35	48.422
1338.96	21.481
1342.56	20.583
1346.16	24.223
1349.76	31.87
1353.36	63.468
1356.95	54.981
1360.55	87.758
1364.14	47.49
1367.73	32.096
1371.32	33.872
1374.91	14.116
1378.49	3.284
1382.08	44.987
1385.66	82.535
1389.24	76.714
1392.82	107.131
1396.4	130.616
1399.97	108.851
1403.55	106.845
1407.12	56.171
1410.69	50.295
1414.26	88.475
1417.83	34.931
1421.4	35.323
1424.96	120.603
1428.53	67.881
1432.09	127.146
1435.65	132.866
1439.21	89.59
1442.76	102.184
1446.32	95.663
1449.87	57.38
1453.43	59.895
1456.98	38.942
1460.53	91.993
1464.07	139.753
1467.62	115.432
1471.16	176.263
1474.71	201.299
1478.25	179.626
1481.79	160.455
1485.32	139.687
1488.86	85.389
1492.39	84.513
1495.93	96.314
1499.46	74.053
1502.99	70.002
1506.52	112.586
1510.05	78.669
1513.57	111.863
1517.09	120.029
