Measurement: Raman, 514 nm, ccw, Raman Data Processed
Mineral: Pyrope
Rruff sample: R040159
Ideal chemistry: Mg_3_Al_2_(SiO_4_)_3_
Locality: Meronitz, Bohemia
Source: University of Arizona Mineral Museum
Description: Deep red crystal fragments
Measured chemistry: (Mg_2.17_Fe^2+^_0.47_Ca_0.34_Mn_0.02_)_Σ=3_(Al_1.86_Cr_0.11_Ti_0.03_)_Σ=2_((Si_0.99_Al_0.01_)_Σ=1_O_4_)_3_; trace amounts of Rb?
Pin_id: L00224
Orientation: Laser parallel to -a* (-1 0 0). Fiducial mark perpendicular to laser is parallel to c [0 0 1]
Raman shift (cm-1)	intensity
113.559	0
117.729	19.433
121.897	89.233
126.063	81.05
130.228	129.706
134.39	159.187
138.55	319.117
142.709	431.197
146.865	485.227
151.019	390.917
155.171	316.995
159.322	174.975
163.47	12.958
167.617	28.255
171.761	39.979
175.904	18.485
180.044	101.199
184.183	246.074
188.319	427.146
192.454	538.443
196.586	698.448
200.717	873.141
204.846	1003.91
208.972	1036.11
213.097	1013.39
217.22	789.5
221.341	657.261
225.46	555.087
229.577	476.911
233.692	450.519
237.805	447.235
241.916	490.078
246.025	520.37
250.132	574.139
254.237	524.371
258.34	540.757
262.442	527.308
266.541	391.026
270.639	449.184
274.734	450.462
278.828	480.368
282.919	478.075
287.009	551.235
291.097	610.518
295.183	565.974
299.266	660.377
303.348	712.724
307.428	879.905
311.507	978.184
315.583	1195.66
319.657	1312.32
323.729	1351.28
327.8	1401.66
331.868	1675.72
335.935	2047.85
339.999	2688.97
344.062	3476.93
348.123	4658.19
352.182	7052.58
356.239	10669.5
360.294	14066.5
364.347	13463.6
368.398	9760.71
372.448	6797.89
376.495	4726.15
380.54	3425.54
384.584	2522.1
388.626	1782.86
392.666	1245.84
396.704	961.048
400.74	683.436
404.774	505.988
408.806	330.697
412.836	225.523
416.865	165.433
420.891	55.459
424.916	2.401
428.939	5.226
432.959	40.038
436.978	27.935
440.996	48.039
445.011	37.403
449.024	31.992
453.036	66.251
457.045	126.4
461.053	192.482
465.059	278.51
469.063	421.505
473.065	440.492
477.065	571.482
481.063	775.484
485.06	1063.51
489.054	1000.61
493.047	816.839
497.038	759.266
501.027	1044.87
505.014	1603.57
508.999	2074.29
512.982	1682.99
516.964	1304.69
520.944	1311.92
524.921	1322.45
528.897	1380.11
532.871	1469.54
536.844	1827.38
540.814	2363.05
544.783	3224.87
548.749	4614.36
552.714	7334.42
556.677	11442.5
560.638	11499.4
564.597	6802.51
568.555	3491.49
572.511	1897.39
576.464	1323.56
580.416	1014.78
584.366	876.536
588.315	827.365
592.261	746.052
596.206	649.93
600.148	528.956
604.089	446.471
608.028	433.005
611.965	410.219
615.901	371.363
619.834	383.34
623.766	423.181
627.696	614.885
631.624	918.45
635.551	1440.88
639.475	2272.16
643.398	2660.31
647.318	1786.31
651.237	1101.17
655.155	772.879
659.07	519.439
662.984	392.847
666.895	235.101
670.805	155.203
674.713	98.151
678.62	56.936
682.524	37.547
686.427	16.982
690.328	3.036
694.227	12.862
698.124	38.282
702.02	36.156
705.913	61.487
709.805	23.332
713.695	37.597
717.584	28.246
721.47	21.25
725.355	6.411
729.238	1.16
733.119	21.96
736.998	17.06
740.876	22.6
744.752	19.863
748.626	21.545
752.498	9.919
756.368	5.778
760.237	9.451
764.104	20.611
767.969	22.426
771.832	41.682
775.693	64.589
779.553	79.417
783.411	85.17
787.267	86.851
791.122	111.94
794.974	141.013
798.825	194.501
802.674	220.933
806.522	292.314
810.367	372.989
814.211	438.968
818.053	522.254
821.893	632.518
825.732	753.75
829.568	864.817
833.403	986.333
837.236	1291.65
841.068	1704.6
844.898	2311.17
848.726	3266.82
852.552	4828.93
856.376	6652.22
860.199	7492.37
864.02	6492.93
867.839	5101.2
871.656	4079.96
875.472	3503.45
879.286	3442.25
883.098	3572.95
886.909	3998.48
890.717	4565.3
894.524	5445.74
898.33	6939.36
902.133	9365.55
905.935	14093.7
909.735	22770.6
913.533	37439.3
917.33	51388.2
921.124	45847.3
924.918	30116.7
928.709	17766.2
932.499	11395.9
936.286	7561.66
940.073	5285.57
943.857	3822.59
947.64	3023.75
951.421	2375.04
955.2	2014.46
958.978	1693.67
962.753	1533.56
966.527	1370.84
970.3	1187.76
974.071	1097.86
977.84	1007.1
981.607	928.546
985.372	986.502
989.136	897.046
992.898	778.891
996.659	684.992
1000.42	640.649
1004.17	553.715
1007.93	591.838
1011.68	625.672
1015.43	794.711
1019.18	882.213
1022.93	1006.89
1026.68	1127.1
1030.42	1179.23
1034.17	1217.51
1037.91	1406.95
1041.65	1660.59
1045.39	2103.36
1049.12	2543.26
1052.86	2700.26
1056.59	2316.38
1060.33	1559.63
1064.06	1001.97
1067.78	637.411
1071.51	472.94
1075.23	326.574
1078.96	251.293
1082.68	141.113
1086.4	136.037
1090.12	114.044
1093.83	51.144
1097.55	57.313
1101.26	56.562
1104.97	4.893
1108.68	23.733
1112.39	21.323
1116.1	18.09
1119.8	7.526
1123.5	88.977
1127.2	6.541
1130.9	60.088
1134.6	36.796
1138.3	42.638
1141.99	53.668
1145.69	17.917
1149.38	36.338
1153.07	20.953
1156.76	15.243
1160.44	35.65
1164.13	38.349
1167.81	9.329
1171.49	32.274
1175.17	108.188
1178.85	87.141
1182.52	112.103
1186.2	134.157
1189.87	94.21
1193.54	120.418
1197.21	128.419
1200.88	150.455
1204.55	157.731
1208.21	140.83
1211.88	141.638
1215.54	121.807
1219.2	143.416
1222.86	126.656
1226.51	108.889
1230.17	121.234
1233.82	126.015
1237.47	140.088
1241.12	109.341
1244.77	104.201
1248.42	113.555
1252.06	150.973
1255.71	97.129
1259.35	113.162
1262.99	153.078
1266.63	193.541
1270.26	192.719
1273.9	176.525
1277.53	200.458
1281.16	191.368
1284.8	168.737
1288.42	183.812
1292.05	171.323
1295.68	111.084
1299.3	133.583
1302.92	100
1306.55	120.364
1310.16	109.259
1313.78	92.719
1317.4	96.277
1321.01	85.507
1324.62	46.812
1328.24	55.812
1331.85	51.592
1335.45	31.391
1339.06	49.134
1342.66	23.51
1346.27	0.232
1349.87	17.739
1353.47	27.521
1357.07	24.134
1360.66	12.571
1364.26	15.794
1367.85	15.837
1371.44	12.699
1375.04	12.349
1378.62	25.697
1382.21	2.352
1385.8	10.3
1389.38	16.708
1392.96	1.921
1396.54	32.953
1400.12	25.883
1403.7	41.985
1407.28	59.417
1410.85	45.18
1414.42	53.158
1417.99	56.132
1421.56	36.923
1425.13	58.355
1428.7	33.737
1432.26	65.153
1435.83	56.741
1439.39	63.887
1442.95	52.247
1446.51	43.481
1450.06	55.335
1453.62	24.462
1457.17	13.026
1460.73	37.38
1464.28	23.248
1467.83	23.596
1471.37	31.597
1474.92	5.371
1478.46	20.326
1482.01	21.258
1485.55	43.739
1489.09	59.81
1492.63	47.278
1496.16	33.184
1499.7	8.881
1503.23	23.83
1506.76	33.541
1510.29	19.487
1513.82	22.017
1517.35	0.051
