Measurement: Raman, 514 nm, ccw, Raman Data Processed
Mineral: Pyrope
Rruff sample: R050113
Ideal chemistry: Mg_3_Al_2_(SiO_4_)_3_
Locality: Warsik, Pakistan
Source: Farooq and Nazia Sawal
Description: Reddish-purple fragment
Measured chemistry: (Mg_1.83_Fe^2+^_1.12_Ca_0.03_Mn_0.02_)_Σ=3_(Al_1.82_Fe^3+^_0.18_)_Σ=2_((Si_0.99_Al_0.01_)_Σ=1_O_4_)_3_
Pin_id: L00210
Orientation: Laser parallel to -a* (-1 0 0). Fiducial mark perpendicular to laser is parallel to b [0 1 0]
Raman shift (cm-1)	intensity
104.6	0
108.781	26.682
112.959	85.482
117.136	148.568
121.31	164.474
125.482	84.514
129.653	102.04
133.821	173.171
137.987	59.765
142.152	18.885
146.314	155.608
150.474	333.006
154.633	702.548
158.789	1332.06
162.943	3215.45
167.095	1993.71
171.246	815.074
175.394	420.661
179.54	209.279
183.684	80.142
187.826	7.616
191.967	54.633
196.105	87.684
200.241	13.995
204.375	11.962
208.507	213.955
212.638	496.397
216.766	691.403
220.892	526.996
225.016	383.09
229.139	320.248
233.259	293.745
237.377	245.624
241.493	259.763
245.608	153.743
249.72	206.579
253.83	177.192
257.939	143.09
262.045	175.817
266.15	209.547
270.252	167.962
274.353	290.087
278.451	368.395
282.548	447.741
286.642	582.529
290.735	711.909
294.826	997.22
298.914	1277.39
303.001	1374.2
307.086	1527.32
311.168	2060.57
315.249	3596.12
319.328	5891.96
323.405	6575.4
327.48	5168.43
331.553	4701.03
335.624	6330.26
339.693	11361.8
343.76	17898
347.826	15418.6
351.889	8264.87
355.95	5092.87
360.01	4414.74
364.067	5719.57
368.123	9478.7
372.176	11432.5
376.228	7510.4
380.277	3795.09
384.325	1916.78
388.371	1058.07
392.415	656.344
396.457	486.298
400.497	314.678
404.535	280.965
408.571	203.415
412.605	87.2
416.638	80.871
420.668	13.726
424.697	40.593
428.723	37.035
432.748	26.645
436.77	12.123
440.791	15.621
444.81	6.835
448.827	91.275
452.842	55.33
456.855	57.054
460.867	91.466
464.876	83.601
468.883	192.488
472.889	350.19
476.892	397.723
480.894	271.096
484.894	154.291
488.892	263.304
492.888	471.709
496.882	1052.14
500.874	1166.74
504.865	713.847
508.853	470.728
512.84	374.337
516.824	387.391
520.807	561.43
524.788	597.867
528.767	530.964
532.744	673.303
536.719	798.331
540.693	1157.95
544.664	1953.45
548.634	3575.64
552.601	5499.6
556.567	4452.98
560.531	2586.02
564.493	1414.65
568.453	965.135
572.412	736.334
576.368	641.245
580.323	630.091
584.275	629.637
588.226	688.072
592.175	1075.48
596.122	833.825
600.068	565.383
604.011	455.891
607.952	407.852
611.892	379.846
615.83	433.332
619.766	434.19
623.7	458.706
627.632	631.066
631.563	601.689
635.491	457.121
639.418	288.36
643.343	223.003
647.266	91.833
651.187	143.5
655.106	92.971
659.024	1.239
662.939	32.259
666.853	11.039
670.765	2.485
674.675	28.359
678.583	42.637
682.49	12.416
686.394	91.643
690.297	48.41
694.198	77.646
698.097	44.381
701.995	5.583
705.89	37.163
709.784	42.181
713.675	0.58
717.565	3.786
721.453	38.978
725.34	1.974
729.224	29.919
733.107	72.7
736.988	156.39
740.867	99.001
744.744	239.538
748.62	449.012
752.493	417.435
756.365	565.809
760.235	474.13
764.103	368.401
767.969	185.619
771.834	149.794
775.697	108.926
779.558	171.02
783.417	210.074
787.274	262.083
791.13	221.052
794.983	278.985
798.835	264.909
802.686	432.518
806.534	534.184
810.38	666.315
814.225	574.204
818.068	553.737
821.909	491.189
825.749	423.547
829.586	388.724
833.422	459.948
837.256	507.823
841.088	669.308
844.919	828.298
848.748	1079.98
852.575	1402.89
856.4	1726.15
860.223	1871.21
864.045	1784.09
867.864	1719.29
871.682	1804.42
875.499	2226.75
879.313	2732.31
883.126	3317.77
886.937	4572.59
890.746	6118.99
894.553	8011.56
898.359	11774.3
902.163	19117.2
905.965	33450.3
909.765	52923.5
913.564	56576.9
917.361	38170.5
921.156	22594.2
924.949	13608.2
928.74	8652.29
932.53	5584.6
936.318	3829.09
940.104	2817.78
943.889	2100.65
947.672	1752.71
951.453	1529.31
955.232	1409.45
959.01	1334.2
962.785	1335.39
966.559	1516.74
970.332	1757.9
974.102	1985.62
977.871	2143.35
981.638	1737.24
985.404	1166.29
989.167	914.127
992.929	774.135
996.689	670.066
1000.45	621.672
1004.2	698.585
1007.96	670.806
1011.71	767.304
1015.46	799.122
1019.21	840.193
1022.96	1021.48
1026.71	1211.96
1030.45	1609.64
1034.19	1840.51
1037.94	1542.54
1041.68	1017.72
1045.41	647.044
1049.15	463.529
1052.88	328.191
1056.62	320.001
1060.35	250.943
1064.08	159.044
1067.8	104.295
1071.53	62.699
1075.25	65.221
1078.97	65.914
1082.7	81.678
1086.41	139.552
1090.13	111.52
1093.85	68.568
1097.56	6.314
1101.27	15.214
1104.98	32.157
1108.69	55.184
1112.4	36.378
1116.1	25.713
1119.81	41.234
1123.51	194.147
1127.21	42.558
1130.91	69.051
1134.61	59.881
1138.3	42.905
1141.99	21.925
1145.68	47.682
1149.38	77.53
1153.06	102.381
1156.75	177.336
1160.43	254.742
1164.12	242.723
1167.8	245.341
1171.48	193.007
1175.16	219.426
1178.83	275.339
1182.51	243.041
1186.18	256.121
1189.85	213.809
1193.52	217.636
1197.19	231.537
1200.86	187.513
1204.52	140.435
1208.19	158.219
1211.85	153.672
1215.51	219.307
1219.17	151.645
1222.82	104.071
1226.48	193.432
1230.13	139.795
1233.78	223.921
1237.43	268.469
1241.08	237.453
1244.73	233.468
1248.37	249.52
1252.01	329.828
1255.66	333.484
1259.3	380.955
1262.93	310.878
1266.57	353.235
1270.21	304.846
1273.84	295.915
1277.47	288.679
1281.1	214.453
1284.73	181.745
1288.36	161.864
1291.98	215.998
1295.6	106.771
1299.23	78.111
1302.85	32.293
1306.46	70.855
1310.08	61.287
1313.7	73.347
1317.31	37.103
1320.92	48.553
1324.53	18.688
1328.14	23.524
1331.75	40.068
1335.35	26.315
1338.96	25.297
1342.56	7.072
1346.16	8.254
1349.76	34.299
1353.36	16.068
1356.95	41.555
1360.55	28.746
1364.14	59.671
1367.73	44.408
1371.32	6.16
1374.91	4.899
1378.49	24.766
1382.08	27.239
1385.66	63.49
1389.24	34.703
1392.82	27.036
1396.4	130.416
1399.97	110.65
1403.55	65.089
1407.12	74.464
1410.69	120.077
1414.26	92.201
1417.83	79.337
1421.4	93.342
1424.96	93.202
1428.53	75.916
1432.09	151.502
1435.65	145.596
1439.21	122.685
1442.76	68.341
1446.32	59.923
1449.87	21.926
1453.43	50.409
1456.98	49.295
1460.53	51.4
1464.07	105.98
1467.62	112.973
1471.16	142.385
1474.71	131.557
1478.25	190.437
1481.79	170.513
1485.32	66.988
1488.86	109.619
1492.39	79.301
1495.93	0.136
1499.46	44.273
1502.99	52.35
1506.52	12.148
1510.05	17.977
1513.57	100.471
1517.09	0.131
