Measurement: Raman, 514 nm, ccw, Raman Data Processed
Mineral: Quartz
Rruff sample: R050125
Ideal chemistry: SiO_2_
Locality: Linopolis, Minas Gerais, Brazil
Source: Carlos and Paulo Vasconcelos
Description: Pale pink group of single crystals, variety rose quartz
Measured chemistry: Si_1.00_O_2_
Pin_id: L00315
Orientation: Laser parallel to a* (1 0 0). Fiducial mark perpendicular to laser is parallel to c [0 0 1]
Raman shift (cm-1)	intensity
47.49	0
51.717	10.775
55.942	79.056
60.165	118.979
64.386	170.173
68.604	129.024
72.82	234.434
77.034	166.758
81.246	147.671
85.455	74.301
89.663	33.471
93.868	8.08
98.07	0.956
102.271	2.262
106.469	133.638
110.665	348.816
114.859	465.435
119.05	1191.23
123.24	4036.95
127.427	7110.56
131.612	3023.22
135.794	1294.24
139.975	981.27
144.153	917.277
148.329	872.218
152.503	704.092
156.674	627.782
160.843	670.28
165.011	851.762
169.175	1014.24
173.338	1290.26
177.499	1661.83
181.657	2254.75
185.813	3092.51
189.967	4406.15
194.119	6502.06
198.268	9042.94
202.415	10845.8
206.561	11014.7
210.703	9893.96
214.844	7477.42
218.983	5294.98
223.119	3732.43
227.253	2863.74
231.385	2130.84
235.515	1676.8
239.643	1344.38
243.768	1099.26
247.891	955.983
252.012	791.347
256.131	710.458
260.248	682.915
264.363	635.656
268.475	422.273
272.585	236.73
276.693	199.656
280.799	130.731
284.903	97.231
289.005	40.728
293.104	46.222
297.201	19.29
301.296	6.836
305.389	20.414
309.48	4.06
313.569	16.242
317.655	12.514
321.74	1.234
325.822	19.008
329.902	11.244
333.98	27.48
338.056	68.716
342.129	151.909
346.201	352.015
350.27	1398.12
354.337	3441.26
358.402	1279.43
362.465	267.638
366.526	7.851
370.585	2.929
374.642	27.719
378.696	27.631
382.748	48.344
386.799	199.304
390.847	992.256
394.893	1273.2
398.936	661.143
402.978	686.084
407.018	235.031
411.055	145.984
415.091	184.947
419.124	205.925
423.155	291.94
427.184	323.003
431.211	444.109
435.236	636.222
439.259	922.339
443.28	1392.46
447.298	2337.61
451.315	4266.76
455.329	9323.87
459.341	24831.2
463.352	48078.8
467.36	36144.7
471.366	16279.7
475.37	7989.78
479.372	4871.4
483.371	3358.85
487.369	2591.94
491.365	2032.63
495.358	1640.99
499.35	1542.06
503.339	1388.34
507.326	1134.62
511.311	919.975
515.295	764.573
519.276	713.691
523.255	589.979
527.232	500.232
531.207	469.23
535.179	446.117
539.15	396.121
543.119	384.977
547.086	302.304
551.05	248.642
555.013	246.989
558.973	163.346
562.932	165.714
566.888	109.161
570.842	124.858
574.795	102.536
578.745	112.57
582.693	86.29
586.639	111.328
590.583	110.81
594.525	131.319
598.465	97.773
602.403	78.709
606.339	52.61
610.273	37.607
614.205	43.056
618.135	34.677
622.063	61.183
625.989	6.71
629.912	37.301
633.834	44.93
637.754	11.583
641.671	18.249
645.587	25.686
649.501	20.602
653.412	10.266
657.322	4.099
661.23	14.513
665.135	16.007
669.039	12.597
672.94	16.734
676.84	18.024
680.738	38.312
684.633	84.604
688.527	172.926
692.418	401.315
696.308	557.778
700.195	280.271
704.081	137.764
707.964	68.251
711.846	23.734
715.726	40.211
719.603	9.685
723.479	13.151
727.352	2.373
731.224	2.043
735.094	1.544
738.961	6.154
742.827	9.211
746.691	2.971
750.552	22.907
754.412	24.24
758.27	7.542
762.125	16.81
765.979	13.052
769.831	2.278
773.681	14.489
777.529	21.149
781.375	38.878
785.219	40.055
789.06	102.219
792.901	162.37
796.739	212.507
800.575	222.361
804.409	235.739
808.241	314.668
812.071	241.656
815.899	134.04
819.726	86.978
823.55	96.146
827.372	58.911
831.193	82.567
835.011	88.046
838.828	93.758
842.642	82.267
846.455	97.532
850.266	97.685
854.075	89.243
857.881	88.204
861.686	74.152
865.489	51.09
869.29	23.221
873.089	57.129
876.886	85.079
880.682	70.599
884.475	103.244
888.266	99.271
892.056	90.51
895.843	107.309
899.629	108.018
903.413	112.822
907.194	96.607
910.974	103.198
914.752	98.234
918.528	112.46
922.302	131.093
926.074	125.837
929.844	60.578
933.613	33.326
937.379	44.068
941.144	56.803
944.906	60.532
948.667	48.254
952.426	60.971
956.183	63.683
959.938	52.402
963.691	42.135
967.442	11.048
971.191	11.013
974.939	1.327
978.684	35.474
982.428	6.655
986.169	24.144
989.909	8.087
993.647	35.39
997.383	12.229
1001.12	3.158
1004.85	17.441
1008.58	14.65
1012.31	5.629
1016.03	4.22
1019.76	38.812
1023.48	5.408
1027.2	9.009
1030.92	24.624
1034.64	1.246
1038.36	12.884
1042.07	56.537
1045.78	23.197
1049.49	46.858
1053.2	57.52
1056.9	68.183
1060.61	116.863
1064.31	178.561
1068.01	159.274
1071.71	144.99
1075.41	145.708
1079.1	249.432
1082.79	190.167
1086.48	88.913
1090.17	88.66
1093.86	60.41
1097.55	54.16
1101.23	45.912
1104.91	15.667
1108.59	5.422
1112.27	21.178
1115.95	27.932
1119.62	68.731
1123.3	55.359
1126.97	29.761
1130.63	33.982
1134.3	56.642
1137.97	64.182
1141.63	100.747
1145.29	179.508
1148.95	293.946
1152.61	624.887
1156.27	1160.67
1159.92	1160.51
1163.57	542.424
1167.22	228.984
1170.87	144.878
1174.52	96.746
1178.16	64.195
1181.81	79.499
1185.45	41.115
1189.09	53.956
1192.73	35.823
1196.36	67.626
1200	40.419
1203.63	56.279
1207.26	61.223
1210.89	63.026
1214.52	75.999
1218.14	94.782
1221.77	156.68
1225.39	230.524
1229.01	213.505
1232.62	193.93
1236.24	148.744
1239.86	112.602
1243.47	83.345
1247.08	58.303
1250.69	53.069
1254.3	47.839
1257.9	65.513
1261.5	54.305
1265.11	71.006
1268.71	67.866
1272.3	48.593
1275.9	35.618
1279.49	29.699
1283.09	34.45
1286.68	22.109
1290.27	33.04
1293.86	7.298
1297.44	31.384
1301.03	16.001
1304.61	1.57
1308.19	6.893
1311.77	6.617
1315.34	6.898
1318.92	8.443
1322.49	15.975
1326.06	6.363
1329.63	24.665
1333.2	19.932
1336.77	19.148
1340.33	23.332
1343.89	16.813
1347.46	3.935
1351.02	9.978
1354.57	5.19
1358.13	13.22
1361.68	17.252
1365.23	31.235
1368.79	16.216
1372.33	28.016
1375.88	17.724
1379.43	3.498
1382.97	11.181
1386.51	14.851
1390.05	9.513
1393.59	36.118
1397.13	30.759
1400.66	53.344
1404.19	49.91
1407.72	51.753
1411.25	56.203
1414.78	53.158
1418.31	16.749
1421.83	13.103
1425.36	47.267
1428.88	1.182
1432.39	34.161
1435.91	35.606
1439.43	28.339
1442.94	58.543
1446.45	44.505
1449.96	61.656
1453.47	67.791
1456.98	71.018
1460.48	45.974
1463.99	39.646
1467.49	29.346
1470.99	19.535
1474.49	56.374
1477.99	44.783
1481.48	55.903
1484.97	54.255
1488.46	24.398
1491.95	68.311
1495.44	21.503
1498.93	12.985
1502.41	9.641
1505.9	28.091
1509.38	8.648
1512.86	12.665
1516.34	0.003
