Measurement: Raman, 514 nm, ccw, Raman Data Processed
Mineral: Quartz
Rruff sample: R050125
Ideal chemistry: SiO_2_
Locality: Linopolis, Minas Gerais, Brazil
Source: Carlos and Paulo Vasconcelos
Description: Pale pink group of single crystals, variety rose quartz
Measured chemistry: Si_1.00_O_2_
Pin_id: L00165
Orientation: Laser parallel to -c* (0 0 -1). Fiducial mark perpendicular to laser is parallel to -b [0 -1 0]
Raman shift (cm-1)	intensity
47.49	0
51.717	57.525
55.942	126.828
60.165	189.369
64.386	218.205
68.604	202.237
72.82	146.386
77.034	94.002
81.246	61.938
85.455	17.152
89.663	5.988
93.868	7.205
98.07	29.7
102.271	73.343
106.469	134.021
110.665	211.87
114.859	507.74
119.05	1397.62
123.24	4701.45
127.427	7437.86
131.612	2894.98
135.794	1183.14
139.975	967.331
144.153	824.428
148.329	723.343
152.503	622.937
156.674	512.123
160.843	555.147
165.011	714.086
169.175	856.041
173.338	1078.23
177.499	1447.19
181.657	1951.93
185.813	2762.26
189.967	3995.77
194.119	5696.55
198.268	7822.6
202.415	9402.61
206.561	9533.57
210.703	8359.44
214.844	6295.24
218.983	4424.8
223.119	3197.93
227.253	2433.43
231.385	1837.31
235.515	1389.39
239.643	1132.69
243.768	965.658
247.891	833.117
252.012	699.663
256.131	601.473
260.248	533.537
264.363	447.361
268.475	274.805
272.585	177.781
276.693	131.784
280.799	106.741
284.903	60.637
289.005	36.463
293.104	6.784
297.201	12.112
301.296	4.468
305.389	20.054
309.48	25.707
313.569	1.509
317.655	31.383
321.74	2.615
325.822	4.464
329.902	2.615
333.98	28.163
338.056	47.867
342.129	138.444
346.201	326.84
350.27	1215.1
354.337	2976.28
358.402	1066.43
362.465	151.553
366.526	31.659
370.585	3.741
374.642	39.79
378.696	54.79
382.748	103.712
386.799	290.561
390.847	1365.34
394.893	1596.07
398.936	499.746
402.978	311.385
407.018	152.992
411.055	149.572
415.091	146.14
419.124	200.745
423.155	248.366
427.184	318.988
431.211	401.591
435.236	582.165
439.259	806.71
443.28	1233.24
447.298	2120.43
451.315	3741.42
455.329	7986.04
459.341	21228.2
463.352	42435.6
467.36	30659.6
471.366	13272.8
475.37	6758.18
479.372	4079.44
483.371	2840.99
487.369	2199.47
491.365	1706.23
495.358	1402.22
499.35	1140.68
503.339	1038.85
507.326	819.208
511.311	641.074
515.295	575.224
519.276	561.536
523.255	471.756
527.232	416.789
531.207	398.234
535.179	343.795
539.15	313.51
543.119	291.608
547.086	273.791
551.05	241.313
555.013	182.148
558.973	156.483
562.932	119.5
566.888	115.7
570.842	98.195
574.795	89.426
578.745	71.992
582.693	92.248
586.639	87.305
590.583	94.553
594.525	91.778
598.465	88.454
602.403	50.844
606.339	27.472
610.273	49.679
614.205	40.452
618.135	21.773
622.063	21.004
625.989	13.284
629.912	12.64
633.834	19.246
637.754	39.725
641.671	17.249
645.587	8.201
649.501	8.372
653.412	13.03
657.322	10.547
661.23	13.08
665.135	10.386
669.039	15.339
672.94	3.924
676.84	20.163
680.738	40.401
684.633	110.635
688.527	204.888
692.418	438.148
696.308	576.416
700.195	237.699
704.081	110.992
707.964	57.413
711.846	29.64
715.726	13.958
719.603	10.273
723.479	13.582
727.352	2.88
731.224	2.836
735.094	9.432
738.961	11.31
742.827	4.916
746.691	30.132
750.552	7.338
754.412	4.476
758.27	1.67
762.125	26.79
765.979	31.894
769.831	2.974
773.681	22.013
777.529	50.041
781.375	47.058
785.219	2.062
789.06	69.017
792.901	160.981
796.739	151.92
800.575	104.427
804.409	84.307
808.241	95.187
812.071	95.571
815.899	81.383
819.726	57.302
823.55	61.068
827.372	62.323
831.193	78.639
835.011	77.481
838.828	71.495
842.642	74.422
846.455	41.392
850.266	102.46
854.075	84.568
857.881	77.357
861.686	55.781
865.489	45.506
869.29	65.212
873.089	74.163
876.886	49.892
880.682	59.182
884.475	67.705
888.266	54.273
892.056	90.95
895.843	98.516
899.629	76.075
903.413	94.56
907.194	67.022
910.974	98.821
914.752	97.063
918.528	86.556
922.302	93.361
926.074	88.886
929.844	71.397
933.613	50.905
937.379	61.217
941.144	35.71
944.906	65.196
948.667	47.675
952.426	40.149
956.183	14.621
959.938	41.106
963.691	8.607
967.442	19.127
971.191	10.671
974.939	34.231
978.684	21.806
982.428	4.366
986.169	1.917
989.909	26.454
993.647	14.964
997.383	29.465
1001.12	31.938
1004.85	8.627
1008.58	22.237
1012.31	23.083
1016.03	26.399
1019.76	4.287
1023.48	21.019
1027.2	16.335
1030.92	10.663
1034.64	18.005
1038.36	25.348
1042.07	25.699
1045.78	39.057
1049.49	61.426
1053.2	58.821
1056.9	74.233
1060.61	154.659
1064.31	194.091
1068.01	155.534
1071.71	92.998
1075.41	152.47
1079.1	210.941
1082.79	146.414
1086.48	89.889
1090.17	65.369
1093.86	52.85
1097.55	58.331
1101.23	33.814
1104.91	24.299
1108.59	15.785
1112.27	40.246
1115.95	18.733
1119.62	66.202
1123.3	66.136
1126.97	38.894
1130.63	32.9
1134.3	63.48
1137.97	98.884
1141.63	135.987
1145.29	196.668
1148.95	329.859
1152.61	633.429
1156.27	1365.02
1159.92	1590.28
1163.57	739.991
1167.22	326.276
1170.87	150.823
1174.52	139.783
1178.16	111.833
1181.81	54.382
1185.45	59.226
1189.09	80.836
1192.73	14.089
1196.36	10.434
1200	36.8
1203.63	64.302
1207.26	44.906
1210.89	35.432
1214.52	28.971
1218.14	39.672
1221.77	51.097
1225.39	49.661
1229.01	69.263
1232.62	64.825
1236.24	86.58
1239.86	64.959
1243.47	53.466
1247.08	61.489
1250.69	50.651
1254.3	30.266
1257.9	36.657
1261.5	54.113
1265.11	37.481
1268.71	40.932
1272.3	61.422
1275.9	53.861
1279.49	11.28
1283.09	11.588
1286.68	41.552
1290.27	25.784
1293.86	37.79
1297.44	36.235
1301.03	20.399
1304.61	2.683
1308.19	22.882
1311.77	1.936
1315.34	34.211
1318.92	9.675
1322.49	3.404
1326.06	11.454
1329.63	2.465
1333.2	32.706
1336.77	33.667
1340.33	18.563
1343.89	20.456
1347.46	9.301
1351.02	31.146
1354.57	14.07
1358.13	0.925
1361.68	38.692
1365.23	23.396
1368.79	55.792
1372.33	38.042
1375.88	41.477
1379.43	42.866
1382.97	28.246
1386.51	32.611
1390.05	2.969
1393.59	7.319
1397.13	64.416
1400.66	35.559
1404.19	43.76
1407.72	60.053
1411.25	67.042
1414.78	31.822
1418.31	16.933
1421.83	51.341
1425.36	3.34
1428.88	32.92
1432.39	32.369
1435.91	83.042
1439.43	82.183
1442.94	88.235
1446.45	72.57
1449.96	85.892
1453.47	56.133
1456.98	54.663
1460.48	33.351
1463.99	31.588
1467.49	37.731
1470.99	18.24
1474.49	62.964
1477.99	44.773
1481.48	55.559
1484.97	93.339
1488.46	102.164
1491.95	36.057
1495.44	41.4
1498.93	31.391
1502.41	59.141
1505.9	35.268
1509.38	9.209
1512.86	0.04
