Measurement: Raman, 785 nm, ccw, Raman Data Processed
Mineral: Quartz
Rruff sample: R050125
Ideal chemistry: SiO_2_
Locality: Linopolis, Minas Gerais, Brazil
Source: Carlos and Paulo Vasconcelos
Description: Pale pink group of single crystals, variety rose quartz
Measured chemistry: Si_1.00_O_2_
Pin_id: L00165
Orientation: Laser parallel to -c* (0 0 -1). Fiducial mark perpendicular to laser is parallel to -b [0 -1 0]
Raman shift (cm-1)	intensity
47.49	0
51.717	107.876
55.942	233.432
60.165	348.147
64.386	392.156
68.604	424.712
72.82	273.136
77.034	120.699
81.246	40.518
85.455	21.749
89.663	15.32
93.868	14.668
98.07	79.133
102.271	112.887
106.469	197.763
110.665	302.825
114.859	597.857
119.05	1443.47
123.24	5045.11
127.427	8524.51
131.612	3321.96
135.794	1334.89
139.975	1016.02
144.153	923.132
148.329	841.037
152.503	767.464
156.674	614.351
160.843	630.091
165.011	797.785
169.175	973.326
173.338	1211.08
177.499	1618.44
181.657	2110.2
185.813	2885.2
189.967	4133.67
194.119	6141.67
198.268	8379.17
202.415	10185.6
206.561	10345.1
210.703	9137.16
214.844	7098.42
218.983	4836.66
223.119	3477.83
227.253	2715.86
231.385	2069.81
235.515	1539.28
239.643	1244.62
243.768	1078.42
247.891	872.446
252.012	738.704
256.131	643.226
260.248	558.412
264.363	480.832
268.475	303.299
272.585	220.497
276.693	166.752
280.799	98.987
284.903	49.189
289.005	48.351
293.104	48.472
297.201	10.448
301.296	30.428
305.389	8.517
309.48	14.701
313.569	15.966
317.655	19.294
321.74	3.681
325.822	9.118
329.902	20.395
333.98	44.866
338.056	62.29
342.129	144.59
346.201	291.787
350.27	1235.93
354.337	3373.01
358.402	1046.07
362.465	149.132
366.526	26.182
370.585	17.787
374.642	18.503
378.696	25.954
382.748	111.631
386.799	283.222
390.847	1346.74
394.893	1924.2
398.936	411.623
402.978	193.02
407.018	135.4
411.055	118.78
415.091	149.187
419.124	213.69
423.155	237.26
427.184	310.846
431.211	407.432
435.236	583.018
439.259	845.596
443.28	1295.16
447.298	2281.49
451.315	4003.63
455.329	8338.44
459.341	22361
463.352	46034.6
467.36	34029.5
471.366	14694.1
475.37	7243.38
479.372	4445.73
483.371	3111.84
487.369	2400.06
491.365	1794.54
495.358	1439.92
499.35	1238.97
503.339	1179.48
507.326	936.878
511.311	758.591
515.295	683.394
519.276	607.683
523.255	569.14
527.232	469.327
531.207	399.354
535.179	407.744
539.15	345.42
543.119	318.787
547.086	305.187
551.05	241.589
555.013	195.937
558.973	157.402
562.932	102.822
566.888	134.24
570.842	115.661
574.795	83.478
578.745	102.06
582.693	84.748
586.639	64.25
590.583	80.839
594.525	102.612
598.465	98.061
602.403	66.074
606.339	47.085
610.273	40.183
614.205	49.266
618.135	71.19
622.063	4.677
625.989	28.244
629.912	31.819
633.834	35.422
637.754	24.048
641.671	17.696
645.587	6.369
649.501	3.055
653.412	7.738
657.322	6.607
661.23	31.998
665.135	3.472
669.039	18.964
672.94	19.519
676.84	1.968
680.738	53.42
684.633	64.867
688.527	251.328
692.418	455.846
696.308	589.399
700.195	258.947
704.081	103.49
707.964	84.036
711.846	29.579
715.726	13.135
719.603	21.683
723.479	40.223
727.352	24.765
731.224	9.699
735.094	0.208
738.961	6.262
742.827	2.721
746.691	3.149
750.552	25.53
754.412	6.888
758.27	9.228
762.125	9.51
765.979	26.744
769.831	46.95
773.681	34.469
777.529	9.598
781.375	61.727
785.219	53.808
789.06	102.926
792.901	142.03
796.739	122.119
800.575	96.172
804.409	72.185
808.241	137.333
812.071	92.119
815.899	53.448
819.726	48.236
823.55	70.23
827.372	31.973
831.193	68.453
835.011	79.264
838.828	71.428
842.642	50.387
846.455	81.352
850.266	89.292
854.075	90.2
857.881	92.887
861.686	37.328
865.489	49.594
869.29	79.437
873.089	66.272
876.886	24.092
880.682	61.13
884.475	120.836
888.266	103.016
892.056	85.708
895.843	103.321
899.629	134.907
903.413	100.391
907.194	58.042
910.974	99.17
914.752	97.281
918.528	94.333
922.302	123.363
926.074	108.556
929.844	48.178
933.613	31.838
937.379	83.502
941.144	39.16
944.906	66.812
948.667	47.458
952.426	67.098
956.183	47.734
959.938	60.376
963.691	36.03
967.442	24.911
971.191	19.594
974.939	9.245
978.684	8.876
982.428	6.5
986.169	5.095
989.909	33.685
993.647	14.271
997.383	28.855
1001.12	31.443
1004.85	1.945
1008.58	2.658
1012.31	4.754
1016.03	57.815
1019.76	24.36
1023.48	65.903
1027.2	19.557
1030.92	1.05
1034.64	29.46
1038.36	14.99
1042.07	46.545
1045.78	38.56
1049.49	49.692
1053.2	45.292
1056.9	67.892
1060.61	120.498
1064.31	207.158
1068.01	153.847
1071.71	92.543
1075.41	112.245
1079.1	232.945
1082.79	219.642
1086.48	103.344
1090.17	57.047
1093.86	70.747
1097.55	65.443
1101.23	52.135
1104.91	21.882
1108.59	21.567
1112.27	18.792
1115.95	15.903
1119.62	105.534
1123.3	32.963
1126.97	77.649
1130.63	39.904
1134.3	74.493
1137.97	110.174
1141.63	126.912
1145.29	193.761
1148.95	374.093
1152.61	685.87
1156.27	1380.96
1159.92	1628.6
1163.57	759.263
1167.22	375.025
1170.87	185.599
1174.52	139.886
1178.16	117.778
1181.81	64.428
1185.45	74.799
1189.09	46.396
1192.73	61.508
1196.36	43.09
1200	32.772
1203.63	95.297
1207.26	41.909
1210.89	71.833
1214.52	78.478
1218.14	37.828
1221.77	77.245
1225.39	52.624
1229.01	85.148
1232.62	107.261
1236.24	76.703
1239.86	86.004
1243.47	86.341
1247.08	12.625
1250.69	36.929
1254.3	42.21
1257.9	61.196
1261.5	58.366
1265.11	31.503
1268.71	37.649
1272.3	79.825
1275.9	35.917
1279.49	21.113
1283.09	6.195
1286.68	1.28
1290.27	7.791
1293.86	55.092
1297.44	4.859
1301.03	0.596
1304.61	0.305
1308.19	6.969
1311.77	19.603
1315.34	44.201
1318.92	2.233
1322.49	22.303
1326.06	4.198
1329.63	5.755
1333.2	21.985
1336.77	18.324
1340.33	9.622
1343.89	19.882
1347.46	5.109
1351.02	42.696
1354.57	15.478
1358.13	50.602
1361.68	8.641
1365.23	22.699
1368.79	10.726
1372.33	9.19
1375.88	7.881
1379.43	19.833
1382.97	18.668
1386.51	49.412
1390.05	11.199
1393.59	53.972
1397.13	30.63
1400.66	71.275
1404.19	37.537
1407.72	50.522
1411.25	50.034
1414.78	57.154
1418.31	5.452
1421.83	19.104
1425.36	11.358
1428.88	49.652
1432.39	36.13
1435.91	31.681
1439.43	83
1442.94	63.394
1446.45	58.776
1449.96	69.676
1453.47	74.629
1456.98	88.03
1460.48	33.726
1463.99	22.432
1467.49	24.79
1470.99	7.226
1474.49	67.989
1477.99	15.604
1481.48	20.465
1484.97	48.409
1488.46	43.402
1491.95	25.47
1495.44	22.527
1498.93	50.629
1502.41	28.917
1505.9	14.761
1509.38	22.786
1512.86	27.67
1516.34	0.163
