Measurement: Raman, 514 nm, ccw, Raman Data Processed
Mineral: Quartz
Rruff sample: R050125
Ideal chemistry: SiO_2_
Locality: Linopolis, Minas Gerais, Brazil
Source: Carlos and Paulo Vasconcelos
Description: Pale pink group of single crystals, variety rose quartz
Measured chemistry: Si_1.00_O_2_
Pin_id: L00315
Orientation: Laser parallel to a* (1 0 0). Fiducial mark perpendicular to laser is parallel to c [0 0 1]
Raman shift (cm-1)	intensity
47.49	0
51.717	25.517
55.942	190.452
60.165	364.258
64.386	519.759
68.604	415.723
72.82	530.837
77.034	411.906
81.246	210.656
85.455	79.296
89.663	0.231
93.868	41.179
98.07	12.351
102.271	50.193
106.469	266.145
110.665	598.134
114.859	792.876
119.05	1769.49
123.24	6202
127.427	11081.2
131.612	4592.05
135.794	1800.16
139.975	1279.49
144.153	1125.84
148.329	979.009
152.503	887.915
156.674	715.122
160.843	734.892
165.011	913.577
169.175	1074.21
173.338	1360.72
177.499	1812.1
181.657	2455.27
185.813	3419.65
189.967	4917.62
194.119	7001.61
198.268	9857.15
202.415	11735.1
206.561	12173.1
210.703	10961.1
214.844	8482.34
218.983	5912.34
223.119	4231.98
227.253	3285.46
231.385	2474.93
235.515	1901.48
239.643	1570.39
243.768	1422.59
247.891	1229.78
252.012	1155.94
256.131	1426.41
260.248	2643.01
264.363	3586.52
268.475	1567.32
272.585	627.762
276.693	334.971
280.799	208.163
284.903	136.325
289.005	110.443
293.104	35.513
297.201	35.533
301.296	24.497
305.389	2.38
309.48	2.163
313.569	1.874
317.655	12.53
321.74	15.88
325.822	25.39
329.902	22.014
333.98	7.731
338.056	22.477
342.129	84.645
346.201	235.741
350.27	1236.82
354.337	3624.78
358.402	1621.64
362.465	464.452
366.526	147.263
370.585	66.067
374.642	33.864
378.696	2.631
382.748	31.286
386.799	156.839
390.847	651.31
394.893	923.713
398.936	731.059
402.978	1072.38
407.018	369.679
411.055	182.958
415.091	208.225
419.124	235.51
423.155	302.875
427.184	354.33
431.211	469.81
435.236	715.286
439.259	1047.74
443.28	1661.17
447.298	3155.14
451.315	5304.96
455.329	10207.6
459.341	26154.2
463.352	51139.6
467.36	38633.5
471.366	17497.3
475.37	8713.95
479.372	5380.93
483.371	3725.21
487.369	2854.18
491.365	2261.61
495.358	1814.37
499.35	1697.36
503.339	1749.64
507.326	1795.94
511.311	1485.41
515.295	1072.83
519.276	935.715
523.255	786.975
527.232	667.07
531.207	560.042
535.179	519.683
539.15	451.89
543.119	412.172
547.086	335.088
551.05	304.03
555.013	301.959
558.973	221.932
562.932	199.065
566.888	147.018
570.842	178.34
574.795	169.208
578.745	160.153
582.693	158.994
586.639	164.367
590.583	157.788
594.525	133.801
598.465	148.621
602.403	82.48
606.339	60.248
610.273	65.975
614.205	37.51
618.135	64.384
622.063	19.088
625.989	42.814
629.912	29.577
633.834	76.323
637.754	45.057
641.671	33.815
645.587	28.638
649.501	8.521
653.412	14.569
657.322	23.715
661.23	12.025
665.135	28.465
669.039	11.903
672.94	2.879
676.84	21.121
680.738	34.373
684.633	82.507
688.527	171.633
692.418	397.752
696.308	569.886
700.195	335.028
704.081	130.186
707.964	84.334
711.846	66.464
715.726	14.42
719.603	31.643
723.479	8.686
727.352	32.704
731.224	8.695
735.094	36.666
738.961	27.617
742.827	61.55
746.691	38.463
750.552	37.351
754.412	67.216
758.27	63.061
762.125	26.886
765.979	67.693
769.831	65.479
773.681	97.211
777.529	140.903
781.375	172.639
785.219	238.339
789.06	439.478
792.901	775.052
796.739	838.648
800.575	863.028
804.409	1463.45
808.241	1821.92
812.071	1040.49
815.899	511.143
819.726	298.945
823.55	235.552
827.372	189.747
831.193	183.426
835.011	197.407
838.828	186.296
842.642	158.789
846.455	132.958
850.266	187.096
854.075	167.65
857.881	168.817
861.686	132.305
865.489	101.155
869.29	103.319
873.089	108.758
876.886	97.038
880.682	109.114
884.475	139.444
888.266	131.858
892.056	107.258
895.843	132.657
899.629	173.929
903.413	126.131
907.194	85.506
910.974	112.823
914.752	143.204
918.528	121.619
922.302	123.031
926.074	107.441
929.844	103.36
933.613	54.258
937.379	59.665
941.144	12.092
944.906	114.52
948.667	39.948
952.426	52.38
956.183	37.814
959.938	47.269
963.691	13.789
967.442	3.381
971.191	11.019
974.939	3.726
978.684	0.484
982.428	29.748
986.169	24.045
989.909	41.612
993.647	7.255
997.383	6.124
1001.12	41.465
1004.85	27.982
1008.58	0.516
1012.31	22.044
1016.03	53.608
1019.76	44.191
1023.48	92.803
1027.2	38.429
1030.92	58.085
1034.64	82.757
1038.36	76.442
1042.07	111.144
1045.78	126.883
1049.49	105.669
1053.2	106.443
1056.9	218.234
1060.61	396.983
1064.31	575.739
1068.01	465.491
1071.71	457.21
1075.41	663.929
1079.1	1323.65
1082.79	947.372
1086.48	376.096
1090.17	315.819
1093.86	211.544
1097.55	185.269
1101.23	176.992
1104.91	99.714
1108.59	108.516
1112.27	57.001
1115.95	98.814
1119.62	96.339
1123.3	97.34
1126.97	86.651
1130.63	79.017
1134.3	103.541
1137.97	94.369
1141.63	117.155
1145.29	206.866
1148.95	340.13
1152.61	713.37
1156.27	1199.71
1159.92	1089.62
1163.57	518.128
1167.22	257.231
1170.87	142.992
1174.52	90.776
1178.16	72.99
1181.81	96.714
1185.45	51.348
1189.09	41.949
1192.73	31.532
1196.36	55.94
1200	21.472
1203.63	89.202
1207.26	99.443
1210.89	92.932
1214.52	70.313
1218.14	105.825
1221.77	115.171
1225.39	231.123
1229.01	236.481
1232.62	231.796
1236.24	141.069
1239.86	108.789
1243.47	74.044
1247.08	62.364
1250.69	9.632
1254.3	33.858
1257.9	7.077
1261.5	79.283
1265.11	92.497
1268.71	52.677
1272.3	87.768
1275.9	64.805
1279.49	39.819
1283.09	38.319
1286.68	16.358
1290.27	7.685
1293.86	81.236
1297.44	9.161
1301.03	21.067
1304.61	26.097
1308.19	71.678
1311.77	22.407
1315.34	14.092
1318.92	35.259
1322.49	16.416
1326.06	11.05
1329.63	33.458
1333.2	45.981
1336.77	91.293
1340.33	47.169
1343.89	16.504
1347.46	7.167
1351.02	15.169
1354.57	48.488
1358.13	15.844
1361.68	52.049
1365.23	79.226
1368.79	45.373
1372.33	92.479
1375.88	114.856
1379.43	0.622
1382.97	45.427
1386.51	21.371
1390.05	32.257
1393.59	94.165
1397.13	56.145
1400.66	77.79
1404.19	68.506
1407.72	45.094
1411.25	66.375
1414.78	94.896
1418.31	70.461
1421.83	5.249
1425.36	10.216
1428.88	42.346
1432.39	53.845
1435.91	56.34
1439.43	112.037
1442.94	130.777
1446.45	99.449
1449.96	116.237
1453.47	89.611
1456.98	87.89
1460.48	54.039
1463.99	8.026
1467.49	55.475
1470.99	8.695
1474.49	70.198
1477.99	69.025
1481.48	62.916
1484.97	101.961
1488.46	89.179
1491.95	88.272
1495.44	68.74
1498.93	52.88
1502.41	66.837
1505.9	17.085
1509.38	61.761
1512.86	0.918
1516.34	0
