Measurement: Raman, 514 nm, ccw, Raman Data Processed
Mineral: Quartz
Rruff sample: R050125
Ideal chemistry: SiO_2_
Locality: Linopolis, Minas Gerais, Brazil
Source: Carlos and Paulo Vasconcelos
Description: Pale pink group of single crystals, variety rose quartz
Measured chemistry: Si_1.00_O_2_
Pin_id: L00315
Orientation: Laser parallel to a* (1 0 0). Fiducial mark perpendicular to laser is parallel to c [0 0 1]
Raman shift (cm-1)	intensity
47.49	0
51.717	50.645
55.942	184.671
60.165	244.628
64.386	231.014
68.604	250.16
72.82	206.309
77.034	135.458
81.246	34.119
85.455	1.298
89.663	20.733
93.868	20.585
98.07	56.529
102.271	61.89
106.469	153.479
110.665	372.248
114.859	219.241
119.05	230.795
123.24	477.972
127.427	707.149
131.612	588.159
135.794	739.474
139.975	1057.08
144.153	1170.72
148.329	1164.2
152.503	1042.23
156.674	889.708
160.843	1017.07
165.011	1162.44
169.175	1458.84
173.338	1821.27
177.499	2388.21
181.657	3250.22
185.813	4425.26
189.967	6308.27
194.119	9239.34
198.268	12896.8
202.415	15522.4
206.561	15998.1
210.703	14333.8
214.844	11082
218.983	7808.71
223.119	5730.43
227.253	4392.96
231.385	3304.34
235.515	2566.19
239.643	2097.75
243.768	1830.91
247.891	1538.2
252.012	1330.4
256.131	1147.49
260.248	1034.65
264.363	849.25
268.475	583.887
272.585	458.278
276.693	299.256
280.799	237.279
284.903	156.342
289.005	164.424
293.104	120.52
297.201	86.632
301.296	13.757
305.389	33.891
309.48	16.029
313.569	25.168
317.655	8.685
321.74	16.528
325.822	30.362
329.902	63.235
333.98	34.209
338.056	31.26
342.129	20.678
346.201	160.651
350.27	1437.7
354.337	4736.73
358.402	2458.56
362.465	835.371
366.526	381.226
370.585	233.121
374.642	138.057
378.696	112.022
382.748	83.549
386.799	90.839
390.847	110.703
394.893	138.559
398.936	152.423
402.978	170.34
407.018	161.302
411.055	207.333
415.091	264.959
419.124	319.737
423.155	392.138
427.184	495.615
431.211	606.151
435.236	872.735
439.259	1224.36
443.28	1833.02
447.298	3123.72
451.315	5629.44
455.329	12309.2
459.341	32387
463.352	62624.6
467.36	46702.2
471.366	20689.5
475.37	10076.7
479.372	6139.83
483.371	4232.65
487.369	3295.09
491.365	2591.89
495.358	2066.06
499.35	1917.73
503.339	1760.76
507.326	1410.89
511.311	1053.92
515.295	905.361
519.276	843.731
523.255	689.161
527.232	635.383
531.207	524.63
535.179	490.914
539.15	482.208
543.119	435.525
547.086	404.867
551.05	337.232
555.013	280.639
558.973	217.229
562.932	199.949
566.888	178.175
570.842	173.77
574.795	207.284
578.745	178.791
582.693	189.303
586.639	132.978
590.583	187.966
594.525	170.284
598.465	147.102
602.403	135.779
606.339	91.345
610.273	73.915
614.205	118.488
618.135	104.063
622.063	61.642
625.989	85.225
629.912	44.815
633.834	32.417
637.754	21.024
641.671	44.645
645.587	48.284
649.501	14.015
653.412	25.87
657.322	43.194
661.23	11.676
665.135	52.533
669.039	16.913
672.94	15.601
676.84	16.951
680.738	20.437
684.633	11.817
688.527	8.19
692.418	51.556
696.308	62.924
700.195	35.283
704.081	32.974
707.964	23.629
711.846	11.299
715.726	3.379
719.603	12.88
723.479	3.108
727.352	19.273
731.224	34.395
735.094	29.5
738.961	5.57
742.827	14.39
746.691	15.594
750.552	10.551
754.412	7.463
758.27	23.332
762.125	21.183
765.979	42.566
769.831	50.83
773.681	25.626
777.529	73.404
781.375	68.163
785.219	93.904
789.06	131.626
792.901	192.328
796.739	228.71
800.575	239.374
804.409	332.018
808.241	388.25
812.071	280.797
815.899	192.332
819.726	164.591
823.55	108.65
827.372	103.973
831.193	142.07
835.011	122.822
838.828	165.356
842.642	114.297
846.455	135.42
850.266	162.283
854.075	152.034
857.881	152.455
861.686	123.341
865.489	112.992
869.29	99.011
873.089	75.639
876.886	115.062
880.682	139.505
884.475	97.86
888.266	158.23
892.056	149.457
895.843	127.471
899.629	147.726
903.413	93.293
907.194	129.322
910.974	125.687
914.752	129.051
918.528	157.413
922.302	121.774
926.074	143.135
929.844	79.497
933.613	79.858
937.379	47.221
941.144	24.584
944.906	52.95
948.667	53.32
952.426	25.694
956.183	42.071
959.938	36.45
963.691	34.856
967.442	3.314
971.191	20.839
974.939	12.481
978.684	16.104
982.428	21.749
986.169	16.433
989.909	0.105
993.647	2.774
997.383	10.559
1001.12	9.09
1004.85	2.742
1008.58	1.398
1012.31	18.052
1016.03	9.299
1019.76	23.181
1023.48	32.229
1027.2	20.92
1030.92	36.949
1034.64	7.705
1038.36	63.491
1042.07	45.306
1045.78	76.143
1049.49	93.739
1053.2	121.64
1056.9	94.578
1060.61	179.527
1064.31	268.487
1068.01	360.462
1071.71	479.443
1075.41	1151.43
1079.1	2478.43
1082.79	1650.42
1086.48	693.44
1090.17	362.461
1093.86	232.486
1097.55	157.51
1101.23	125.542
1104.91	83.577
1108.59	95.615
1112.27	73.655
1115.95	54.698
1119.62	94.753
1123.3	58.602
1126.97	51.738
1130.63	50.815
1134.3	15.624
1137.97	12.654
1141.63	23.366
1145.29	21.422
1148.95	47.645
1152.61	115.405
1156.27	129.469
1159.92	105.188
1163.57	36.198
1167.22	39.395
1170.87	39.493
1174.52	19.754
1178.16	47.036
1181.81	7.488
1185.45	30.372
1189.09	12.726
1192.73	24.59
1196.36	26.131
1200	49.007
1203.63	13.874
1207.26	59.79
1210.89	42.919
1214.52	44.698
1218.14	22.877
1221.77	46.676
1225.39	40.445
1229.01	116.962
1232.62	62.933
1236.24	82.711
1239.86	95.371
1243.47	48.023
1247.08	89.666
1250.69	27.3
1254.3	72.934
1257.9	62.556
1261.5	84.579
1265.11	61.917
1268.71	99.441
1272.3	42.374
1275.9	48.182
1279.49	54.695
1283.09	17.164
1286.68	18.585
1290.27	31.949
1293.86	29.283
1297.44	46.565
1301.03	51.818
1304.61	39.05
1308.19	33.243
1311.77	59.418
1315.34	27.358
1318.92	11.521
1322.49	21.233
1326.06	15.182
1329.63	40.041
1333.2	53.844
1336.77	53.875
1340.33	49.59
1343.89	34.504
1347.46	19.198
1351.02	28.208
1354.57	49.329
1358.13	7.85
1361.68	54.347
1365.23	17.805
1368.79	54.267
1372.33	49.757
1375.88	22.342
1379.43	66.492
1382.97	29.816
1386.51	26.121
1390.05	35.405
1393.59	20.626
1397.13	43.792
1400.66	70.898
1404.19	77.767
1407.72	67.621
1411.25	84.471
1414.78	78.467
1418.31	35.998
1421.83	21.373
1425.36	43.701
1428.88	32.367
1432.39	86.95
1435.91	65.452
1439.43	73.207
1442.94	106.483
1446.45	105.766
1449.96	81.835
1453.47	84
1456.98	81.006
1460.48	55.825
1463.99	32.895
1467.49	38.529
1470.99	48.374
1474.49	32.39
1477.99	27.53
1481.48	46.64
1484.97	59.707
1488.46	44.51
1491.95	87.664
1495.44	62.772
1498.93	49.264
1502.41	41.117
1505.9	23.414
1509.38	0.315
1512.86	49.827
1516.34	0
