Measurement: Raman, 514 nm, ccw, Raman Data Processed
Mineral: Rhodonite
Rruff sample: R040041
Ideal chemistry: Mn^2+^SiO_3_
Locality: Franklin, Sussex County, New Jersey, USA
Source: University of Arizona Mineral Museum
Description: Pink prismatic crystals
Measured chemistry: (Mn_0.63_Ca_0.21_Zn_0.12_Mg_0.02_Fe_0.02_)_Î£=1_Si_1.00_O_3_
Pin_id: L00464
Orientation: Laser parallel to (1 0 1). Fiducial mark perpendicular to laser is parallel to b [0 1 0]
Raman shift (cm-1)	intensity
103.943	0
108.121	1225.36
112.297	3900.12
116.47	1700.69
120.642	2015.16
124.811	3762.22
128.979	2376.98
133.144	1361.56
137.307	1821.01
141.469	2459.52
145.628	1186.67
149.786	823.134
153.941	1402.72
158.094	1384.54
162.245	1092.68
166.395	1050.54
170.542	1430.58
174.687	951.152
178.83	432.05
182.972	60.606
187.111	170.292
191.248	169.357
195.383	13.627
199.516	278.758
203.647	370.349
207.777	127.7
211.904	588.896
216.029	848.945
220.152	395.312
224.273	241.015
228.392	97.86
232.509	210.801
236.625	651.031
240.738	1353.95
244.849	1777.98
248.958	1732.81
253.065	1628.13
257.171	1990.66
261.274	2996.7
265.375	2613.28
269.475	1691.89
273.572	1434.98
277.667	1253.36
281.76	913.711
285.852	634.563
289.941	645.188
294.029	935.426
298.114	1764.65
302.198	2502.98
306.279	2751.06
310.359	2477.95
314.436	1764.2
318.512	1787.05
322.586	2017.64
326.657	1986.11
330.727	1941.73
334.795	2096.34
338.861	2366.89
342.924	2507.7
346.986	2787.55
351.046	2409.47
355.104	2420.66
359.16	2718.37
363.214	3265.71
367.267	3303.05
371.317	3060.44
375.365	1935.27
379.411	1175.65
383.456	866.31
387.498	909.392
391.539	751.963
395.577	214.618
399.614	57.359
403.649	70.188
407.681	233.069
411.712	246.04
415.741	809.578
419.768	1355.46
423.793	1065.06
427.816	350.818
431.837	5.565
435.857	180.769
439.874	190.367
443.889	62.428
447.903	87.514
451.914	466.066
455.924	684.846
459.932	638.038
463.938	120.93
467.941	263.029
471.943	235.084
475.944	367.054
479.942	238.92
483.938	270.784
487.932	542.663
491.925	844.515
495.915	1226.34
499.904	828.168
503.891	500.032
507.876	359.423
511.859	383.806
515.84	555.617
519.819	497.335
523.796	219.431
527.771	42.322
531.745	75.758
535.716	160.922
539.686	111.889
543.654	74.367
547.62	277.331
551.584	328.728
555.546	640.667
559.506	952.421
563.465	518.238
567.421	349.057
571.376	160.227
575.329	281.186
579.279	341.905
583.228	42.246
587.175	22.261
591.121	118.397
595.064	70.202
599.006	78.156
602.945	46.52
606.883	35.778
610.819	102.069
614.753	250.764
618.685	118.004
622.615	349.304
626.544	316.721
630.471	594.047
634.395	680.452
638.318	900.301
642.239	1019.85
646.158	1448.53
650.076	2412.77
653.991	3897.17
657.905	7051.21
661.817	13652.4
665.726	25605.6
669.635	30009
673.541	19932.2
677.445	12343.8
681.348	8107.17
685.248	4936.64
689.147	3090.94
693.044	1909.25
696.94	1295.38
700.833	1163.47
704.724	1288.14
708.614	1767.8
712.502	3136.96
716.388	3495.82
720.272	1924.43
724.155	1152.77
728.035	900.623
731.914	868.087
735.791	772.693
739.666	872.515
743.539	746.215
747.41	482.562
751.28	406.347
755.148	235.988
759.014	252.385
762.878	61.44
766.74	155.542
770.601	324.911
774.46	298.346
778.316	2.71
782.172	163.071
786.025	20.639
789.876	24.127
793.726	217.353
797.574	270.255
801.42	192.823
805.264	74.843
809.107	37.119
812.947	148.73
816.786	189.937
820.623	20.84
824.459	21.57
828.292	32.143
832.124	122.497
835.954	162.548
839.782	12.312
843.608	21.967
847.433	38.433
851.255	108.851
855.076	210.594
858.895	259.868
862.713	109.045
866.528	88.219
870.342	607.313
874.154	996.373
877.965	805.509
881.773	654.608
885.58	763.667
889.385	552.711
893.188	521.825
896.989	510.935
900.789	930.332
904.587	1199.97
908.383	1349.93
912.177	2278.97
915.97	2177.97
919.76	1917.66
923.55	1276.05
927.337	1135.38
931.122	1158.57
934.906	1996.53
938.688	1996.45
942.468	1435.81
946.247	1142.06
950.023	1337.73
953.798	1034.16
957.572	1328.77
961.343	1824.43
965.113	3575.48
968.881	7538.52
972.647	10457.3
976.411	9779.2
980.174	7471.41
983.935	7593.6
987.694	11034.3
991.452	15558.4
995.207	14579.6
998.961	16228.6
1002.71	19435.2
1006.46	14087.1
1010.21	8094.21
1013.96	5716.47
1017.71	4518.82
1021.45	3761.46
1025.19	3358.2
1028.93	2952.91
1032.67	2526.55
1036.41	2249.8
1040.14	2104.27
1043.87	2887.69
1047.61	3490.72
1051.34	4119.34
1055.06	2862.43
1058.79	1334.56
1062.52	1170.84
1066.24	1131.67
1069.96	1086.13
1073.68	960.156
1077.4	744.303
1081.11	518.66
1084.83	423.668
1088.54	709.154
1092.25	534.057
1095.96	549.123
1099.67	444.59
1103.37	159.967
1107.08	306.467
1110.78	1.842
1114.48	57.303
1118.18	303.494
1121.88	439.656
1125.57	575.242
1129.27	170.17
1132.96	24.959
1136.65	49.986
1140.34	195.061
1144.02	400.09
1147.71	335.916
1151.39	382.303
1155.07	132.822
1158.76	107.791
1162.43	173.373
1166.11	119.773
1169.79	65.254
1173.46	369.459
1177.13	333.787
1180.8	226.451
1184.47	278.004
1188.14	288.574
1191.8	176.92
1195.46	64.41
1199.13	24.186
1202.79	302.398
1206.45	610.65
1210.1	719.111
1213.76	637.762
1217.41	396.584
1221.06	355.383
1224.71	294.281
1228.36	263.611
1232.01	633.115
1235.65	689.078
1239.3	666.102
1242.94	545.494
1246.58	413.043
1250.22	496.141
1253.85	357.689
1257.49	355.926
1261.12	552.488
1264.75	917.904
1268.38	714.125
1272.01	901.217
1275.64	412.979
1279.27	254.264
1282.89	316.096
1286.51	333.467
1290.13	122.596
1293.75	429.707
1297.37	563.465
1300.98	548.059
1304.6	573.055
1308.21	685.766
1311.82	549.064
1315.43	448.076
1319.03	207.562
1322.64	436.18
1326.24	260.141
1329.85	376.412
1333.44	453.17
