Measurement: Raman, 514 nm, ccw, Raman Data Processed
Mineral: Rhodochrosite
Rruff sample: R050116
Ideal chemistry: MnCO_3_
Locality: Wudong mine, Liubao, Guangxi Autonomous Region, China
Source: He Xin Jian
Description: Pink crystal associated with colorless quartz
Measured chemistry: (Mn_0.81_Fe_0.17_Mg_0.01_Ca_0.01_)CO_3_
Pin_id: L00524
Orientation: Laser parallel to a* (1 0 0). Fiducial mark perpendicular to laser is parallel to c [0 0 1]
Raman shift (cm-1)	intensity
47.49	0
51.717	111.138
55.942	233.883
60.165	291.33
64.386	224.913
68.604	161.77
72.82	92.592
77.034	59.574
81.246	19.202
85.455	8.09
89.663	21.022
93.868	6.637
98.07	53.988
102.271	45.255
106.469	78.646
110.665	144.035
114.859	136.968
119.05	103.945
123.24	120.292
127.427	126.26
131.612	88.086
135.794	92.586
139.975	71.578
144.153	74.933
148.329	79.043
152.503	84.815
156.674	73.265
160.843	62.697
165.011	72.17
169.175	63.706
173.338	65.307
177.499	76.969
181.657	125.682
185.813	138.444
189.967	92.249
194.119	58.448
198.268	53.994
202.415	47.936
206.561	22.925
210.703	19.988
214.844	10.932
218.983	36.344
223.119	50.875
227.253	55.707
231.385	69.192
235.515	58.036
239.643	63.895
243.768	75.72
247.891	63.018
252.012	104.179
256.131	87.164
260.248	120.247
264.363	174.405
268.475	266.804
272.585	441.458
276.693	717.719
280.799	1292.08
284.903	2318.48
289.005	2819.95
293.104	1914.42
297.201	997.859
301.296	553.524
305.389	338.943
309.48	228.329
313.569	139.752
317.655	118.295
321.74	110.732
325.822	73.145
329.902	83.644
333.98	67.163
338.056	41.774
342.129	48.414
346.201	41.114
350.27	29.808
354.337	32.558
358.402	31.324
362.465	14.956
366.526	12.999
370.585	4.555
374.642	13.994
378.696	5.516
382.748	0.123
386.799	4.745
390.847	8.588
394.893	14.787
398.936	34.816
402.978	20.184
407.018	20.857
411.055	36.891
415.091	10.714
419.124	0.457
423.155	0.832
427.184	0.563
431.211	14.389
435.236	21.996
439.259	43.841
443.28	22.931
447.298	38.257
451.315	6.204
455.329	23.675
459.341	21.78
463.352	42.779
467.36	42.759
471.366	18.7
475.37	10.615
479.372	11.574
483.371	22.454
487.369	16.379
491.365	8.304
495.358	32.225
499.35	28.171
503.339	20.115
507.326	35.022
511.311	37.929
515.295	13.009
519.276	29.923
523.255	5.154
527.232	22.788
531.207	17.647
535.179	13.554
539.15	24.381
543.119	11.222
547.086	16.041
551.05	0.793
555.013	19.572
558.973	7.928
562.932	13.313
566.888	1.583
570.842	22.931
574.795	38.65
578.745	11.679
582.693	21.917
586.639	26.274
590.583	6.892
594.525	14.505
598.465	30.096
602.403	0.322
606.339	5.248
610.273	9.203
614.205	0.147
618.135	8.341
622.063	7.048
625.989	31.49
629.912	25.877
633.834	29.272
637.754	37.357
641.671	41.062
645.587	38.525
649.501	56.777
653.412	24.168
657.322	30.43
661.23	28.634
665.135	50.156
669.039	41.677
672.94	18.803
676.84	75.348
680.738	38.092
684.633	41.174
688.527	60.191
692.418	39.643
696.308	20.998
700.195	23.026
704.081	37.816
707.964	52.48
711.846	77.647
715.726	266.825
719.603	606.457
723.479	370.836
727.352	233.45
731.224	127.997
735.094	78.866
738.961	54.473
742.827	46.168
746.691	45.508
750.552	51.692
754.412	36.804
758.27	32.331
762.125	48.647
765.979	28.122
769.831	44.767
773.681	0.27
777.529	52.582
781.375	26.955
785.219	38.286
789.06	37.62
792.901	18.971
796.739	9.29
800.575	31.521
804.409	20.729
808.241	10.914
812.071	26.047
815.899	25.487
819.726	3.044
823.55	9.125
827.372	29.987
831.193	8.02
835.011	4.999
838.828	6.925
842.642	7.883
846.455	5.208
850.266	28.698
854.075	18.581
857.881	31.452
861.686	1.698
865.489	36.134
869.29	26.958
873.089	18.783
876.886	6.61
880.682	13.566
884.475	16.227
888.266	16.017
892.056	11.786
895.843	6.48
899.629	1.768
903.413	27.945
907.194	1.353
910.974	33.319
914.752	34.973
918.528	19.117
922.302	5.649
926.074	25.848
929.844	59.538
933.613	24.198
937.379	15.894
941.144	3.554
944.906	19.468
948.667	17.737
952.426	36.343
956.183	10.066
959.938	4.632
963.691	11.644
967.442	36.097
971.191	26.263
974.939	13.841
978.684	29.594
982.428	25.855
986.169	55.554
989.909	59.321
993.647	51.13
997.383	89.542
1001.12	84.825
1004.85	42.635
1008.58	121.445
1012.31	130.123
1016.03	159.131
1019.76	207.539
1023.48	217.308
1027.2	247.452
1030.92	267.681
1034.64	286.87
1038.36	305.07
1042.07	357.738
1045.78	388.568
1049.49	463.623
1053.2	528.982
1056.9	677.826
1060.61	967.815
1064.31	1254.28
1068.01	1501.78
1071.71	2173.32
1075.41	4208.89
1079.1	13157.5
1082.79	42354.1
1086.48	32710.8
1090.17	9377.42
1093.86	3079.06
1097.55	1390.74
1101.23	781.497
1104.91	467.282
1108.59	409.092
1112.27	297.618
1115.95	276.478
1119.62	249.944
1123.3	164.9
1126.97	165.841
1130.63	99.811
1134.3	124.803
1137.97	110.816
1141.63	111.23
1145.29	90.346
1148.95	68.62
1152.61	85.363
1156.27	72.604
1159.92	70.649
1163.57	60.562
1167.22	45.429
1170.87	44.536
1174.52	72.758
1178.16	65.974
1181.81	23.236
1185.45	57.703
1189.09	51.117
1192.73	40.556
1196.36	68.011
1200	87.441
1203.63	64.563
1207.26	42.53
1210.89	28.049
1214.52	1.978
1218.14	23.421
1221.77	21.781
1225.39	60.167
1229.01	37.546
1232.62	21.029
1236.24	25.334
1239.86	20.728
1243.47	35.133
1247.08	13.547
1250.69	49.968
1254.3	1.397
1257.9	69.835
1261.5	32.257
1265.11	15.635
1268.71	26.99
1272.3	16.231
1275.9	15.531
1279.49	40.767
1283.09	20.981
1286.68	5.128
1290.27	3.785
1293.86	8.059
1297.44	4.417
1301.03	0.141
1304.61	8.944
1308.19	18.061
1311.77	11.229
1315.34	32.537
1318.92	44.277
1322.49	61.992
1326.06	4.683
1329.63	24.35
1333.2	17.989
1336.77	51.609
1340.33	4.206
1343.89	7.235
1347.46	7.68
1351.02	17.876
1354.57	51.406
1358.13	45.948
1361.68	55.512
1365.23	25.958
1368.79	51.764
1372.33	23.043
1375.88	59.949
1379.43	76.095
1382.97	88.4
1386.51	90.67
1390.05	94.926
1393.59	135.146
1397.13	229.402
1400.66	340.945
1404.19	536.273
1407.72	922.073
1411.25	1421.87
1414.78	1346.9
1418.31	936.543
1421.83	635.815
1425.36	464.407
1428.88	368.566
1432.39	290.708
1435.91	218.454
1439.43	260.252
1442.94	215.05
1446.45	147.717
1449.96	122.257
1453.47	94.578
1456.98	99.643
1460.48	22.682
1463.99	36.882
1467.49	39.351
1470.99	24.917
1474.49	61.944
1477.99	100.236
1481.48	29.623
1484.97	71.212
1488.46	17.189
1491.95	62.668
1495.44	38.314
1498.93	37.413
1502.41	56.813
1505.9	40.103
1509.38	54.423
1512.86	0
