Measurement: Raman, 514 nm, ccw, Raman Data Processed
Mineral: Rhodonite
Rruff sample: R040041
Ideal chemistry: Mn^2+^SiO_3_
Locality: Franklin, Sussex County, New Jersey, USA
Source: University of Arizona Mineral Museum
Description: Pink prismatic crystals
Measured chemistry: (Mn_0.63_Ca_0.21_Zn_0.12_Mg_0.02_Fe_0.02_)_Î£=1_Si_1.00_O_3_
Pin_id: L00454
Orientation: Laser parallel to -b* (0 -1 0). Fiducial mark perpendicular to laser is parallel to c [0 0 1]
Raman shift (cm-1)	intensity
120.642	0
124.811	341.486
128.979	788.848
133.144	827.436
137.307	753.969
141.469	850.314
145.628	60.061
149.786	96.441
153.941	284.01
158.094	271.005
162.245	434.188
166.395	289.898
170.542	551.746
174.687	622.463
178.83	483.213
182.972	159.392
187.111	139.246
191.248	245.665
195.383	38.616
199.516	182.577
203.647	116.827
207.777	224.314
211.904	768.646
216.029	848.072
220.152	200.237
224.273	76.888
228.392	29.71
232.509	53.639
236.625	342.602
240.738	795.603
244.849	1318.24
248.958	1451.96
253.065	1169.08
257.171	1401.4
261.274	1739.9
265.375	1496.73
269.475	918.729
273.572	888.126
277.667	863.334
281.76	787.497
285.852	655.942
289.941	262.985
294.029	150.814
298.114	315.496
302.198	341.702
306.279	605.878
310.359	961.357
314.436	1270.03
318.512	2234.02
322.586	2877.52
326.657	2798.75
330.727	3317.81
334.795	4317.27
338.861	4146.76
342.924	3126.32
346.986	2535.19
351.046	1831.77
355.104	1341.75
359.16	1239.67
363.214	1083.09
367.267	916.978
371.317	592.883
375.365	289.727
379.411	283.081
383.456	292.215
387.498	404.763
391.539	362.316
395.577	128.905
399.614	135.732
403.649	235.593
407.681	557.595
411.712	1188.55
415.741	2301.03
419.768	3044.87
423.793	2285.31
427.816	1188.4
431.837	762.167
435.857	870.429
439.874	627.257
443.889	542.005
447.903	461.514
451.914	550.265
455.924	472.584
459.932	304.597
463.938	10.128
467.941	176.504
471.943	246.897
475.944	327.195
479.942	277.407
483.938	147.617
487.932	227.821
491.925	548.116
495.915	678.397
499.904	588.607
503.891	678.826
507.876	1029.07
511.859	1749.25
515.84	1579.34
519.819	799.334
523.796	339.561
527.771	170.281
531.745	111.077
535.716	8.289
539.686	142.15
543.654	152.426
547.62	202.566
551.584	452.587
555.546	872.468
559.506	862.193
563.465	451.69
567.421	281.078
571.376	70.292
575.329	139.3
579.279	98.083
583.228	83.524
587.175	45.649
591.121	58.278
595.064	61.005
599.006	4.425
602.945	32.225
606.883	28.45
610.819	126.486
614.753	125.762
618.685	166.525
622.615	333.667
626.544	357.103
630.471	484.742
634.395	610.837
638.318	944.999
642.239	1162.91
646.158	1570.03
650.076	2389.06
653.991	3913.2
657.905	7303.22
661.817	14274
665.726	24505.8
669.635	25007.1
673.541	15259.1
677.445	9270.57
681.348	5851.99
685.248	3322.52
689.147	2021.69
693.044	1379.24
696.94	897.822
700.833	696.519
704.724	735.384
708.614	673.979
712.502	1282.3
716.388	1190.36
720.272	648.146
724.155	465.567
728.035	392.292
731.914	458.103
735.791	441.883
739.666	502.642
743.539	299.226
747.41	201.769
751.28	230.228
755.148	153.631
759.014	136.655
762.878	110.492
766.74	190.979
770.601	124.139
774.46	77.36
778.316	61.027
782.172	35.293
786.025	11.796
789.876	8.53
793.726	24.41
797.574	1.127
801.42	19.122
805.264	9.166
809.107	62.303
812.947	43.553
816.786	124.453
820.623	215.127
824.459	15.658
828.292	26.057
832.124	63.676
835.954	96.312
839.782	76.084
843.608	205.775
847.433	135.394
851.255	136.693
855.076	234.416
858.895	203.811
862.713	343.133
866.528	732.402
870.342	1351.64
874.154	1830.89
877.965	1490.26
881.773	1229.61
885.58	1479.02
889.385	1308.44
893.188	958.074
896.989	587.863
900.789	552.288
904.587	485.779
908.383	827.333
912.177	1076.94
915.97	1136.85
919.76	974.793
923.55	760.838
927.337	865.21
931.122	1442.35
934.906	2167.87
938.688	2006.51
942.468	1155.26
946.247	986.55
950.023	1082.32
953.798	1209.09
957.572	1523.09
961.343	2173.52
965.113	4236.86
968.881	8542.84
972.647	11904.2
976.411	9515.36
980.174	7676.12
983.935	8353.8
987.694	13058.7
991.452	17132.2
995.207	14574.5
998.961	15076.5
1002.71	15738.6
1006.46	10280.7
1010.21	6083.11
1013.96	4705.66
1017.71	3960.06
1021.45	3587.51
1025.19	3905.99
1028.93	3889.64
1032.67	3780.05
1036.41	3744.05
1040.14	4224.25
1043.87	5607.33
1047.61	5956.18
1051.34	4051
1055.06	2321.17
1058.79	1376.73
1062.52	1036.74
1066.24	826.732
1069.96	790.279
1073.68	634.709
1077.4	432.15
1081.11	396.006
1084.83	420.033
1088.54	505.635
1092.25	349.648
1095.96	303.922
1099.67	188.242
1103.37	273.215
1107.08	397.977
1110.78	112.865
1114.48	47.348
1118.18	282.314
1121.88	146.863
1125.57	320.959
1129.27	144.734
1132.96	58.291
1136.65	38.012
1140.34	55.65
1144.02	149.299
1147.71	256.619
1151.39	109.633
1155.07	82.455
1158.76	155.111
1162.43	22.391
1166.11	41.797
1169.79	45.873
1173.46	185.752
1177.13	47.166
1180.8	78.645
1184.47	163.715
1188.14	184.768
1191.8	76.551
1195.46	9.941
1199.13	26.314
1202.79	222.398
1206.45	358.355
1210.1	174.324
1213.76	370.297
1217.41	386.311
1221.06	202.373
1224.71	288.475
1228.36	234.551
1232.01	316.385
1235.65	412.377
1239.3	345.547
1242.94	270.328
1246.58	256.447
1250.22	282.418
1253.85	214.414
1257.49	434.699
1261.12	493.062
1264.75	420.969
1268.38	328.508
1272.01	425.395
1275.64	245.787
1279.27	138.744
1282.89	144.266
1286.51	159.217
1290.13	31.162
1293.75	170.938
1297.37	319.133
1300.98	339.043
1304.6	306.227
1308.21	377.836
1311.82	289.953
1315.43	188.045
1319.03	146.379
1322.64	76.734
1326.24	32.459
1329.85	321.682
1333.44	350.67
1337.04	282.801
