Measurement: Raman, 514 nm, ccw, Raman Data Processed
Mineral: Rhodizite
Rruff sample: R050099
Ideal chemistry: KAl_4_Be_5_B_11_O_28_
Locality: Mont Ibity, Antsirabe, Madagascar
Source: Rock Currier
Description: Pale green single crystals
Measured chemistry: ([box]_0.49_K_0.32_Rb_0.17_Na_0.02_)(Al_3.96_Si_0.04_)_Σ=4_Be_4.00_(B_11.45_Be_0.55_)_Σ=12_O_28_
Pin_id: L00516
Orientation: Laser parallel to a* (1 0 0). Fiducial mark perpendicular to laser is parallel to b [0 1 0]
Raman shift (cm-1)	intensity
102.428	0
106.604	254.701
110.777	136.285
114.949	740.031
119.119	849.225
123.286	374.145
127.452	285.004
131.615	197.524
135.777	441.322
139.937	523.457
144.094	483.131
148.25	522.731
152.403	310.084
156.555	344.628
160.705	489.901
164.853	295.483
168.998	317.944
173.142	166.429
177.284	284.36
181.424	295.961
185.562	247.866
189.698	341.95
193.831	231.648
197.963	149.661
202.093	318.534
206.221	75.916
210.347	4.221
214.472	102.389
218.594	207.126
222.714	195.973
226.832	148.054
230.948	4.906
235.063	80.711
239.175	127.741
243.286	127.336
247.394	9.557
251.501	76.982
255.605	137.205
259.708	18.239
263.808	55.754
267.907	147.188
272.004	34.32
276.099	28.689
280.192	75.199
284.283	269.621
288.372	421.332
292.459	1013.4
296.544	1930.61
300.627	1308.89
304.709	530.178
308.788	395.428
312.865	322.52
316.941	217.451
321.015	64.865
325.086	46.648
329.156	153.033
333.224	117.26
337.29	8.295
341.354	34.908
345.416	374.939
349.476	294.385
353.534	364.428
357.591	338.168
361.645	330.482
365.698	282.77
369.748	246.311
373.797	110.902
377.844	329.578
381.889	438.203
385.932	560.803
389.973	375.986
394.012	568.877
398.049	812.498
402.084	1349.29
406.118	1239.35
410.15	1667.87
414.179	2293.85
418.207	3876.87
422.233	7018.59
426.257	14588.2
430.279	25677.4
434.299	21716.7
438.318	9662.55
442.334	4877.39
446.349	3175.82
450.361	3040.4
454.372	3715.05
458.381	5789.3
462.388	11036.9
466.394	23457.6
470.397	35135.2
474.398	27341.5
478.398	14606.4
482.396	8842.79
486.391	4269.53
490.385	2159.1
494.377	1117.56
498.368	733.779
502.356	752.227
506.342	684.438
510.327	419.496
514.31	400.023
518.291	710.068
522.27	669.207
526.247	256.281
530.222	403.281
534.196	539.691
538.167	934.633
542.137	1847.19
546.105	2443.36
550.071	1605.88
554.035	822.078
557.998	486.854
561.958	282.229
565.917	111.232
569.874	163.203
573.829	99.371
577.782	141.711
581.733	69.43
585.683	44.465
589.63	56.41
593.576	37.742
597.52	45.557
601.462	72.119
605.402	80.123
609.341	77.551
613.277	104.916
617.212	32.525
621.145	54.871
625.076	277.854
629.006	398.975
632.933	149.439
636.859	133.66
640.783	613.551
644.705	1318.24
648.625	2648.86
652.543	3218.54
656.46	2093.08
660.375	968.625
664.288	732.822
668.199	528.602
672.108	367.891
676.016	390.887
679.921	423.492
683.825	420.732
687.727	350.408
691.628	282.816
695.526	42.768
699.423	316.254
703.318	580.928
707.211	659.338
711.102	453.369
714.992	505.42
718.879	147.725
722.765	330.432
726.649	275.719
730.532	315.346
734.412	81.65
738.291	8.73
742.168	116.096
746.043	295.908
749.916	284.012
753.788	270.504
757.658	116.176
761.526	52.137
765.392	503.408
769.257	260.051
773.119	343.17
776.98	334.137
780.839	734.988
784.697	1369.26
788.552	2024.1
792.406	2193.96
796.258	2781.32
800.108	3344.09
803.957	2987.21
807.804	2736.38
811.649	2218.19
815.492	2226.56
819.333	1543.76
823.173	1605.73
827.011	1744.06
830.847	1396.7
834.681	992.879
838.514	808.77
842.345	850.133
846.174	958.289
850.001	1426.7
853.827	1294.53
857.651	1144.98
861.473	1295.14
865.293	1199.96
869.112	1014.05
872.928	1252.92
876.744	1124.35
880.557	535.93
884.369	478.402
888.178	673.324
891.987	628.035
895.793	815.723
899.598	487.227
903.401	203.875
907.202	238.16
911.001	357.379
914.799	207.543
918.595	546.145
922.389	272.973
926.182	28.562
929.972	144.262
933.761	226.754
937.549	344.582
941.334	386.125
945.118	455.902
948.9	221.336
952.681	102.484
956.459	239.23
960.236	323.703
964.012	529.805
967.785	796.391
971.557	68.734
975.327	100.848
979.095	114.758
982.862	265.484
986.627	316.004
990.39	225.352
994.152	221.855
997.912	150.578
1001.67	169.496
1005.43	104.25
1009.18	408.852
1012.93	552.172
1016.68	357.281
1020.43	350.121
1024.18	218.562
1027.93	240.598
1031.67	522.719
1035.42	1187.71
1039.16	1168.61
1042.9	1022.39
1046.63	888.105
1050.37	143.73
1054.11	726.66
1057.84	1080.51
1061.57	1390
1065.3	1572.75
1069.03	1173.83
1072.75	767.055
1076.47	721.562
1080.2	555.137
1083.92	1106.84
1087.64	1343.13
1091.36	1667.39
1095.07	1064.11
1098.79	721.156
1102.5	664.473
1106.21	330.262
1109.92	1057.52
1113.62	1151.69
1117.33	1144.15
1121.04	1054.77
1124.74	625.367
1128.44	326.582
1132.14	500.312
1135.83	677.973
1139.53	815.27
1143.22	1732.47
1146.92	1106.38
1150.61	879.223
1154.3	487.613
1157.98	754.168
1161.67	134.879
1165.35	978.398
1169.04	670.055
1172.72	1203.57
1176.4	1235.55
1180.07	1012.4
1183.75	461.145
1187.42	270.098
1191.1	949.449
1194.77	1652.13
1198.44	1735.34
1202.1	2352.28
1205.77	2271.92
1209.43	2913.11
1213.1	2829.97
1216.76	2693.38
1220.42	2926.09
1224.07	3486.25
1227.73	3894.35
1231.38	4197.05
1235.04	4759.2
1238.69	3748.33
1242.34	2599.08
1245.99	1859.96
1249.63	1937.16
1253.28	1851.83
1256.92	2184.11
1260.56	1772.17
1264.2	1638.19
1267.84	1671.71
1271.48	1049.54
1275.11	40.797
1278.74	209.047
1282.38	352.125
1286.01	250.172
1289.63	1215.86
1293.26	1143.5
1296.89	1462.93
1300.51	997.332
1304.13	135.879
1307.75	0
