Measurement: Raman, 514 nm, ccw, Raman Data Processed
Mineral: Rhodochrosite
Rruff sample: R040133
Ideal chemistry: MnCO_3_
Locality: Imuris, Sonora, Mexico
Source: University of Arizona Mineral Museum
Description: Pink cleavage fragment
Measured chemistry: (Mn_0.92_Mg_0.02_Ca_0.01_)C_1.02_O_3_
Pin_id: L00122
Orientation: Laser parallel to c* (0 0 1). Fiducial mark perpendicular to laser is parallel to a [1 0 0]
Raman shift (cm-1)	intensity
124.037	0
128.187	10.657
132.335	15.615
136.481	8.106
140.626	6.678
144.768	13.754
148.909	2.128
153.048	16.177
157.185	43.597
161.32	29.881
165.454	62.186
169.586	106.603
173.715	218.605
177.843	651.721
181.97	1716.69
186.094	2050.54
190.217	743.279
194.337	229.594
198.456	117.043
202.574	55.367
206.689	35.656
210.803	18.027
214.914	1.479
219.024	13.971
223.133	10.479
227.239	2.001
231.344	8.525
235.446	1.218
239.547	6.968
243.647	2.822
247.744	1.43
251.84	9.873
255.933	20.35
260.025	25.194
264.116	30.346
268.204	41.386
272.291	90.344
276.376	127.643
280.459	315.724
284.54	830.591
288.62	1457.11
292.698	1308.86
296.774	635.266
300.848	277.549
304.92	142.567
308.991	91.546
313.06	81.091
317.127	55.981
321.192	55.668
325.256	41.276
329.318	35.097
333.378	40.213
337.436	33.546
341.493	31.743
345.547	21.759
349.6	33.65
353.652	24.469
357.701	21.109
361.749	21.022
365.795	24.835
369.839	21.526
373.882	25.003
377.922	27.058
381.961	14.39
385.998	11.321
390.034	15.221
394.068	4.486
398.099	9.394
402.13	4.82
406.158	14.833
410.185	17.118
414.21	18.798
418.233	15.875
422.254	6.121
426.274	11.481
430.292	11.916
434.308	6.372
438.323	9.223
442.336	14.639
446.347	9.857
450.356	0.459
454.364	4.822
458.369	10.183
462.374	3.466
466.376	7.71
470.377	12.677
474.376	13.149
478.373	13.338
482.368	20.496
486.362	17.647
490.354	8.759
494.344	15.868
498.333	12.97
502.32	16.055
506.305	19.033
510.288	15.022
514.27	12.929
518.25	11.234
522.228	5.761
526.205	7.713
530.18	8.638
534.153	13.584
538.124	2.565
542.094	16.463
546.062	15.388
550.028	7.269
553.993	6.028
557.956	3.934
561.917	0.784
565.877	3.74
569.835	16.756
573.791	23.749
577.745	17.737
581.698	1.557
585.649	1.338
589.598	6.123
593.546	9.068
597.492	4.974
601.436	1.012
605.378	7.927
609.319	5.823
613.258	6.699
617.196	5.638
621.132	10.49
625.066	5.659
628.998	17.573
632.929	7.509
636.858	5.315
640.785	13.25
644.711	13.526
648.635	5.939
652.557	6.548
656.478	0.466
660.397	8.267
664.314	2.008
668.23	12.904
672.144	18.947
676.056	3.822
679.967	10.185
683.876	24.159
687.783	12.304
691.689	19.209
695.593	13.091
699.495	40.981
703.396	52.301
707.295	82.49
711.192	164.275
715.087	863.061
718.981	2784.74
722.874	852.513
726.764	216.266
730.653	92.017
734.541	52.772
738.426	34.497
742.31	21.174
746.193	14.967
750.074	11.214
753.953	24.012
757.83	24.631
761.706	13.311
765.58	13.103
769.452	15.748
773.323	11.623
777.193	1.735
781.06	18.902
784.926	9.531
788.79	3.127
792.653	4.721
796.514	3.685
800.373	10.877
804.231	12.438
808.087	4.974
811.942	0.432
815.794	4.071
819.646	13.363
823.495	0.19
827.343	2.253
831.189	1.355
835.034	2.028
838.877	5.395
842.718	0.748
846.558	3.09
850.396	0.422
854.233	7.746
858.068	8.059
861.901	9.353
865.733	5.634
869.563	6.91
873.391	5.182
877.218	15.45
881.043	5.713
884.867	10.971
888.689	9.226
892.509	9.477
896.328	11.194
900.145	9.97
903.961	7.206
907.775	4.429
911.587	0.386
915.398	10.828
919.207	7.025
923.014	4.764
926.82	8.441
930.624	4.251
934.427	9.449
938.228	13.657
942.028	8.826
945.825	9.022
949.622	19.84
953.416	10.06
957.21	5.786
961.001	13.28
964.791	10.286
968.579	19.41
972.366	25.232
976.151	13.337
979.935	10.572
983.717	15.669
987.497	15.624
991.276	2.778
995.053	23.725
998.829	33.037
1002.6	58.229
1006.38	70.564
1010.15	96.412
1013.91	118.364
1017.68	131.737
1021.45	157.121
1025.21	183.518
1028.98	185.929
1032.74	183.356
1036.5	204.796
1040.26	195.255
1044.01	237.729
1047.77	279.227
1051.52	330.668
1055.27	393.659
1059.02	456.08
1062.77	634.287
1066.52	846.791
1070.27	914.421
1074.01	1185.87
1077.75	1845.47
1081.49	4132.16
1085.23	21404.9
1088.97	47454.6
1092.71	8871.47
1096.44	2370.31
1100.17	1014.1
1103.91	602.899
1107.64	403.9
1111.37	275.855
1115.09	214.791
1118.82	168.689
1122.54	130.614
1126.26	120.556
1129.98	114.506
1133.7	81.492
1137.42	75.499
1141.14	69.525
1144.85	51.815
1148.57	49.874
1152.28	40.947
1155.99	41.035
1159.69	40.301
1163.4	37.424
1167.11	18.56
1170.81	27.709
1174.51	22.872
1178.21	23.38
1181.91	16.562
1185.61	8.087
1189.31	18.372
1193	12.854
1196.69	7.51
1200.38	6.497
1204.08	19.939
1207.76	16.122
1211.45	22.464
1215.14	9.304
1218.82	20.986
1222.5	5.727
1226.18	3.257
1229.86	0.623
1233.54	3.006
1237.22	4.396
1240.89	6.788
1244.56	3.197
1248.23	11.586
1251.9	5.017
1255.57	12.384
1259.24	0.172
1262.91	0.24
1266.57	13.653
1270.23	18.058
1273.89	11.426
1277.55	11.767
1281.21	23.088
1284.87	14.386
1288.52	4.331
1292.18	4.943
1295.83	3.208
1299.48	0.463
1303.13	10.707
1306.78	5.933
1310.42	10.142
1314.07	7.339
1317.71	9.525
1321.35	6.701
1324.99	3.864
1328.63	5.07
1332.27	0.216
1335.9	2.645
1339.54	9.501
1343.17	0.582
1346.8	10.931
1350.43	11.553
1354.06	2.951
1357.68	4.56
1361.31	1.077
1364.93	1.734
1368.55	6.652
1372.17	12.911
1375.79	19.156
1379.41	19.614
1383.03	8.07
1386.64	22.529
1390.25	24.63
1393.87	23.088
1397.48	18.3
1401.09	14.769
1404.69	27.249
1408.3	22.149
1411.9	56.872
1415.5	113.997
1419.11	283.365
1422.7	226.435
1426.3	103.349
1429.9	70.866
1433.5	62.226
1437.09	52.644
1440.68	51.95
1444.27	56.158
1447.86	71.032
1451.45	56.834
1455.04	68.861
1458.62	42.087
1462.21	24.927
1465.79	4.694
1469.37	11.033
1472.95	2.552
1476.53	2.197
1480.1	11.056
1483.68	0.086
1487.25	0
