Measurement: Raman, 514 nm, ccw, Raman Data Processed
Mineral: Rhodochrosite
Rruff sample: R040133
Ideal chemistry: MnCO_3_
Locality: Imuris, Sonora, Mexico
Source: University of Arizona Mineral Museum
Description: Pink cleavage fragment
Measured chemistry: (Mn_0.92_Mg_0.02_Ca_0.01_)C_1.02_O_3_
Pin_id: L00279
Orientation: Laser parallel to a* (1 0 0). Fiducial mark perpendicular to laser is parallel to c [0 0 1]
Raman shift (cm-1)	intensity
128.187	0
132.335	17.526
136.481	11.904
140.626	11.137
144.768	3.707
148.909	8.465
153.048	7.701
157.185	23.086
161.32	38.225
165.454	36.213
169.586	84.552
173.715	158.507
177.843	548.971
181.97	1295.46
186.094	1580.88
190.217	580.331
194.337	173.817
198.456	80.325
202.574	32.857
206.689	11.413
210.803	5.999
214.914	3.617
219.024	4.743
223.133	3.086
227.239	0.594
231.344	14.29
235.446	11.001
239.547	14.725
243.647	34.455
247.744	43.314
251.84	65.92
255.933	93.64
260.025	149.331
264.116	196.046
268.204	323.753
272.291	524.494
276.376	1054.3
280.459	2467.08
284.54	6020.87
288.62	9517.67
292.698	7919.94
296.774	3700.66
300.848	1687.43
304.92	876.444
308.991	595.262
313.06	393.166
317.127	303.018
321.192	231.959
325.256	168.982
329.318	160.755
333.378	135.588
337.436	120.677
341.493	79.49
345.547	81.457
349.6	51.175
353.652	45.87
357.701	49.845
361.749	36.6
365.795	31.334
369.839	22.009
373.882	21.588
377.922	16.266
381.961	16.446
385.998	21.79
390.034	14.977
394.068	20.682
398.099	15.503
402.13	19.208
406.158	9.511
410.185	17.22
414.21	5.803
418.233	14.65
422.254	13.249
426.274	5.892
430.292	5.522
434.308	11.552
438.323	3.146
442.336	4.777
446.347	6.277
450.356	0.187
454.364	5.606
458.369	8.252
462.374	2.229
466.376	11.255
470.377	6.675
474.376	9.102
478.373	5.493
482.368	12.887
486.362	7.247
490.354	2.629
494.344	8.028
498.333	0.63
502.32	5.697
506.305	12.002
510.288	17.295
514.27	3.419
518.25	2.851
522.228	0.126
526.205	13.425
530.18	2.755
534.153	7
538.124	2.231
542.094	4.311
546.062	10.658
550.028	1.859
553.993	1.641
557.956	1.193
561.917	8.666
565.877	5.453
569.835	20.555
573.791	19.603
577.745	23.634
581.698	4.614
585.649	8.628
589.598	9.881
593.546	11.529
597.492	9.458
601.436	16.334
605.378	13.218
609.319	9.024
613.258	3.517
617.196	14.341
621.132	10.055
625.066	13.866
628.998	17.699
632.929	14.421
636.858	21.152
640.785	12.825
644.711	17.338
648.635	7.326
652.557	19.106
656.478	25.227
660.397	16.954
664.314	20.365
668.23	24.756
672.144	18.704
676.056	23.429
679.967	16.607
683.876	11.922
687.783	25.451
691.689	32.956
695.593	28.532
699.495	35.905
703.396	55.336
707.295	88.057
711.192	211.651
715.087	921.837
718.981	2918.55
722.874	993.847
726.764	264.125
730.653	109.47
734.541	64.558
738.426	38.799
742.31	42.023
746.193	41.406
750.074	30.181
753.953	28.348
757.83	25.478
761.706	19.658
765.58	16.946
769.452	16.449
773.323	5.813
777.193	16.422
781.06	7.547
784.926	4.668
788.79	12.754
792.653	3.845
796.514	3.902
800.373	10.967
804.231	2.334
808.087	2.073
811.942	9.895
815.794	9.971
819.646	10.085
823.495	1.173
827.343	7.719
831.189	9.628
835.034	8.993
838.877	16.73
842.718	14.458
846.558	0.224
850.396	17.977
854.233	5.721
858.068	0.458
861.901	2.821
865.733	20.883
869.563	20.582
873.391	13.279
877.218	22.975
881.043	5.667
884.867	2.354
888.689	7.038
892.509	6.737
896.328	1.395
900.145	10.067
903.961	17.203
907.775	12.385
911.587	1.055
915.398	8.723
919.207	20.39
923.014	4.057
926.82	11.695
930.624	6.318
934.427	12.93
938.228	3.498
942.028	15.159
945.825	11.733
949.622	5.348
953.416	3.019
957.21	19.159
961.001	5.62
964.791	12.738
968.579	29.325
972.366	18.184
976.151	16.658
979.935	17.973
983.717	10.469
987.497	14.546
991.276	20.535
995.053	21.249
998.829	49.894
1002.6	63.656
1006.38	79.452
1010.15	99.147
1013.91	132.447
1017.68	140.292
1021.45	176.155
1025.21	175.044
1028.98	208.949
1032.74	202.868
1036.5	216.801
1040.26	236.717
1044.01	260.678
1047.77	334.654
1051.52	352.464
1055.27	426.492
1059.02	520.541
1062.77	689.605
1066.52	1039.69
1070.27	978.668
1074.01	1290.8
1077.75	2120.95
1081.49	4776.59
1085.23	24863.8
1088.97	51333
1092.71	10232.5
1096.44	2782.74
1100.17	1197
1103.91	672.276
1107.64	441.571
1111.37	293.896
1115.09	238.357
1118.82	199.599
1122.54	171.347
1126.26	135.414
1129.98	116.998
1133.7	92.095
1137.42	63.347
1141.14	84.853
1144.85	77.145
1148.57	63.906
1152.28	53.413
1155.99	44.979
1159.69	40.057
1163.4	20.852
1167.11	27.445
1170.81	13.34
1174.51	36.315
1178.21	26.933
1181.91	20.612
1185.61	24.341
1189.31	35.98
1193	24.652
1196.69	27.323
1200.38	39.644
1204.08	11.929
1207.76	28.521
1211.45	12.394
1215.14	27.479
1218.82	5.738
1222.5	3.453
1226.18	1.514
1229.86	5.864
1233.54	1.613
1237.22	7.492
1240.89	17.244
1244.56	19.985
1248.23	28.733
1251.9	14.487
1255.57	1.233
1259.24	23.972
1262.91	24.7
1266.57	10.406
1270.23	4.406
1273.89	2.192
1277.55	16.488
1281.21	29.127
1284.87	17.759
1288.52	14.071
1292.18	5.908
1295.83	4.558
1299.48	4.953
1303.13	33.446
1306.78	11.92
1310.42	19.373
1314.07	9.806
1317.71	3.209
1321.35	12.587
1324.99	15.949
1328.63	2.943
1332.27	12.643
1335.9	14.977
1339.54	15.359
1343.17	23.866
1346.8	14.243
1350.43	26.488
1354.06	8.841
1357.68	2.31
1361.31	2.497
1364.93	17.293
1368.55	0.934
1372.17	2.506
1375.79	24.254
1379.41	27.008
1383.03	34.622
1386.64	54.837
1390.25	69.53
1393.87	55.222
1397.48	65.37
1401.09	54.108
1404.69	77.672
1408.3	142.599
1411.9	330.119
1415.5	905.379
1419.11	2243.85
1422.7	1731.97
1426.3	709.994
1429.9	368.473
1433.5	220.411
1437.09	164.464
1440.68	149.682
1444.27	130.146
1447.86	121.44
1451.45	96.65
1455.04	81.554
1458.62	55.867
1462.21	48.196
1465.79	34.374
1469.37	21.017
1472.95	28.296
1476.53	6.566
1480.1	0.303
1483.68	1.816
1487.25	1.126
1490.82	17.864
1494.39	11.364
