Measurement: Raman, 514 nm, ccw, Raman Data Processed
Mineral: Rhodochrosite
Rruff sample: R050019
Ideal chemistry: MnCO_3_
Locality: Home Sweet Home mine, Colorado, USA
Source: Eugene Schlepp
Description: Pink single crystal rhombs on quartz
Measured chemistry: Mn_1.00_CO_3_
Pin_id: L00297
Orientation: Laser parallel to a* (1 0 0). Fiducial mark perpendicular to laser is parallel to c [0 0 1]
Raman shift (cm-1)	intensity
112.063	0
116.256	38.723
120.447	48.326
124.636	6.031
128.822	19.387
133.006	81.305
137.188	23.238
141.368	54.059
145.545	70.721
149.72	29.19
153.893	8.485
158.064	65.684
162.233	116.53
166.399	15.723
170.563	50.323
174.725	83.401
178.885	105.973
183.043	135.636
187.198	70.376
191.351	81.192
195.502	35.107
199.651	58.095
203.797	50.142
207.942	112.24
212.084	50.382
216.224	1.434
220.362	38.792
224.497	89.027
228.631	6.666
232.762	27.331
236.891	63.052
241.018	45.516
245.143	31.996
249.265	81.494
253.386	79.013
257.504	28.515
261.62	46.034
265.734	97.596
269.845	146.784
273.955	98.458
278.062	247.167
282.167	639.271
286.27	1388
290.371	1552.7
294.47	758.473
298.567	416.255
302.661	219.047
306.753	108.806
310.843	61.578
314.931	107.364
319.017	125.238
323.101	57.057
327.182	40.847
331.261	107.783
335.339	116.904
339.414	81.341
343.487	62.5
347.557	91.338
351.626	63.201
355.693	48.089
359.757	38.592
363.819	87.53
367.879	76.556
371.937	28.465
375.993	44.464
380.047	111.378
384.099	85.431
388.148	20.503
392.196	111.971
396.241	55.44
400.284	57.565
404.325	16.708
408.364	17.355
412.401	106.529
416.435	49.729
420.468	38.935
424.498	13.843
428.527	120.4
432.553	90.658
436.577	13.928
440.599	36.776
444.619	109.567
448.637	82.868
452.653	30.183
456.667	49.509
460.678	94.869
464.688	129.105
468.695	72.499
472.701	8.905
476.704	83.327
480.705	162.77
484.704	86.276
488.701	45.745
492.696	23.273
496.689	108.808
500.68	96.351
504.668	57.592
508.655	71.16
512.639	61.737
516.622	133.325
520.602	96.169
524.581	18.178
528.557	0.63
532.531	115.934
536.503	77.512
540.473	27.269
544.441	44.864
548.407	52.471
552.371	67.094
556.333	43.732
560.293	10.406
564.251	32.086
568.206	102.766
572.16	43.44
576.112	41.119
580.061	14.821
584.009	87.98
587.954	146.622
591.897	88.904
595.839	7.458
599.778	58.241
603.716	95.625
607.651	129.272
611.584	55.92
615.515	35.569
619.444	39.644
623.372	120.302
627.297	141.9
631.22	49.5
635.141	54.342
639.06	106.866
642.977	161.905
646.892	151.291
650.805	94.882
654.716	45.323
658.625	96.911
662.532	105.819
666.437	98.375
670.34	69.925
674.241	37.07
678.139	98.017
682.036	137.49
685.931	108.985
689.824	33.721
693.715	13.669
697.604	62.905
701.491	54.222
705.376	48.717
709.259	58.271
713.139	78.092
717.018	467.632
720.895	365.165
724.77	154.201
728.643	47.719
732.514	59.716
736.383	65.22
740.25	190.709
744.115	151.178
747.978	19.629
751.839	18.505
755.698	96.618
759.555	111.552
763.41	159.976
767.263	77.395
771.114	34.191
774.964	52.156
778.811	100.644
782.656	140.189
786.499	85.525
790.341	46.836
794.18	5.134
798.017	94.839
801.853	165.097
805.686	142.768
809.518	39.949
813.347	2.884
817.175	82.587
821.001	115.745
824.824	136.903
828.646	85.051
832.466	22.261
836.284	38.609
840.1	22.752
843.914	153.643
847.726	135.654
851.536	94.835
855.344	7.965
859.15	98.225
862.954	123.421
866.756	179.611
870.557	177.781
874.355	100.96
878.152	46.153
881.946	22.358
885.739	156.559
889.53	196.74
893.318	148.906
897.105	41.112
900.89	33.769
904.673	0.035
908.454	169.312
912.234	140.497
916.011	156.822
919.786	83.161
923.56	3.091
927.331	113.481
931.101	134.883
934.868	154.335
938.634	160.802
942.398	45.044
946.16	12.456
949.92	69.623
953.678	52.369
957.435	236.926
961.189	121.35
964.941	56.621
968.692	33.27
972.441	6.947
976.187	53.646
979.932	82.771
983.675	147.499
987.416	41.239
991.155	55.065
994.893	7.438
998.628	74.118
1002.36	168.861
1006.09	229.675
1009.82	243.679
1013.55	206.553
1017.28	91.132
1021	173.083
1024.72	184.496
1028.44	325.555
1032.16	236.787
1035.88	247.446
1039.59	220.617
1043.31	164.127
1047.02	233.474
1050.73	394.403
1054.43	513.79
1058.14	592.545
1061.84	749.988
1065.54	649.556
1069.24	819.215
1072.94	1288.07
1076.64	2574.95
1080.33	10170.7
1084.03	45802.2
1087.71	9604
1091.4	2058.75
1095.09	831.056
1098.78	467.971
1102.46	383.993
1106.14	407.632
1109.82	292.622
1113.5	234.95
1117.17	151.898
1120.85	125.762
1124.52	71.611
1128.19	91.639
1131.86	212.345
1135.52	198.241
1139.19	165.756
1142.85	200.046
1146.51	75.108
1150.17	36.91
1153.83	49.993
1157.48	182.704
1161.14	185.773
1164.79	176.065
1168.44	152.739
1172.09	10.699
1175.73	4.105
1179.38	14.77
1183.02	64.65
1186.66	116.911
1190.3	142.077
1193.94	215.256
1197.58	155.691
1201.21	71.172
1204.84	60.776
1208.47	42.911
1212.1	145.488
1215.72	159.59
1219.35	259.127
1222.97	202.967
1226.59	209.352
1230.21	102.567
1233.83	131.529
1237.45	95.011
1241.06	78.659
1244.67	155.219
1248.28	203.695
1251.89	273.133
1255.5	258.522
1259.1	125.834
1262.7	96.028
1266.31	119.169
1269.9	59.234
1273.5	98.201
1277.1	77.082
1280.69	233.804
1284.29	239.409
1287.88	247.853
1291.46	159.125
1295.05	144.411
1298.64	112.281
1302.22	2.762
1305.8	108.227
1309.38	149.609
1312.96	206.798
1316.54	284.099
1320.11	159.86
1323.68	138.604
1327.25	27.273
1330.82	19.264
1334.39	36.239
1337.96	16.139
1341.52	155.309
1345.08	273.14
1348.64	181.115
1352.2	233.645
1355.76	184.259
1359.31	118.533
1362.87	94.757
1366.42	20.797
1369.97	48.038
1373.52	68.114
1377.06	161.118
1380.61	286.861
1384.15	331.958
1387.69	303.872
1391.23	307.382
1394.77	275.576
1398.3	219.31
1401.84	140.098
1405.37	521.56
1408.9	1545.78
1412.43	1478.49
1415.96	768.387
1419.48	514.238
1423.01	419.801
1426.53	429.319
1430.05	346.582
1433.57	220.907
1437.08	151.461
1440.6	85.316
1444.11	78.722
1447.62	34.255
1451.13	109.27
1454.64	149.901
1458.15	263
1461.65	366.587
1465.16	324.655
1468.66	310.767
1472.16	223.263
1475.65	182.67
1479.15	20.814
1482.64	26.643
1486.14	7.531
1489.63	66.848
1493.12	136.917
1496.61	166.58
1500.09	275.167
1503.58	306.756
1507.06	350.695
1510.54	282.533
