Measurement: Raman, 514 nm, ccw, Raman Data Processed
Mineral: Rhodochrosite
Rruff sample: R040133
Ideal chemistry: MnCO_3_
Locality: Imuris, Sonora, Mexico
Source: University of Arizona Mineral Museum
Description: Pink cleavage fragment
Measured chemistry: (Mn_0.92_Mg_0.02_Ca_0.01_)C_1.02_O_3_
Pin_id: L00122
Orientation: Laser parallel to c* (0 0 1). Fiducial mark perpendicular to laser is parallel to a [1 0 0]
Raman shift (cm-1)	intensity
148.909	0
153.048	4.821
157.185	17.699
161.32	22.569
165.454	49.514
169.586	108.856
173.715	227.259
177.843	739.545
181.97	1866.78
186.094	2675.19
190.217	1031.63
194.337	303.204
198.456	132.581
202.574	91.412
206.689	44.073
210.803	27.521
214.914	31.691
219.024	5.846
223.133	6.001
227.239	8.132
231.344	6.773
235.446	0.383
239.547	0.653
243.647	14.789
247.744	5.225
251.84	2.643
255.933	5.548
260.025	22.213
264.116	17.601
268.204	29.709
272.291	44.376
276.376	101.854
280.459	271.023
284.54	602.968
288.62	980.927
292.698	828.112
296.774	410.462
300.848	160.256
304.92	98.954
308.991	61.674
313.06	44.006
317.127	40.156
321.192	34.22
325.256	31.275
329.318	35.225
333.378	14.079
337.436	16.84
341.493	22.465
345.547	16.978
349.6	20.361
353.652	2.618
357.701	16.737
361.749	0.696
365.795	9.543
369.839	18.326
373.882	19.061
377.922	12.746
381.961	16.109
385.998	21.035
390.034	20.476
394.068	17.743
398.099	11.683
402.13	5.304
406.158	9.635
410.185	20.812
414.21	3.646
418.233	0.579
422.254	0.795
426.274	9.169
430.292	1.379
434.308	4.098
438.323	3.376
442.336	6.174
446.347	2.637
450.356	8.077
454.364	6.503
458.369	3.927
462.374	8.477
466.376	0.907
470.377	4.304
474.376	14.697
478.373	11.566
482.368	3.94
486.362	18.221
490.354	8.498
494.344	5.76
498.333	16.198
502.32	4.364
506.305	9.574
510.288	20.601
514.27	8.623
518.25	10.691
522.228	3.579
526.205	14.562
530.18	11.601
534.153	16.626
538.124	16.69
542.094	10.305
546.062	16.688
550.028	14.648
553.993	5.652
557.956	3.593
561.917	8.46
565.877	12.443
569.835	6.512
573.791	9.517
577.745	9.532
581.698	8.546
585.649	13.559
589.598	9.358
593.546	2.349
597.492	9.92
601.436	15.927
605.378	13.954
609.319	15.925
613.258	6.97
617.196	5.977
621.132	1.983
625.066	7.948
628.998	1.123
632.929	3.091
636.858	11.147
640.785	13.281
644.711	9.467
648.635	1.043
652.557	7.873
656.478	9.821
660.397	1.863
664.314	4.999
668.23	12.128
672.144	13.026
676.056	8.013
679.967	5.094
683.876	14.117
687.783	13.313
691.689	26.137
695.593	27.172
699.495	43.974
703.396	51.776
707.295	74.284
711.192	171.338
715.087	807.099
718.981	3041.88
722.874	1181.69
726.764	274.786
730.653	104.547
734.541	56.307
738.426	34.056
742.31	38.258
746.193	21.93
750.074	8.666
753.953	18.355
757.83	13.974
761.706	8.658
765.58	10.342
769.452	16.014
773.323	22.659
777.193	16.255
781.06	13.019
784.926	3.61
788.79	1.21
792.653	10.544
796.514	0.92
800.373	0.648
804.231	9.133
808.087	6.651
811.942	0.129
815.794	2.314
819.646	5.724
823.495	18.172
827.343	7.61
831.189	2.009
835.034	0.4
838.877	3.189
842.718	3.169
846.558	0.447
850.396	1.073
854.233	3.289
858.068	10.642
861.901	3.019
865.733	10.298
869.563	24.61
873.391	6.917
877.218	4.78
881.043	17.509
884.867	9.794
888.689	7.076
892.509	5.645
896.328	10.62
900.145	0.864
903.961	5.094
907.775	6.325
911.587	10.556
915.398	16.784
919.207	18.014
923.014	5.244
926.82	11.475
930.624	4.707
934.427	10.931
938.228	9.927
942.028	6.034
945.825	13.2
949.622	14.009
953.416	7.121
957.21	7.927
961.001	9.181
964.791	20.268
968.579	4.494
972.366	8.591
976.151	7.665
979.935	14.966
983.717	10.944
987.497	14.179
991.276	15.146
995.053	37.457
998.829	39.599
1002.6	61.812
1006.38	80.788
1010.15	90.175
1013.91	121.611
1017.68	152.022
1021.45	178.446
1025.21	183.887
1028.98	203.003
1032.74	233.472
1036.5	203.956
1040.26	224.454
1044.01	282.625
1047.77	328.031
1051.52	372.625
1055.27	460.154
1059.02	555.733
1062.77	678.329
1066.52	949.215
1070.27	1027.58
1074.01	1336.33
1077.75	2108.99
1081.49	4622.56
1085.23	22834.2
1088.97	56793.9
1092.71	11523.5
1096.44	2978.3
1100.17	1287.18
1103.91	704.523
1107.64	476.513
1111.37	326.37
1115.09	294.245
1118.82	220.137
1122.54	192.052
1126.26	154.987
1129.98	119.967
1133.7	110.942
1137.42	104.938
1141.14	76.157
1144.85	73.492
1148.57	72.553
1152.28	66.714
1155.99	54.873
1159.69	55.002
1163.4	43.159
1167.11	42.34
1170.81	44.938
1174.51	35.155
1178.21	29.392
1181.91	37.781
1185.61	22.04
1189.31	23.316
1193	4.613
1196.69	0.254
1200.38	17.557
1204.08	4.94
1207.76	11.352
1211.45	27.852
1215.14	17.294
1218.82	4.697
1222.5	8.123
1226.18	10.555
1229.86	2.946
1233.54	11.819
1237.22	4.296
1240.89	6.774
1244.56	12.227
1248.23	9.648
1251.9	3.963
1255.57	3.396
1259.24	9.766
1262.91	64.176
1266.57	9.64
1270.23	5.191
1273.89	10.769
1277.55	6.366
1281.21	11.986
1284.87	4.37
1288.52	2.699
1292.18	7.983
1295.83	1.312
1299.48	0.585
1303.13	12.158
1306.78	11.922
1310.42	13.704
1314.07	11.347
1317.71	13.163
1321.35	7.88
1324.99	0.49
1328.63	13.189
1332.27	2.705
1335.9	21.559
1339.54	10.441
1343.17	13.284
1346.8	5.719
1350.43	4.867
1354.06	5.372
1357.68	2.776
1361.31	9.752
1364.93	17.454
1368.55	10.671
1372.17	5.399
1375.79	2.932
1379.41	6.165
1383.03	5.692
1386.64	20.733
1390.25	8.207
1393.87	17.199
1397.48	13.1
1401.09	0.061
1404.69	2.827
