Measurement: Raman, 514 nm, ccw, Raman Data Processed
Mineral: Rhodochrosite
Rruff sample: R050116
Ideal chemistry: MnCO_3_
Locality: Wudong mine, Liubao, Guangxi Autonomous Region, China
Source: He Xin Jian
Description: Pink crystal associated with colorless quartz
Measured chemistry: (Mn_0.81_Fe_0.17_Mg_0.01_Ca_0.01_)CO_3_
Pin_id: L00524
Orientation: Laser parallel to a* (1 0 0). Fiducial mark perpendicular to laser is parallel to c [0 0 1]
Raman shift (cm-1)	intensity
47.49	0
51.717	42.177
55.942	84.846
60.165	89.418
64.386	56.967
68.604	87.158
72.82	78.085
77.034	49.669
81.246	4.69
85.455	14.621
89.663	8.441
93.868	12.622
98.07	17.055
102.271	43.666
106.469	78.391
110.665	119.222
114.859	104.15
119.05	89.167
123.24	96.267
127.427	103.443
131.612	87.826
135.794	99.636
139.975	89.491
144.153	81.424
148.329	98.334
152.503	123.742
156.674	145.583
160.843	205.157
165.011	220.777
169.175	348.449
173.338	565.156
177.499	1175.9
181.657	1939.67
185.813	1607.48
189.967	699.311
194.119	311.171
198.268	140.058
202.415	83.971
206.561	57.593
210.703	55.986
214.844	44.772
218.983	64.728
223.119	62.878
227.253	71.106
231.385	71.5
235.515	101.315
239.643	116.495
243.768	151.081
247.891	158.194
252.012	259.9
256.131	347.331
260.248	451.919
264.363	679.607
268.475	1131.55
272.585	1840.05
276.693	3094.11
280.799	5801.55
284.903	9784.99
289.005	11075.1
293.104	7299.3
297.201	3763.65
301.296	1954.88
305.389	1206.15
309.48	779.43
313.569	549.69
317.655	440.948
321.74	352.241
325.822	273.521
329.902	229.812
333.98	207.113
338.056	139.427
342.129	129.752
346.201	111.087
350.27	94.43
354.337	77.78
358.402	64.139
362.465	54.503
366.526	28.872
370.585	12.246
374.642	14.599
378.696	29.93
382.748	18.179
386.799	12.421
390.847	2.333
394.893	2.105
398.936	0.891
402.978	15.302
407.018	24.489
411.055	12.737
415.091	5.969
419.124	11.254
423.155	16.404
427.184	11.042
431.211	7.673
435.236	16.024
439.259	4.616
443.28	21.902
447.298	16.26
451.315	27.643
455.329	2.812
459.341	21.419
463.352	19.375
467.36	32.163
471.366	31.437
475.37	23.99
479.372	17.212
483.371	51.432
487.369	40.702
491.365	45.901
495.358	45.182
499.35	54.842
503.339	65.229
507.326	53.513
511.311	90.702
515.295	61.066
519.276	76.269
523.255	71.392
527.232	65.567
531.207	55.521
535.179	74.554
539.15	60.602
543.119	58.528
547.086	54.014
551.05	47.226
555.013	51.962
558.973	41.03
562.932	38.097
566.888	15.396
570.842	53.215
574.795	40.906
578.745	36.585
582.693	15.005
586.639	18.024
590.583	3.147
594.525	10.336
598.465	28.887
602.403	8.266
606.339	15.572
610.273	4.796
614.205	15.337
618.135	10.192
622.063	1.267
625.989	30.099
629.912	1.064
633.834	27.571
637.754	22.993
641.671	10.29
645.587	18.815
649.501	15.119
653.412	1.879
657.322	12.319
661.23	11.655
665.135	11.02
669.039	30.422
672.94	30.395
676.84	27.362
680.738	9.053
684.633	27.826
688.527	33.85
692.418	36.066
696.308	51.18
700.195	68.227
704.081	91.915
707.964	179.555
711.846	424.204
715.726	1419.81
719.603	2948.02
723.479	1542.65
727.352	720.995
731.224	403.54
735.094	241.226
738.961	159.653
742.827	121.159
746.691	96.342
750.552	77.257
754.412	39.252
758.27	50.437
762.125	66.071
765.979	36.521
769.831	45.034
773.681	11.884
777.529	29.909
781.375	2.317
785.219	14.35
789.06	16.143
792.901	34.182
796.739	17.006
800.575	13.756
804.409	5.52
808.241	15.664
812.071	25.245
815.899	6.647
819.726	3.104
823.55	22.66
827.372	12.959
831.193	7.653
835.011	9.32
838.828	3.06
842.642	2.579
846.455	9.697
850.266	1.51
854.075	9.257
857.881	34.516
861.686	2.755
865.489	3.972
869.29	4.83
873.089	16.666
876.886	10.552
880.682	13.525
884.475	2.418
888.266	13.383
892.056	4.613
895.843	16.571
899.629	19.507
903.413	12.438
907.194	1.636
910.974	10.72
914.752	17.823
918.528	12.046
922.302	6.924
926.074	7.64
929.844	13.508
933.613	17.811
937.379	25.673
941.144	7.579
944.906	37.232
948.667	19.101
952.426	20.729
956.183	17.828
959.938	24.681
963.691	14.588
967.442	18.22
971.191	24.771
974.939	2.434
978.684	14.545
982.428	13.749
986.169	40.894
989.909	29.783
993.647	73.338
997.383	68.392
1001.12	73.816
1004.85	87.898
1008.58	149.026
1012.31	192.129
1016.03	239.272
1019.76	290.036
1023.48	317.883
1027.2	315.394
1030.92	342.551
1034.64	350.596
1038.36	402.037
1042.07	456.175
1045.78	518.425
1049.49	621.91
1053.2	754.442
1056.9	986.969
1060.61	1361.07
1064.31	1802.8
1068.01	2107.49
1071.71	2990.23
1075.41	5770
1079.1	17747.8
1082.79	55635.6
1086.48	44473.5
1090.17	12861.2
1093.86	4177.15
1097.55	1805.03
1101.23	998.021
1104.91	670.041
1108.59	465.098
1112.27	364.955
1115.95	338.072
1119.62	311.223
1123.3	199.395
1126.97	192.621
1130.63	141.879
1134.3	125.175
1137.97	122.773
1141.63	104.148
1145.29	85.557
1148.95	80.42
1152.61	85.452
1156.27	70.63
1159.92	58.489
1163.57	47.124
1167.22	37.067
1170.87	45.535
1174.52	49.115
1178.16	57.392
1181.81	66.83
1185.45	44.391
1189.09	37.047
1192.73	13.722
1196.36	17.298
1200	43.884
1203.63	25.867
1207.26	52.683
1210.89	17.804
1214.52	13.913
1218.14	20.298
1221.77	26.147
1225.39	16.049
1229.01	20.252
1232.62	14.115
1236.24	16.992
1239.86	0.886
1243.47	23.791
1247.08	4.703
1250.69	11.627
1254.3	16.437
1257.9	22.498
1261.5	18.441
1265.11	35.394
1268.71	22.355
1272.3	23.313
1275.9	15.731
1279.49	4.846
1283.09	12.003
1286.68	2.801
1290.27	26.542
1293.86	22.225
1297.44	17.876
1301.03	10.51
1304.61	0.124
1308.19	1.277
1311.77	11.699
1315.34	0.152
1318.92	16.363
1322.49	7.841
1326.06	6.271
1329.63	14.653
1333.2	23.995
1336.77	33.02
1340.33	13.703
1343.89	4.469
1347.46	5.266
1351.02	13.096
1354.57	3.045
1358.13	1.86
1361.68	21.162
1365.23	35.216
1368.79	1.169
1372.33	57.074
1375.88	53.615
1379.43	61.51
1382.97	87.397
1386.51	74.423
1390.05	111.262
1393.59	148.084
1397.13	207.89
1400.66	365.35
1404.19	627.112
1407.72	1113.86
1411.25	1546.43
1414.78	1512.38
1418.31	1035.26
1421.83	723.782
1425.36	475.206
1428.88	394.129
1432.39	317.371
1435.91	293.385
1439.43	271.036
1442.94	231.833
1446.45	203.282
1449.96	153.563
1453.47	123.68
1456.98	93.57
1460.48	52.204
1463.99	57.555
1467.49	24.848
1470.99	12.41
1474.49	40.429
1477.99	56.7
1481.48	32.982
1484.97	38.248
1488.46	20.615
1491.95	32.27
1495.44	4.696
1498.93	2.6
1502.41	0.884
1505.9	12.865
1509.38	22.888
1512.86	0
