Measurement: Raman, 514 nm, ccw, Raman Data Processed
Mineral: Rhodonite
Rruff sample: R040041
Ideal chemistry: Mn^2+^SiO_3_
Locality: Franklin, Sussex County, New Jersey, USA
Source: University of Arizona Mineral Museum
Description: Pink prismatic crystals
Measured chemistry: (Mn_0.63_Ca_0.21_Zn_0.12_Mg_0.02_Fe_0.02_)_Î£=1_Si_1.00_O_3_
Pin_id: L00324
Orientation: Laser parallel to (0 -1 -1). Fiducial mark perpendicular to laser is parallel to a [1 0 0]
Raman shift (cm-1)	intensity
54.966	0
59.164	214.205
63.36	353.304
67.554	98.605
71.747	3.414
75.937	207.651
80.125	24.143
84.311	28.054
88.496	638.498
92.678	3010.77
96.858	7549.51
101.036	6488.5
105.212	6904.16
109.387	11910.3
113.559	7373.65
117.729	5806.2
121.897	7689.86
126.063	5789.54
130.228	3071.01
134.39	2294.51
138.55	2962.03
142.709	1966.33
146.865	1509.89
151.019	2089.01
155.171	2543.47
159.322	2039.33
163.47	1590.64
167.617	1395.42
171.761	1032.7
175.904	866.481
180.044	497.751
184.183	234.505
188.319	340.732
192.454	304.424
196.586	32.573
200.717	36.83
204.846	134.206
208.972	687.669
213.097	331.532
217.22	51.977
221.341	38.363
225.46	13.525
229.577	231.464
233.692	873.967
237.805	1861.72
241.916	2393.24
246.025	2514.82
250.132	2270.37
254.237	2471.4
258.34	3671.97
262.442	4222.99
266.541	3186.46
270.639	2503.45
274.734	2307.95
278.828	1691.89
282.919	1086.2
287.009	737.832
291.097	867.777
295.183	1543
299.266	2460.5
303.348	3046.28
307.428	3054.29
311.507	2253.56
315.583	1509.08
319.657	1600.86
323.729	1869.88
327.8	2056.15
331.868	2327.66
335.935	2577.39
339.999	3053.35
344.062	3854.53
348.123	3678.92
352.182	2968.2
356.239	2878.31
360.294	3379.3
364.347	3595.65
368.398	3312.23
372.448	2472.91
376.495	1538.79
380.54	1150.82
384.584	1037.67
388.626	717.755
392.666	298.991
396.704	14.564
400.74	67.921
404.774	102.257
408.806	90.392
412.836	186.241
416.865	531.26
420.891	766.433
424.916	372.472
428.939	73.271
432.959	79.719
436.978	274.75
440.996	261.72
445.011	70.283
449.024	178.271
453.036	366.496
457.045	544.51
461.053	202.759
465.059	97.132
469.063	204.641
473.065	345.267
477.065	365.03
481.063	297.925
485.06	76.969
489.054	253.121
493.047	556.319
497.038	427.561
501.027	183.844
505.014	115.181
508.999	233.563
512.982	521.017
516.964	699.493
520.944	431.026
524.921	192.625
528.897	23.255
532.871	6.212
536.844	90.906
540.814	80.112
544.783	107.327
548.749	155.731
552.714	278.097
556.677	524.12
560.638	359.658
564.597	172.816
568.555	106.904
572.511	137.002
576.464	92.038
580.416	59.007
584.366	25.897
588.315	2.406
592.261	33.936
596.206	36.953
600.148	25.76
604.089	59.442
608.028	180.44
611.965	263.294
615.901	352.661
619.834	417.472
623.766	566.459
627.696	773.889
631.624	964.479
635.551	1172.67
639.475	1723.87
643.398	2271.35
647.318	3076.56
651.237	4756.09
655.155	8266.2
659.07	15426.5
662.984	31061.5
666.895	48614.1
670.805	41608.4
674.713	24851.5
678.62	15773.6
682.524	10260.5
686.427	5752.97
690.328	3219.27
694.227	2152.49
698.124	1604.5
702.02	1487.62
705.913	1794.86
709.805	2950.86
713.695	4486.73
717.584	3626.53
721.47	2050.32
725.355	1149.03
729.238	845.602
733.119	829.033
736.998	929.323
740.876	960.337
744.752	688.514
748.626	407.164
752.498	228.307
756.368	209.696
760.237	122.233
764.104	45.653
767.969	42.952
771.832	40.129
775.693	0.844
779.553	34.934
783.411	16.493
787.267	4.182
791.122	3.127
794.974	7.341
798.825	23.845
802.674	60.451
806.522	46.647
810.367	80.731
814.211	20.68
818.053	42.492
821.893	13.138
825.732	13.618
829.568	30.016
833.403	35.849
837.236	37.117
841.068	28.01
844.898	35.918
848.726	0.343
852.552	2.144
856.376	4.585
860.199	148.649
864.02	160.859
867.839	358.05
871.656	592.222
875.472	717.379
879.286	722.525
883.098	647.661
886.909	660.803
890.717	774.967
894.524	774.158
898.33	870.516
902.133	1171.08
905.935	1840.77
909.735	3312.57
913.533	4681.41
917.33	3963.81
921.124	2659.4
924.918	1950.46
928.709	1775.82
932.499	2285.39
936.286	3446.01
940.073	3058.85
943.857	1823.1
947.64	1457.97
951.421	1448.72
955.2	1722.9
958.978	2411.44
962.753	3820.38
966.527	7186.09
970.3	13708.2
974.071	17899.5
977.84	14360.1
981.607	11735.1
985.372	13838.5
989.136	20106.5
992.898	24921.2
996.659	20756.9
1000.42	23054.6
1004.17	24083.5
1007.93	15427.2
1011.68	8692.44
1015.43	6149.73
1019.18	4874.11
1022.93	4315.59
1026.68	3969.26
1030.42	3624.91
1034.17	2956.83
1037.91	2408.71
1041.65	2210.4
1045.39	2316.02
1049.12	2795.96
1052.86	2804.42
1056.59	1996.16
1060.33	1152.6
1064.06	853.92
1067.78	736.477
1071.51	610.768
1075.23	657.229
1078.96	522.327
1082.68	499.624
1086.4	432.34
1090.12	313.645
1093.83	290.723
1097.55	285.375
1101.26	225.383
1104.97	259.815
1108.68	220.087
1112.39	265.857
1116.1	286.179
1119.8	260.953
1123.5	406.823
1127.2	293.298
1130.9	100.084
1134.6	174.193
1138.3	135.047
1141.99	146.806
1145.69	149.11
1149.38	118.627
1153.07	138.362
1156.76	110.213
1160.44	138.46
1164.13	49.593
1167.81	81.658
1171.49	12.654
1175.17	24.036
1178.85	0.362
1182.52	22.65
1186.2	16.06
1189.87	5.883
1193.54	37.727
1197.21	21.942
1200.88	26.698
1204.55	20.736
1208.21	10.442
1211.88	1.293
1215.54	9.309
1219.2	19.505
1222.86	15.847
1226.51	15.649
1230.17	35.014
1233.82	25.079
1237.47	37.025
1241.12	28.737
1244.77	32.997
1248.42	34.868
1252.06	37.045
1255.71	54.959
1259.35	19.205
1262.99	46.357
1266.63	6.759
1270.26	28.998
1273.9	16.087
1277.53	31.006
1281.16	82.759
1284.8	57.373
1288.42	89.831
1292.05	38.178
1295.68	74.324
1299.3	84.012
1302.92	56.176
1306.55	37.881
1310.16	57.435
1313.78	13.84
1317.4	426.085
1321.01	677.096
1324.62	422.991
1328.24	112.739
1331.85	102.749
1335.45	73.911
1339.06	76.89
1342.66	101.258
1346.27	96.353
1349.87	115.634
1353.47	135.03
1357.07	119.419
1360.66	139.525
1364.26	165.708
1367.85	157.837
1371.44	122.318
1375.04	95.676
1378.62	50.667
1382.21	106.309
1385.8	96.195
1389.38	90.105
1392.96	70.647
1396.54	95.984
1400.12	82.979
1403.7	87.403
1407.28	99.992
1410.85	75.886
1414.42	86.69
1417.99	93.311
1421.56	132.217
1425.13	95.681
1428.7	57.676
1432.26	35.207
1435.83	45.038
1439.39	97.804
1442.95	98.073
1446.51	99.626
1450.06	100.474
1453.62	144.372
1457.17	123.397
1460.73	105.416
1464.28	96.021
1467.83	109.616
1471.37	114.228
1474.92	64.002
1478.46	88.831
1482.01	101.817
1485.55	51.056
1489.09	89.523
1492.63	84.279
1496.16	72.344
1499.7	116.263
1503.23	88.577
1506.76	59.979
1510.29	78.095
1513.82	44.176
1517.35	13.975
1520.88	0.699
1524.4	0
