Measurement: Raman, 514 nm, ccw, Raman Data Processed
Mineral: Rhodochrosite
Rruff sample: R050116
Ideal chemistry: MnCO_3_
Locality: Wudong mine, Liubao, Guangxi Autonomous Region, China
Source: He Xin Jian
Description: Pink crystal associated with colorless quartz
Measured chemistry: (Mn_0.81_Fe_0.17_Mg_0.01_Ca_0.01_)CO_3_
Pin_id: L00413
Orientation: Laser parallel to c* (0 0 1). Fiducial mark perpendicular to laser is parallel to a [1 0 0]
Raman shift (cm-1)	intensity
57.35	0
61.572	32.287
65.792	22.416
70.01	28.712
74.225	37.25
78.438	21.903
82.649	3.546
86.858	3.471
91.065	24.739
95.269	59.708
99.471	78.657
103.67	69.462
107.868	133.497
112.063	171.57
116.256	170.637
120.447	157.701
124.636	134.765
128.822	149.832
133.006	135.909
137.188	132.516
141.368	139.427
145.545	158.69
149.72	176.558
153.893	187.381
158.064	240.98
162.233	320.02
166.399	372.115
170.563	514.228
174.725	981.342
178.885	1884.46
183.043	2590.57
187.198	1623.69
191.351	671.798
195.502	264.939
199.651	119.163
203.797	73.305
207.942	52.736
212.084	40.918
216.224	25.486
220.362	18.734
224.497	17.097
228.631	10.693
232.762	16.55
236.891	27.24
241.018	13.461
245.143	9.203
249.265	25.892
253.386	8.433
257.504	19.071
261.62	34.122
265.734	85.48
269.845	118.27
273.955	158.72
278.062	314.859
282.167	566.077
286.27	957.211
290.371	1025.34
294.47	633.475
298.567	312.608
302.661	159.743
306.753	85.907
310.843	87.027
314.931	67.133
319.017	53.218
323.101	30.288
327.182	18.356
331.261	19.423
335.339	30.486
339.414	10.544
343.487	15.6
347.557	34.65
351.626	5.697
355.693	1.262
359.757	42.773
363.819	26.801
367.879	5.176
371.937	6.836
375.993	21.817
380.047	39.59
384.099	12.463
388.148	10.141
392.196	5.82
396.241	13.423
400.284	7.939
404.325	9.821
408.364	12.951
412.401	31.575
416.435	0.164
420.468	8.948
424.498	2.785
428.527	0.363
432.553	7.432
436.577	14.224
440.599	26.048
444.619	29.746
448.637	15.499
452.653	19.251
456.667	54.413
460.678	26.696
464.688	11.482
468.695	25.313
472.701	37.142
476.704	55.892
480.705	46.622
484.704	43.493
488.701	50.396
492.696	60.118
496.689	53.797
500.68	77.539
504.668	53.251
508.655	77.962
512.639	89.622
516.622	44.124
520.602	94.786
524.581	94.448
528.557	51.844
532.531	69.446
536.503	64.108
540.473	64.701
544.441	47.368
548.407	36.848
552.371	37.572
556.333	43.984
560.293	38.016
564.251	29.63
568.206	37.299
572.16	44.801
576.112	17.247
580.061	15.635
584.009	6.181
587.954	17.566
591.897	31.639
595.839	20.979
599.778	25.017
603.716	16.132
607.651	13.039
611.584	13.133
615.515	13.197
619.444	11.802
623.372	22.011
627.297	0.144
631.22	21.666
635.141	18.173
639.06	9.643
642.977	12.096
646.892	7.53
650.805	5.13
654.716	1.893
658.625	4.425
662.532	23.101
666.437	7.794
670.34	18.473
674.241	18.798
678.139	38.106
682.036	37.345
685.931	37.982
689.824	46.239
693.715	33.033
697.604	65.464
701.491	94.677
705.376	118.859
709.259	195.028
713.139	529.218
717.018	1722.36
720.895	2259.48
724.77	921.595
728.643	392.693
732.514	183.771
736.383	107.832
740.25	66.357
744.115	50.808
747.978	60.828
751.839	32.912
755.698	33.076
759.555	1.038
763.41	1.987
767.263	1.733
771.114	12.91
774.964	10.246
778.811	1.07
782.656	17.535
786.499	10.954
790.341	23.935
794.18	19.731
798.017	23.162
801.853	30.6
805.686	26.205
809.518	15.767
813.347	3.261
817.175	0.677
821.001	11.268
824.824	24.064
828.646	29.474
832.466	13.132
836.284	12.793
840.1	17.466
843.914	6.726
847.726	0.049
851.536	5.161
855.344	12.358
859.15	33.541
862.954	21.712
866.756	28.87
870.557	15.017
874.355	22.153
878.152	25.279
881.946	15.395
885.739	16.503
889.53	13.602
893.318	15.685
897.105	20.749
900.89	4.761
904.673	8.81
908.454	7.85
912.234	0.448
916.011	7.68
919.786	11.602
923.56	6.6
927.331	13.561
931.101	14.466
934.868	8.708
938.634	5.755
942.398	15.251
946.16	36.464
949.92	32.281
953.678	43.31
957.435	6.164
961.189	10.851
964.941	23.61
968.692	35.172
972.441	8.263
976.187	19.018
979.932	16.12
983.675	7.138
987.416	29.361
991.155	21.216
994.893	63.38
998.628	58.815
1002.36	82.021
1006.09	137.254
1009.82	160.514
1013.55	154.8
1017.28	190.087
1021	221.431
1024.72	274.802
1028.44	298.196
1032.16	278.616
1035.88	261.061
1039.59	320.536
1043.31	358.549
1047.02	445.699
1050.73	554.312
1054.43	724.889
1058.14	899.428
1061.84	1274.17
1065.54	1482.64
1069.24	1797.42
1072.94	2909.11
1076.64	6454.98
1080.33	22115.1
1084.03	54792.8
1087.71	24840.3
1091.4	6606.33
1095.09	2361.48
1098.78	1198.66
1102.46	734.874
1106.14	498.124
1109.82	388.415
1113.5	303.762
1117.17	221.126
1120.85	196.55
1124.52	181.668
1128.19	129.17
1131.86	114.714
1135.52	94.324
1139.19	123.96
1142.85	93.622
1146.51	62.335
1150.17	72.234
1153.83	37.974
1157.48	59.737
1161.14	36.704
1164.79	18.508
1168.44	30.437
1172.09	21.326
1175.73	40.198
1179.38	44.109
1183.02	32.032
1186.66	61.826
1190.3	19.055
1193.94	36.867
1197.58	39.579
1201.21	26.678
1204.84	49.295
1208.47	36.855
1212.1	18.964
1215.72	16.242
1219.35	58.29
1222.97	33.651
1226.59	8.529
1230.21	38.635
1233.83	42.654
1237.45	11.682
1241.06	18.774
1244.67	24.841
1248.28	26.951
1251.89	25.531
1255.5	23.323
1259.1	32.742
1262.7	37.85
1266.31	5.944
1269.9	42.031
1273.5	2.114
1277.1	49.198
1280.69	26.276
1284.29	6.288
1287.88	56.212
1291.46	9.085
1295.05	15.927
1298.64	38.738
1302.22	3.562
1305.8	34.062
1309.38	23.643
1312.96	9.093
1316.54	15.624
1320.11	7.033
1323.68	28.398
1327.25	33.711
1330.82	13.036
1334.39	0.139
1337.96	6.75
1341.52	27.708
1345.08	27.249
1348.64	25.158
1352.2	10.018
1355.76	33.84
1359.31	22.634
1362.87	2.411
1366.42	8.177
1369.97	26.07
1373.52	7.851
1377.06	25.1
1380.61	24.804
1384.15	8.907
1387.69	26.736
1391.23	24.806
1394.77	25.3
1398.3	5.017
1401.84	24.719
1405.37	67.145
1408.9	100.317
1412.43	114.82
1415.96	141.193
1419.48	138.662
1423.01	131.237
1426.53	124.462
1430.05	113.269
1433.57	120.925
1437.08	129.086
1440.6	103.876
1444.11	78.982
1447.62	105.82
1451.13	86.251
1454.64	77.642
1458.15	63.609
1461.65	28.878
1465.16	46.187
1468.66	38.88
1472.16	44.823
1475.65	0.336
1479.15	0.875
1482.64	10.219
1486.14	37.887
1489.63	3.689
1493.12	15.815
1496.61	18.407
1500.09	21.662
1503.58	34.924
1507.06	44.021
1510.54	23.507
