Measurement: Raman, 514 nm, ccw, Raman Data Processed
Mineral: Rhodochrosite
Rruff sample: R050019
Ideal chemistry: MnCO_3_
Locality: Home Sweet Home mine, Colorado, USA
Source: Eugene Schlepp
Description: Pink single crystal rhombs on quartz
Measured chemistry: Mn_1.00_CO_3_
Pin_id: L00297
Orientation: Laser parallel to a* (1 0 0). Fiducial mark perpendicular to laser is parallel to c [0 0 1]
Raman shift (cm-1)	intensity
112.063	0
116.256	3.216
120.447	0.118
124.636	28.657
128.822	22.119
133.006	24.069
137.188	27.274
141.368	35.287
145.545	41.558
149.72	40.511
153.893	53.413
158.064	72.217
162.233	75.952
166.399	132.254
170.563	221.918
174.725	476.389
178.885	1529.49
183.043	2945.26
187.198	1433.6
191.351	430.965
195.502	139.377
199.651	45.805
203.797	73.243
207.942	35.699
212.084	30.182
216.224	12.685
220.362	14.212
224.497	4.765
228.631	0.672
232.762	13.899
236.891	10.475
241.018	6.943
245.143	27.646
249.265	36.236
253.386	32.225
257.504	26.495
261.62	11.055
265.734	32.611
269.845	51.156
273.955	57.32
278.062	151.014
282.167	404.645
286.27	953.129
290.371	1055.79
294.47	563.469
298.567	255.169
302.661	142.88
306.753	76.856
310.843	55.577
314.931	71.297
319.017	49.017
323.101	24.81
327.182	13.026
331.261	23.743
335.339	16.445
339.414	21.144
343.487	37.879
347.557	15.555
351.626	14.218
355.693	5.89
359.757	30.575
363.819	14.265
367.879	48.96
371.937	31.66
375.993	13.376
380.047	10.086
384.099	18.427
388.148	21.218
392.196	34.394
396.241	14.571
400.284	28.291
404.325	19.358
408.364	14.123
412.401	28.854
416.435	28.563
420.468	35.288
424.498	11.017
428.527	22.745
432.553	15.476
436.577	2.202
440.599	13.383
444.619	38.144
448.637	11.884
452.653	16.635
456.667	18.325
460.678	17.3
464.688	6.068
468.695	22.839
472.701	19.607
476.704	2.377
480.705	14.15
484.704	8.923
488.701	19.951
492.696	22.714
496.689	29.479
500.68	5.249
504.668	49.021
508.655	22.795
512.639	30.571
516.622	40.544
520.602	24.933
524.581	20.726
528.557	46.531
532.531	28.348
536.503	27.181
540.473	0.021
544.441	1.118
548.407	2.746
552.371	52.271
556.333	26.644
560.293	7.387
564.251	0.752
568.206	23.112
572.16	19.977
576.112	15.446
580.061	8.753
584.009	16.646
587.954	36.938
591.897	22.839
595.839	7.33
599.778	0.31
603.716	2.579
607.651	13.989
611.584	2.518
615.515	0.436
619.444	24.321
623.372	40.429
627.297	39.056
631.22	19.917
635.141	5.773
639.06	8.624
642.977	18.396
646.892	49.833
650.805	28.686
654.716	14.641
658.625	13.667
662.532	32.526
666.437	40.381
670.34	2.191
674.241	3.14
678.139	32.269
682.036	14.708
685.931	45.369
689.824	6.003
693.715	39.797
697.604	48.969
701.491	75.364
705.376	82.061
709.259	115.75
713.139	441.997
717.018	2849.68
720.895	1556.34
724.77	315.993
728.643	103.457
732.514	88.352
736.383	68.531
740.25	67.14
744.115	62.746
747.978	40.808
751.839	12.92
755.698	25.447
759.555	33.974
763.41	4.491
767.263	11.985
771.114	29.903
774.964	23.351
778.811	23.777
782.656	24.188
786.499	25.585
790.341	39.969
794.18	32.233
798.017	15.695
801.853	38.78
805.686	41.115
809.518	36.434
813.347	14.735
817.175	10.02
821.001	12.292
824.824	41.932
828.646	39.427
832.466	7.045
836.284	10.854
840.1	10.698
843.914	13.413
847.726	24.516
851.536	11.566
855.344	27.581
859.15	17.581
862.954	7.792
866.756	13.559
870.557	7.537
874.355	43.507
878.152	43.469
881.946	1.588
885.739	7.67
889.53	23.226
893.318	17.115
897.105	15.002
900.89	12.842
904.673	23.673
908.454	18.389
912.234	27.224
916.011	20.892
919.786	5.705
923.56	13.495
927.331	29.302
931.101	13.883
934.868	14.682
938.634	51.504
942.398	46.335
946.16	1.172
949.92	4.023
953.678	36.787
957.435	14.625
961.189	19.359
964.941	2.021
968.692	13.793
972.441	14.64
976.187	10.516
979.932	3.247
983.675	16.111
987.416	3.121
991.155	22.162
994.893	43.105
998.628	89.983
1002.36	107.483
1006.09	143.698
1009.82	160.683
1013.55	192.681
1017.28	194.677
1021	230.689
1024.72	234.696
1028.44	254.757
1032.16	283.82
1035.88	240.284
1039.59	291.388
1043.31	400.516
1047.02	441.703
1050.73	542.395
1054.43	660.64
1058.14	832.906
1061.84	1264.19
1065.54	1268.5
1069.24	1423.86
1072.94	2294.64
1076.64	4566.06
1080.33	18598.5
1084.03	64406.9
1087.71	18576.2
1091.4	3998.63
1095.09	1544.6
1098.78	886.008
1102.46	647.52
1106.14	495.239
1109.82	382.772
1113.5	265.319
1117.17	217.48
1120.85	208.175
1124.52	180.411
1128.19	152.999
1131.86	141.029
1135.52	137.313
1139.19	141.039
1142.85	129.749
1146.51	87.434
1150.17	54.148
1153.83	38.877
1157.48	56.116
1161.14	80.96
1164.79	58.731
1168.44	55.725
1172.09	34.036
1175.73	45.041
1179.38	23.845
1183.02	43.745
1186.66	19.659
1190.3	35.005
1193.94	38.356
1197.58	53.531
1201.21	32.705
1204.84	12.933
1208.47	2.842
1212.1	20.886
1215.72	29.767
1219.35	36.748
1222.97	31.871
1226.59	28.005
1230.21	37.79
1233.83	24.559
1237.45	5.622
1241.06	14.865
1244.67	11.86
1248.28	14.593
1251.89	47.211
1255.5	32.813
1259.1	8.602
1262.7	15.967
1266.31	5.529
1269.9	11.079
1273.5	8.382
1277.1	4.873
1280.69	27.596
1284.29	11.022
1287.88	34.376
1291.46	32.671
1295.05	23.92
1298.64	38.686
1302.22	10.258
1305.8	35.366
1309.38	3.443
1312.96	30.484
1316.54	9.491
1320.11	35.481
1323.68	17.405
1327.25	21.287
1330.82	4.871
1334.39	10.08
1337.96	0.341
1341.52	4.409
1345.08	23.367
1348.64	64.032
1352.2	32.676
1355.76	36.243
1359.31	42.749
1362.87	6.202
1366.42	17.665
1369.97	17.07
1373.52	21.686
1377.06	10.661
1380.61	36.503
1384.15	21.525
1387.69	69.734
1391.23	40.095
1394.77	47.133
1398.3	37.581
1401.84	76.457
1405.37	201.443
1408.9	648.741
1412.43	625.476
1415.96	322.22
1419.48	184.151
1423.01	139.479
1426.53	151.198
1430.05	122.099
1433.57	130.343
1437.08	81.988
1440.6	73.974
1444.11	69.861
1447.62	52.133
1451.13	47.33
1454.64	33.527
1458.15	71.827
1461.65	52.926
1465.16	78.814
1468.66	83.564
1472.16	33.441
1475.65	42.641
1479.15	3.127
1482.64	5.277
1486.14	9.4
1489.63	15.069
1493.12	16.114
1496.61	22.522
1500.09	47.787
1503.58	43.715
1507.06	90.337
1510.54	47.521
1514.02	0
