Measurement: Raman, 514 nm, ccw, Raman Data Processed
Mineral: Rhodochrosite
Rruff sample: R050019
Ideal chemistry: MnCO_3_
Locality: Home Sweet Home mine, Colorado, USA
Source: Eugene Schlepp
Description: Pink single crystal rhombs on quartz
Measured chemistry: Mn_1.00_CO_3_
Pin_id: L00392
Orientation: Laser parallel to -c* (0 0 -1). Fiducial mark perpendicular to laser is parallel to -a [-1 0 0]
Raman shift (cm-1)	intensity
99.471	0
103.67	14.905
107.868	119.76
112.063	227.028
116.256	51.53
120.447	47.653
124.636	60.527
128.822	25.507
133.006	44.295
137.188	12.237
141.368	22.766
145.545	25.449
149.72	71.248
153.893	58.156
158.064	76.232
162.233	126.407
166.399	134.952
170.563	248.091
174.725	603.636
178.885	1917.16
183.043	3369.44
187.198	1475.74
191.351	449.057
195.502	166.425
199.651	81.858
203.797	36.346
207.942	72.892
212.084	28.519
216.224	9.912
220.362	13.906
224.497	35.606
228.631	4.63
232.762	12.514
236.891	6.394
241.018	18.431
245.143	13.882
249.265	5.471
253.386	21.426
257.504	5.829
261.62	1.521
265.734	23.556
269.845	24.441
273.955	37.026
278.062	130.532
282.167	323.187
286.27	794.955
290.371	798.262
294.47	361.195
298.567	165.145
302.661	108.23
306.753	31.246
310.843	22.558
314.931	34.599
319.017	49.747
323.101	20.817
327.182	6.893
331.261	48.966
335.339	34.009
339.414	2.006
343.487	7.988
347.557	24.976
351.626	52.004
355.693	36.028
359.757	15.029
363.819	18.033
367.879	31.039
371.937	19.313
375.993	15.586
380.047	5.574
384.099	29.567
388.148	3.202
392.196	9.664
396.241	26.26
400.284	14.043
404.325	6.52
408.364	24.775
412.401	28.598
416.435	28.54
420.468	24.255
424.498	2.076
428.527	20.031
432.553	46.892
436.577	21.753
440.599	16.613
444.619	11.899
448.637	40.762
452.653	27.599
456.667	10.425
460.678	3.256
464.688	36.398
468.695	42.215
472.701	22.021
476.704	1.804
480.705	75.119
484.704	54.866
488.701	15.423
492.696	9.844
496.689	20.581
500.68	66.154
504.668	42.164
508.655	17.93
512.639	19.669
516.622	42.354
520.602	39.76
524.581	42.505
528.557	1.155
532.531	6.081
536.503	25.749
540.473	39.196
544.441	0.404
548.407	20.572
552.371	50.185
556.333	31.568
560.293	28.158
564.251	7.412
568.206	60.173
572.16	63.745
576.112	17.738
580.061	11.711
584.009	3.721
587.954	22.622
591.897	28.121
595.839	13.304
599.778	30.788
603.716	28.253
607.651	24.693
611.584	33.661
615.515	62.049
619.444	2.509
623.372	26.631
627.297	78.866
631.22	69.949
635.141	0.925
639.06	18.561
642.977	80.204
646.892	67.896
650.805	48.381
654.716	4.686
658.625	0.024
662.532	33.756
666.437	47.944
670.34	46.173
674.241	25.407
678.139	7.665
682.036	41.925
685.931	50.693
689.824	34.612
693.715	49.613
697.604	59.924
701.491	101.854
705.376	107.018
709.259	188.181
713.139	593.296
717.018	3599.42
720.895	1664.82
724.77	368.923
728.643	123.006
732.514	89.073
736.383	51.205
740.25	52.183
744.115	68.245
747.978	26.296
751.839	10.341
755.698	13.369
759.555	35.045
763.41	29.04
767.263	26.039
771.114	1.028
774.964	9.011
778.811	10.067
782.656	48.464
786.499	71.367
790.341	6.724
794.18	2.383
798.017	5.506
801.853	57.568
805.686	11.386
809.518	11.116
813.347	21.26
817.175	0.242
821.001	35.446
824.824	29.145
828.646	51.443
832.466	8.234
836.284	8.09
840.1	9.095
843.914	64.022
847.726	47.639
851.536	42.245
855.344	25.844
859.15	7.438
862.954	30.025
866.756	57.605
870.557	30.179
874.355	44.75
878.152	42.323
881.946	5.89
885.739	52.452
889.53	11.017
893.318	65.588
897.105	24.1
900.89	4.677
904.673	53.245
908.454	23.82
912.234	11.414
916.011	29.966
919.786	34.543
923.56	5.013
927.331	18.809
931.101	30.572
934.868	43.089
938.634	44.653
942.398	5.207
946.16	33.461
949.92	21.473
953.678	12.226
957.435	85.629
961.189	26.21
964.941	17.286
968.692	8.678
972.441	9.44
976.187	12.133
979.932	5.305
983.675	23.233
987.416	40.045
991.155	13.791
994.893	28.372
998.628	68.963
1002.36	101.438
1006.09	143.057
1009.82	169.677
1013.55	136.322
1017.28	144.976
1021	170.649
1024.72	181.334
1028.44	191.029
1032.16	183.731
1035.88	205.462
1039.59	210.504
1043.31	204.521
1047.02	261.792
1050.73	369.962
1054.43	462.81
1058.14	550.651
1061.84	863.445
1065.54	872.609
1069.24	961.531
1072.94	1494.43
1076.64	3020.4
1080.33	11910.4
1084.03	58716.8
1087.71	12533.9
1091.4	2742.02
1095.09	1043.2
1098.78	612.245
1102.46	437.464
1106.14	347.718
1109.82	238.376
1113.5	232.583
1117.17	173.523
1120.85	125.483
1124.52	106.094
1128.19	77.676
1131.86	110.013
1135.52	114.313
1139.19	106.347
1142.85	60.648
1146.51	61.04
1150.17	48.914
1153.83	7.258
1157.48	65.594
1161.14	67.537
1164.79	82.135
1168.44	55.515
1172.09	20.829
1175.73	16.315
1179.38	9.112
1183.02	9.167
1186.66	34.544
1190.3	34.87
1193.94	46.155
1197.58	12.446
1201.21	4.704
1204.84	48.697
1208.47	-5.986
1212.1	39.929
1215.72	17.385
1219.35	44.954
1222.97	70.039
1226.59	41.07
1230.21	27.134
1233.83	43.705
1237.45	8.169
1241.06	18.943
1244.67	18.204
1248.28	57.447
1251.89	87.569
1255.5	83.711
1259.1	81.787
1262.7	8.855
1266.31	23.909
1269.9	8.96
1273.5	59.01
1277.1	47.049
1280.69	61.04
1284.29	61.978
1287.88	62.902
1291.46	42.768
1295.05	32.564
1298.64	63.288
1302.22	3.077
1305.8	34.462
1309.38	44.932
1312.96	107.356
1316.54	90.743
1320.11	85.091
1323.68	51.394
1327.25	20.355
1330.82	11.452
1334.39	32.44
1337.96	33.06
1341.52	39.76
1345.08	49.773
1348.64	50.783
1352.2	50.76
1355.76	80.475
1359.31	57.458
1362.87	29.261
1366.42	2.639
1369.97	22.76
1373.52	12.828
1377.06	65.967
1380.61	53.626
1384.15	57.213
1387.69	92.306
1391.23	92.902
1394.77	68.479
1398.3	74.967
1401.84	90.475
1405.37	77.243
1408.9	91.009
1412.43	85.091
1415.96	90.412
1419.48	103.933
1423.01	95.525
1426.53	126.801
1430.05	152.076
1433.57	156.107
1437.08	176.311
1440.6	120.837
1444.11	119.943
1447.62	94.005
1451.13	92.076
1454.64	82.366
1458.15	128.771
1461.65	155.951
1465.16	114.858
1468.66	152.689
1472.16	114.399
1475.65	55.375
1479.15	73.945
1482.64	32.27
1486.14	54.899
1489.63	40.961
1493.12	25.803
1496.61	86.813
1500.09	85.268
1503.58	122.01
1507.06	134.626
1510.54	63.715
