Measurement: Raman, 514 nm, ccw, Raman Data Processed
Mineral: Rhodizite
Rruff sample: R050099
Ideal chemistry: KAl_4_Be_5_B_11_O_28_
Locality: Mont Ibity, Antsirabe, Madagascar
Source: Rock Currier
Description: Pale green single crystals
Measured chemistry: ([box]_0.49_K_0.32_Rb_0.17_Na_0.02_)(Al_3.96_Si_0.04_)_Σ=4_Be_4.00_(B_11.45_Be_0.55_)_Σ=12_O_28_
Pin_id: L00516
Orientation: Laser parallel to a* (1 0 0). Fiducial mark perpendicular to laser is parallel to b [0 1 0]
Raman shift (cm-1)	intensity
101.036	0
105.212	239.8
109.387	208.595
113.559	368.455
117.729	1071.17
121.897	424.907
126.063	64.974
130.228	200.174
134.39	215.241
138.55	308.988
142.709	408.967
146.865	256.281
151.019	230.937
155.171	200.947
159.322	237.533
163.47	206.217
167.617	134.73
171.761	119.539
175.904	98.625
180.044	235.304
184.183	291.687
188.319	175.754
192.454	337.375
196.586	338.884
200.717	287.364
204.846	343.557
208.972	143.479
213.097	134.366
217.22	64.52
221.341	156.412
225.46	79.347
229.577	86.657
233.692	68.409
237.805	33.048
241.916	116.591
246.025	152.621
250.132	116.563
254.237	70.405
258.34	98.912
262.442	2.403
266.541	76.021
270.639	2.97
274.734	32.92
278.828	32.152
282.919	43.793
287.009	189.309
291.097	423.16
295.183	730.656
299.266	827.622
303.348	467.9
307.428	233.62
311.507	273.787
315.583	217.718
319.657	120.366
323.729	35.223
327.8	122.857
331.868	36.216
335.935	13.031
339.999	118.729
344.062	280.835
348.123	290.995
352.182	269.981
356.239	355.565
360.294	314.11
364.347	462.143
368.398	357.18
372.448	428.885
376.495	433.706
380.54	443.165
384.584	492.018
388.626	453.715
392.666	595.256
396.704	689.068
400.74	1109.81
404.774	1383.86
408.806	1313.51
412.836	1841.35
416.865	2920.41
420.891	5050.89
424.916	10014.8
428.939	19275.1
432.959	22361.5
436.978	11053.6
440.996	5150.28
445.011	3123.9
449.024	2442.43
453.036	2623.12
457.045	4115.88
461.053	7713.61
465.059	15711.7
469.063	27920.5
473.065	27432.4
477.065	15130.6
481.063	7582.27
485.06	4038.93
489.054	2137.03
493.047	1204.07
497.038	665.42
501.027	550.908
505.014	506.637
508.999	528.936
512.982	497.822
516.964	387.383
520.944	422.975
524.921	329.068
528.897	362.74
532.871	495.002
536.844	634.824
540.814	1345.85
544.783	2499.02
548.749	1724.57
552.714	962.715
556.677	550.469
560.638	365.064
564.597	251.746
568.555	312.393
572.511	230.947
576.464	27.17
580.416	34.846
584.366	5.125
588.315	21.043
592.261	29.711
596.206	134.449
600.148	49.623
604.089	70.938
608.028	76.545
611.965	85.965
615.901	84.941
619.834	8.852
623.766	60.484
627.696	160.084
631.624	89.254
635.551	403.098
639.475	595.625
643.398	674.82
647.318	1445.75
651.237	2865.41
655.155	2293.83
659.07	1293.05
662.984	660.973
666.895	335.23
670.805	563.676
674.713	364.607
678.62	323.506
682.524	208.611
686.427	381.816
690.328	442.154
694.227	402.395
698.124	56.322
702.02	154.016
705.913	365.404
709.805	168.441
713.695	185.127
717.584	412.17
721.47	52.07
725.355	138.086
729.238	18.682
733.119	89.949
736.998	71.129
740.876	52.432
744.752	9.562
748.626	187.57
752.498	194.291
756.368	191.379
760.237	129.189
764.104	109.973
767.969	149.842
771.832	397.566
775.693	406.213
779.553	691.508
783.411	681.361
787.267	1068.89
791.122	1789.07
794.974	2534.81
798.825	2828.1
802.674	2588.94
806.522	2250.33
810.367	2269.79
814.211	2230.35
818.053	1699.25
821.893	1436.38
825.732	1111.53
829.568	803.178
833.403	876.123
837.236	1007.25
841.068	737.104
844.898	680.578
848.726	828.236
852.552	583.715
856.376	542.318
860.199	726.254
864.02	678.168
867.839	631.27
871.656	104.506
875.472	251.02
879.286	357.656
883.098	358.912
886.909	344.553
890.717	242.084
894.524	151.48
898.33	205.225
902.133	257.984
905.935	370.738
909.735	215.691
913.533	123.053
917.33	66.84
921.124	361.994
924.918	77.176
928.709	169.227
932.499	61.201
936.286	46.512
940.073	237.994
943.857	165.926
947.64	303.473
951.421	304.162
955.2	365.383
958.978	137.42
962.753	119.701
966.527	91.801
970.3	495.156
974.071	493.379
977.84	451.488
981.607	344.477
985.372	21.641
989.136	53.07
992.898	30.328
996.659	212.977
1000.42	265.906
1004.17	100.453
1007.93	111.152
1011.68	274.078
1015.43	301.906
1019.18	379.746
1022.93	618.727
1026.68	358.242
1030.42	459.664
1034.17	128.16
1037.91	550.371
1041.65	701.836
1045.39	840.531
1049.12	1006.8
1052.86	809.18
1056.59	481.055
1060.33	443.316
1064.06	539
1067.78	1036.09
1071.51	1067.04
1075.23	1057.81
1078.96	936.477
1082.68	917.402
1086.4	527.184
1090.12	704.922
1093.83	944.512
1097.55	1329.04
1101.26	1119.32
1104.97	900.836
1108.68	733.336
1112.39	344.301
1116.1	335.871
1119.8	568.984
1123.5	664.211
1127.2	902.668
1130.9	484.332
1134.6	859.852
1138.3	201.016
1141.99	34.254
1145.69	587.277
1149.38	909.727
1153.07	1189.01
1156.76	762.785
1160.44	729.551
1164.13	443.852
1167.81	446.051
1171.49	785.051
1175.17	650.625
1178.85	918.223
1182.52	347.855
1186.2	1032.86
1189.87	666.062
1193.54	796.02
1197.21	986.004
1200.88	1247.22
1204.55	2485.06
1208.21	3093.57
1211.88	2683.83
1215.54	3073.23
1219.2	3078.67
1222.86	3086.25
1226.51	3139.99
1230.17	3140
1233.82	2867.93
1237.47	3123.76
1241.12	3105.12
1244.77	2980.2
1248.42	1897.04
1252.06	1650.65
1255.71	1208.18
1259.35	812.73
1262.99	1198.38
1266.63	983.227
1270.26	1226.43
1273.9	1250.25
1277.53	810.91
1281.16	439.656
1284.8	222.832
1288.42	32.891
1292.05	151.602
1295.68	13.148
1299.3	1063.22
1302.92	342.684
1306.55	346.172
1310.16	328.055
1313.78	341.387
