Measurement: Raman, 514 nm, ccw, Raman Data Processed
Mineral: Rhodochrosite
Rruff sample: R050116
Ideal chemistry: MnCO_3_
Locality: Wudong mine, Liubao, Guangxi Autonomous Region, China
Source: He Xin Jian
Description: Pink crystal associated with colorless quartz
Measured chemistry: (Mn_0.81_Fe_0.17_Mg_0.01_Ca_0.01_)CO_3_
Pin_id: L00413
Orientation: Laser parallel to c* (0 0 1). Fiducial mark perpendicular to laser is parallel to a [1 0 0]
Raman shift (cm-1)	intensity
53.126	0
57.35	113.285
61.572	134.35
65.792	122.963
70.01	114.144
74.225	173.24
78.438	69.524
82.649	17.14
86.858	10.171
91.065	1.701
95.269	36.662
99.471	57.884
103.67	82.401
107.868	88.795
112.063	95.783
116.256	105.383
120.447	68.672
124.636	80.735
128.822	66.188
133.006	91.773
137.188	73.875
141.368	95.415
145.545	117.753
149.72	133.772
153.893	145.399
158.064	203.023
162.233	258.017
166.399	319.175
170.563	460.309
174.725	876.397
178.885	1803.44
183.043	2606.66
187.198	1619.96
191.351	641.257
195.502	280.89
199.651	126.454
203.797	51.974
207.942	27.018
212.084	9.735
216.224	4.332
220.362	5.326
224.497	6.913
228.631	9.129
232.762	8.719
236.891	12.398
241.018	20.875
245.143	3.557
249.265	21.483
253.386	23.692
257.504	7.745
261.62	3.432
265.734	29.819
269.845	74.012
273.955	103.243
278.062	177.097
282.167	315.98
286.27	538.474
290.371	532.935
294.47	315.272
298.567	177.793
302.661	98.033
306.753	62.274
310.843	25.574
314.931	46.832
319.017	36.018
323.101	38.422
327.182	31.241
331.261	8.3
335.339	36.33
339.414	2.331
343.487	30.304
347.557	29.246
351.626	24.16
355.693	6.044
359.757	39.893
363.819	32.712
367.879	39.24
371.937	30.38
375.993	21.331
380.047	25.823
384.099	20.78
388.148	1.479
392.196	14.986
396.241	18.538
400.284	16.027
404.325	0.601
408.364	1.782
412.401	3.034
416.435	15.516
420.468	5.995
424.498	16.594
428.527	16.356
432.553	6.512
436.577	9.691
440.599	1.119
444.619	20.056
448.637	17.187
452.653	11.296
456.667	25.876
460.678	25.947
464.688	39.021
468.695	44.229
472.701	50.106
476.704	37.106
480.705	76.159
484.704	55.694
488.701	58.51
492.696	83.118
496.689	83.9
500.68	56.637
504.668	71.322
508.655	83.964
512.639	88.084
516.622	76.744
520.602	75.632
524.581	74.613
528.557	62.442
532.531	63.319
536.503	70.932
540.473	62.704
544.441	59.591
548.407	49.303
552.371	59.841
556.333	41.675
560.293	38.529
564.251	30.709
568.206	47.49
572.16	49.342
576.112	38.272
580.061	27.033
584.009	16.993
587.954	25.98
591.897	13.909
595.839	4.781
599.778	3.694
603.716	8.724
607.651	20.734
611.584	23.788
615.515	9.982
619.444	27.198
623.372	29.646
627.297	13.714
631.22	4.752
635.141	5.702
639.06	11.311
642.977	24.675
646.892	5.818
650.805	23.482
654.716	8.837
658.625	11.723
662.532	17.807
666.437	3.069
670.34	14.852
674.241	33.869
678.139	28.145
682.036	22.919
685.931	42.616
689.824	22.363
693.715	35.087
697.604	35.929
701.491	85.456
705.376	109.131
709.259	167.808
713.139	430.452
717.018	1548.12
720.895	2003.8
724.77	812.414
728.643	303.159
732.514	134.115
736.383	63.669
740.25	67.234
744.115	50.949
747.978	29.906
751.839	31.731
755.698	29.946
759.555	19.342
763.41	45.912
767.263	5.276
771.114	10.594
774.964	30.154
778.811	16.398
782.656	29.467
786.499	44.631
790.341	9.775
794.18	6.999
798.017	8.086
801.853	10.081
805.686	24.045
809.518	13.961
813.347	7.828
817.175	12.669
821.001	7.992
824.824	11.189
828.646	2.296
832.466	10.46
836.284	8.154
840.1	7.859
843.914	15.537
847.726	17.186
851.536	2.187
855.344	14.401
859.15	3.966
862.954	18.516
866.756	15.053
870.557	16.576
874.355	12.087
878.152	21.079
881.946	23.066
885.739	23.533
889.53	16.303
893.318	1.576
897.105	8.15
900.89	6.745
904.673	14.357
908.454	4.005
912.234	0.576
916.011	6.702
919.786	3.766
923.56	11.003
927.331	20.217
931.101	1.073
934.868	16.324
938.634	32.583
942.398	11.874
946.16	15.379
949.92	16.449
953.678	12.612
957.435	11.242
961.189	28.151
964.941	1.507
968.692	21.716
972.441	8.845
976.187	4.203
979.932	20.033
983.675	18.455
987.416	24.943
991.155	35.518
994.893	30.062
998.628	47.635
1002.36	92.757
1006.09	131.891
1009.82	156.523
1013.55	164.194
1017.28	206.894
1021	233.587
1024.72	246.275
1028.44	297.048
1032.16	298.695
1035.88	287.146
1039.59	334.014
1043.31	338.773
1047.02	437.142
1050.73	576.742
1054.43	713.951
1058.14	923.996
1061.84	1273.06
1065.54	1474.01
1069.24	1748.19
1072.94	2923.69
1076.64	6395.97
1080.33	22492.3
1084.03	57100.7
1087.71	24889.1
1091.4	6217.61
1095.09	2221.12
1098.78	1139.92
1102.46	740.536
1106.14	481.196
1109.82	384.898
1113.5	279.618
1117.17	247.389
1120.85	201.192
1124.52	190.033
1128.19	138.812
1131.86	117.659
1135.52	110.685
1139.19	122.14
1142.85	86.23
1146.51	100.369
1150.17	49.092
1153.83	68.455
1157.48	67.596
1161.14	36.202
1164.79	56.386
1168.44	43.627
1172.09	37.897
1175.73	34.141
1179.38	28.038
1183.02	23.161
1186.66	43.573
1190.3	45.274
1193.94	42.049
1197.58	48.183
1201.21	23.775
1204.84	18.656
1208.47	8.348
1212.1	28.879
1215.72	38.793
1219.35	38.327
1222.97	63.049
1226.59	27.429
1230.21	14.045
1233.83	22.551
1237.45	20.708
1241.06	8.658
1244.67	24.06
1248.28	51.916
1251.89	45.748
1255.5	26.356
1259.1	22.082
1262.7	20.668
1266.31	38.216
1269.9	0.732
1273.5	0.252
1277.1	23.763
1280.69	53.257
1284.29	36.732
1287.88	49.151
1291.46	34.532
1295.05	3.156
1298.64	12.101
1302.22	11.268
1305.8	36.399
1309.38	21.49
1312.96	19.539
1316.54	25.548
1320.11	19.522
1323.68	33.455
1327.25	14.337
1330.82	0.173
1334.39	1.039
1337.96	16.705
1341.52	1.404
1345.08	15.053
1348.64	-3.587
1352.2	13.932
1355.76	15.845
1359.31	23.383
1362.87	17.025
1366.42	34.572
1369.97	1.364
1373.52	23.127
1377.06	28.333
1380.61	51.764
1384.15	45.164
1387.69	42.538
1391.23	21.891
1394.77	32.213
1398.3	26.938
1401.84	18.698
1405.37	25.722
1408.9	42.267
1412.43	75.342
1415.96	71.396
1419.48	117.232
1423.01	126.958
1426.53	129.436
1430.05	129.43
1433.57	122.801
1437.08	128.364
1440.6	93.425
1444.11	71.924
1447.62	88.833
1451.13	91.835
1454.64	87.979
1458.15	53.098
1461.65	63.622
1465.16	28.811
1468.66	48.77
1472.16	59.659
1475.65	40.604
1479.15	37.379
1482.64	36.229
1486.14	30.717
1489.63	23.556
1493.12	20.714
1496.61	7.204
1500.09	23.139
1503.58	46.933
1507.06	33.565
