Measurement: Raman, 514 nm, ccw, Raman Data Processed
Mineral: Rhodochrosite
Rruff sample: R040133
Ideal chemistry: MnCO_3_
Locality: Imuris, Sonora, Mexico
Source: University of Arizona Mineral Museum
Description: Pink cleavage fragment
Measured chemistry: (Mn_0.92_Mg_0.02_Ca_0.01_)C_1.02_O_3_
Pin_id: L00279
Orientation: Laser parallel to a* (1 0 0). Fiducial mark perpendicular to laser is parallel to c [0 0 1]
Raman shift (cm-1)	intensity
122.654	0
126.804	20.184
130.953	0.373
135.1	18.268
139.245	9.396
143.388	8.825
147.529	7.206
151.669	18.826
155.806	46.176
159.942	44.078
164.076	59.352
168.209	80.643
172.339	160.163
176.468	413.497
180.594	1165.86
184.719	1904.61
188.843	1111.93
192.964	330.545
197.084	134.38
201.201	71.98
205.317	52.558
209.432	40.172
213.544	18.827
217.655	18.509
221.763	7.215
225.87	9.928
229.976	1.803
234.079	2.517
238.181	6.55
242.28	11.695
246.378	3.091
250.475	4.757
254.569	7.415
258.662	4.142
262.753	14.21
266.842	11.781
270.929	36.552
275.014	73.071
279.098	165.447
283.18	438.847
287.26	851.52
291.339	988.77
295.415	561.85
299.49	221.977
303.563	126.951
307.634	79.803
311.704	48.037
315.772	52.939
319.837	41.808
323.902	32.598
327.964	39.334
332.025	17.035
336.084	13.69
340.141	24.294
344.196	31.049
348.25	11.296
352.302	26.664
356.352	27.037
360.4	8.38
364.446	18.717
368.491	16.05
372.534	16.372
376.576	18.595
380.615	12.713
384.653	21.833
388.689	7.875
392.723	2.708
396.756	4.333
400.786	11.565
404.815	7.063
408.843	1.271
412.868	6.152
416.892	6.009
420.914	22.974
424.934	13.901
428.953	8.956
432.97	5.284
436.985	10.539
440.998	8.74
445.01	4.838
449.02	12.938
453.028	7.025
457.034	6.336
461.039	14.495
465.042	5.527
469.043	4.456
473.043	6.574
477.041	6.554
481.037	13.511
485.031	20.479
489.024	13.421
493.014	26.326
497.004	14.199
500.991	17.26
504.977	7.164
508.961	16.965
512.943	5.777
516.924	5.592
520.902	10.387
524.88	14.205
528.855	10.025
532.829	4.915
536.801	8.753
540.771	3.601
544.74	6.423
548.707	4.219
552.672	1.994
556.635	8.397
560.597	3.221
564.557	1.992
568.515	8.808
572.472	12.381
576.427	12.163
580.38	8.852
584.332	10.694
588.282	3.511
592.23	9.31
596.176	1.87
600.121	5.889
604.064	14.694
608.006	12.503
611.946	1.687
615.884	10.108
619.82	3.854
623.755	18.622
627.688	1.113
631.619	4.801
635.548	8.574
639.476	7.759
643.403	6.787
647.327	4.567
651.25	0.308
655.171	10.153
659.091	9.32
663.009	11.288
666.925	14.071
670.839	14.762
674.752	20.447
678.664	19.027
682.573	14.453
686.481	5.215
690.387	19.979
694.292	24.776
698.194	28.5
702.096	48.539
705.995	59.111
709.893	105.945
713.789	426.525
717.684	1890.08
721.576	1404.61
725.468	290.138
729.357	107.737
733.245	44.381
737.131	22.912
741.016	34.442
744.899	22.052
748.78	18.492
752.66	5.317
756.538	22.821
760.414	13.669
764.289	8.359
768.162	5.705
772.033	18.261
775.903	9.56
779.771	15.981
783.638	12.619
787.502	7.824
791.366	3.214
795.227	1.408
799.087	3.928
802.945	19.26
806.802	6.563
810.657	12.884
814.51	2.024
818.362	2.307
822.212	3.576
826.061	9.831
829.907	8.918
833.753	2.698
837.596	3.5
841.438	0.355
845.278	1.214
849.117	2.076
852.954	7.033
856.79	0.14
860.624	18.233
864.456	23.318
868.286	11.392
872.115	12.461
875.943	6.525
879.768	1.584
883.593	11.638
887.415	9.685
891.236	3.728
895.055	1.233
898.873	5.801
902.689	10.167
906.503	1.83
910.316	10.839
914.128	0.845
917.937	0.161
921.745	0.18
925.552	2.814
929.356	11.809
933.16	3.194
936.961	3.803
940.761	15.789
944.56	33.731
948.356	29.064
952.152	14.048
955.945	22.05
959.737	10.06
963.528	7.97
967.317	15.498
971.104	14.253
974.89	15.25
978.674	0.304
982.456	10.644
986.237	7.21
990.016	20.472
993.794	25.651
997.57	34.566
1001.35	50.648
1005.12	68.666
1008.89	96.321
1012.66	118.459
1016.43	141.382
1020.19	160.558
1023.96	186.755
1027.72	190.923
1031.48	203.151
1035.24	210.341
1039	206.502
1042.76	244.78
1046.52	288.016
1050.27	362.259
1054.02	417.903
1057.77	483.271
1061.52	592.649
1065.27	924.699
1069.02	989.901
1072.76	1123.37
1076.51	1724.58
1080.25	3482.1
1083.99	13159.5
1087.72	58079.1
1091.46	16918.7
1095.2	3794.3
1098.93	1477.92
1102.66	775.572
1106.39	472.238
1110.12	336.419
1113.85	259.623
1117.58	212.707
1121.3	166.113
1125.02	130.864
1128.74	112.627
1132.46	120.403
1136.18	91.199
1139.9	71.612
1143.61	72.552
1147.33	52.837
1151.04	50.69
1154.75	47.548
1158.46	49.415
1162.17	32.526
1165.87	26.341
1169.58	34.506
1173.28	34.415
1176.98	22.565
1180.68	19.212
1184.38	34.36
1188.07	27.402
1191.77	6.502
1195.46	32.802
1199.15	7.854
1202.85	15.456
1206.53	6.58
1210.22	11.94
1213.91	6.473
1217.59	10.898
1221.28	11.72
1224.96	10.352
1228.64	12.98
1232.31	14.818
1235.99	10.499
1239.67	5.724
1243.34	2.045
1247.01	24.192
1250.68	2.5
1254.35	19.712
1258.02	4.797
1261.68	1.171
1265.35	13.773
1269.01	13.658
1272.67	16.484
1276.33	16.218
1279.99	15.898
1283.65	2.517
1287.31	10.062
1290.96	4.46
1294.61	5.952
1298.26	17.308
1301.91	14.614
1305.56	0.881
1309.21	15.132
1312.85	3.576
1316.49	9.764
1320.14	4.11
1323.78	3.545
1327.42	0.192
1331.05	5.374
1334.69	6.415
1338.32	2.938
1341.96	0.124
1345.59	11.057
1349.22	8.805
1352.85	9.318
1356.47	15.426
1360.1	12.474
1363.72	4.573
1367.35	13.686
1370.97	7.81
1374.59	5.356
1378.2	2.161
1381.82	17.34
1385.44	6.874
1389.05	40.026
1392.66	13.996
1396.27	11.687
1399.88	22.268
1403.49	15.293
1407.1	25.128
1410.7	69.297
1414.3	144.749
1417.9	430.913
1421.51	547.396
1425.11	236.957
1428.7	108.97
1432.3	70.755
1435.89	40.727
1439.48	15.03
1443.08	28.629
1446.67	21.898
1450.26	7.31
1453.84	0.337
