Measurement: Raman, 514 nm, ccw, Raman Data Processed
Mineral: Rhodochrosite
Rruff sample: R050019
Ideal chemistry: MnCO_3_
Locality: Home Sweet Home mine, Colorado, USA
Source: Eugene Schlepp
Description: Pink single crystal rhombs on quartz
Measured chemistry: Mn_1.00_CO_3_
Pin_id: L00392
Orientation: Laser parallel to -c* (0 0 -1). Fiducial mark perpendicular to laser is parallel to -a [-1 0 0]
Raman shift (cm-1)	intensity
98.07	0
102.271	30.108
106.469	78.256
110.665	252.686
114.859	98.513
119.05	58.084
123.24	84.535
127.427	50.257
131.612	38.003
135.794	61.672
139.975	78.012
144.153	47.778
148.329	48.796
152.503	64.719
156.674	79.476
160.843	97.108
165.011	141.567
169.175	178.156
173.338	416.411
177.499	1299.59
181.657	3227.19
185.813	2420.12
189.967	655.375
194.119	259.705
198.268	134.101
202.415	57.556
206.561	63.074
210.703	25.996
214.844	50.63
218.983	23.083
223.119	18.241
227.253	21.151
231.385	30.391
235.515	5.654
239.643	13.157
243.768	41.479
247.891	24.459
252.012	16.347
256.131	7.609
260.248	32.519
264.363	2.947
268.475	33.632
272.585	18.063
276.693	73.38
280.799	119.187
284.903	364.693
289.005	522.548
293.104	346.512
297.201	147.547
301.296	49.641
305.389	56.778
309.48	32.976
313.569	23.228
317.655	13.683
321.74	26.942
325.822	9.221
329.902	8.671
333.98	17.976
338.056	34.256
342.129	19.875
346.201	8.168
350.27	4.478
354.337	47.8
358.402	2.866
362.465	18.514
366.526	59.842
370.585	40.205
374.642	4.342
378.696	2.976
382.748	14.892
386.799	24.792
390.847	2.591
394.893	14.808
398.936	22.152
402.978	27.297
407.018	1.232
411.055	17.814
415.091	12.605
419.124	34.869
423.155	38.97
427.184	17.391
431.211	51.032
435.236	25.331
439.259	59.617
443.28	14.894
447.298	33.167
451.315	66.448
455.329	21.706
459.341	42.443
463.352	17.699
467.36	52.955
471.366	42.21
475.37	1.457
479.372	21.689
483.371	68.682
487.369	49.894
491.365	9.1
495.358	20.297
499.35	1.367
503.339	58.66
507.326	40.875
511.311	16.148
515.295	16.231
519.276	69.249
523.255	69.636
527.232	24.896
531.207	8.068
535.179	37.615
539.15	41.576
543.119	69.698
547.086	44.399
551.05	48.489
555.013	87.566
558.973	66.609
562.932	4.362
566.888	2.443
570.842	75.333
574.795	47.294
578.745	49.242
582.693	30.178
586.639	8.887
590.583	79.984
594.525	74.573
598.465	30.523
602.403	30.181
606.339	31.622
610.273	65.389
614.205	57.104
618.135	53.403
622.063	21.076
625.989	72.569
629.912	107.568
633.834	78.936
637.754	52.533
641.671	27.114
645.587	69.692
649.501	108.996
653.412	88.703
657.322	37.952
661.23	37.384
665.135	41.846
669.039	63.655
672.94	49.042
676.84	10.545
680.738	7.832
684.633	28.203
688.527	76.559
692.418	55.611
696.308	48.938
700.195	34.212
704.081	99.502
707.964	105.784
711.846	327.064
715.726	1808.2
719.603	2786.74
723.479	577.38
727.352	195.557
731.224	119.6
735.094	70.206
738.961	19.336
742.827	76.347
746.691	81.666
750.552	118.297
754.412	14.364
758.27	0.415
762.125	59.62
765.979	53.615
769.831	65.773
773.681	59.489
777.529	7.562
781.375	0.65
785.219	14.236
789.06	85.108
792.901	61.968
796.739	13.814
800.575	10.354
804.409	52.441
808.241	51.226
812.071	49.986
815.899	14.606
819.726	18.131
823.55	32.855
827.372	31.763
831.193	70.437
835.011	58.431
838.828	4.033
842.642	3.079
846.455	22.411
850.266	45.844
854.075	67.31
857.881	90.767
861.686	56.967
865.489	46.667
869.29	58.117
873.089	30.563
876.886	46.012
880.682	33.461
884.475	5.094
888.266	42.335
892.056	72.743
895.843	55.172
899.629	76.617
903.413	47.084
907.194	33.619
910.974	29.58
914.752	27.057
918.528	55.552
922.302	67.062
926.074	5.967
929.844	2.657
933.613	24.777
937.379	76.275
941.144	58.803
944.906	84.336
948.667	31.862
952.426	39.463
956.183	0.028
959.938	34.423
963.691	41.01
967.442	49.581
971.191	55.805
974.939	22.91
978.684	19.972
982.428	24.603
986.169	21.189
989.909	56.695
993.647	45.778
997.383	72.201
1001.12	100.833
1004.85	122.484
1008.58	145.157
1012.31	214.856
1016.03	251.573
1019.76	247.308
1023.48	264.064
1027.2	197.84
1030.92	252.633
1034.64	231.992
1038.36	287.833
1042.07	360.717
1045.78	405.667
1049.49	467.108
1053.2	500.521
1056.9	617.508
1060.61	909.859
1064.31	1258.81
1068.01	1289.59
1071.71	1815.55
1075.41	3085.54
1079.1	8878.79
1082.79	62275
1086.48	30991.2
1090.17	5802.5
1093.86	1951.8
1097.55	1006.13
1101.23	617.527
1104.91	452.896
1108.59	352.357
1112.27	270.718
1115.95	228.13
1119.62	269.025
1123.3	189.852
1126.97	153.533
1130.63	101.652
1134.3	138.52
1137.97	148.975
1141.63	151.648
1145.29	143.351
1148.95	104.105
1152.61	76.773
1156.27	90.408
1159.92	84.159
1163.57	34.825
1167.22	58.478
1170.87	87.593
1174.52	58.319
1178.16	70.193
1181.81	49.419
1185.45	17.418
1189.09	5.266
1192.73	10.086
1196.36	86.603
1200	78.181
1203.63	107.894
1207.26	13.639
1210.89	46.841
1214.52	42.175
1218.14	4.71
1221.77	15.035
1225.39	47.596
1229.01	135.67
1232.62	107.178
1236.24	85.486
1239.86	42.931
1243.47	14.811
1247.08	13.8
1250.69	13.068
1254.3	74.329
1257.9	72.824
1261.5	104.294
1265.11	115.569
1268.71	88.641
1272.3	53.663
1275.9	69.666
1279.49	9.28
1283.09	0.625
1286.68	71.453
1290.27	68.236
1293.86	110.905
1297.44	122.511
1301.03	61.073
1304.61	28.493
1308.19	31.864
1311.77	1.17
1315.34	26.404
1318.92	60.553
1322.49	90.605
1326.06	128.59
1329.63	65.496
1333.2	49.834
1336.77	50.184
1340.33	24.737
1343.89	12.339
1347.46	24.035
1351.02	22.916
1354.57	55.452
1358.13	91.075
1361.68	88.362
1365.23	111.017
1368.79	12.127
1372.33	39.163
1375.88	33.294
1379.43	15.91
1382.97	1.342
1386.51	63.772
1390.05	121.218
1393.59	87.43
1397.13	143.656
1400.66	120.266
1404.19	130.829
1407.72	121.143
1411.25	81.755
1414.78	67.885
1418.31	46.395
1421.83	88.446
1425.36	100.89
1428.88	147.821
1432.39	152.233
1435.91	195.14
1439.43	266.826
1442.94	200.964
1446.45	152.621
1449.96	109.237
1453.47	87.516
1456.98	96.167
1460.48	54.482
1463.99	52.227
1467.49	96.485
1470.99	133.84
1474.49	182.17
1477.99	141.64
1481.48	147.345
1484.97	118.082
1488.46	40.187
1491.95	27.719
1495.44	29.623
1498.93	8.148
1502.41	4.037
1505.9	61.463
1509.38	73.298
1512.86	78.427
