Measurement: Raman, 514 nm, ccw, Raman Data Processed
Mineral: Rhodonite
Rruff sample: R040041
Ideal chemistry: Mn^2+^SiO_3_
Locality: Franklin, Sussex County, New Jersey, USA
Source: University of Arizona Mineral Museum
Description: Pink prismatic crystals
Measured chemistry: (Mn_0.63_Ca_0.21_Zn_0.12_Mg_0.02_Fe_0.02_)_Î£=1_Si_1.00_O_3_
Pin_id: L00324
Orientation: Laser parallel to (0 -1 -1). Fiducial mark perpendicular to laser is parallel to a [1 0 0]
Raman shift (cm-1)	intensity
54.966	0
59.164	322.413
63.36	378.08
67.554	15.167
71.747	10.343
75.937	465.363
80.125	148.686
84.311	274.749
88.496	1172.09
92.678	5652.01
96.858	9294.43
101.036	5525.67
105.212	9110.21
109.387	15485.9
113.559	8474.75
117.729	6509.71
121.897	8214.79
126.063	7059.99
130.228	4988.1
134.39	2827.47
138.55	2125.71
142.709	1718.47
146.865	2488.42
151.019	4492.58
155.171	4312.32
159.322	2506.71
163.47	2464.76
167.617	2637.51
171.761	2298.98
175.904	2562.16
180.044	1842.02
184.183	810.706
188.319	586.173
192.454	296.287
196.586	123.998
200.717	39.521
204.846	98.24
208.972	478.51
213.097	89.262
217.22	48.5
221.341	96.177
225.46	25.3
229.577	8.634
233.692	266.032
237.805	788.97
241.916	1689.33
246.025	2519.21
250.132	3161.57
254.237	5393.82
258.34	9307.69
262.442	9736.14
266.541	6230.16
270.639	3794.81
274.734	3025.09
278.828	2522.97
282.919	1553.44
287.009	529.204
291.097	320.422
295.183	265.993
299.266	422.928
303.348	739.094
307.428	1160.66
311.507	1943.09
315.583	3541.02
319.657	5896.41
323.729	6727.04
327.8	5679
331.868	4686.3
335.935	3985.91
339.999	3926.2
344.062	4280.84
348.123	3811.3
352.182	2786.09
356.239	2621.14
360.294	2966.45
364.347	2802.36
368.398	2187.99
372.448	1503.01
376.495	871.251
380.54	855.183
384.584	963.369
388.626	920.283
392.666	445.875
396.704	15.364
400.74	63.732
404.774	120.442
408.806	520.882
412.836	1300.58
416.865	2587.53
420.891	3092.71
424.916	1871.66
428.939	1264.28
432.959	1520.18
436.978	2027.46
440.996	1341.77
445.011	609.481
449.024	463.984
453.036	586.632
457.045	455.419
461.053	209.351
465.059	6.432
469.063	7.373
473.065	55.847
477.065	507.243
481.063	9.793
485.06	782.458
489.054	153.26
493.047	241.186
497.038	1197.23
501.027	56.615
505.014	38.67
508.999	92.985
512.982	403.652
516.964	734.388
520.944	561.254
524.921	237.372
528.897	49.625
532.871	71.916
536.844	178.253
540.814	615.69
544.783	1035.23
548.749	780.881
552.714	699.556
556.677	785.225
560.638	597.146
564.597	296.78
568.555	282.387
572.511	258.962
576.464	143.498
580.416	22.989
584.366	10.654
588.315	46.557
592.261	15.891
596.206	44.62
600.148	38.246
604.089	108.928
608.028	108.524
611.965	207.037
615.901	343.412
619.834	433.816
623.766	520.879
627.696	790.345
631.624	914.88
635.551	1256.5
639.475	1674.53
643.398	2209.68
647.318	3054.83
651.237	4768.09
655.155	8388.31
659.07	15841.9
662.984	32506.8
666.895	49947.2
670.805	42058.9
674.713	25275.2
678.62	16459.4
682.524	11048.1
686.427	6148.23
690.328	3368.53
694.227	2134.49
698.124	1588.39
702.02	1340.02
705.913	1425.42
709.805	2123.66
713.695	3049.72
717.584	2511.63
721.47	1639.38
725.355	1141.96
729.238	1201.37
733.119	1522.84
736.998	2146.82
740.876	2643.38
744.752	1954.79
748.626	1006.12
752.498	525.391
756.368	280.941
760.237	226.377
764.104	150.396
767.969	79.284
771.832	29.038
775.693	27.642
779.553	72.046
783.411	29.308
787.267	15.63
791.122	4.176
794.974	8.652
798.825	15.997
802.674	16.143
806.522	72.115
810.367	9.137
814.211	31.43
818.053	47.936
821.893	39.634
825.732	9.099
829.568	39.575
833.403	80.797
837.236	6.121
841.068	11.192
844.898	17.584
848.726	34.529
852.552	26.343
856.376	33.144
860.199	66.881
864.02	190.557
867.839	299.178
871.656	536.75
875.472	734.283
879.286	673.777
883.098	669.253
886.909	587.718
890.717	597.154
894.524	542.63
898.33	550.238
902.133	697.051
905.935	1040.08
909.735	1772.24
913.533	2587.49
917.33	2432.73
921.124	1836.01
924.918	1452.54
928.709	1432.17
932.499	1913.14
936.286	3007.01
940.073	2766.58
943.857	1772.1
947.64	1299.99
951.421	1278.66
955.2	1557.46
958.978	2009.52
962.753	3030.96
966.527	5446.94
970.3	9875.98
974.071	13276.6
977.84	11487.6
981.607	10918.5
985.372	14286.6
989.136	20759.4
992.898	25208.3
996.659	20951.6
1000.42	24712.1
1004.17	28948.5
1007.93	19772.1
1011.68	11227.9
1015.43	7852.73
1019.18	6532.64
1022.93	5974.62
1026.68	5722.68
1030.42	5078.63
1034.17	4060.78
1037.91	3067.38
1041.65	2622.89
1045.39	2478.66
1049.12	2360.59
1052.86	1924.21
1056.59	1381.36
1060.33	1011.85
1064.06	780.885
1067.78	750.979
1071.51	728.197
1075.23	786.586
1078.96	702.309
1082.68	606.617
1086.4	468.123
1090.12	401.122
1093.83	382.799
1097.55	318.178
1101.26	249.216
1104.97	259.111
1108.68	262.159
1112.39	290.89
1116.1	261.755
1119.8	264.974
1123.5	474.012
1127.2	337.659
1130.9	189.503
1134.6	182.601
1138.3	159.531
1141.99	115.988
1145.69	108.807
1149.38	160.136
1153.07	135.332
1156.76	114.912
1160.44	124.696
1164.13	18.752
1167.81	63.17
1171.49	27.039
1175.17	20.243
1178.85	4.795
1182.52	1.604
1186.2	32.845
1189.87	26.35
1193.54	27.37
1197.21	29.129
1200.88	19.048
1204.55	16.444
1208.21	68.885
1211.88	13.945
1215.54	56.907
1219.2	0.92
1222.86	11.616
1226.51	9.826
1230.17	16.579
1233.82	40.057
1237.47	21.196
1241.12	3.196
1244.77	61.053
1248.42	113.797
1252.06	5.788
1255.71	5.702
1259.35	14.867
1262.99	36.28
1266.63	24.092
1270.26	14.271
1273.9	87.254
1277.53	10.041
1281.16	126.645
1284.8	49.077
1288.42	38.296
1292.05	72.314
1295.68	16.158
1299.3	47.824
1302.92	50.32
1306.55	44.647
1310.16	93.798
1313.78	68.771
1317.4	132.595
1321.01	75.559
1324.62	62.024
1328.24	1.654
1331.85	83.069
1335.45	91.862
1339.06	41.984
1342.66	182.036
1346.27	107.064
1349.87	115.019
1353.47	143.525
1357.07	171.309
1360.66	162.328
1364.26	172.388
1367.85	196.086
1371.44	163.115
1375.04	46.357
1378.62	143.427
1382.21	161.722
1385.8	126.09
1389.38	68.602
1392.96	118.672
1396.54	81.482
1400.12	72.133
1403.7	111.354
1407.28	165.468
1410.85	134.829
1414.42	117.705
1417.99	118.197
1421.56	153.103
1425.13	113.268
1428.7	102.993
1432.26	147.614
1435.83	92.773
1439.39	108.035
1442.95	91.975
1446.51	110.816
1450.06	117.509
1453.62	149.655
1457.17	116.925
1460.73	94.847
1464.28	57.383
1467.83	112.346
1471.37	128.261
1474.92	142.213
1478.46	115.25
1482.01	124.681
1485.55	174.298
1489.09	83.033
1492.63	54.965
1496.16	101.245
1499.7	46.871
1503.23	12.892
1506.76	14.405
1510.29	68.506
1513.82	107.398
1517.35	34.225
1520.88	128.73
1524.4	0.599
1527.92	0
