Measurement: Raman, 514 nm, ccw, Raman Data Processed
Mineral: Rhodochrosite
Rruff sample: R050019
Ideal chemistry: MnCO_3_
Locality: Home Sweet Home mine, Colorado, USA
Source: Eugene Schlepp
Description: Pink single crystal rhombs on quartz
Measured chemistry: Mn_1.00_CO_3_
Pin_id: L00392
Orientation: Laser parallel to -c* (0 0 -1). Fiducial mark perpendicular to laser is parallel to -a [-1 0 0]
Raman shift (cm-1)	intensity
98.07	0
102.271	18.717
106.469	72.99
110.665	140.051
114.859	94.135
119.05	60.936
123.24	75.161
127.427	61.982
131.612	25.443
135.794	68.028
139.975	64.24
144.153	44.915
148.329	18.845
152.503	89.002
156.674	67.397
160.843	76.236
165.011	151.704
169.175	225.732
173.338	395.69
177.499	1275.7
181.657	3108.77
185.813	2243.85
189.967	602.005
194.119	253.238
198.268	143.572
202.415	46.004
206.561	28.559
210.703	62.516
214.844	47.411
218.983	26.681
223.119	17.485
227.253	38.472
231.385	12.889
235.515	14.83
239.643	12.04
243.768	13.43
247.891	10.19
252.012	4.681
256.131	44.023
260.248	11.315
264.363	9.067
268.475	2.927
272.585	54.166
276.693	114.861
280.799	256.739
284.903	670.791
289.005	1090.97
293.104	625.507
297.201	230.878
301.296	141.334
305.389	89.858
309.48	50.114
313.569	38.428
317.655	13.042
321.74	3.232
325.822	23.413
329.902	28.053
333.98	59.699
338.056	27.345
342.129	23.015
346.201	20.699
350.27	32.581
354.337	50.261
358.402	8.532
362.465	17.268
366.526	38.026
370.585	53.8
374.642	19.773
378.696	1.561
382.748	48.207
386.799	53.137
390.847	28.572
394.893	23.218
398.936	15.057
402.978	12.754
407.018	31.448
411.055	22.186
415.091	21.951
419.124	72.708
423.155	35.253
427.184	1.645
431.211	64.288
435.236	46.067
439.259	46.838
443.28	47.215
447.298	40.994
451.315	12.772
455.329	69.552
459.341	8.674
463.352	42.446
467.36	86.213
471.366	45.966
475.37	60.688
479.372	51.459
483.371	42.976
487.369	71.594
491.365	34.312
495.358	30.946
499.35	40.733
503.339	97.463
507.326	40.934
511.311	9.367
515.295	4.691
519.276	55.656
523.255	59.267
527.232	19.558
531.207	11.957
535.179	23.605
539.15	61.11
543.119	1.664
547.086	24.017
551.05	12.456
555.013	41.621
558.973	99.835
562.932	18.281
566.888	11.616
570.842	32.027
574.795	99.416
578.745	58.777
582.693	12.128
586.639	49.113
590.583	62.428
594.525	122.779
598.465	44.993
602.403	2.758
606.339	57.459
610.273	81.216
614.205	78.156
618.135	20.516
622.063	43.705
625.989	80.841
629.912	80.27
633.834	62.8
637.754	40.898
641.671	50.825
645.587	93.886
649.501	110.928
653.412	76.116
657.322	30.151
661.23	34.18
665.135	53.132
669.039	96.526
672.94	69.858
676.84	38.945
680.738	3.098
684.633	52.797
688.527	99.483
692.418	68.896
696.308	50.545
700.195	35.995
704.081	109.561
707.964	168.087
711.846	372.685
715.726	2063.45
719.603	3121.36
723.479	612.004
727.352	209.735
731.224	99.548
735.094	55.659
738.961	48.195
742.827	56.82
746.691	94.268
750.552	93.868
754.412	34.496
758.27	31.764
762.125	45.319
765.979	63.852
769.831	98.411
773.681	64.5
777.529	36.971
781.375	60.426
785.219	23.872
789.06	91.311
792.901	80.677
796.739	38.456
800.575	34.774
804.409	9.078
808.241	84.494
812.071	63.64
815.899	27.819
819.726	5.015
823.55	6.783
827.372	72.071
831.193	73.369
835.011	75.81
838.828	29.282
842.642	21.806
846.455	6.894
850.266	74.404
854.075	88.435
857.881	77.462
861.686	28.485
865.489	12.512
869.29	61.531
873.089	85.554
876.886	33.57
880.682	30.58
884.475	4.411
888.266	21.584
892.056	37.575
895.843	89.563
899.629	42.558
903.413	6.569
907.194	3.423
910.974	22.576
914.752	43.582
918.528	69.036
922.302	84.025
926.074	12.774
929.844	36.695
933.613	10.619
937.379	46.545
941.144	46.335
944.906	124.28
948.667	9.298
952.426	41.247
956.183	48.159
959.938	84.036
963.691	27.014
967.442	20.568
971.191	29.392
974.939	5.685
978.684	21.685
982.428	48.298
986.169	85.258
989.909	61.266
993.647	68.287
997.383	61.701
1001.12	109.993
1004.85	104.053
1008.58	166.129
1012.31	177.226
1016.03	272.349
1019.76	190.499
1023.48	190.663
1027.2	192.862
1030.92	229.027
1034.64	215.752
1038.36	304.009
1042.07	353.263
1045.78	322.662
1049.49	473.045
1053.2	525.471
1056.9	628.469
1060.61	890.825
1064.31	1183.94
1068.01	1199.38
1071.71	1607.88
1075.41	2690.11
1079.1	8074.7
1082.79	56010.2
1086.48	27865.8
1090.17	5168.41
1093.86	1728.12
1097.55	894.494
1101.23	552.614
1104.91	362.958
1108.59	314.169
1112.27	242.921
1115.95	249.677
1119.62	226.704
1123.3	193.722
1126.97	107.629
1130.63	107.221
1134.3	131.18
1137.97	121.08
1141.63	95.647
1145.29	113.45
1148.95	151.372
1152.61	73.472
1156.27	18.483
1159.92	53.949
1163.57	50.829
1167.22	101.789
1170.87	62.115
1174.52	121.41
1178.16	74.618
1181.81	40.707
1185.45	21.86
1189.09	0.172
1192.73	0.327
1196.36	78.174
1200	90.921
1203.63	82.836
1207.26	68.436
1210.89	40.47
1214.52	12.149
1218.14	11.149
1221.77	19.332
1225.39	50.231
1229.01	72.868
1232.62	98.676
1236.24	88.092
1239.86	31.933
1243.47	3.499
1247.08	22.356
1250.69	29.205
1254.3	88.569
1257.9	101.741
1261.5	145.913
1265.11	87.256
1268.71	75.338
1272.3	70.374
1275.9	26.381
1279.49	14.653
1283.09	19.235
1286.68	68.077
1290.27	77.861
1293.86	60.534
1297.44	107.069
1301.03	55.541
1304.61	8.129
1308.19	19.102
1311.77	7.246
1315.34	7.279
1318.92	56.223
1322.49	75.141
1326.06	62.95
1329.63	98.683
1333.2	62.257
1336.77	46.693
1340.33	45.166
1343.89	11.504
1347.46	34.127
1351.02	2.188
1354.57	31.683
1358.13	64.765
1361.68	126.35
1365.23	147.497
1368.79	9.847
1372.33	42.158
1375.88	56.763
1379.43	12.858
1382.97	16.438
1386.51	2.953
1390.05	55.057
1393.59	67.135
1397.13	89.106
1400.66	160.115
1404.19	129.958
1407.72	134.259
1411.25	145.388
1414.78	101.081
1418.31	66.276
1421.83	125.658
1425.36	107.88
1428.88	133.734
1432.39	229.35
1435.91	272.29
1439.43	256.568
1442.94	191.469
1446.45	171.143
1449.96	111.263
1453.47	62.747
1456.98	41.314
1460.48	32.212
1463.99	133.52
1467.49	76.506
1470.99	106.241
1474.49	170.868
1477.99	144.997
1481.48	185.567
1484.97	102.571
1488.46	121.757
1491.95	76.32
1495.44	62.702
1498.93	4.59
1502.41	19.54
1505.9	40.535
1509.38	97.528
1512.86	0
