Measurement: Raman, 514 nm, ccw, Raman Data Processed
Mineral: Rhodochrosite
Rruff sample: R040133
Ideal chemistry: MnCO_3_
Locality: Imuris, Sonora, Mexico
Source: University of Arizona Mineral Museum
Description: Pink cleavage fragment
Measured chemistry: (Mn_0.92_Mg_0.02_Ca_0.01_)C_1.02_O_3_
Pin_id: L00122
Orientation: Laser parallel to c* (0 0 1). Fiducial mark perpendicular to laser is parallel to a [1 0 0]
Raman shift (cm-1)	intensity
122.654	0
126.804	3.285
130.953	10.063
135.1	17.874
139.245	28.368
143.388	16.825
147.529	20.777
151.669	16.09
155.806	40.785
159.942	39.36
164.076	48.129
168.209	102.677
172.339	182.151
176.468	454.109
180.594	1273.26
184.719	2438.03
188.843	1485.91
192.964	427.211
197.084	160.018
201.201	87.106
205.317	41.161
209.432	31.272
213.544	12.438
217.655	9.64
221.763	10.881
225.87	1.885
229.976	3.618
234.079	6.088
238.181	1.535
242.28	6.978
246.378	2.211
250.475	4.425
254.569	9.656
258.662	2.16
262.753	9.038
266.842	23.105
270.929	21.013
275.014	51.868
279.098	121.648
283.18	275.392
287.26	637.596
291.339	745.657
295.415	434.456
299.49	192.173
303.563	102.814
307.634	62.425
311.704	38.967
315.772	32.092
319.837	21.48
323.902	25.816
327.964	29.1
332.025	15.639
336.084	16.419
340.141	24.45
344.196	14.397
348.25	12.272
352.302	13.038
356.352	11.753
360.4	13.535
364.446	17.226
368.491	21.437
372.534	16.599
376.576	15.139
380.615	18.552
384.653	12.852
388.689	16.895
392.723	17.96
396.756	16.03
400.786	16.42
404.815	11.451
408.843	11.079
412.868	1.942
416.892	7.573
420.914	5.148
424.934	13.185
428.953	7.432
432.97	6.846
436.985	6.41
440.998	1.022
445.01	14.691
449.02	2.051
453.028	10.408
457.034	7.762
461.039	9.069
465.042	14.356
469.043	7.613
473.043	13.854
477.041	4.068
481.037	5.258
485.031	5.449
489.024	10.641
493.014	4.714
497.004	15.768
500.991	14.846
504.977	10.848
508.961	8.86
512.943	12.873
516.924	3.884
520.902	3.886
524.88	1.903
528.855	4.958
532.829	8.001
536.801	1.983
540.771	6.003
544.74	3.064
548.707	3.882
552.672	11.852
556.635	5.803
560.597	6.686
564.557	0.623
568.515	2.306
572.472	4.533
576.427	9.536
580.38	12.488
584.332	10.509
588.282	3.464
592.23	0.497
596.176	0.512
600.121	6.485
604.064	5.471
608.006	5.59
611.946	3.524
615.884	1.51
619.82	8.503
623.755	3.484
627.688	8.408
631.619	5.353
635.548	3.428
639.476	9.966
643.403	4.274
647.327	9.281
651.25	7.557
655.171	12.771
659.091	13.705
663.009	12.378
666.925	7.008
670.839	3.16
674.752	3.612
678.664	9.929
682.573	16.036
686.481	15.875
690.387	16.897
694.292	10.969
698.194	23.965
702.096	39.665
705.995	63.38
709.893	122.22
713.789	429.027
717.684	2091.84
721.576	1872.63
725.468	356.682
729.357	139.468
733.245	62.618
737.131	35.597
741.016	34.356
744.899	30.98
748.78	24.713
752.66	16.613
756.538	21.393
760.414	5.157
764.289	9.918
768.162	7.6
772.033	14.45
775.903	7.145
779.771	8.805
783.638	10.551
787.502	11.207
791.366	6.856
795.227	2.506
799.087	1.099
802.945	1.686
806.802	0.848
810.657	8.847
814.51	6.426
818.362	5.981
822.212	5.524
826.061	6.034
829.907	0.517
833.753	6.003
837.596	5.475
841.438	2.936
845.278	1.611
849.117	1.829
852.954	4.259
856.79	5.033
860.624	8.105
864.456	13.522
868.286	22.935
872.115	7.344
875.943	2.25
879.768	13.145
883.593	5.535
887.415	3.082
891.236	3.287
895.055	13.654
898.873	5.02
902.689	0.386
906.503	4.747
910.316	3.086
914.128	11.427
917.937	3.567
921.745	6.909
925.552	16.252
929.356	4.593
933.16	2.068
936.961	7.261
940.761	2.606
944.56	17.784
948.356	7.179
952.152	4.37
955.945	2.677
959.737	2.559
963.528	1.153
967.317	14.23
971.104	7.622
974.89	3.561
978.674	2.729
982.456	4.484
986.237	14.465
990.016	18.641
993.794	16.08
997.57	28.166
1001.35	49.542
1005.12	60.844
1008.89	88.322
1012.66	124.806
1016.43	130.308
1020.19	154.822
1023.96	167.347
1027.72	193.154
1031.48	197.142
1035.24	193.706
1039	215.715
1042.76	232.306
1046.52	271.91
1050.27	332.533
1054.02	389.172
1057.77	472.503
1061.52	556.924
1065.27	815.28
1069.02	935.952
1072.76	1051.68
1076.51	1624.23
1080.25	3212.99
1083.99	11584.7
1087.72	56884.5
1091.46	18464.3
1095.2	4161.27
1098.93	1507.47
1102.66	795.36
1106.39	485.258
1110.12	362.273
1113.85	273.231
1117.58	219.589
1121.3	177.558
1125.02	151.543
1128.74	118.7
1132.46	107.727
1136.18	101.778
1139.9	91.849
1143.61	79.962
1147.33	84.072
1151.04	75.203
1154.75	53.355
1158.46	51.953
1162.17	49.849
1165.87	53.054
1169.58	47.278
1173.28	32.52
1176.98	39.78
1180.68	22.23
1184.38	20.555
1188.07	17.867
1191.77	23.197
1195.46	11.836
1199.15	13.392
1202.85	15.883
1206.53	8.272
1210.22	5.861
1213.91	11.76
1217.59	9.234
1221.28	4.729
1224.96	7.268
1228.64	1.208
1232.31	10.3
1235.99	7.812
1239.67	2.601
1243.34	6.925
1247.01	0.389
1250.68	3.113
1254.35	3.419
1258.02	2.051
1261.68	13.489
1265.35	5.966
1269.01	14.288
1272.67	1.486
1276.33	10.056
1279.99	11.652
1283.65	16.274
1287.31	7.921
1290.96	4.591
1294.61	4.284
1298.26	12.001
1301.91	12.736
1305.56	17.495
1309.21	1.266
1312.85	14.05
1316.49	15.843
1320.14	11.642
1323.78	19.427
1327.42	2.257
1331.05	8.317
1334.69	7.132
1338.32	8.8
1341.96	6.192
1345.59	10.361
1349.22	8.243
1352.85	15.144
1356.47	17.003
1360.1	8.927
1363.72	6.479
1367.35	7.385
1370.97	5.752
1374.59	13.539
1378.2	12.458
1381.82	5.385
1385.44	16.569
1389.05	3.668
1392.66	19.293
1396.27	18.544
1399.88	9.339
1403.49	2.621
1407.1	10.962
1410.7	1.197
1414.3	5.59
