Measurement: Raman, 514 nm, ccw, Raman Data Processed
Mineral: Rhodonite
Rruff sample: R040041
Ideal chemistry: Mn^2+^SiO_3_
Locality: Franklin, Sussex County, New Jersey, USA
Source: University of Arizona Mineral Museum
Description: Pink prismatic crystals
Measured chemistry: (Mn_0.63_Ca_0.21_Zn_0.12_Mg_0.02_Fe_0.02_)_Î£=1_Si_1.00_O_3_
Pin_id: L00464
Orientation: Laser parallel to (1 0 1). Fiducial mark perpendicular to laser is parallel to b [0 1 0]
Raman shift (cm-1)	intensity
105.336	0
109.513	3068.18
113.688	2907.69
117.861	676.37
122.032	914.709
126.201	1810.97
130.367	2047.06
134.532	1562.41
138.695	1430.45
142.856	781.21
147.014	36.077
151.171	114.378
155.325	493.614
159.478	549.708
163.629	395.275
167.777	596.136
171.924	832.835
176.068	1034.67
180.211	713.721
184.351	289.788
188.49	546.767
192.626	436.735
196.761	53.383
200.893	195.841
205.024	213.572
209.152	271.267
213.279	484.521
217.403	359.278
221.526	74.664
225.646	105.658
229.765	38.716
233.881	185.462
237.996	556.224
242.108	1443.83
246.219	2377.81
250.328	1865.63
254.434	1361.19
258.539	1526.09
262.641	1668.3
266.742	1192.86
270.84	950.79
274.937	1148.45
279.032	971.495
283.125	726.408
287.215	256.83
291.304	144.268
295.391	96.222
299.476	225.552
303.558	196.796
307.639	443.257
311.718	664.999
315.795	1173.59
319.87	2216.73
323.943	2777.32
328.014	3215.38
332.083	3391.4
336.15	3343.08
340.215	3204.94
344.279	3537.71
348.34	3579.88
352.399	2792.2
356.457	2704.63
360.512	2916.46
364.565	2750.66
368.617	1977.24
372.666	1138.29
376.714	775.164
380.76	426.927
384.803	513.519
388.845	837.77
392.885	704.181
396.923	553.144
400.959	553.862
404.993	1091.62
409.025	2028.52
413.055	3450.34
417.084	6123.2
421.11	7486.26
425.134	5052.35
429.157	2468.05
433.177	1593.93
437.196	1370.64
441.213	1020
445.227	440.7
449.24	395.203
453.251	287.5
457.26	246.909
461.267	5.151
465.272	43.867
469.276	53.731
473.277	31.083
477.276	79.434
481.274	96.738
485.27	32.965
489.263	18.764
493.255	83.322
497.245	104.387
501.233	6.428
505.219	167.351
509.203	369.167
513.186	699.004
517.166	736.751
521.145	526.435
525.121	254.387
529.096	8.908
533.069	72.564
537.04	108.075
541.009	119.45
544.976	331.711
548.941	297.935
552.905	88.243
556.866	286.547
560.826	167.715
564.784	100.727
568.74	305.575
572.694	375.26
576.646	276.779
580.596	4.876
584.544	19.223
588.491	0.08
592.435	37.405
596.378	12.399
600.319	12.543
604.258	89.452
608.195	92.158
612.131	145.568
616.064	204.425
619.995	324.649
623.925	243.573
627.853	354.512
631.779	494.716
635.703	695.903
639.625	930.578
643.546	1291.12
647.464	1890.5
651.381	2615.05
655.296	4636.17
659.209	8531.11
663.12	17536.1
667.029	27768.9
670.937	24866.7
674.842	15525.3
678.746	9934.31
682.648	6758.91
686.548	3933.32
690.447	2185.77
694.343	1389.15
698.238	1034.06
702.13	732.833
706.021	799.372
709.91	1051.57
713.798	1053.65
717.683	729.5
721.567	716.012
725.448	515.41
729.328	478.588
733.206	346.545
737.083	491.993
740.957	509.312
744.83	492.085
748.701	374.866
752.57	316.554
756.437	165.735
760.302	124.513
764.166	55.196
768.027	71.647
771.887	127.491
775.745	80.821
779.602	12.482
783.456	32.715
787.309	79.728
791.16	68.561
795.009	70.812
798.856	48.574
802.702	75.629
806.545	11.01
810.387	87.373
814.227	143.524
818.065	69.563
821.902	44.577
825.737	9.043
829.569	96.327
833.401	81.498
837.23	23.522
841.057	51.331
844.883	36.117
848.707	20.825
852.529	155.442
856.35	169.96
860.168	344.423
863.985	418.835
867.8	1143.2
871.613	2017.57
875.425	2171.94
879.234	1716.31
883.042	1280.68
886.848	895.09
890.653	759.605
894.455	534.244
898.256	478.94
902.055	403.814
905.852	498.937
909.648	683.98
913.442	1039.46
917.233	972.924
921.024	857.76
924.812	919.188
928.599	1075.82
932.384	1853.67
936.167	3446.64
939.948	2840.71
943.728	1435.23
947.506	1033.54
951.282	872.811
955.056	925.957
958.829	1126.51
962.6	2077.4
966.369	3603.33
970.136	6699.69
973.902	8505.42
977.666	7141.02
981.428	6724.33
985.188	9256.39
988.947	14241.7
992.704	16378.4
996.459	14135.2
1000.21	17512.4
1003.96	19638.2
1007.71	12976.2
1011.46	8314.29
1015.21	6212.52
1018.95	5551.23
1022.7	4713.98
1026.44	4645.81
1030.18	4055.18
1033.91	3638.09
1037.65	3112.46
1041.39	3900.9
1045.12	4864.5
1048.85	5157.02
1052.58	3731.99
1056.31	2099.7
1060.03	1424.5
1063.76	819.002
1067.48	639.359
1071.2	899.45
1074.92	439.249
1078.63	389.212
1082.35	419.572
1086.06	319.662
1089.78	229.855
1093.49	231.781
1097.19	189.892
1100.9	20.428
1104.61	143.054
1108.31	144.225
1112.01	175.717
1115.71	236.053
1119.41	354.398
1123.11	606.607
1126.8	47.065
1130.5	77.609
1134.19	88.712
1137.88	149.337
1141.57	203.092
1145.25	177.453
1148.94	168.437
1152.62	189.933
1156.3	78.219
1159.98	38.735
1163.66	69.132
1167.34	58.488
1171.01	189.034
1174.68	139.847
1178.36	160.293
1182.02	220.701
1185.69	60.1
1189.36	50.744
1193.02	67.896
1196.69	24.169
1200.35	143.773
1204.01	281.481
1207.66	239.775
1211.32	66.676
1214.98	43.638
1218.63	110.097
1222.28	96
1225.93	211.994
1229.58	268.081
1233.22	353.07
1236.87	307.188
1240.51	241.605
1244.15	95.985
1247.79	1.106
1251.43	82.069
1255.07	64.198
1258.7	225.923
1262.33	477.445
1265.96	398.688
1269.59	259.079
1273.22	198.96
1276.85	108.414
1280.47	148.002
1284.1	2.103
1287.72	16.67
1291.34	274.585
1294.95	271.878
1298.57	333.52
1302.19	230.303
1305.8	181.772
1309.41	146.589
1313.02	51.958
1316.63	76.589
1320.23	99.657
1323.84	455.817
1327.44	450.578
1331.05	451.359
1334.64	311.676
1338.24	332.113
1341.84	162.734
1345.43	158.926
1349.03	55.755
1352.62	202.122
1356.21	247.52
1359.8	724.124
1363.39	584.902
1366.97	357.698
1370.56	347.514
1374.14	278.401
1377.72	153.057
1381.3	25.366
1384.87	1.938
1388.45	380.438
1392.02	364.508
1395.6	352.799
1399.17	472.186
1402.74	411.244
1406.3	494.729
1409.87	163.616
1413.43	255.371
1417	231.775
1420.56	21.555
1424.12	14.083
1427.67	246.253
1431.23	370.335
1434.79	514.297
1438.34	0
