Measurement: Raman, 514 nm, ccw, Raman Data Processed
Mineral: Rhodonite
Rruff sample: R040041
Ideal chemistry: Mn^2+^SiO_3_
Locality: Franklin, Sussex County, New Jersey, USA
Source: University of Arizona Mineral Museum
Description: Pink prismatic crystals
Measured chemistry: (Mn_0.63_Ca_0.21_Zn_0.12_Mg_0.02_Fe_0.02_)_Î£=1_Si_1.00_O_3_
Pin_id: L00227
Orientation: Laser parallel to c* (0 0 1). Fiducial mark perpendicular to laser is parallel to a [1 0 0]
Raman shift (cm-1)	intensity
99.764	0
103.943	65.92
108.121	3175.91
112.297	5432.4
116.47	2831.74
120.642	1810.9
124.811	2418.17
128.979	2774.78
133.144	2733.46
137.307	2945.08
141.469	2495.23
145.628	1035.9
149.786	765.688
153.941	1191.41
158.094	1096.24
162.245	746.473
166.395	759.7
170.542	1066.5
174.687	1201.53
178.83	998.504
182.972	355.257
187.111	435.808
191.248	636.459
195.383	156.503
199.516	265.735
203.647	163
207.777	409.012
211.904	1273.12
216.029	981.221
220.152	338.237
224.273	15.863
228.392	136.103
232.509	49.729
236.625	433.129
240.738	1185.22
244.849	2168.91
248.958	2242.28
253.065	1606.17
257.171	1620.78
261.274	2106.1
265.375	1638.76
269.475	1012.92
273.572	1023.59
277.667	987.364
281.76	903.245
285.852	580.602
289.941	259.172
294.029	67.201
298.114	118.11
302.198	308.222
306.279	528.749
310.359	979.697
314.436	1420.66
318.512	2980.36
322.586	3910.47
326.657	4201.09
330.727	5111.56
334.795	6862.32
338.861	6493.57
342.924	4915.28
346.986	4027.41
351.046	2799.97
355.104	1942.92
359.16	1896.25
363.214	1895.5
367.267	1343.22
371.317	844.969
375.365	313.681
379.411	59.165
383.456	204.363
387.498	498.286
391.539	510.078
395.577	96.736
399.614	42.881
403.649	309.244
407.681	1145.79
411.712	2312.53
415.741	4639.44
419.768	6587.73
423.793	4839.81
427.816	2504.56
431.837	1343.83
435.857	1200.56
439.874	1049.83
443.889	680.38
447.903	477.51
451.914	842.212
455.924	882.809
459.932	480.292
463.938	83.712
467.941	117.749
471.943	306.571
475.944	335.395
479.942	254.274
483.938	153.163
487.932	282.054
491.925	890.953
495.915	1129.82
499.904	878.704
503.891	837.637
507.876	1596.58
511.859	2725.47
515.84	2294.3
519.819	1233.03
523.796	511.829
527.771	180.902
531.745	20.056
535.716	81.454
539.686	86.567
543.654	163.864
547.62	281.449
551.584	658.957
555.546	1246.4
559.506	1283.64
563.465	560.62
567.421	367.35
571.376	183.813
575.329	210.004
579.279	65.897
583.228	108.72
587.175	45.664
591.121	140.83
595.064	8.295
599.006	4.297
602.945	3.58
606.883	2.934
610.819	123.078
614.753	239.309
618.685	259.853
622.615	320.408
626.544	596.038
630.471	799.423
634.395	900.6
638.318	1333.6
642.239	1574
646.158	2254.11
650.076	3513.01
653.991	5609.7
657.905	10567.5
661.817	20523.2
665.726	35837.5
669.635	37368.2
673.541	23103.1
677.445	14070.4
681.348	9165.34
685.248	5397.05
689.147	3095.61
693.044	2038.05
696.94	1504.23
700.833	1193.95
704.724	1093.23
708.614	1172.07
712.502	1780.47
716.388	1518.44
720.272	945.967
724.155	683.069
728.035	649.746
731.914	716
735.791	669.426
739.666	650.366
743.539	576.758
747.41	358.7
751.28	182.306
755.148	155.64
759.014	13.828
762.878	50.631
766.74	180.816
770.601	141.672
774.46	93.083
778.316	34.232
782.172	45.131
786.025	25.013
789.876	35.183
793.726	44.161
797.574	113.175
801.42	81.839
805.264	30.133
809.107	121.86
812.947	64.354
816.786	112.671
820.623	110.642
824.459	34.343
828.292	78.296
832.124	17.445
835.954	192.974
839.782	108.29
843.608	73.464
847.433	128.745
851.255	84.022
855.076	179.179
858.895	374.223
862.713	579.175
866.528	1184.15
870.342	2349.11
874.154	3124.09
877.965	2639.08
881.773	2104.03
885.58	2158.95
889.385	2229.63
893.188	1589.07
896.989	1064.66
900.789	800.648
904.587	976.533
908.383	1081.89
912.177	1614.15
915.97	1598.88
919.76	1375.21
923.55	1225.16
927.337	1460.45
931.122	2125.25
934.906	3621.12
938.688	3586.76
942.468	2017.45
946.247	1412.08
950.023	1496.17
953.798	1489.81
957.572	1984.28
961.343	3083.22
965.113	5972.21
968.881	11853.4
972.647	16504.8
976.411	13801.2
980.174	11145.7
983.935	12143.9
987.694	18630.6
991.452	25619.9
995.207	21413.2
998.961	22633.1
1002.71	25113.4
1006.46	17093.8
1010.21	10394.7
1013.96	8027.72
1017.71	6720.86
1021.45	6343.94
1025.19	6767.66
1028.93	6810.19
1032.67	6313.51
1036.41	6110.97
1040.14	6744.16
1043.87	8950.41
1047.61	9613.23
1051.34	6850.48
1055.06	3869.42
1058.79	1934.04
1062.52	1268.42
1066.24	1115.8
1069.96	1009.72
1073.68	924.455
1077.4	697.953
1081.11	482.475
1084.83	470.268
1088.54	554.941
1092.25	629.264
1095.96	383.861
1099.67	218.459
1103.37	103.941
1107.08	279.531
1110.78	164.52
1114.48	109.43
1118.18	162.871
1121.88	329.186
1125.57	364.646
1129.27	131.316
1132.96	158.289
1136.65	44.328
1140.34	181.729
1144.02	201.969
1147.71	250.57
1151.39	172.174
1155.07	9.074
1158.76	204.305
1162.43	209.455
1166.11	8.564
1169.79	160.883
1173.46	164.551
1177.13	58.412
1180.8	94.295
1184.47	152.539
1188.14	262.012
1191.8	136.092
1195.46	34.766
1199.13	38.561
1202.79	328.143
1206.45	228.904
1210.1	247.369
1213.76	345.324
1217.41	394.906
1221.06	321.762
1224.71	228.604
1228.36	258.092
1232.01	334.453
1235.65	420.5
1239.3	206.387
1242.94	290.598
1246.58	274.766
1250.22	219.305
1253.85	201.488
1257.49	213.352
1261.12	214.73
1264.75	314.553
1268.38	185.068
1272.01	268.637
1275.64	136.453
1279.27	133.709
1282.89	90.506
1286.51	56.52
1290.13	18.25
1293.75	153.008
1297.37	6.963
1300.98	182.854
1304.6	234.305
1308.21	261.223
1311.82	109.184
1315.43	122.246
1319.03	42.305
1322.64	17.518
1326.24	1.797
1329.85	141.303
1333.44	394.51
1337.04	325.07
1340.64	124.113
1344.24	234.906
1347.83	276.957
1351.42	191.812
1355.01	277.367
1358.6	107.641
1362.19	261.482
1365.78	313.336
1369.36	83.84
1372.94	423.533
1376.53	330.705
1380.1	444
1383.68	585.875
1387.26	207.332
1390.83	70.379
1394.41	496.689
1397.98	479.953
1401.55	413.096
1405.12	200.207
1408.68	556.918
1412.25	290.9
1415.81	268.469
1419.37	279.443
1422.93	124.809
1426.49	233.93
1430.05	86.025
1433.6	66.914
1437.15	333.387
1440.71	275.756
1444.26	189.426
1447.81	312.973
1451.35	509.932
1454.9	352.459
1458.44	400.52
1461.98	18.039
1465.53	86.492
1469.07	132.592
1472.6	126.838
1476.14	149.729
1479.67	0
