Measurement: Raman, 514 nm, ccw, Raman Data Processed
Mineral: Rhodonite
Rruff sample: R040041
Ideal chemistry: Mn^2+^SiO_3_
Locality: Franklin, Sussex County, New Jersey, USA
Source: University of Arizona Mineral Museum
Description: Pink prismatic crystals
Measured chemistry: (Mn_0.63_Ca_0.21_Zn_0.12_Mg_0.02_Fe_0.02_)_Î£=1_Si_1.00_O_3_
Pin_id: M00442
Orientation: Laser parallel to a* (1 0 0). Fiducial mark perpendicular to laser is parallel to -b [0 -1 0]
Raman shift (cm-1)	intensity
91.284	0
95.465	35.532
99.644	549.473
103.82	1183.06
107.995	6202.1
112.168	7782.55
116.339	3359.34
120.508	1677.68
124.675	1915.86
128.84	2146.14
133.003	1581.58
137.164	1182.08
141.323	676.49
145.48	293.515
149.635	442.402
153.788	806.281
157.939	1144.63
162.088	908.801
166.235	483.168
170.38	610.816
174.523	900.608
178.664	651.906
182.803	78.966
186.94	120.972
191.076	227.933
195.209	59.218
199.34	228.33
203.47	123.688
207.597	218.84
211.722	501.014
215.846	358.596
219.967	36.583
224.087	20.043
228.204	85.387
232.32	318.842
236.434	972.599
240.545	1886.75
244.655	2690.23
248.763	2548.12
252.869	1975.4
256.973	2011.06
261.075	2253.71
265.175	2019.45
269.273	1762.3
273.369	1822.56
277.463	1825.74
281.556	1622.6
285.646	1224.89
289.734	675.341
293.821	403.966
297.905	442.788
301.988	678.218
306.069	1047.81
310.147	1484.89
314.224	2296.03
318.299	3608.8
322.372	4376.09
326.443	5015.55
330.512	6505.99
334.579	8212.69
338.645	7324.63
342.708	5841.81
346.769	4848.22
350.829	3049.74
354.887	1863.56
358.942	1251.04
362.996	876.009
367.048	673.934
371.098	404.651
375.146	164.268
379.192	153.01
383.236	176.869
387.279	304.588
391.319	157.568
395.358	101.762
399.394	210.071
403.429	512.488
407.462	1147.01
411.493	2323.62
415.522	4223.32
419.549	5235.07
423.575	3455.22
427.598	1625.6
431.619	731.264
435.639	465.617
439.657	339.21
443.673	278.787
447.687	447.146
451.699	635.556
455.709	676.056
459.717	197.629
463.724	35.733
467.728	116.239
471.731	38.128
475.732	9.193
479.731	46.286
483.728	11.498
487.723	220.243
491.716	692.04
495.708	766.852
499.697	634.687
503.685	797.511
507.671	1722.34
511.655	2697.18
515.637	2162
519.617	1222.81
523.596	604.314
527.572	227.206
531.547	88.642
535.52	59.002
539.491	100.279
543.46	155.47
547.427	500.616
551.393	1175.69
555.356	2194.66
559.318	1780.54
563.278	781.299
567.236	319.95
571.192	184.484
575.147	82.897
579.099	27.173
583.05	28.823
586.999	54.264
590.946	23.177
594.891	13.54
598.834	32.052
602.776	109.432
606.715	204.323
610.653	242.939
614.589	333.867
618.523	462.795
622.456	657.553
626.386	751.608
630.315	1060.09
634.242	1344.1
638.167	1791.93
642.09	2447.51
646.012	3468.26
649.931	5236.02
653.849	9011.02
657.765	16735.6
661.679	32720.7
665.592	51588
669.502	46811.5
673.411	29016
677.318	17070.5
681.223	10553.1
685.126	6051.71
689.028	3552.01
692.927	2276.11
696.825	1673.01
700.721	1307.71
704.616	1195.21
708.508	1324.51
712.399	1561.61
716.288	1332.52
720.175	929.228
724.06	633.744
727.944	484.067
731.825	391.191
735.705	347.032
739.584	310.504
743.46	185.131
747.334	146.027
751.207	86.358
755.078	57.844
758.947	32.831
762.815	14.36
766.68	23.17
770.544	15.424
774.406	35.603
778.267	32.937
782.125	18.442
785.982	0.033
789.837	19.756
793.69	0.062
797.542	17.684
801.391	3.902
805.239	5.67
809.085	14.929
812.93	13.293
816.772	33.62
820.613	13.723
824.452	30.981
828.29	14.622
832.125	15.104
835.959	3.532
839.791	29.761
843.621	36.003
847.45	76.201
851.277	157.359
855.102	193.481
858.925	384.572
862.746	734.638
866.566	1474.68
870.384	2628.71
874.2	3172.73
878.015	2771.75
881.828	2400.76
885.639	2618.84
889.448	2634.97
893.256	1796.27
897.061	1261.77
900.865	1142.53
904.668	1432.43
908.468	2241.33
912.267	2973.09
916.064	2535.56
919.86	1944
923.653	1714.76
927.445	1932.34
931.236	3065.96
935.024	4945.53
938.811	4190.58
942.596	2437.51
946.379	1763.08
950.161	1756.83
953.94	2115.67
957.719	2931.9
961.495	5080.52
965.27	9700.34
969.043	18092.8
972.814	22096.2
976.583	17081.1
980.351	13957.4
984.117	16812.2
987.882	26238.6
991.644	29916.1
995.405	22343.8
999.165	20961.7
1002.92	17429.6
1006.68	10877.7
1010.43	6995.94
1014.18	5511.3
1017.93	5091.8
1021.68	5202.44
1025.43	6020.2
1029.18	6418.48
1032.92	6543.06
1036.66	6624.29
1040.4	8104.12
1044.14	10456.4
1047.88	9411.26
1051.62	5274.53
1055.35	2832.58
1059.08	1762.22
1062.81	1197.33
1066.54	902.897
1070.27	770.987
1073.99	691.728
1077.72	577.458
1081.44	461.332
1085.16	367.993
1088.88	305.871
1092.59	296.491
1096.31	249.91
1100.02	196.811
1103.73	202.878
1107.44	223.516
1111.15	258.659
1114.86	162.159
1118.57	179.573
1122.27	253.068
1125.97	191.379
1129.67	156.355
1133.37	116.949
1137.07	99.557
1140.76	105.246
1144.45	124.232
1148.15	89.446
1151.84	86.668
1155.53	73.923
1159.21	67.65
1162.9	52.993
1166.58	43.244
1170.26	63.453
1173.94	19.177
1177.62	2.1
1181.3	11.478
1184.97	25.113
1188.65	11.265
1192.32	15.607
1195.99	32.619
1199.66	2.861
1203.33	6.717
1206.99	8.843
1210.65	15.42
1214.32	9.447
1217.98	12.46
1221.64	8.6
1225.29	25.111
1228.95	27.688
1232.6	21.072
1236.26	9.459
1239.91	16.475
1243.56	11.673
1247.2	17.04
1250.85	4.472
1254.49	6.761
1258.13	25.795
1261.78	19.714
1265.41	19.439
1269.05	36.935
1272.69	29.405
1276.32	22.493
1279.95	58.407
1283.59	54.156
1287.21	39.896
1290.84	79.315
1294.47	39.816
1298.09	57.979
1301.72	36.198
1305.34	48.965
1308.96	7.432
1312.58	41.06
1316.19	98.312
1319.81	113.411
1323.42	135.918
1327.03	119.18
1330.64	149.721
1334.25	97.219
1337.86	133.396
1341.46	133.107
1345.07	119.011
1348.67	101.697
1352.27	108.1
1355.87	134.061
1359.46	123.204
1363.06	116.842
1366.65	165.886
1370.25	117.699
1373.84	119.371
1377.43	37.343
1381.02	64.644
1384.6	84.363
1388.18	109.234
1391.77	63.945
1395.35	100.52
1398.93	83.788
1402.51	67.275
1406.08	46.029
1409.66	108.749
1413.23	43.264
1416.8	66.392
1420.37	54.867
1423.94	59.666
1427.51	43.39
1431.08	60.92
1434.64	26.63
1438.2	47.358
1441.76	66.043
1445.32	66.593
1448.88	84.019
1452.43	18.012
1455.99	80.589
1459.54	61.017
1463.09	75.696
1466.64	92.234
1470.19	59.752
1473.74	77.93
1477.28	96.695
1480.83	102.15
1484.37	131.319
1487.91	106.117
1491.45	75.554
1494.98	76.167
1498.52	11.005
1502.05	1.925
1505.59	190.769
1509.12	84.104
1512.65	66.074
1516.17	89.054
1519.7	64.781
