Measurement: Raman, 514 nm, ccw, Raman Data Processed
Mineral: Rhodochrosite
Rruff sample: R050116
Ideal chemistry: MnCO_3_
Locality: Wudong mine, Liubao, Guangxi Autonomous Region, China
Source: He Xin Jian
Description: Pink crystal associated with colorless quartz
Measured chemistry: (Mn_0.81_Fe_0.17_Mg_0.01_Ca_0.01_)CO_3_
Pin_id: L00413
Orientation: Laser parallel to c* (0 0 1). Fiducial mark perpendicular to laser is parallel to a [1 0 0]
Raman shift (cm-1)	intensity
54.534	0
58.758	9.823
62.979	38.201
67.198	14.705
71.415	44.946
75.63	32.81
79.842	38.862
84.053	6.517
88.26	4.139
92.466	26.624
96.67	31.023
100.871	41.911
105.07	68.324
109.267	87.964
113.461	108.801
117.653	87.208
121.843	64.251
126.031	64.001
130.217	89.236
134.4	91.69
138.581	94.361
142.76	102.961
146.937	98.433
151.112	147.948
155.284	161.284
159.454	203.383
163.622	285.194
167.787	343.904
171.951	537.585
176.112	1034.22
180.271	2037.81
184.428	2349.35
188.583	1168.83
192.735	432.455
196.885	180.251
201.033	97.938
205.179	52.509
209.323	3.287
213.464	8.051
217.603	5.448
221.741	6.871
225.875	3.263
230.008	15.952
234.139	24.989
238.267	1.293
242.393	6.617
246.517	17.878
250.639	15.313
254.759	39.045
258.876	23.291
262.991	56.618
267.104	82.133
271.215	138.29
275.324	226.694
279.431	393.199
283.535	745.531
287.638	1088.6
291.738	924.508
295.836	502.602
299.932	224.662
304.025	157.552
308.117	120.38
312.206	86.062
316.293	76.322
320.378	53.308
324.461	54.847
328.542	50.352
332.621	46.827
336.697	27.273
340.772	37.688
344.844	30.078
348.914	8.439
352.982	42.77
357.048	28.073
361.111	10.342
365.173	12.579
369.232	4.457
373.29	33.712
377.345	25.281
381.398	1.978
385.449	11.508
389.497	16.474
393.544	16.784
397.589	22.646
401.631	2.854
405.672	17.831
409.71	4.757
413.746	12.683
417.78	4.238
421.812	5.101
425.842	4.277
429.869	22.867
433.895	2.45
437.918	9.007
441.94	14.575
445.959	20.129
449.976	38.034
453.991	17.714
458.004	25.341
462.015	33.818
466.024	38.252
470.031	41.676
474.035	44.276
478.038	39.703
482.038	40.093
486.037	61.421
490.033	61.702
494.027	61.969
498.019	56.38
502.009	59.58
505.997	72.07
509.983	79.754
513.967	75.031
517.949	75.077
521.929	64.057
525.906	63.105
529.882	88.154
533.855	52.207
537.827	64.23
541.796	62.129
545.764	37.244
549.729	54.274
553.692	24.294
557.653	71.42
561.612	56.416
565.569	15.52
569.524	25.654
573.477	15.81
577.428	21.819
581.377	41.498
585.324	32.459
589.269	9.274
593.212	26.536
597.152	17.685
601.091	12.965
605.028	20.397
608.962	4.163
612.895	2.201
616.825	6.521
620.754	17.73
624.68	26.927
628.605	2.242
632.527	5.006
636.447	18.896
640.366	17.261
644.282	22.68
648.196	16.433
652.109	24.196
656.019	29.353
659.927	10.827
663.834	22.061
667.738	24.497
671.64	29.423
675.54	19.645
679.439	14.197
683.335	36.124
687.229	21.456
691.121	43.495
695.012	44.521
698.9	60.555
702.786	82.766
706.67	127.752
710.552	265.724
714.433	755.681
718.311	2188.62
722.187	1701.55
726.061	651.485
729.934	283.471
733.804	156.427
737.672	104.293
741.539	69.146
745.403	43.961
749.265	15.783
753.126	17.585
756.984	10.73
760.84	7.869
764.695	10.027
768.547	16.679
772.398	25.249
776.246	0.857
780.093	22.562
783.937	19.958
787.78	3.41
791.621	10.104
795.459	8.572
799.296	12.211
803.131	12.406
806.964	14.954
810.795	0.277
814.623	4.289
818.45	19.602
822.275	21.822
826.098	7.06
829.92	14.272
833.739	27.432
837.556	0.43
841.371	20.615
845.184	20.701
848.996	4.772
852.805	0.17
856.613	11.868
860.418	11.372
864.222	19.908
868.023	23.91
871.823	12.901
875.621	0.119
879.417	5.832
883.211	-1.083
887.003	2.224
890.793	7.496
894.581	15.347
898.367	7.191
902.152	8.015
905.934	7.158
909.714	8.38
913.493	13.282
917.27	18.011
921.044	5.76
924.817	19.504
928.588	3.945
932.357	1.225
936.124	2.446
939.889	3.066
943.652	8.358
947.414	21.829
951.173	17.627
954.931	2.673
958.686	2.144
962.44	2.321
966.192	0.416
969.942	31.292
973.69	23.105
977.436	1.913
981.18	20.714
984.922	31.169
988.663	4.971
992.401	28.933
996.138	40.923
999.873	83.919
1003.61	122.746
1007.34	103.803
1011.07	140.88
1014.79	187.978
1018.52	217.099
1022.24	278.242
1025.96	257.286
1029.68	299.588
1033.4	325.073
1037.12	301.892
1040.83	364.172
1044.54	424.478
1048.25	528.811
1051.96	616.169
1055.67	735.152
1059.37	980.112
1063.08	1382.57
1066.78	1605.07
1070.48	2282.61
1074.17	3853.13
1077.87	9421.63
1081.56	33060.3
1085.26	52509
1088.94	15667.8
1092.63	4727.76
1096.32	1972.37
1100	1039.27
1103.69	650.167
1107.37	455.181
1111.05	325.195
1114.72	292.273
1118.4	259.382
1122.07	187.519
1125.74	171.685
1129.41	127.948
1133.08	146.188
1136.75	95.466
1140.41	105.824
1144.07	85.427
1147.73	103.195
1151.39	61.585
1155.05	69.999
1158.7	54.464
1162.36	50.215
1166.01	44.741
1169.66	18.242
1173.3	42.853
1176.95	46.437
1180.59	55.069
1184.24	49.226
1187.88	16.936
1191.52	16.65
1195.15	39.366
1198.79	33.047
1202.42	32.74
1206.05	18.715
1209.68	44.629
1213.31	28.648
1216.93	24.914
1220.56	14.875
1224.18	5.774
1227.8	16.771
1231.42	38.369
1235.04	8.684
1238.65	22.133
1242.26	24.203
1245.88	26.588
1249.48	11.312
1253.09	19.145
1256.7	23.233
1260.3	40.224
1263.9	22.056
1267.51	23.894
1271.11	26.732
1274.7	2.562
1278.3	27.387
1281.89	22.204
1285.48	20.98
1289.07	6.179
1292.66	4.572
1296.25	26.066
1299.83	24
1303.41	26.652
1306.99	37.243
1310.57	33.786
1314.15	6.225
1317.73	3.623
1321.3	3.988
1324.87	10.335
1328.44	6.633
1332.01	9.887
1335.58	11.34
1339.14	19.327
1342.71	32.519
1346.27	17.643
1349.83	20.693
1353.39	22.691
1356.94	0.351
1360.5	4.558
1364.05	11.433
1367.6	7.698
1371.15	1.768
1374.7	19.68
1378.24	15.069
1381.79	22.027
1385.33	8.779
1388.87	5.492
1392.41	32.222
1395.95	6.83
1399.48	10.449
1403.02	29.971
1406.55	77.538
1410.08	113.654
1413.61	148.114
1417.13	127.983
1420.66	112.526
1424.18	103.704
1427.7	117.004
1431.22	86.219
1434.74	96.873
1438.26	128.685
1441.77	115.108
1445.28	116.947
1448.79	121.792
1452.3	99.135
1455.81	75.267
1459.32	82.4
1462.82	13.66
1466.32	26.684
1469.82	31.401
1473.32	10.789
1476.82	29.035
1480.32	23.362
1483.81	9.141
1487.3	10.216
1490.79	24.156
1494.28	19.203
1497.77	22.576
1501.25	30.685
1504.74	4.162
1508.22	22.722
1511.7	0
