Measurement: Raman, 514 nm, ccw, Raman Data Processed
Mineral: Rhodonite
Rruff sample: R040041
Ideal chemistry: Mn^2+^SiO_3_
Locality: Franklin, Sussex County, New Jersey, USA
Source: University of Arizona Mineral Museum
Description: Pink prismatic crystals
Measured chemistry: (Mn_0.63_Ca_0.21_Zn_0.12_Mg_0.02_Fe_0.02_)_Î£=1_Si_1.00_O_3_
Pin_id: L00464
Orientation: Laser parallel to (1 0 1). Fiducial mark perpendicular to laser is parallel to b [0 1 0]
Raman shift (cm-1)	intensity
90.003	0
94.188	110.772
98.37	2226.24
102.55	4062.66
106.729	1732.02
110.905	4254.89
115.079	3992.61
119.251	3297.06
123.422	6356.26
127.59	5817.92
131.756	2010.32
135.92	1302.26
140.082	2053.83
144.242	1680.32
148.4	809.853
152.556	898.641
156.71	1176.67
160.862	1130.43
165.012	788.451
169.16	954.518
173.306	1148.35
177.449	401.922
181.591	7.866
185.731	80.395
189.869	502.056
194.005	98.749
198.139	211.842
202.271	191.796
206.4	4.238
210.528	555.812
214.654	1020.35
218.778	707.339
222.9	387.453
227.019	242.816
231.137	481.527
235.253	1199.41
239.367	2551.2
243.479	2975.64
247.589	2838.48
251.697	2479.59
255.803	2293.6
259.906	3078.31
264.008	3509.25
268.108	2497.5
272.206	1965.67
276.302	1789.19
280.396	1499.72
284.488	1072.72
288.578	1150.39
292.666	1783.09
296.753	3060.06
300.837	4606.41
304.919	4962.85
308.999	4469.58
313.077	3224.44
317.154	1873.79
321.228	1495.48
325.3	1366.46
329.371	1393.7
333.439	1573.15
337.506	2102.8
341.57	3037.62
345.633	3964.34
349.693	3911.47
353.752	3447.04
357.809	4344.23
361.863	5710.65
365.916	6214.6
369.967	6219.94
374.016	4907.45
378.063	3109.65
382.108	1845.06
386.151	1346.76
390.192	910.128
394.231	501.699
398.269	350.897
402.304	139.023
406.337	245.094
410.369	242.1
414.398	155.033
418.426	36.92
422.452	12.105
426.475	104.355
430.497	91.986
434.517	105.053
438.535	52.258
442.551	24.281
446.565	70.24
450.577	18.676
454.588	224.274
458.596	267.091
462.602	89.788
466.607	129.352
470.61	274.799
474.61	403.124
478.609	645.317
482.606	641.383
486.601	664.329
490.594	1233.13
494.585	1933.79
498.575	1545.33
502.562	776.755
506.548	606.072
510.531	684.323
514.513	814.462
518.493	904.495
522.47	776.532
526.446	522.749
530.421	220.18
534.393	86.492
538.363	26.458
542.331	17.187
546.298	60.553
550.263	119.409
554.225	65.122
558.186	224.553
562.145	360.774
566.103	326.767
570.058	437.53
574.011	440.063
577.963	352.668
581.912	309.082
585.86	295.824
589.806	102.881
593.75	36.969
597.692	68.497
601.632	146.512
605.571	36.124
609.507	94.738
613.442	205.716
617.375	268.428
621.306	314.916
625.235	495.69
629.162	637.661
633.087	861.384
637.011	1126.59
640.932	1504.03
644.852	1999.78
648.77	2755.2
652.686	4352.33
656.6	7700.82
660.513	15049
664.423	29409.3
668.332	41572.9
672.239	32226.6
676.144	19213.3
680.047	13311.8
683.948	8258.5
687.848	4418.81
691.746	2731.89
695.641	1888.22
699.535	1590.31
703.427	1847.53
707.318	2380.53
711.206	4439.27
715.093	6162.2
718.978	4473.2
722.861	2104.03
726.742	1224.68
730.621	915.159
734.499	865.471
738.374	725.678
742.248	675.944
746.12	431.701
749.99	358.104
753.859	229.64
757.725	170.344
761.59	49.139
765.453	109.954
769.314	34.748
773.174	25.389
777.031	14.86
780.887	10.151
784.741	28.253
788.593	89.201
792.443	11.009
796.291	32.647
800.138	30.118
803.983	115.445
807.826	51.392
811.667	59.469
815.507	89.766
819.344	90.674
823.18	58.448
827.014	93.732
830.847	64.861
834.677	87.27
838.506	29.993
842.333	13.089
846.158	13.647
849.981	109.684
853.803	6.819
857.623	56.684
861.441	189.681
865.257	276.028
869.071	372.338
872.884	368.605
876.695	504.915
880.504	481.228
884.311	407.542
888.117	513.848
891.92	500.14
895.722	496.454
899.523	512.814
903.321	869.25
907.118	1645.76
910.913	2932.33
914.706	3578.74
918.497	2385.51
922.287	1801.85
926.075	1386.73
929.861	1312.29
933.645	1696.61
937.428	2221.13
941.208	1567.13
944.987	1062.19
948.765	1086.41
952.54	1291.96
956.314	1588.04
960.086	2288.15
963.856	3760.09
967.625	7690.78
971.392	13957.2
975.157	13954
978.92	10444.6
982.682	9359.9
986.441	10930.3
990.199	15967.3
993.956	16647.7
997.71	17463.8
1001.46	22821
1005.21	20036.3
1008.96	10848.1
1012.71	6195.84
1016.46	4505.47
1020.2	3521.86
1023.94	2842.84
1027.68	2286.54
1031.42	2126.88
1035.16	1556.19
1038.9	1435.69
1042.63	1765.83
1046.36	2577.43
1050.09	3964.11
1053.82	4202.9
1057.55	2497.2
1061.27	1331.15
1065	1007.38
1068.72	785.954
1072.44	843.792
1076.16	851.816
1079.87	649.544
1083.59	627.179
1087.3	475.596
1091.01	210.966
1094.72	179.955
1098.43	288.084
1102.14	351.794
1105.84	443.062
1109.55	282.246
1113.25	339.875
1116.94	199.994
1120.64	179.484
1124.34	317.715
1128.03	284.873
1131.73	152.952
1135.42	281.712
1139.11	121.091
1142.8	59.671
1146.48	149.705
1150.16	188.685
1153.85	189.019
1157.53	148.236
1161.21	200.044
1164.88	113.329
1168.56	110.972
1172.23	91.227
1175.91	14.062
1179.58	7.273
1183.25	0.759
1186.91	145.194
1190.58	71.249
1194.24	126.053
1197.91	60.665
1201.57	85.335
1205.23	71.233
1208.88	2.227
1212.54	115.127
1216.19	187.718
1219.85	119.624
1223.5	221.094
1227.14	202.271
1230.79	16.324
1234.44	3.271
1238.08	197.061
1241.72	266.56
1245.37	245.681
1249	324.441
1252.64	262.483
1256.28	220.077
1259.91	12.747
1263.54	165.623
1267.17	21.854
1270.8	210.032
1274.43	168.94
1278.06	111.38
1281.68	266.635
1285.3	191.172
1288.92	142.972
1292.54	152.651
1296.16	17.594
1299.78	35.434
1303.39	169.947
1307	178.763
1310.61	393.054
1314.22	300.567
1317.83	239.043
1321.44	218.308
1325.04	143.668
1328.64	99.945
1332.24	60.899
1335.85	213.338
1339.44	290.242
1343.04	253.547
1346.63	533.087
1350.23	369.318
1353.82	380.895
1357.41	297.926
1360.99	201.752
1364.58	235.061
1368.17	162.687
1371.75	39.415
1375.33	298.57
1378.91	168.171
1382.49	464.727
1386.07	512.114
1389.64	212.364
1393.21	252.01
1396.79	126.366
1400.36	138.733
1403.92	23.837
1407.49	66.276
1411.06	166.718
