Measurement: Raman, 514 nm, ccw, Raman Data Processed
Mineral: Rhodonite
Rruff sample: R040041
Ideal chemistry: Mn^2+^SiO_3_
Locality: Franklin, Sussex County, New Jersey, USA
Source: University of Arizona Mineral Museum
Description: Pink prismatic crystals
Measured chemistry: (Mn_0.63_Ca_0.21_Zn_0.12_Mg_0.02_Fe_0.02_)_Î£=1_Si_1.00_O_3_
Pin_id: L00454
Orientation: Laser parallel to -b* (0 -1 0). Fiducial mark perpendicular to laser is parallel to c [0 0 1]
Raman shift (cm-1)	intensity
102.55	0
106.729	1153.43
110.905	4347.1
115.079	3535.49
119.251	1580.27
123.422	1507.9
127.59	1835.51
131.756	2017.98
135.92	1531.29
140.082	1546.61
144.242	623.633
148.4	34.514
152.556	769.494
156.71	994.448
160.862	658.437
165.012	364.262
169.16	523.371
173.306	842.54
177.449	880.416
181.591	404.69
185.731	173.437
189.869	260.523
194.005	140.64
198.139	299.078
202.271	289.271
206.4	41.669
210.528	684.291
214.654	935.406
218.778	487.825
222.9	13.424
227.019	126.799
231.137	51.846
235.253	178.539
239.367	811.44
243.479	1770.77
247.589	2207.25
251.697	1932.82
255.803	1884.61
259.906	2548.81
264.008	2326.48
268.108	1532.42
272.206	1032.76
276.302	1110.94
280.396	1095.91
284.488	806.422
288.578	405.887
292.666	101.932
296.753	98.877
300.837	103.754
304.919	204.162
308.999	477.607
313.077	1131.21
317.154	2039.59
321.228	3439.5
325.3	4090.63
329.371	4977.33
333.439	6591.82
337.506	6794.04
341.57	5642.61
345.633	4541.37
349.693	3573.05
353.752	2487.13
357.809	2594.24
361.863	2660.54
365.916	2078.14
369.967	1340.88
374.016	775.688
378.063	394.561
382.108	338.649
386.151	569.929
390.192	813.446
394.231	587.133
398.269	180.835
402.304	288.628
406.337	887.506
410.369	1719.5
414.398	3285.53
418.426	5473.11
422.452	5440.97
426.475	3177.78
430.497	1949.65
434.517	1868.71
438.535	1913.44
442.551	1314.72
446.565	763.441
450.577	524.595
454.588	778.943
458.596	663.553
462.602	225.107
466.607	56.788
470.61	197.518
474.61	453.101
478.609	454.566
482.606	359.96
486.601	223.288
490.594	538.578
494.585	909.903
498.575	760.216
502.562	608.518
506.548	1010.78
510.531	1959.96
514.513	2341.07
518.493	1502.11
522.47	795.339
526.446	237.171
530.421	65.838
534.393	76.257
538.363	77.487
542.331	270.53
546.298	505.413
550.263	494.321
554.225	647.431
558.186	709.549
562.145	503.479
566.103	269.21
570.058	276.734
574.011	213.046
577.963	9.865
581.912	4.125
585.86	56.96
589.806	68.562
593.75	96.953
597.692	117.154
601.632	9.479
605.571	34.611
609.507	74.011
613.442	80.352
617.375	276.676
621.306	308.351
625.235	369.85
629.162	564.912
633.087	730.912
637.011	967.795
640.932	1483.23
644.852	1858.39
648.77	2692.06
652.686	4402.61
656.6	7916.04
660.513	15874.2
664.423	28468.2
668.332	36861.1
672.239	27213.9
676.144	15976.9
680.047	10566.9
683.948	6406.5
687.848	3530.56
691.746	2154.61
695.641	1551.2
699.535	1196.76
703.427	1027.87
707.318	945.639
711.206	1314.08
715.093	1575.19
718.978	1222.97
722.861	753.418
726.742	514.506
730.621	552.252
734.499	823.002
738.374	893.731
742.248	849.585
746.12	517.73
749.99	322.325
753.859	226.359
757.725	175.578
761.59	42.231
765.453	62.466
769.314	52.832
773.174	61.697
777.031	148.736
780.887	44.505
784.741	24.036
788.593	3.086
792.443	8.911
796.291	49.533
800.138	12.323
803.983	38.001
807.826	25.085
811.667	119.015
815.507	63.354
819.344	87.014
823.18	19.148
827.014	11.014
830.847	19.393
834.677	22.03
838.506	31.144
842.333	26.176
846.158	82.071
849.981	75.855
853.803	135.527
857.623	161.093
861.441	441.563
865.257	880.964
869.071	1575.32
872.884	2258.64
876.695	2389.93
880.504	2027.23
884.311	1708.55
888.117	1889.83
891.92	1536.22
895.722	900.808
899.523	689.668
903.321	620.863
907.118	835.426
910.913	1222.61
914.706	1428.78
918.497	1145.25
922.287	1098.55
926.075	1149.46
929.861	1727.67
933.645	2845.29
937.428	3658.03
941.208	2380.76
944.987	1375.97
948.765	1280.6
952.54	1380.07
956.314	1731.05
960.086	2523.36
963.856	4070.88
967.625	7922.83
971.392	13949.3
975.157	14142.4
978.92	11325.6
982.682	11847.5
986.441	15543.1
990.199	23339.9
993.956	22907.2
997.71	22593.9
1001.46	27351.6
1005.21	22619.4
1008.96	13587.8
1012.71	8806.87
1016.46	7087.32
1020.2	6250.04
1023.94	6018.98
1027.68	5993.28
1031.42	5651.11
1035.16	5270.73
1038.9	5165.29
1042.63	6405.17
1046.36	8105.09
1050.09	6801.24
1053.82	4335.05
1057.55	2484.37
1061.27	1556.06
1065	1027.73
1068.72	882.834
1072.44	841.564
1076.16	829.237
1079.87	764.421
1083.59	597.668
1087.3	457.061
1091.01	304.771
1094.72	285.354
1098.43	306.49
1102.14	349.023
1105.84	667.504
1109.55	410.443
1113.25	196.304
1116.94	141.711
1120.64	231.029
1124.34	405.373
1128.03	263.448
1131.73	177.642
1135.42	222.715
1139.11	87.17
1142.8	69.055
1146.48	101.493
1150.16	77.453
1153.85	129.324
1157.53	145.109
1161.21	244.232
1164.88	47.226
1168.56	53.352
1172.23	89.745
1175.91	86.553
1179.58	21.122
1183.25	39.018
1186.91	59.514
1190.58	120.322
1194.24	45.745
1197.91	62.822
1201.57	139.498
1205.23	125.173
1208.88	3.543
1212.54	104.022
1216.19	188.437
1219.85	93.439
1223.5	65.278
1227.14	120.131
1230.79	75.118
1234.44	28.455
1238.08	52.024
1241.72	120.058
1245.37	220.231
1249	229.252
1252.64	279.473
1256.28	143.395
1259.91	494.105
1263.54	63.466
1267.17	24.203
1270.8	106.777
1274.43	189.76
1278.06	170.593
1281.68	328.959
1285.3	294.322
1288.92	171.747
1292.54	259.957
1296.16	138.445
1299.78	106.552
1303.39	155.172
1307	246.291
1310.61	392.18
1314.22	411.308
1317.83	377.409
1321.44	305.285
1325.04	177.824
1328.64	14.216
1332.24	92.462
1335.85	90.368
1339.44	204.577
1343.04	266.82
1346.63	357.405
1350.23	338.669
1353.82	323.065
1357.41	182.271
1360.99	101.204
1364.58	149.148
1368.17	116.953
1371.75	34.664
1375.33	182.817
1378.91	192.157
1382.49	358.744
1386.07	427.039
1389.64	296.243
1393.21	147.356
1396.79	47.594
