Measurement: Raman, 514 nm, ccw, Raman Data Processed
Mineral: Rhodonite
Rruff sample: R040041
Ideal chemistry: Mn^2+^SiO_3_
Locality: Franklin, Sussex County, New Jersey, USA
Source: University of Arizona Mineral Museum
Description: Pink prismatic crystals
Measured chemistry: (Mn_0.63_Ca_0.21_Zn_0.12_Mg_0.02_Fe_0.02_)_Î£=1_Si_1.00_O_3_
Pin_id: L00227
Orientation: Laser parallel to c* (0 0 1). Fiducial mark perpendicular to laser is parallel to a [1 0 0]
Raman shift (cm-1)	intensity
116.47	0
120.642	181.034
124.811	1047.64
128.979	1179.73
133.144	1422.37
137.307	2113.55
141.469	2023.07
145.628	582.373
149.786	307.754
153.941	432.72
158.094	706.576
162.245	731.58
166.395	858.314
170.542	1019.05
174.687	714.609
178.83	466.454
182.972	189.342
187.111	413.011
191.248	378.5
195.383	94.862
199.516	228.211
203.647	240.138
207.777	159.367
211.904	760.075
216.029	691.682
220.152	283.943
224.273	136.467
228.392	209.07
232.509	231.748
236.625	604.392
240.738	1156.68
244.849	1326.34
248.958	1395.92
253.065	1076.14
257.171	1296.89
261.274	1682.51
265.375	1513.42
269.475	1124.01
273.572	1025.28
277.667	1097.77
281.76	792.976
285.852	665.491
289.941	629.648
294.029	723.994
298.114	1397.93
302.198	1841.26
306.279	2103.44
310.359	2034.55
314.436	1654.85
318.512	2044.39
322.586	2302.61
326.657	2136.52
330.727	2410
334.795	2983.68
338.861	3177.48
342.924	3081.43
346.986	3153.97
351.046	2375.37
355.104	2239.72
359.16	2302.8
363.214	2542.27
367.267	2349.74
371.317	1931.55
375.365	1230.25
379.411	682.964
383.456	580.724
387.498	506.137
391.539	320.337
395.577	104.564
399.614	69.262
403.649	13.807
407.681	248.203
411.712	373.182
415.741	839.321
419.768	1307.36
423.793	810.889
427.816	376.902
431.837	297.278
435.857	504.011
439.874	538.169
443.889	335.024
447.903	368.731
451.914	564.385
455.924	550.316
459.932	345.362
463.938	509.346
467.941	272.229
471.943	595.018
475.944	787.68
479.942	710.312
483.938	582.91
487.932	625.529
491.925	1188.2
495.915	1190.77
499.904	873.193
503.891	685.482
507.876	797.757
511.859	1299.88
515.84	1171.81
519.819	763.526
523.796	425.38
527.771	217.725
531.745	11.146
535.716	32.467
539.686	214.321
543.654	75.76
547.62	106.895
551.584	327.77
555.546	898.19
559.506	997.223
563.465	426.685
567.421	265.943
571.376	85.49
575.329	134.729
579.279	154.114
583.228	7.146
587.175	9.446
591.121	62.549
595.064	34.342
599.006	110.821
602.945	28.103
606.883	98.385
610.819	64.611
614.753	209.41
618.685	219.543
622.615	423.052
626.544	389.335
630.471	484.489
634.395	686.498
638.318	1084.23
642.239	1351.8
646.158	1922.15
650.076	2645.28
653.991	4359.6
657.905	8160.64
661.817	15824.5
665.726	28193.7
669.635	29442.4
673.541	18210.7
677.445	11178.6
681.348	7276.23
685.248	4223.22
689.147	2417.23
693.044	1679.94
696.94	1198.88
700.833	1000.97
704.724	1155.15
708.614	1320.12
712.502	2484.74
716.388	2329.01
720.272	1023.15
724.155	746.977
728.035	649.16
731.914	440.809
735.791	430.092
739.666	510.988
743.539	381.002
747.41	233.146
751.28	157.166
755.148	98.752
759.014	82.908
762.878	57.197
766.74	155.16
770.601	213.051
774.46	40.646
778.316	69.014
782.172	152.402
786.025	35.609
789.876	106.789
793.726	69.828
797.574	116.562
801.42	132.342
805.264	42.336
809.107	92.668
812.947	52.529
816.786	171.908
820.623	312.498
824.459	229.941
828.292	283.742
832.124	457.414
835.954	1071.04
839.782	1244.65
843.608	908.203
847.433	631.717
851.255	285.215
855.076	628.711
858.895	502.152
862.713	295.568
866.528	409.061
870.342	792.555
874.154	1316.12
877.965	1089.9
881.773	723.674
885.58	1037.51
889.385	710.914
893.188	894.629
896.989	619.027
900.789	793.596
904.587	947.557
908.383	971.684
912.177	1581.03
915.97	1754.53
919.76	1358.44
923.55	1123.54
927.337	1011.57
931.122	1287.02
934.906	2238.79
938.688	1932.86
942.468	1221.08
946.247	1003.59
950.023	1268.66
953.798	1366.01
957.572	1527.12
961.343	2442.38
965.113	4694.72
968.881	9420.78
972.647	13127.6
976.411	11024.6
980.174	8992.16
983.935	9840
987.694	15196.5
991.452	20930.7
995.207	18739.3
998.961	20977.3
1002.71	23607
1006.46	15295.9
1010.21	8405.61
1013.96	5840.54
1017.71	4610.62
1021.45	3691.85
1025.19	3369.09
1028.93	3320.43
1032.67	2976.12
1036.41	2718.19
1040.14	2931.42
1043.87	4195.31
1047.61	5174.63
1051.34	4731.99
1055.06	2858.26
1058.79	1312.13
1062.52	1112.92
1066.24	964.744
1069.96	1025.92
1073.68	787.275
1077.4	688.695
1081.11	379.271
1084.83	421.4
1088.54	492.676
1092.25	373.996
1095.96	374.762
1099.67	297.006
1103.37	19.107
1107.08	430.301
1110.78	82.463
1114.48	23.576
1118.18	255.826
1121.88	337.973
1125.57	329.354
1129.27	119.969
1132.96	177.898
1136.65	126.207
1140.34	117.92
1144.02	259.705
1147.71	303.943
1151.39	357.811
1155.07	149.189
1158.76	78.697
1162.43	161.67
1166.11	107.285
1169.79	156.334
1173.46	321.641
1177.13	81.693
1180.8	241.523
1184.47	240.725
1188.14	345.729
1191.8	129.914
1195.46	56.619
1199.13	15.896
1202.79	437.693
1206.45	288.83
1210.1	419.355
1213.76	369.135
1217.41	399.535
1221.06	298.287
1224.71	418.943
1228.36	325.539
1232.01	425.607
1235.65	545.648
1239.3	452.898
1242.94	519.736
1246.58	386.283
1250.22	601.922
1253.85	316.16
1257.49	640.035
1261.12	512.914
1264.75	575.834
1268.38	342.006
1272.01	582.859
1275.64	431.355
1279.27	50.088
1282.89	61.609
1286.51	338.564
1290.13	135.227
1293.75	60.139
1297.37	323.645
1300.98	206.254
1304.6	307.312
1308.21	373.332
1311.82	92.406
1315.43	59.641
1319.03	178.131
1322.64	2.732
1326.24	10.744
1329.85	303.475
1333.44	306.477
1337.04	369.34
1340.64	256.689
1344.24	228.473
1347.83	358.932
1351.42	188.834
1355.01	303.244
1358.6	85.941
1362.19	309.18
1365.78	112.617
1369.36	35.686
1372.94	336.5
1376.53	225.674
1380.1	314.969
1383.68	512.914
1387.26	99.119
1390.83	60.34
1394.41	308.984
1397.98	337.086
1401.55	411.773
1405.12	410.916
1408.68	426.508
1412.25	506.094
1415.81	367.564
1419.37	420.949
1422.93	404.062
1426.49	98.246
1430.05	101.566
1433.6	353.453
1437.15	511.008
1440.71	615.547
1444.26	804.535
1447.81	914.102
1451.35	935.992
1454.9	904.328
1458.44	698.676
1461.98	413.891
1465.53	332.555
1469.07	304.648
1472.6	347.184
1476.14	564.504
1479.67	335.645
1483.21	481.875
1486.74	825.617
1490.27	570.492
1493.8	646.625
1497.32	483.719
