Measurement: Raman, 514 nm, ccw, Raman Data Processed
Mineral: Rhodizite
Rruff sample: R050099
Ideal chemistry: KAl_4_Be_5_B_11_O_28_
Locality: Mont Ibity, Antsirabe, Madagascar
Source: Rock Currier
Description: Pale green single crystals
Measured chemistry: ([box]_0.49_K_0.32_Rb_0.17_Na_0.02_)(Al_3.96_Si_0.04_)_Σ=4_Be_4.00_(B_11.45_Be_0.55_)_Σ=12_O_28_
Pin_id: L00516
Orientation: Laser parallel to a* (1 0 0). Fiducial mark perpendicular to laser is parallel to b [0 1 0]
Raman shift (cm-1)	intensity
103.82	0
107.995	70.007
112.168	33.579
116.339	1799.57
120.508	600.744
124.675	460.299
128.84	433.568
133.003	511.764
137.164	590.668
141.323	459.623
145.48	624.961
149.635	731.021
153.788	706.766
157.939	484.078
162.088	371.699
166.235	488.084
170.38	364.162
174.523	433.818
178.664	370.973
182.803	435.307
186.94	454.23
191.076	287.662
195.209	472.865
199.34	329.072
203.47	285.396
207.597	387.869
211.722	192.486
215.846	205.746
219.967	146.082
224.087	199.494
228.204	106.986
232.32	108.9
236.434	88.17
240.545	55.988
244.655	105.709
248.763	179.6
252.869	90.797
256.973	51.26
261.075	1.27
265.175	99.854
269.273	151.727
273.369	57.268
277.463	284.84
281.556	353.139
285.646	429.797
289.734	605.254
293.821	2275.26
297.905	3788.66
301.988	2132.4
306.069	918.225
310.147	443.488
314.224	333.994
318.299	115.928
322.372	138.285
326.443	134.932
330.512	110.16
334.579	152.996
338.645	159.512
342.708	472.389
346.769	510.789
350.829	334.889
354.887	127.6
358.942	210.436
362.996	271.176
367.048	33.83
371.098	288.869
375.146	390.697
379.192	454.473
383.236	102.15
387.279	320.85
391.319	414.244
395.358	758.459
399.394	955.039
403.429	1046.03
407.462	1160.33
411.493	1670.72
415.522	2463.56
419.549	4321.88
423.575	8717.19
427.598	17552.1
431.619	25222.2
435.639	14370.3
439.657	6530.67
443.673	4038.11
447.687	3163.17
451.699	2735.81
455.709	4211.74
459.717	7096.57
463.724	14289.1
467.728	27129
471.731	32511.2
475.732	21380.2
479.731	12384.6
483.728	6744.62
487.723	3424.3
491.716	1819.53
495.708	1351.4
499.697	833.664
503.685	476.086
507.671	500.082
511.655	800.377
515.637	586.992
519.617	339.328
523.596	497.736
527.572	586.408
531.547	377.711
535.52	668.623
539.491	559.578
543.46	974.49
547.427	1642.28
551.393	958.354
555.356	477.363
559.318	154.906
563.278	464.227
567.236	210.402
571.192	185.926
575.147	159.805
579.099	16.152
583.05	295.727
586.999	238.215
590.946	127.234
594.891	177.662
598.834	17.99
602.776	409.119
606.715	273.965
610.653	72.377
614.589	54.262
618.523	242.449
622.456	508.748
626.386	238.504
630.315	169.303
634.242	402.084
638.167	766.133
642.09	1179.84
646.012	1539.37
649.931	2250.72
653.849	2865.95
657.765	1557.14
661.679	981.17
665.592	627.777
669.502	283.943
673.411	596.637
677.318	772.014
681.223	837.852
685.126	356.664
689.028	150.117
692.927	121.115
696.825	600.977
700.721	980.34
704.616	316.357
708.508	564.025
712.399	795.373
716.288	791.365
720.175	781.988
724.06	357.07
727.944	261.449
731.825	19.029
735.705	451.33
739.584	610.631
743.46	241.738
747.334	78.512
751.207	24.941
755.078	345.629
758.947	561.883
762.815	706.074
766.68	359.16
770.544	394.523
774.406	401.922
778.267	643.434
782.125	1282.88
785.982	1123.4
789.837	1569.57
793.69	2443.39
797.542	3597.03
801.391	3326.88
805.239	2681.03
809.085	2130.62
812.93	1977.94
816.772	1808.86
820.613	2317.84
824.452	1761.58
828.29	1364.13
832.125	1093.24
835.959	857.352
839.791	1336.34
843.621	1037.41
847.45	1159.98
851.277	1106.7
855.102	1111.67
858.925	1438.85
862.746	1424.39
866.566	1587.19
870.384	936.746
874.2	472.391
878.015	371.145
881.828	946.117
885.639	1226.2
889.448	1192.54
893.256	831.977
897.061	560.047
900.865	511.059
904.668	486.254
908.468	517.473
912.267	788.117
916.064	439.562
919.86	280.719
923.653	160.234
927.445	369.734
931.236	919.66
935.024	502.281
938.811	403.586
942.596	124.547
946.379	188.66
950.161	378.609
953.94	1038.3
957.719	878.742
961.495	805.941
965.27	289.586
969.043	25.148
972.814	411.785
976.583	711.516
980.351	661.051
984.117	397.402
987.882	6.434
991.644	193.816
995.405	445.52
999.165	520.809
1002.92	943.738
1006.68	981.559
1010.43	358.062
1014.18	359.594
1017.93	121.078
1021.68	581.723
1025.43	1455.89
1029.18	1493.27
1032.92	1307.83
1036.66	715.281
1040.4	496.613
1044.14	870.074
1047.88	1000.2
1051.62	1310.27
1055.35	1327.34
1059.08	1489.5
1062.81	1514.25
1066.54	676.836
1070.27	1061.23
1073.99	1057.24
1077.72	1897.62
1081.44	1886.83
1085.16	1810.67
1088.88	1041.87
1092.59	777.57
1096.31	678.883
1100.02	1005.5
1103.73	1871.92
1107.44	1643.87
1111.15	1322.22
1114.86	837.441
1118.57	410.363
1122.27	587.02
1125.97	520.156
1129.67	1322.06
1133.37	1561.82
1137.07	2178.83
1140.76	1567.91
1144.45	532.035
1148.15	679.66
1151.84	371.863
1155.53	917.52
1159.21	1685.54
1162.9	2039.18
1166.58	1446.19
1170.26	1213.6
1173.94	1161.6
1177.62	810.551
1181.3	774.738
1184.97	1587.68
1188.65	2320.97
1192.32	2385.57
1195.99	2625.97
1199.66	2843.77
1203.33	2700.23
1206.99	3489.78
1210.65	3933.7
1214.32	4730.02
1217.98	5569.29
1221.64	6543
1225.29	6920.06
1228.95	6435.52
1232.6	5428.01
1236.26	4266.43
1239.91	4009.82
1243.56	3953.43
1247.2	5013.44
1250.85	4273.01
1254.49	3922.34
1258.13	3075.61
1261.78	2271.03
1265.41	652.828
1269.05	709.332
1272.69	725.164
1276.32	1576.92
1279.95	1653.06
1283.59	2158.27
1287.21	1802.47
1290.84	1342.97
1294.47	1160.58
1298.09	45.25
1301.72	317.504
1305.34	578.098
1308.96	970.473
1312.58	1327.71
