Measurement: Raman, 514 nm, ccw, Raman Data Processed
Mineral: Rhodonite
Rruff sample: R040041
Ideal chemistry: Mn^2+^SiO_3_
Locality: Franklin, Sussex County, New Jersey, USA
Source: University of Arizona Mineral Museum
Description: Pink prismatic crystals
Measured chemistry: (Mn_0.63_Ca_0.21_Zn_0.12_Mg_0.02_Fe_0.02_)_Î£=1_Si_1.00_O_3_
Pin_id: M00442
Orientation: Laser parallel to a* (1 0 0). Fiducial mark perpendicular to laser is parallel to -b [0 -1 0]
Raman shift (cm-1)	intensity
89.89	0
94.071	107.217
98.251	1222.4
102.428	1233.18
106.604	1558.93
110.777	3632.72
114.949	2396.62
119.119	2483.41
123.286	3755.67
127.452	2887.59
131.615	2165.98
135.777	2508.42
139.937	3048.99
144.094	1619.2
148.25	844.584
152.403	724.521
156.555	738.218
160.705	630.335
164.853	986.467
168.998	1871.62
173.142	1802.62
177.284	1022.6
181.424	212.761
185.562	56.337
189.698	240.336
193.831	41.666
197.963	325.688
202.093	336.72
206.221	153.085
210.347	1046.7
214.472	1570.11
218.594	1228.31
222.714	849.258
226.832	714.686
230.948	966.608
235.063	2105.35
239.175	3259.29
243.286	3868.35
247.394	3979.05
251.501	3090.37
255.605	2759.54
259.708	2855.22
263.808	2389.77
267.907	1690.87
272.004	1508.86
276.099	1514.18
280.192	1365.53
284.283	1303.54
288.372	1378.8
292.459	2006.35
296.544	3383.21
300.627	4116.39
304.709	4143.74
308.788	3383.53
312.865	2634.94
316.941	2465.73
321.015	2881.4
325.086	2919.58
329.156	3120.24
333.224	3855.35
337.29	4508.88
341.354	4637.82
345.416	4760.15
349.476	4233.5
353.534	4182.55
357.591	5101.93
361.645	6117.49
365.698	6481.83
369.748	5913.48
373.797	4085.16
377.844	2394.71
381.889	1771.22
385.932	1826.91
389.973	1489.06
394.012	850.792
398.049	451.737
402.084	508.868
406.118	959.159
410.15	1582.6
414.179	2599.17
418.207	3831.89
422.233	3290.88
426.257	1704.61
430.279	699.934
434.299	367.093
438.318	268.447
442.334	83.825
446.349	11.489
450.361	135.974
454.372	310.39
458.381	165.164
462.388	61.008
466.394	47.225
470.397	173.505
474.398	312.289
478.398	416.141
482.396	390.082
486.391	776.05
490.385	1665.02
494.377	2184.01
498.368	1479.01
502.356	1031.99
506.342	1267.94
510.327	2118.9
514.31	2328.86
518.291	1533.79
522.27	741.869
526.247	241.566
530.222	23.588
534.196	35.606
538.167	112.401
542.137	58.109
546.105	25.518
550.071	296.844
554.035	849.002
557.998	1109.99
561.958	634.787
565.917	484.399
569.874	489.817
573.829	362.033
577.782	187.042
581.733	62.824
585.683	15.268
589.63	58.873
593.576	30.706
597.52	8.514
601.462	34.527
605.402	71.236
609.341	104.764
613.277	238.806
617.212	378.277
621.145	471.66
625.076	612.886
629.006	795.776
632.933	1053.79
636.859	1473.84
640.783	1919.84
644.705	2597.7
648.625	3962.82
652.543	6413.26
656.46	11849.2
660.375	23063.4
664.288	41166.7
668.199	45886
672.108	31081.4
676.016	19343.7
679.921	13007.3
683.825	7721.06
687.727	4516.88
691.628	2844.99
695.526	2073.11
699.423	1836.99
703.318	1998.93
707.211	2929.33
711.102	4756.44
714.992	4862.24
718.879	2762.75
722.765	1576.96
726.649	1039.88
730.532	820.52
734.412	729.871
738.291	628.088
742.168	484.631
746.043	315.458
749.916	216.677
753.788	176.24
757.658	100.383
761.526	114.956
765.392	67.08
769.257	43.052
773.119	1.139
776.98	19.639
780.839	8.411
784.697	13.552
788.552	11.741
792.406	73.636
796.258	34.721
800.108	1.419
803.957	32.775
807.804	12.4
811.649	35.238
815.492	19.693
819.333	92.555
823.173	7.131
827.011	11.954
830.847	1.992
834.681	7.795
838.514	33.645
842.345	24.292
846.174	18.958
850.001	4.399
853.827	144.44
857.651	201.419
861.473	448.367
865.293	994.785
869.112	1913.13
872.928	2650.95
876.744	2485.75
880.557	1881.54
884.369	1641.36
888.178	1520.19
891.987	1238.07
895.793	965.065
899.598	862.39
903.401	1003.08
907.202	1518.04
911.001	2159.94
914.799	2280.04
918.595	1848.81
922.389	1436.89
926.182	1385.15
929.972	1786.45
933.761	2795.56
937.549	3002.58
941.334	2083.68
945.118	1495.69
948.9	1555.64
952.681	1692.07
956.459	2294.86
960.236	3644.4
964.012	6736.51
967.785	13607.9
971.557	19114.8
975.327	17611
979.095	13198.2
982.862	12978.9
986.627	17817.7
990.39	24804.9
994.152	23985.5
997.912	27558
1001.67	32071.1
1005.43	23394.4
1009.18	13848
1012.93	9891.63
1016.68	7705.46
1020.43	6699.43
1024.18	5953.53
1027.93	5604.04
1031.67	5212.82
1035.42	5180.09
1039.16	5798.52
1042.9	8185.55
1046.63	10494.8
1050.37	10102.8
1054.11	6536.71
1057.84	3350.23
1061.57	1998.69
1065.3	1547
1069.03	1326.1
1072.75	1207.09
1076.47	1006.45
1080.2	773.44
1083.92	637.243
1087.64	501.629
1091.36	442.065
1095.07	395.848
1098.79	415.529
1102.5	334.999
1106.21	328.139
1109.92	352.02
1113.62	240.635
1117.33	334.087
1121.04	428.453
1124.74	292.157
1128.44	289.869
1132.14	168.143
1135.83	167.129
1139.53	161.192
1143.22	177.174
1146.92	170.455
1150.61	167.833
1154.3	121.612
1157.98	149.94
1161.67	122.094
1165.35	79.971
1169.04	53.654
1172.72	8.227
1176.4	9.735
1180.07	26.166
1183.75	0.565
1187.42	28.681
1191.1	10.635
1194.77	18.592
1198.44	78.851
1202.1	28.562
1205.77	25.162
1209.43	202.64
1213.1	66.174
1216.76	29.646
1220.42	0.141
1224.07	37.944
1227.73	60.84
1231.38	34.486
1235.04	44.191
1238.69	34.478
1242.34	68.733
1245.99	3.598
1249.63	88.046
1253.28	1.829
1256.92	42.212
1260.56	37.139
1264.2	106.895
1267.84	40.35
1271.48	96.356
1275.11	89.115
1278.74	25.549
1282.38	121.89
1286.01	70.894
1289.63	75.897
1293.26	127.503
1296.89	99.545
1300.51	30.044
1304.13	42.443
1307.75	118.13
1311.37	92.571
1314.99	84.777
1318.6	70.509
1322.22	99.936
1325.83	124.432
1329.44	62.839
1333.05	165.836
1336.66	163.344
1340.26	119.207
1343.87	172.772
1347.47	167.101
1351.07	115.1
1354.67	101.686
1358.27	85.073
1361.86	162.835
1365.46	118.291
1369.05	97.537
1372.64	121.401
1376.23	65.132
1379.82	142.326
1383.41	165.413
1386.99	64.645
1390.57	55.844
1394.16	78.416
1397.74	37.173
1401.32	54.293
1404.89	31.062
1408.47	107.562
1412.04	102.066
1415.61	66.752
1419.18	83.229
1422.75	133.322
1426.32	76.204
1429.89	18.506
1433.45	79.138
1437.01	5.749
1440.58	20.004
1444.13	81.061
1447.69	135.213
1451.25	96.249
1454.81	130.516
1458.36	79.687
1461.91	139.368
1465.46	175.744
1469.01	120.39
1472.56	105.096
1476.1	116.826
1479.64	161.298
1483.19	106.602
1486.73	160.828
1490.27	117.593
1493.81	177.447
1497.34	151.558
1500.88	167.057
1504.41	125.004
1507.94	8.797
1511.47	31.763
1515	36.268
1518.53	16.381
1522.05	0.372
