Measurement: Raman, 514 nm, ccw, Raman Data Processed
Mineral: Rhodonite
Rruff sample: R040041
Ideal chemistry: Mn^2+^SiO_3_
Locality: Franklin, Sussex County, New Jersey, USA
Source: University of Arizona Mineral Museum
Description: Pink prismatic crystals
Measured chemistry: (Mn_0.63_Ca_0.21_Zn_0.12_Mg_0.02_Fe_0.02_)_Î£=1_Si_1.00_O_3_
Pin_id: L00227
Orientation: Laser parallel to c* (0 0 1). Fiducial mark perpendicular to laser is parallel to a [1 0 0]
Raman shift (cm-1)	intensity
120.642	0
124.811	635.029
128.979	1018.88
133.144	1196.92
137.307	1421.33
141.469	1207.1
145.628	186.383
149.786	32.778
153.941	127.807
158.094	223.534
162.245	395.574
166.395	568.848
170.542	926.741
174.687	987.003
178.83	669.243
182.972	253.1
187.111	398.095
191.248	444.089
195.383	40.989
199.516	271.285
203.647	272.712
207.777	276.852
211.904	857.595
216.029	689.857
220.152	413.574
224.273	157.966
228.392	212.616
232.509	207.43
236.625	732.411
240.738	1497.56
244.849	2381.45
248.958	2264.41
253.065	1568.03
257.171	1372.07
261.274	1336.38
265.375	1140.93
269.475	895.717
273.572	960.75
277.667	936.191
281.76	803.105
285.852	570.596
289.941	221.291
294.029	166.97
298.114	356.938
302.198	480.49
306.279	574.156
310.359	604.291
314.436	862.291
318.512	1624.66
322.586	2286.01
326.657	2585.01
330.727	3101.74
334.795	3778.47
338.861	3545.42
342.924	3352.59
346.986	3449.94
351.046	2717.03
355.104	2474.69
359.16	2492.15
363.214	2742.6
367.267	2093.89
371.317	1528.63
375.365	989.299
379.411	673.307
383.456	584.589
387.498	893.717
391.539	1072.38
395.577	610.75
399.614	769.053
403.649	1047.34
407.681	1665.73
411.712	2844.01
415.741	4972.72
419.768	6901.67
423.793	5332.25
427.816	2883.74
431.837	1337.47
435.857	1011.42
439.874	750.933
443.889	523.45
447.903	298.042
451.914	578.14
455.924	387.126
459.932	216.374
463.938	15.36
467.941	102.445
471.943	159.188
475.944	25.525
479.942	191.635
483.938	97.654
487.932	143.616
491.925	419.646
495.915	485.697
499.904	451.607
503.891	327.358
507.876	703.114
511.859	1018.81
515.84	1154.37
519.819	849.711
523.796	225.095
527.771	10.805
531.745	166.442
535.716	28.302
539.686	126.538
543.654	101.044
547.62	255.435
551.584	289.143
555.546	522.766
559.506	696.1
563.465	359.145
567.421	381.889
571.376	254.332
575.329	366.463
579.279	138.271
583.228	80.01
587.175	91.059
591.121	128.439
595.064	115.348
599.006	51.408
602.945	100.283
606.883	87.92
610.819	187.354
614.753	256.922
618.685	294.42
622.615	345.891
626.544	372.945
630.471	560.627
634.395	562.951
638.318	937.955
642.239	1000.52
646.158	1682.44
650.076	2480.06
653.991	3729
657.905	7073.52
661.817	13771.4
665.726	24803.1
669.635	26390
673.541	16731.2
677.445	10641.3
681.348	7341.41
685.248	4258.82
689.147	2492.19
693.044	1544.5
696.94	1140.2
700.833	886.518
704.724	862.33
708.614	808.85
712.502	1495.23
716.388	1451.28
720.272	736.951
724.155	672.133
728.035	446.891
731.914	581.191
735.791	424.002
739.666	445.127
743.539	545.385
747.41	452.242
751.28	59.957
755.148	250.268
759.014	209.414
762.878	173.523
766.74	163.195
770.601	303.111
774.46	192.008
778.316	91.352
782.172	149.543
786.025	99.99
789.876	50.705
793.726	38.152
797.574	46.104
801.42	4.279
805.264	68.645
809.107	17.918
812.947	14.229
816.786	230.174
820.623	254.334
824.459	0.566
828.292	135.293
832.124	9.879
835.954	514.35
839.782	468.713
843.608	203.01
847.433	177.26
851.255	8.545
855.076	175.574
858.895	509.613
862.713	890.715
866.528	1017.69
870.342	1831.76
874.154	2855.87
877.965	2210.04
881.773	1414.19
885.58	1458.43
889.385	1062.67
893.188	976.646
896.989	501.062
900.789	525.75
904.587	849.531
908.383	824.213
912.177	1069.23
915.97	1243.83
919.76	996.881
923.55	869.871
927.337	1114.04
931.122	1691.5
934.906	3416.39
938.688	2941.53
942.468	1638.42
946.247	1207.16
950.023	1110.28
953.798	1120.45
957.572	1208.14
961.343	1812.96
965.113	3407.47
968.881	7129.55
972.647	9890.44
976.411	8377.15
980.174	6746.81
983.935	7344.3
987.694	11636.8
991.452	15955.4
995.207	13903.8
998.961	15192.6
1002.71	18471.3
1006.46	13000.9
1010.21	8470.47
1013.96	6570.19
1017.71	5497.2
1021.45	4966.16
1025.19	5115.71
1028.93	4777.09
1032.67	4318.02
1036.41	4020.54
1040.14	4373.32
1043.87	6265.95
1047.61	7279.97
1051.34	5573.29
1055.06	3227.81
1058.79	1620.75
1062.52	1173.07
1066.24	1145.88
1069.96	949.207
1073.68	802.457
1077.4	624.918
1081.11	497.096
1084.83	379.654
1088.54	443.012
1092.25	265.836
1095.96	238.453
1099.67	212.01
1103.37	85.742
1107.08	411.471
1110.78	95.986
1114.48	20.342
1118.18	231.771
1121.88	659.789
1125.57	473.648
1129.27	87.248
1132.96	128.578
1136.65	68.018
1140.34	164.881
1144.02	184.789
1147.71	377.416
1151.39	375.805
1155.07	160.4
1158.76	273.967
1162.43	119.559
1166.11	58.064
1169.79	124.801
1173.46	276.754
1177.13	82.25
1180.8	386.541
1184.47	220.484
1188.14	309.934
1191.8	170.84
1195.46	37.555
1199.13	84.229
1202.79	363.201
1206.45	590.516
1210.1	547.188
1213.76	583.615
1217.41	749.822
1221.06	404.736
1224.71	459.576
1228.36	355.574
1232.01	419.787
1235.65	662.602
1239.3	404.299
1242.94	403.998
1246.58	503.068
1250.22	431.484
1253.85	199.168
1257.49	406.322
1261.12	411.939
1264.75	627.375
1268.38	502.143
1272.01	532.453
1275.64	412.99
1279.27	129.996
1282.89	110.441
1286.51	69.154
1290.13	223.172
1293.75	72.135
1297.37	398.656
1300.98	207.828
1304.6	362.051
1308.21	244.73
1311.82	224.773
1315.43	158.582
1319.03	2.363
1322.64	38.846
1326.24	115.395
1329.85	419.721
1333.44	566.574
1337.04	811.766
1340.64	567.016
1344.24	559.836
1347.83	607.812
1351.42	655.91
1355.01	629.02
1358.6	394.516
1362.19	757.754
1365.78	431.535
1369.36	261.473
1372.94	649.863
1376.53	339.023
1380.1	578.523
1383.68	574.711
1387.26	459.047
1390.83	420.535
1394.41	488.98
1397.98	301.527
1401.55	474.434
1405.12	452.41
1408.68	772.664
1412.25	431.922
1415.81	445.695
1419.37	486.113
1422.93	318.125
1426.49	50.68
1430.05	2.461
1433.6	80.328
