Measurement: Raman, 514 nm, ccw, Raman Data Processed
Mineral: Rhodonite
Rruff sample: R040041
Ideal chemistry: Mn^2+^SiO_3_
Locality: Franklin, Sussex County, New Jersey, USA
Source: University of Arizona Mineral Museum
Description: Pink prismatic crystals
Measured chemistry: (Mn_0.63_Ca_0.21_Zn_0.12_Mg_0.02_Fe_0.02_)_Î£=1_Si_1.00_O_3_
Pin_id: L00324
Orientation: Laser parallel to (0 -1 -1). Fiducial mark perpendicular to laser is parallel to a [1 0 0]
Raman shift (cm-1)	intensity
54.966	0
59.164	322.967
63.36	343.017
67.554	22.121
71.747	117.999
75.937	1195.08
80.125	479.689
84.311	231.975
88.496	766.418
92.678	3764.01
96.858	6443.05
101.036	2978.04
105.212	3719.68
109.387	6127.26
113.559	4263.52
117.729	4066.29
121.897	4231.42
126.063	5226.83
130.228	5894.41
134.39	4260.08
138.55	3486.79
142.709	1992.11
146.865	1345.16
151.019	1897.11
155.171	2019.96
159.322	1063.18
163.47	905.836
167.617	1314.97
171.761	1639.63
175.904	1690.82
180.044	1279.52
184.183	884.732
188.319	930.436
192.454	559.62
196.586	176.277
200.717	31.395
204.846	158.966
208.972	663.978
213.097	457.419
217.22	252.28
221.341	104.08
225.46	84.785
229.577	75.308
233.692	55.47
237.805	1276.57
241.916	1232.84
246.025	1756.04
250.132	1799.52
254.237	3001.46
258.34	5261.99
262.442	5464.07
266.541	3330.73
270.639	1976.02
274.734	1584.94
278.828	1193.44
282.919	551.375
287.009	189.694
291.097	50.35
295.183	193.324
299.266	411.604
303.348	702.174
307.428	987.938
311.507	1539.85
315.583	2573.04
319.657	4283.48
323.729	5031.17
327.8	4896.11
331.868	4992.29
335.935	5518.71
339.999	5511.35
344.062	5448.22
348.123	4657.3
352.182	3296.59
356.239	2682.09
360.294	2781.78
364.347	2684.67
368.398	2167.74
372.448	1483
376.495	858.425
380.54	526.023
384.584	496.79
388.626	455.871
392.666	212.136
396.704	115.598
400.74	241.071
404.774	154.007
408.806	3.751
412.836	266.637
416.865	852.721
420.891	1204.99
424.916	905.78
428.939	1228.55
432.959	2395.96
436.978	3535.86
440.996	2708.62
445.011	1215.42
449.024	796.837
453.036	799.212
457.045	737.683
461.053	392.263
465.059	480.938
469.063	807.713
473.065	1412.67
477.065	1730.85
481.063	1153.17
485.06	666.669
489.054	529.281
493.047	748.011
497.038	683.851
501.027	486.762
505.014	509.747
508.999	779.771
512.982	1285.87
516.964	1534.03
520.944	1118.27
524.921	531.569
528.897	269.952
532.871	127.364
536.844	237.809
540.814	714.289
544.783	1008.78
548.749	699.264
552.714	432.786
556.677	269.5
560.638	175.935
564.597	178.759
568.555	285.008
572.511	297.467
576.464	162.903
580.416	7.311
584.366	35.388
588.315	84.359
592.261	54.817
596.206	28.739
600.148	9.001
604.089	46.587
608.028	150.33
611.965	238.869
615.901	336.994
619.834	428.403
623.766	513.668
627.696	799.461
631.624	941.584
635.551	1330.18
639.475	1758.57
643.398	2352.32
647.318	3124.89
651.237	4907.35
655.155	8482.07
659.07	16836.2
662.984	32733.8
666.895	50712.2
670.805	42983.1
674.713	25370.7
678.62	16248.1
682.524	10734.3
686.427	5950.67
690.328	3269.21
694.227	2178.31
698.124	1496.84
702.02	1313.84
705.913	1263.54
709.805	1879.06
713.695	2686.45
717.584	2296.95
721.47	1391.62
725.355	1002.33
729.238	905.893
733.119	1083.3
736.998	1357.45
740.876	1647.65
744.752	1148.29
748.626	577.253
752.498	251.528
756.368	177.57
760.237	128.5
764.104	47.756
767.969	55.858
771.832	20.015
775.693	47.931
779.553	45.717
783.411	37.668
787.267	9.534
791.122	18.419
794.974	44.971
798.825	9.316
802.674	5.403
806.522	0.731
810.367	66.929
814.211	41.433
818.053	16.806
821.893	46.935
825.732	6.875
829.568	15.973
833.403	19.729
837.236	55.723
841.068	1.596
844.898	19.18
848.726	14.106
852.552	1.112
856.376	22.702
860.199	87.511
864.02	173.269
867.839	273.979
871.656	594.642
875.472	749.257
879.286	666.83
883.098	553.406
886.909	512.003
890.717	559.6
894.524	449.257
898.33	454.094
902.133	567.216
905.935	680.593
909.735	978.102
913.533	1542.65
917.33	1928.86
921.124	1736.35
924.918	1477.69
928.709	1409.66
932.499	1767.24
936.286	2685.69
940.073	2429.23
943.857	1762.58
947.64	1510.29
951.421	1654.4
955.2	1957.21
958.978	2542.91
962.753	3938.5
966.527	7008.42
970.3	12910.3
974.071	17434
977.84	16867
981.607	15632
985.372	20960
989.136	30237.2
992.898	38119.2
996.659	35163.6
1000.42	44994.7
1004.17	50471.4
1007.93	32770.1
1011.68	17497
1015.43	10844.9
1019.18	7620.9
1022.93	5652.98
1026.68	4499.24
1030.42	3711.32
1034.17	3057.61
1037.91	2666.05
1041.65	2734.61
1045.39	3407.41
1049.12	4198.07
1052.86	4128.45
1056.59	2757.68
1060.33	1591.09
1064.06	1125.23
1067.78	874.341
1071.51	835.098
1075.23	724.904
1078.96	690.572
1082.68	572.413
1086.4	536.583
1090.12	440.457
1093.83	393.911
1097.55	389.686
1101.26	331.18
1104.97	336.254
1108.68	295.816
1112.39	326.01
1116.1	318.994
1119.8	285.312
1123.5	475.013
1127.2	256.094
1130.9	175.374
1134.6	215.571
1138.3	187.569
1141.99	169.888
1145.69	142.914
1149.38	147.253
1153.07	155.032
1156.76	141.429
1160.44	106.828
1164.13	95.386
1167.81	93.091
1171.49	20.094
1175.17	26.424
1178.85	31.584
1182.52	30.689
1186.2	14.501
1189.87	6.452
1193.54	7.183
1197.21	24.677
1200.88	25.231
1204.55	19.801
1208.21	12.418
1211.88	18.154
1215.54	63.578
1219.2	54.084
1222.86	8.02
1226.51	12.986
1230.17	45.889
1233.82	37.591
1237.47	65.57
1241.12	44.418
1244.77	16.188
1248.42	12.473
1252.06	58.553
1255.71	14.093
1259.35	25.926
1262.99	20.273
1266.63	12.296
1270.26	63.124
1273.9	22.792
1277.53	60.28
1281.16	75.603
1284.8	16.768
1288.42	132.763
1292.05	60.688
1295.68	94.371
1299.3	38.904
1302.92	69.285
1306.55	28.514
1310.16	44.582
1313.78	34.479
1317.4	135.164
1321.01	37.631
1324.62	52.617
1328.24	105.838
1331.85	65.766
1335.45	89.185
1339.06	72.717
1342.66	131.378
1346.27	89.601
1349.87	107.048
1353.47	166.799
1357.07	84.527
1360.66	82.688
1364.26	80.023
1367.85	80.734
1371.44	68.142
1375.04	88.78
1378.62	53.139
1382.21	48.61
1385.8	71.44
1389.38	53.965
1392.96	57.652
1396.54	60.042
1400.12	7.272
1403.7	103.625
1407.28	106.754
1410.85	105.648
1414.42	109.35
1417.99	52.419
1421.56	153.072
1425.13	108.242
1428.7	146.363
1432.26	85.47
1435.83	109.073
1439.39	146.642
1442.95	161.528
1446.51	67.3
1450.06	114.921
1453.62	77.747
1457.17	126.411
1460.73	123.459
1464.28	102.037
1467.83	76.902
1471.37	91.838
1474.92	95.007
1478.46	67.333
1482.01	127.5
1485.55	151.031
1489.09	92.674
1492.63	97.714
1496.16	127.266
1499.7	321.275
1503.23	89.778
1506.76	125.968
1510.29	90.099
1513.82	94.409
1517.35	54.083
1520.88	37.023
1524.4	0
