Measurement: Raman, 514 nm, ccw, Raman Data Processed
Mineral: Rhodochrosite
Rruff sample: R040133
Ideal chemistry: MnCO_3_
Locality: Imuris, Sonora, Mexico
Source: University of Arizona Mineral Museum
Description: Pink cleavage fragment
Measured chemistry: (Mn_0.92_Mg_0.02_Ca_0.01_)C_1.02_O_3_
Pin_id: L00279
Orientation: Laser parallel to a* (1 0 0). Fiducial mark perpendicular to laser is parallel to c [0 0 1]
Raman shift (cm-1)	intensity
137.863	0
142.007	12.506
146.149	19.66
150.289	30.706
154.427	7.843
158.564	1.636
162.698	21.648
166.831	1.397
170.962	20.163
175.092	48.841
179.219	76.453
183.345	214.357
187.468	204.205
191.59	67.803
195.711	43.397
199.829	7.022
203.946	32.678
208.06	19.364
212.173	9.078
216.285	17.809
220.394	3.557
224.502	21.357
228.607	2.805
232.711	5.966
236.814	0.115
240.914	17.749
245.013	41.638
249.109	14.538
253.204	25.504
257.298	34.389
261.389	46.453
265.479	57.387
269.567	96.281
273.653	180.16
277.737	395.33
281.82	1020.35
285.9	2228.2
289.979	3099.12
294.056	2046.03
298.132	963.956
302.206	435.12
306.277	255.647
310.347	181.016
314.416	135.227
318.482	111.352
322.547	95.992
326.61	51.076
330.671	64.092
334.731	54.158
338.789	46.186
342.844	53.287
346.899	29.889
350.951	39.814
355.002	34.855
359.051	32.784
363.098	29.28
367.143	20.196
371.187	2.213
375.229	25.549
379.269	22.344
383.307	45.062
387.344	23.835
391.379	16.481
395.412	20.398
399.443	8.14
403.473	28.08
407.501	12.506
411.527	5.456
415.551	28.544
419.574	26.956
423.595	16.856
427.614	35.766
431.631	34.652
435.647	27.608
439.661	23.554
443.673	23.424
447.683	24.992
451.692	24.178
455.699	13.7
459.704	43.878
463.708	31.768
467.71	25.605
471.71	28.433
475.708	25.264
479.705	28.09
483.7	32.974
487.693	4.848
491.684	26.659
495.674	31.462
499.662	29.273
503.648	33.058
507.633	19.831
511.616	24.586
515.597	21.357
519.576	18.898
523.554	14.804
527.53	11.534
531.504	12.192
535.477	12.915
539.448	13.61
543.417	10.867
547.384	7.001
551.35	15.66
555.314	16.342
559.277	11.005
563.237	7.676
567.196	11.316
571.153	18.711
575.109	6.68
579.063	20.91
583.015	29.47
586.965	13.052
590.914	6.645
594.861	4.284
598.807	19.872
602.75	17.442
606.692	22.982
610.632	10.512
614.571	2.97
618.508	26.575
622.443	21.055
626.377	23.62
630.309	28.212
634.239	20.575
638.167	8.358
642.094	26.845
646.019	21.318
649.943	27.728
653.864	25.095
657.785	36.474
661.703	26.81
665.62	27.552
669.535	20.888
673.448	13.114
677.36	27.672
681.27	3.664
685.178	10.363
689.085	6.525
692.99	13.838
696.894	16.111
700.795	11.697
704.695	38.977
708.594	36.431
712.491	84.642
716.386	399.775
720.279	693.898
724.171	170.584
728.061	57.302
731.949	17.247
735.836	21.431
739.721	14.56
743.605	12.403
747.487	2.476
751.367	10.488
755.245	10.531
759.122	14.435
762.997	21.656
766.871	11.654
770.743	2.741
774.613	15.743
778.482	0.7
782.349	5.686
786.214	24.646
790.078	24.576
793.94	4.466
797.801	20.335
801.659	19.171
805.517	9.35
809.372	16.385
813.226	5.229
817.078	18.079
820.929	16.903
824.778	9.76
828.625	28.562
832.471	21.376
836.315	14.845
840.158	13.915
843.999	20.65
847.838	23.405
851.675	23.147
855.511	0.144
859.346	6.575
863.179	11.283
867.01	44.982
870.839	33.674
874.667	23.362
878.493	7.942
882.318	4.738
886.141	18.412
889.962	2.076
893.782	9.265
897.601	16.367
901.417	19.918
905.232	24.519
909.045	1.106
912.857	15.706
916.667	22.314
920.476	11.917
924.283	0.516
928.088	10.076
931.892	39.588
935.694	28.185
939.495	15.693
943.294	11.06
947.091	29.638
950.887	12.223
954.681	10.712
958.474	9.905
962.265	9.929
966.054	17.503
969.842	11.056
973.628	5.655
977.412	13.286
981.195	19.897
984.977	26.025
988.757	32.544
992.535	21.784
996.312	43.391
1000.09	53.014
1003.86	76.674
1007.63	99.885
1011.4	114.567
1015.17	143.995
1018.94	148.694
1022.7	152.403
1026.47	182.12
1030.23	181.28
1033.99	194.966
1037.75	204.225
1041.51	207.912
1045.26	239.099
1049.02	278.727
1052.77	314.52
1056.52	377.319
1060.27	455.144
1064.02	685.984
1067.77	869.847
1071.51	899.728
1075.26	1306.7
1079	2283.71
1082.74	6529.35
1086.48	40501.3
1090.22	25050.3
1093.95	4989.28
1097.69	1541.28
1101.42	771.257
1105.15	472.266
1108.88	332.508
1112.61	267.81
1116.33	199.141
1120.06	178.162
1123.78	106.291
1127.5	108.437
1131.22	102.594
1134.94	60.671
1138.66	86.736
1142.38	59.138
1146.09	47.231
1149.8	73.483
1153.51	64.568
1157.22	37.661
1160.93	31.759
1164.64	33.927
1168.34	43.406
1172.04	14.625
1175.75	18.765
1179.45	16.993
1183.14	6.397
1186.84	19.869
1190.54	21.038
1194.23	4.003
1197.92	15.336
1201.62	20.671
1205.31	15.595
1208.99	9.88
1212.68	27.501
1216.36	17.801
1220.05	21.986
1223.73	12.169
1227.41	19.387
1231.09	39.572
1234.77	7.957
1238.44	11.047
1242.12	32.131
1245.79	13.21
1249.46	8.288
1253.13	6.363
1256.8	27.661
1260.46	21.51
1264.13	41.572
1267.79	0.61
1271.45	1.617
1275.11	21.571
1278.77	6.476
1282.43	9.342
1286.09	2.811
1289.74	29.971
1293.39	0.266
1297.05	13.474
1300.7	11.53
1304.34	15.881
1307.99	6.545
1311.64	11.186
1315.28	20.806
1318.92	4.411
1322.56	1.049
1326.2	18.642
1329.84	1.757
1333.48	11.855
1337.11	10.414
1340.75	0.6
1344.38	0.388
1348.01	8.22
1351.64	18.91
1355.27	2.109
1358.89	22.003
1362.52	17.938
1366.14	4.921
1369.76	12.891
1373.38	8.846
1377	17.048
1380.62	14.55
1384.23	29.39
1387.85	40.796
1391.46	75.396
1395.07	43.278
1398.68	49.406
1402.29	74.002
1405.89	103.102
1409.5	166.16
1413.1	401.814
1416.7	1219.54
1420.31	2119.49
1423.9	1129.55
1427.5	508.259
1431.1	302.447
1434.69	185.084
1438.29	152.565
1441.88	120.825
1445.47	114.885
1449.06	91.833
1452.65	89.929
1456.23	53.402
1459.82	15.26
1463.4	2.646
1466.98	21.871
1470.56	24.101
1474.14	37.626
1477.72	25.093
1481.29	21.973
