Measurement: Raman, 514 nm, ccw, Raman Data Processed
Mineral: Rhodochrosite
Rruff sample: R050019
Ideal chemistry: MnCO_3_
Locality: Home Sweet Home mine, Colorado, USA
Source: Eugene Schlepp
Description: Pink single crystal rhombs on quartz
Measured chemistry: Mn_1.00_CO_3_
Pin_id: L00297
Orientation: Laser parallel to a* (1 0 0). Fiducial mark perpendicular to laser is parallel to c [0 0 1]
Raman shift (cm-1)	intensity
107.868	0
112.063	19.168
116.256	41.121
120.447	37.221
124.636	45.565
128.822	39.656
133.006	18.358
137.188	47.364
141.368	31.057
145.545	4.853
149.72	15.59
153.893	44.341
158.064	3.473
162.233	56.829
166.399	83.876
170.563	153.184
174.725	365.675
178.885	1087.33
183.043	2171.17
187.198	1032.18
191.351	371.389
195.502	136.612
199.651	44.863
203.797	79.159
207.942	9.53
212.084	10.077
216.224	10.503
220.362	14.921
224.497	23.723
228.631	22.421
232.762	14.636
236.891	17.965
241.018	48.809
245.143	1.686
249.265	82.584
253.386	116.099
257.504	102.183
261.62	151.577
265.734	232.2
269.845	389.035
273.955	609.655
278.062	1400.76
282.167	3827.24
286.27	8558.85
290.371	9103.56
294.47	4416.37
298.567	1867.27
302.661	931.66
306.753	560.692
310.843	377.681
314.931	296.234
319.017	224.054
323.101	177.226
327.182	153.402
331.261	149.591
335.339	101.589
339.414	39.822
343.487	50.076
347.557	50.352
351.626	32.645
355.693	33.954
359.757	53.04
363.819	13.39
367.879	44.756
371.937	17.279
375.993	40.273
380.047	36.673
384.099	45.643
388.148	22.897
392.196	9.316
396.241	0.15
400.284	29.273
404.325	62.208
408.364	7.367
412.401	20.055
416.435	59.024
420.468	6.841
424.498	12.187
428.527	30.175
432.553	3.516
436.577	20.852
440.599	29.846
444.619	19.896
448.637	25.246
452.653	41.595
456.667	17.317
460.678	6.308
464.688	42.193
468.695	46.531
472.701	14.137
476.704	44.159
480.705	27.448
484.704	37.754
488.701	11.03
492.696	9.307
496.689	43.559
500.68	54.794
504.668	44.027
508.655	11.288
512.639	24.638
516.622	36.853
520.602	57.081
524.581	16.331
528.557	87.687
532.531	44.242
536.503	36.402
540.473	37.552
544.441	11.719
548.407	78.838
552.371	41.453
556.333	33.497
560.293	0.566
564.251	77.457
568.206	34.075
572.16	26.054
576.112	12.879
580.061	15.205
584.009	27.496
587.954	53.262
591.897	91.006
595.839	3.218
599.778	4.555
603.716	29.1
607.651	81.716
611.584	2.33
615.515	16.929
619.444	47.964
623.372	66.078
627.297	75.6
631.22	41.943
635.141	45.542
639.06	43.127
642.977	117.986
646.892	96.451
650.805	65.803
654.716	49.397
658.625	43.685
662.532	56.282
666.437	29.34
670.34	36.052
674.241	1.685
678.139	64.841
682.036	15.756
685.931	64.919
689.824	49.472
693.715	37.188
697.604	27.224
701.491	103.166
705.376	98.105
709.259	72.265
713.139	487.006
717.018	2808.39
720.895	1614.18
724.77	331.948
728.643	119.704
732.514	97.814
736.383	78.848
740.25	116.247
744.115	70.887
747.978	78.553
751.839	33.552
755.698	56.407
759.555	57.971
763.41	63.79
767.263	14.059
771.114	22.76
774.964	22.198
778.811	62.41
782.656	54.138
786.499	35.45
790.341	4.744
794.18	1.994
798.017	7.209
801.853	51.407
805.686	54.384
809.518	49.616
813.347	13.868
817.175	61.184
821.001	43.166
824.824	21.755
828.646	67.271
832.466	53.101
836.284	10.545
840.1	27.29
843.914	21.499
847.726	10.429
851.536	24.114
855.344	16.808
859.15	36.487
862.954	81.146
866.756	62.783
870.557	51.411
874.355	56.026
878.152	14.627
881.946	18.214
885.739	73.801
889.53	58.392
893.318	48.987
897.105	4.579
900.89	5.181
904.673	7.728
908.454	83.328
912.234	40.833
916.011	47.414
919.786	59.917
923.56	9.468
927.331	77.945
931.101	5.085
934.868	77.4
938.634	46.942
942.398	63.154
946.16	64.185
949.92	42.118
953.678	16.17
957.435	13.495
961.189	26.151
964.941	34.389
968.692	9.832
972.441	17.453
976.187	6.508
979.932	39.263
983.675	26.567
987.416	29.917
991.155	19.404
994.893	4.905
998.628	72.675
1002.36	144.218
1006.09	205.708
1009.82	165.279
1013.55	166.591
1017.28	176.365
1021	179.941
1024.72	194.614
1028.44	235.289
1032.16	249.018
1035.88	245.194
1039.59	196.229
1043.31	266.205
1047.02	335.136
1050.73	495.127
1054.43	526.098
1058.14	703.183
1061.84	1053.17
1065.54	974.468
1069.24	1192.45
1072.94	1873.25
1076.64	3745.34
1080.33	15122.2
1084.03	62665.2
1087.71	15628.3
1091.4	3399.49
1095.09	1301.81
1098.78	745.009
1102.46	494.336
1106.14	388.865
1109.82	266.135
1113.5	219.019
1117.17	168.373
1120.85	151.996
1124.52	105.21
1128.19	81.425
1131.86	52.901
1135.52	100.256
1139.19	98.758
1142.85	87.385
1146.51	39.983
1150.17	54.543
1153.83	44.046
1157.48	70.412
1161.14	53.406
1164.79	81.841
1168.44	17.267
1172.09	35.619
1175.73	15.98
1179.38	12.022
1183.02	55.472
1186.66	13.817
1190.3	25.13
1193.94	65.099
1197.58	43.302
1201.21	4.327
1204.84	70.605
1208.47	10.008
1212.1	65.415
1215.72	87.626
1219.35	130.852
1222.97	119.712
1226.59	92.73
1230.21	59.012
1233.83	52.025
1237.45	16.557
1241.06	27.069
1244.67	47.449
1248.28	73.744
1251.89	113.308
1255.5	76.551
1259.1	89.773
1262.7	28.952
1266.31	24.089
1269.9	72.174
1273.5	41.163
1277.1	79.085
1280.69	55.905
1284.29	78.573
1287.88	83.106
1291.46	90.512
1295.05	53.788
1298.64	46.962
1302.22	11.004
1305.8	42.87
1309.38	46.483
1312.96	89.151
1316.54	71.771
1320.11	60.212
1323.68	9.13
1327.25	3.353
1330.82	6.902
1334.39	24.775
1337.96	3.36
1341.52	1.013
1345.08	60.503
1348.64	49.058
1352.2	98.954
1355.76	64.368
1359.31	64.682
1362.87	24.784
1366.42	14.044
1369.97	31.099
1373.52	12.621
1377.06	68.396
1380.61	118.26
1384.15	125.925
1387.69	205.547
1391.23	173.047
1394.77	174.56
1398.3	181.677
1401.84	264.458
1405.37	667.057
1408.9	2224.85
1412.43	2019.61
1415.96	877.143
1419.48	482.846
1423.01	389.298
1426.53	285.8
1430.05	235.174
1433.57	226.688
1437.08	184.194
1440.6	139.872
1444.11	99.605
1447.62	67.627
1451.13	83.229
1454.64	91.09
1458.15	179.143
1461.65	149.692
1465.16	167.873
1468.66	176.912
1472.16	217.328
1475.65	100.118
1479.15	46.216
1482.64	28.954
1486.14	54.476
1489.63	88.522
1493.12	64.127
1496.61	142.406
1500.09	95.209
1503.58	181.321
1507.06	160.643
1510.54	106.39
1514.02	0
