Measurement: Raman, 514 nm, ccw, Raman Data Processed
Mineral: Rhodonite
Rruff sample: R040041
Ideal chemistry: Mn^2+^SiO_3_
Locality: Franklin, Sussex County, New Jersey, USA
Source: University of Arizona Mineral Museum
Description: Pink prismatic crystals
Measured chemistry: (Mn_0.63_Ca_0.21_Zn_0.12_Mg_0.02_Fe_0.02_)_Î£=1_Si_1.00_O_3_
Pin_id: M00442
Orientation: Laser parallel to a* (1 0 0). Fiducial mark perpendicular to laser is parallel to -b [0 -1 0]
Raman shift (cm-1)	intensity
88.496	0
92.678	13.697
96.858	455.948
101.036	1300.67
105.212	2585.55
109.387	7880.02
113.559	6374.44
117.729	2702.24
121.897	2034.22
126.063	2499.06
130.228	2493.05
134.39	1779.64
138.55	1891.2
142.709	1499.54
146.865	588.327
151.019	676.307
155.171	1025.78
159.322	1056.76
163.47	596.091
167.617	461.169
171.761	898.833
175.904	1275.09
180.044	456.102
184.183	0.828
188.319	279.371
192.454	344.673
196.586	103.954
200.717	285.686
204.846	39.112
208.972	511.243
213.097	930.291
217.22	416.02
221.341	44.396
225.46	19.601
229.577	149.939
233.692	519.69
237.805	1414.31
241.916	2489.53
246.025	3244.35
250.132	2640.74
254.237	1971.91
258.34	2078.9
262.442	2191.89
266.541	1777.47
270.639	1581.97
274.734	1759.93
278.828	1792.01
282.919	1544.93
287.009	1079.4
291.097	634.32
295.183	492.697
299.266	749.518
303.348	1040.32
307.428	1405.01
311.507	1982.95
315.583	3088.62
319.657	4644.62
323.729	5280.64
327.8	5902.43
331.868	7475.62
335.935	8412.18
339.999	7039.09
344.062	5631.36
348.123	4315.6
352.182	2621.52
356.239	1762.75
360.294	1642.93
364.347	1266.31
368.398	987.286
372.448	681.553
376.495	373.031
380.54	375.897
384.584	598.935
388.626	723.175
392.666	511.452
396.704	305.916
400.74	403.553
404.774	935.352
408.806	2047.3
412.836	3716.39
416.865	6547.63
420.891	6821.43
424.916	3871.59
428.939	1727.29
432.959	844.048
436.978	641.437
440.996	466.756
445.011	411.076
449.024	500.652
453.036	791.206
457.045	669.844
461.053	119.604
465.059	121.51
469.063	127.903
473.065	19.638
477.065	100.565
481.063	27.104
485.06	111.274
489.054	578.698
493.047	1122.17
497.038	1084.65
501.027	817.11
505.014	1394.57
508.999	2787.99
512.982	3480.4
516.964	2228.77
520.944	1153.1
524.921	455.651
528.897	146.482
532.871	8.255
536.844	16.828
540.814	47.174
544.783	195.331
548.749	553.381
552.714	1371.3
556.677	1932.07
560.638	1239.69
564.597	540.16
568.555	300.46
572.511	133.592
576.464	42.549
580.416	1.215
584.366	45.671
588.315	30.246
592.261	50.528
596.206	17.165
600.148	43.227
604.089	123.908
608.028	151.031
611.965	216.859
615.901	370.461
619.834	494.481
623.766	660.921
627.696	849.27
631.624	1104.76
635.551	1492.97
639.475	2046.27
643.398	2721.75
647.318	3894.07
651.237	6308.17
655.155	10866.8
659.07	20723
662.984	39139
666.895	53294.8
670.805	41520.1
674.713	24104
678.62	15268.7
682.524	9232.05
686.427	5244.97
690.328	3166.49
694.227	2128.99
698.124	1636.48
702.02	1317.18
705.913	1368.46
709.805	1646.75
713.695	1946.62
717.584	1494.21
721.47	956.54
725.355	650.595
729.238	535.385
733.119	527.633
736.998	422.627
740.876	359.18
744.752	285.07
748.626	190.609
752.498	104.843
756.368	67.963
760.237	44.698
764.104	10.584
767.969	18.14
771.832	47.983
775.693	22.231
779.553	27.811
783.411	16.513
787.267	26.334
791.122	31.471
794.974	6.98
798.825	4.223
802.674	24.802
806.522	3.896
810.367	24.568
814.211	34.217
818.053	8.05
821.893	18.035
825.732	42.798
829.568	8.512
833.403	24.954
837.236	29.459
841.068	50.788
844.898	79.058
848.726	97.327
852.552	163.598
856.376	308.837
860.199	509.037
864.02	1140.2
867.839	2202.34
871.656	3491.47
875.472	3771.59
879.286	3167.73
883.098	2785.89
886.909	3127.08
890.717	2628.39
894.524	1714.95
898.33	1216.88
902.133	1182.16
905.935	1570.65
909.735	2526.21
913.533	2797.52
917.33	2229.49
921.124	1798.23
924.918	1653.64
928.709	2204.01
932.499	3865.78
936.286	5394.04
940.073	3616.76
943.857	2087.46
947.64	1758.21
951.421	1925.32
955.2	2409.22
958.978	3539.42
962.753	6041.02
966.527	12019.8
970.3	21054.7
974.071	21217.8
977.84	15972.3
981.607	14577.1
985.372	18720.8
989.136	28576.9
992.898	27083.6
996.659	22520.5
1000.42	22757.5
1004.17	17994.7
1007.93	11292.1
1011.68	7799.56
1015.43	6483.22
1019.18	6243.02
1022.93	6729.37
1026.68	7482.92
1030.42	7802.54
1034.17	7552.77
1037.91	7931.62
1041.65	9971.87
1045.39	12606.6
1049.12	9900.75
1052.86	5754.58
1056.59	3117.47
1060.33	1883.22
1064.06	1259.82
1067.78	975.914
1071.51	896.033
1075.23	819.748
1078.96	691.48
1082.68	586.436
1086.4	439.94
1090.12	364.324
1093.83	255.263
1097.55	318.328
1101.26	297.631
1104.97	277.285
1108.68	281.125
1112.39	233.43
1116.1	197.109
1119.8	248.246
1123.5	261.315
1127.2	184.535
1130.9	157.309
1134.6	149.082
1138.3	110.563
1141.99	142.462
1145.69	117.419
1149.38	103.282
1153.07	116.452
1156.76	93.529
1160.44	124.627
1164.13	108.049
1167.81	84.141
1171.49	40.18
1175.17	29.785
1178.85	41.424
1182.52	10.211
1186.2	2.195
1189.87	47.418
1193.54	2.757
1197.21	8.375
1200.88	42.275
1204.55	26.345
1208.21	55.647
1211.88	62.088
1215.54	17.844
1219.2	27.165
1222.86	27.014
1226.51	4.67
1230.17	0.228
1233.82	17.705
1237.47	4.03
1241.12	4.94
1244.77	3.795
1248.42	6.646
1252.06	54.113
1255.71	15.523
1259.35	53.405
1262.99	6.048
1266.63	16.472
1270.26	28.953
1273.9	10.98
1277.53	42.83
1281.16	38.695
1284.8	85.121
1288.42	42.436
1292.05	92.507
1295.68	83.645
1299.3	52.641
1302.92	64.989
1306.55	54.613
1310.16	56.544
1313.78	83.195
1317.4	101.009
1321.01	77.685
1324.62	85.948
1328.24	98.717
1331.85	143.616
1335.45	104.425
1339.06	108.49
1342.66	139.474
1346.27	144.844
1349.87	169.096
1353.47	93.603
1357.07	84.828
1360.66	100.035
1364.26	104.6
1367.85	106.026
1371.44	70.658
1375.04	74.493
1378.62	83.617
1382.21	126.885
1385.8	95.845
1389.38	74.348
1392.96	95.584
1396.54	52.049
1400.12	52.146
1403.7	80.152
1407.28	56.227
1410.85	70.606
1414.42	81.678
1417.99	86.737
1421.56	51.574
1425.13	76.584
1428.7	63.732
1432.26	65.903
1435.83	37.379
1439.39	4.766
1442.95	17.214
1446.51	38.846
1450.06	2.798
1453.62	59.235
1457.17	44.371
1460.73	144.727
1464.28	124.678
1467.83	107.239
1471.37	86.886
1474.92	133.157
1478.46	131.894
1482.01	45.798
1485.55	54.63
1489.09	58.978
1492.63	76.053
1496.16	101.559
1499.7	117.077
1503.23	83.633
1506.76	73.618
1510.29	119.222
1513.82	81.114
1517.35	77.155
1520.88	0.001
