Measurement: Raman, 514 nm, ccw, Raman Data Processed
Mineral: Rhodochrosite
Rruff sample: R050116
Ideal chemistry: MnCO_3_
Locality: Wudong mine, Liubao, Guangxi Autonomous Region, China
Source: He Xin Jian
Description: Pink crystal associated with colorless quartz
Measured chemistry: (Mn_0.81_Fe_0.17_Mg_0.01_Ca_0.01_)CO_3_
Pin_id: L00524
Orientation: Laser parallel to a* (1 0 0). Fiducial mark perpendicular to laser is parallel to c [0 0 1]
Raman shift (cm-1)	intensity
47.49	0
51.717	22.818
55.942	20.362
60.165	29.805
64.386	36.901
68.604	29.314
72.82	36.002
77.034	39.032
81.246	6.821
85.455	2.107
89.663	0.962
93.868	2.883
98.07	17.198
102.271	18.426
106.469	26.394
110.665	44.12
114.859	35.645
119.05	37.998
123.24	41.214
127.427	26.357
131.612	46.627
135.794	47.654
139.975	55.019
144.153	63.532
148.329	79.392
152.503	92.965
156.674	142.626
160.843	167.828
165.011	247.013
169.175	339.185
173.338	559.339
177.499	1175.47
181.657	1844.58
185.813	1418.66
189.967	574.748
194.119	233.935
198.268	107.118
202.415	61.281
206.561	33.622
210.703	17.698
214.844	2.451
218.983	3.55
223.119	3.372
227.253	3.093
231.385	4.879
235.515	3.964
239.643	0.592
243.768	7.085
247.891	9.767
252.012	4.499
256.131	13.312
260.248	18.976
264.363	41.683
268.475	80.556
272.585	128.383
276.693	193.505
280.799	342.538
284.903	637.554
289.005	733.428
293.104	562.385
297.201	309.289
301.296	158.158
305.389	100.954
309.48	49.669
313.569	48.338
317.655	34.975
321.74	26.59
325.822	40.194
329.902	18.785
333.98	21.362
338.056	22.925
342.129	20.477
346.201	7.016
350.27	21.542
354.337	12.054
358.402	10.55
362.465	14.031
366.526	13.496
370.585	12.928
374.642	8.188
378.696	14.146
382.748	24.407
386.799	9.266
390.847	5.405
394.893	8.831
398.936	6.081
402.978	2.897
407.018	11.847
411.055	4.702
415.091	4.49
419.124	7.342
423.155	2.334
427.184	4.547
431.211	22.628
435.236	8.794
439.259	11.948
443.28	4.091
447.298	6.252
451.315	17.63
455.329	8.185
459.341	14.292
463.352	13.39
467.36	23.487
471.366	16.563
475.37	33.666
479.372	30.745
483.371	35.134
487.369	50.233
491.365	42.362
495.358	36.329
499.35	32.344
503.339	44.646
507.326	45.558
511.311	49.526
515.295	52.494
519.276	44.247
523.255	47.223
527.232	55.174
531.207	45.149
535.179	53.097
539.15	39.077
543.119	27.104
547.086	41.06
551.05	28.021
555.013	25.024
558.973	31.996
562.932	23.79
566.888	20.789
570.842	15.834
574.795	19.847
578.745	25.882
582.693	25.897
586.639	17.829
590.583	7.875
594.525	17.97
598.465	9.045
602.403	8.12
606.339	2.791
610.273	3.746
614.205	4.313
618.135	10.463
622.063	6.576
625.989	12.639
629.912	7.695
633.834	6.786
637.754	0.952
641.671	2.761
645.587	1.198
649.501	5.013
653.412	16.665
657.322	4.312
661.23	14.856
665.135	13.937
669.039	2.545
672.94	11.066
676.84	3.272
680.738	12.422
684.633	14.31
688.527	20.482
692.418	29.636
696.308	32.619
700.195	41.848
704.081	67.346
707.964	128.24
711.846	308.227
715.726	891.037
719.603	1677.16
723.479	814.158
727.352	344.802
731.224	174.108
735.094	95.133
738.961	53.496
742.827	37.71
746.691	28.037
750.552	24.08
754.412	20.869
758.27	16.523
762.125	17.384
765.979	13.502
769.831	5.95
773.681	17.676
777.529	14.225
781.375	15.749
785.219	7.268
789.06	6.207
792.901	0.138
796.739	12.305
800.575	9.626
804.409	1.994
808.241	5.384
812.071	15.437
815.899	10.758
819.726	0.077
823.55	0.342
827.372	1.58
831.193	4.792
835.011	7.017
838.828	1.869
842.642	10.285
846.455	1.578
850.266	3.523
854.075	2.97
857.881	0.646
861.686	1.325
865.489	7.689
869.29	4.307
873.089	4.677
876.886	8.349
880.682	5.594
884.475	3.515
888.266	7.416
892.056	4.306
895.843	4.186
899.629	8.059
903.413	12.926
907.194	6.785
910.974	3.639
914.752	5.51
918.528	3.335
922.302	4.863
926.074	5.944
929.844	15.561
933.613	15.579
937.379	6.397
941.144	12.187
944.906	10.797
948.667	10.995
952.426	11.815
956.183	18.105
959.938	18.65
963.691	6.505
967.442	3.186
971.191	12.754
974.939	14.017
978.684	9.415
982.428	22.147
986.169	26.249
989.909	30.543
993.647	34.493
997.383	54.959
1001.12	73.068
1004.85	99.414
1008.58	123.021
1012.31	156.891
1016.03	178.944
1019.76	215.691
1023.48	236.78
1027.2	252.128
1030.92	277.926
1034.64	291.52
1038.36	318.404
1042.07	375.795
1045.78	422.68
1049.49	530.931
1053.2	610.208
1056.9	789.385
1060.61	1090.71
1064.31	1392.87
1068.01	1655.27
1071.71	2347.42
1075.41	4617.88
1079.1	14348.4
1082.79	44477.9
1086.48	33607.5
1090.17	9518.04
1093.86	3100.64
1097.55	1387.28
1101.23	773.943
1104.91	489.632
1108.59	397.352
1112.27	302.354
1115.95	249.126
1119.62	207.924
1123.3	182.908
1126.97	136.776
1130.63	121.665
1134.3	104.583
1137.97	111.537
1141.63	92.782
1145.29	87.536
1148.95	80.438
1152.61	63.649
1156.27	62.747
1159.92	69.185
1163.57	50.328
1167.22	54.722
1170.87	46.064
1174.52	45.273
1178.16	34.509
1181.81	32.771
1185.45	28.144
1189.09	28.487
1192.73	32.531
1196.36	12.075
1200	20.13
1203.63	17.846
1207.26	31.857
1210.89	17.18
1214.52	18.558
1218.14	26.402
1221.77	15.697
1225.39	17.717
1229.01	8.384
1232.62	6.061
1236.24	2.546
1239.86	9.042
1243.47	9.554
1247.08	8.074
1250.69	2.607
1254.3	14.151
1257.9	13.705
1261.5	4.268
1265.11	15.829
1268.71	15.399
1272.3	16.973
1275.9	3.55
1279.49	7.135
1283.09	13.717
1286.68	20.288
1290.27	2.836
1293.86	2.357
1297.44	1.848
1301.03	12.304
1304.61	7.734
1308.19	14.153
1311.77	8.566
1315.34	10.971
1318.92	9.343
1322.49	1.756
1326.06	2.867
1329.63	5.489
1333.2	2.176
1336.77	6.14
1340.33	6.439
1343.89	1.724
1347.46	8.006
1351.02	6.753
1354.57	0.486
1358.13	5.716
1361.68	11.065
1365.23	3.861
1368.79	1.355
1372.33	8.7
1375.88	5.904
1379.43	7.322
1382.97	18.965
1386.51	26.608
1390.05	16.967
1393.59	38.426
1397.13	40.04
1400.66	75.659
1404.19	122.018
1407.72	218.587
1411.25	352.736
1414.78	354.976
1418.31	275.301
1421.83	195.841
1425.36	156.664
1428.88	125.672
1432.39	117.364
1435.91	103.534
1439.43	110.785
1442.94	97.206
1446.45	87.339
1449.96	85.183
1453.47	52.941
1456.98	42.604
1460.48	26.143
1463.99	14.607
1467.49	17.947
1470.99	5.146
1474.49	21.347
1477.99	25.703
1481.48	16.391
1484.97	11.17
1488.46	14.943
1491.95	27.768
1495.44	11.747
1498.93	9.97
1502.41	14.412
1505.9	14.188
1509.38	12.298
1512.86	32.977
1516.34	0
