Measurement: Raman, 514 nm, ccw, Raman Data Processed
Mineral: Riebeckite
Rruff sample: R050082
Ideal chemistry: [box]Na_2_(Fe^2+^_3_Fe^3+^_2_)Si_8_O_22_(OH)_2_
Locality: Mt. Malosa, Zomba, Chilwa, Alkaline Area, Malawi
Source: Rock Currier
Description: Black elongated prisms
Measured chemistry: ([box]_0.63_Na_0.19_K_0.18_)(Na_1.58_Ca_0.42_)_Σ=2_Fe^2+^_3.00_(Fe^3+^_1.30_Fe^2+^_0.45_Mn_0.15_Mg_0.05_Ti_0.05_)_Σ=2_(Si_0.98_Al_0.02_)_8_O_22_(OH)_2_
Pin_id: L00416
Orientation: Laser parallel to (-1 0 -1). Fiducial mark perpendicular to laser is parallel to b [0 1 0]
Raman shift (cm-1)	intensity
127.596	0
132.542	1741.02
137.485	6471.05
142.425	3390.66
147.362	709.879
152.296	547.238
157.228	160.273
162.156	2618.51
167.082	4064.63
172.005	4401.59
176.925	3769.53
181.842	5042.5
186.757	8796.43
191.668	13922.4
196.577	14134.5
201.483	12796.7
206.386	4444.34
211.286	3239.44
216.183	1959.81
221.078	1875.56
225.969	1980.61
230.858	1862.25
235.744	1427.57
240.628	721.269
245.508	165.113
250.386	445.664
255.26	315.352
260.132	13.5234
265.001	108.762
269.868	74.7617
274.731	11.7188
279.592	64.0859
284.45	214.176
289.305	56.2695
294.157	62.0664
299.007	1400.05
303.854	853.516
308.698	1913.98
313.539	2397.83
318.377	2768.72
323.213	2813.48
328.046	2507.78
332.876	2107.15
337.703	2040
342.527	2081.11
347.349	1716.33
352.168	2492.84
356.984	2975.07
361.797	3296.14
366.608	3614.32
371.415	3619.51
376.22	3827.68
381.023	4070.77
385.822	3809.76
390.619	3382.68
395.413	2202.88
400.204	1488.7
404.992	745.406
409.778	826.281
414.561	1076.31
419.341	2125.36
424.118	3000.07
428.893	3476.25
433.665	2884.94
438.434	2052.28
443.201	1845.3
447.964	987.938
452.725	1445.94
457.483	1401.92
462.239	1529.17
466.991	1364.64
471.741	1589.76
476.489	1455.98
481.233	1837.61
485.975	2860.47
490.714	3404.41
495.45	4280.12
500.184	4753.62
504.915	5084.94
509.643	5555.05
514.368	5688.94
519.091	6321.6
523.811	6902.05
528.528	8145.27
533.243	8977.4
537.955	9744.1
542.664	9264.55
547.37	8632.28
552.074	8324.68
556.775	8309.32
561.473	8816.77
566.169	9234.06
570.862	7977.59
575.552	4728.84
580.24	3011.05
584.925	1173.93
589.607	124.359
594.286	173.805
598.963	101.918
603.637	169.477
608.309	364.41
612.977	42.7852
617.643	133.098
622.307	229.164
626.967	572.738
631.625	1304.77
636.281	2101.25
640.933	2777.19
645.583	4387.58
650.231	6935.4
654.875	11460.7
659.517	17742.3
664.157	22867.9
668.793	20932.6
673.427	13973.5
678.059	8431.47
682.687	5340.64
687.313	3892.16
691.937	3402.76
696.557	3419.12
701.175	3445.4
705.791	3504.86
710.403	3270.94
715.014	3558.9
719.621	3568.41
724.226	3430.66
728.828	2986.03
733.428	2527.23
738.025	2145.91
742.619	1912.29
747.21	1627.26
751.799	1255.84
756.386	1091.28
760.969	1585.01
765.551	1008.43
770.129	1009.09
774.705	1104.17
779.278	560.711
783.849	755.727
788.417	535.25
792.982	548.305
797.545	230.922
802.105	182.09
806.663	126.797
811.217	285.894
815.77	253.07
820.319	117.223
824.867	147.137
829.411	229.168
833.953	150.887
838.492	201.438
843.029	11.8398
847.563	272.082
852.094	829.504
856.623	419.152
861.15	470.922
865.673	885.863
870.194	1005.16
874.713	1493.64
879.229	1374.41
883.742	1880.12
888.253	1622.51
892.761	1894.91
897.267	1658.18
901.77	1539.04
906.27	1670.47
910.768	1754.51
915.263	2027.7
919.756	2064.01
924.246	2399.46
928.734	2151.09
933.219	2367.75
937.701	2161.82
942.181	2480.56
946.658	2650.69
951.133	3196.85
955.605	3452.64
960.075	3811.12
964.542	4131.65
969.006	4397.31
973.468	4090.74
977.928	4095.86
982.385	4581.52
986.839	4230.52
991.291	4484.9
995.74	4783.84
1000.19	5173.98
1004.63	5471.7
1009.07	5718.51
1013.51	6011.28
1017.95	6739.56
1022.38	6959.31
1026.81	7723.41
1031.24	8885.68
1035.67	9828.84
1040.09	10363
1044.51	10008.9
1048.93	9695.16
1053.35	9310.76
1057.76	9172.31
1062.17	8637.75
1066.58	8877.15
1070.99	8263.88
1075.39	8072.97
1079.79	7547.51
1084.19	6369.77
1088.59	5895.8
1092.98	5257.84
1097.37	4951.32
1101.76	4416.44
1106.15	4479.24
1110.53	3936.87
1114.91	3807.36
1119.29	3087.77
1123.67	2669.79
1128.04	2646.1
1132.41	1661.46
1136.78	1487.4
1141.15	711.094
1145.51	710.137
1149.87	238.238
1154.23	134.863
1158.59	125.316
1162.94	65.9062
1167.29	245.344
1171.64	32.1602
1175.98	340.129
1180.33	124.652
1184.67	6.07812
1189.01	133.551
1193.34	182.539
1197.68	29.418
1202.01	306.625
1206.34	52.543
1210.66	21.8125
1214.99	7.16406
1219.31	311.227
1223.63	17.3945
1227.94	189.016
1232.26	201.797
1236.57	155.91
1240.88	308.555
1245.19	284.731
1249.49	161.41
1253.79	27.2578
1258.09	402.387
1262.39	307.793
1266.68	132.621
1270.97	150.797
1275.26	163.074
1279.55	200.559
1283.84	257.141
1288.12	26.9688
1292.4	594.91
1296.67	288.359
1300.95	492.746
1305.22	199.375
1309.49	351.793
1313.76	420.027
1318.03	182.625
1322.29	574.789
1326.55	140.758
1330.81	363.582
1335.06	329.344
1339.31	213.445
1343.56	233.223
1347.81	379.227
1352.06	328.832
1356.3	97.5703
1360.54	228.973
1364.78	377.57
1369.02	213.566
1373.25	473.594
1377.48	136.195
1381.71	446.762
1385.94	414.527
1390.16	194.152
1394.38	469.379
1398.6	410
1402.82	224.109
1407.03	369.871
1411.24	385.934
1415.45	409.789
1419.66	115.906
1423.87	448.863
1428.07	154.879
1432.27	306.668
1436.46	225.418
1440.66	337.711
1444.85	729.684
1449.04	564.023
1453.23	538.356
1457.42	283.969
1461.6	269.359
1465.78	292.207
1469.96	5.70312
1474.14	205.727
1478.31	236.836
1482.48	190.551
1486.65	276.422
1490.82	33.4648
1494.98	211.141
1499.14	198.301
1503.3	106.434
1507.46	301.481
1511.61	266.664
1515.77	180.481
1519.92	234.699
1524.06	266.598
1528.21	217.367
1532.35	101.312
1536.49	241.148
1540.63	200.328
1544.77	44.1523
1548.9	177.293
1553.03	210.711
1557.16	258.777
1561.29	1.57031
