Measurement: Raman, 514 nm, ccw, Raman Data Processed
Mineral: Riebeckite
Rruff sample: R050082
Ideal chemistry: [box]Na_2_(Fe^2+^_3_Fe^3+^_2_)Si_8_O_22_(OH)_2_
Locality: Mt. Malosa, Zomba, Chilwa, Alkaline Area, Malawi
Source: Rock Currier
Description: Black elongated prisms
Measured chemistry: ([box]_0.63_Na_0.19_K_0.18_)(Na_1.58_Ca_0.42_)_Σ=2_Fe^2+^_3.00_(Fe^3+^_1.30_Fe^2+^_0.45_Mn_0.15_Mg_0.05_Ti_0.05_)_Σ=2_(Si_0.98_Al_0.02_)_8_O_22_(OH)_2_
Pin_id: L00434
Orientation: Laser parallel to b* (0 1 0). Fiducial mark perpendicular to laser is parallel to c [0 0 1]
Raman shift (cm-1)	intensity
123.885	0
128.833	1219.82
133.778	8682.25
138.72	22883.3
143.66	13780.3
148.596	4185.57
153.53	1041.23
158.46	980.447
163.388	3643.49
168.313	4106.4
173.235	1951.03
178.155	1171.33
183.071	1558.6
187.985	4049.19
192.896	6363.75
197.803	7235.72
202.709	9129.39
207.611	11589.7
212.51	15747.7
217.407	14714.3
222.301	12900.3
227.192	13109
232.08	13837.3
236.965	10909.2
241.848	6477.22
246.728	3082.74
251.604	1379.47
256.479	1047.11
261.35	1803.28
266.218	2010.45
271.084	2284.7
275.947	1657.64
280.807	897.729
285.664	425.609
290.518	558.711
295.37	1302.26
300.219	2840.79
305.065	3839.67
309.908	4826.4
314.749	5290.46
319.586	4640.49
324.421	3408.91
329.253	1901.5
334.083	700.334
338.909	324.488
343.733	11.5391
348.554	132.848
353.372	465.449
358.187	677.359
363	772.518
367.81	1065.84
372.617	762.24
377.421	404.623
382.223	203.803
387.022	183.768
391.818	134.549
396.611	368.918
401.401	241.432
406.189	798.451
410.974	542.467
415.756	37.9219
420.536	1005.7
425.312	2718.46
430.086	3043.75
434.858	1806.29
439.626	1119.83
444.392	740.639
449.155	507.685
453.915	706.578
458.672	624.422
463.427	621.076
468.179	742.693
472.928	1067.79
477.675	1124.69
482.419	1434.75
487.16	1868.69
491.898	2483.08
496.634	3170.56
501.367	3636.17
506.097	4135.78
510.825	4289.72
515.549	4727.78
520.271	5578.97
524.991	7113.28
529.707	9540.27
534.421	11282.2
539.132	10679.6
543.841	8694.01
548.547	6548.05
553.25	5535.37
557.95	5377.8
562.648	6683.49
567.343	8103.46
572.035	5737.72
576.724	2615.07
581.411	933.43
586.095	330.68
590.777	87.5547
595.456	137.971
600.132	161.397
604.805	159.428
609.476	607.338
614.144	454.799
618.809	1079.85
623.472	1333.12
628.132	2360.51
632.789	3235.02
637.444	5031.66
642.096	7113.44
646.745	11357.6
651.392	18945
656.036	30347.7
660.677	43942.7
665.316	47837.5
669.952	34418.4
674.585	18123
679.216	9451.58
683.844	5733.06
688.469	4104.56
693.092	3179.13
697.712	2699.43
702.329	2303.77
706.944	2182.59
711.556	1994.92
716.166	1970.78
720.773	1664.53
725.377	1453.49
729.978	1381.62
734.577	1330.43
739.173	853.012
743.767	761.975
748.358	551.127
752.946	641.896
757.532	477.488
762.115	614.555
766.695	691.111
771.273	529.184
775.848	390.799
780.421	317.977
784.991	326.738
789.558	28.0996
794.123	155.961
798.685	520.449
803.245	379.627
807.802	208.516
812.356	63.1133
816.907	190.121
821.456	164.029
826.003	188.932
830.547	138.889
835.088	209.398
839.627	146.703
844.163	75.4629
848.696	124.121
853.227	66.5547
857.755	408.898
862.281	406.072
866.804	909.264
871.324	769.068
875.842	998.236
880.357	1240.62
884.87	1147.2
889.38	1546.83
893.888	1703.5
898.393	1898.26
902.895	2232.4
907.395	2777.95
911.892	3180.73
916.387	3628.77
920.879	3935.84
925.368	4053.93
929.855	4181.67
934.339	4029.47
938.821	4404.07
943.301	4875.3
947.777	5235.88
952.251	6042.64
956.723	6437.31
961.192	6646.7
965.658	6811.99
970.122	6373.84
974.583	6142.85
979.042	5276
983.498	4854.2
987.952	4661.58
992.403	4513.93
996.852	4753.15
1001.3	4745.25
1005.74	4938.2
1010.18	5305.01
1014.62	5610.67
1019.06	6381.16
1023.49	7790.85
1027.92	9200.03
1032.35	10771.3
1036.78	11686.6
1041.2	11893.9
1045.62	11291.6
1050.04	10611.7
1054.45	10162.9
1058.87	10070.5
1063.28	9687.06
1067.68	9422.97
1072.09	8908.16
1076.49	8419.07
1080.89	7461.36
1085.29	6224.15
1089.69	5075.56
1094.08	4323
1098.47	3895.89
1102.86	3576.85
1107.24	3509.42
1111.63	3292.41
1116.01	3217.28
1120.38	3239.88
1124.76	2862.03
1129.13	2382.8
1133.5	2029.34
1137.87	1626.94
1142.24	1039.64
1146.6	574.684
1150.96	259.107
1155.32	78.7266
1159.67	71.2715
1164.03	149.486
1168.38	83.4746
1172.72	39.5352
1177.07	18.9805
1181.41	44.3535
1185.75	107.467
1190.09	129.728
1194.43	27.6016
1198.76	55.2207
1203.09	46.8926
1207.42	172.227
1211.75	121.842
1216.07	18.6172
1220.39	13.6035
1224.71	59.5957
1229.02	169.688
1233.34	4.85938
1237.65	235.176
1241.96	22.7051
1246.26	235.758
1250.57	107.389
1254.87	228.301
1259.17	247.662
1263.46	236.527
1267.76	264.84
1272.05	316.688
1276.34	269.324
1280.62	189.127
1284.91	257.949
1289.19	434.154
1293.47	264.357
1297.74	194.258
1302.02	241.094
1306.29	390.818
1310.56	398.531
1314.83	361.787
1319.09	272.803
1323.35	206.006
1327.61	229.053
1331.87	373.865
1336.12	331.385
1340.38	230.338
1344.63	23.791
1348.87	90.6875
1353.12	109.897
1357.36	268.844
1361.6	75.6856
1365.84	258.244
1370.08	180.531
1374.31	46.582
1378.54	207.473
1382.77	107.936
1386.99	311.32
1391.22	331.803
1395.44	218.19
1399.66	48.4609
1403.87	113.107
1408.09	154.635
1412.3	25.0605
1416.51	89.3867
1420.71	36.8633
1424.92	110.299
1429.12	168.551
1433.32	22.207
1437.51	410.082
1441.71	252.228
1445.9	161.92
1450.09	34.6367
1454.28	10.5527
1458.46	1.7207
1462.65	299.037
1466.83	624.762
1471	78.6016
1475.18	43.8867
1479.35	443.123
1483.52	93.6894
1487.69	84.8301
1491.86	261.57
1496.02	80.6797
1500.18	58.6953
1504.34	123.342
1508.5	128.227
1512.65	257.043
1516.8	111.051
1520.95	166.457
1525.1	107.135
1529.24	2.12695
1533.39	79.1289
1537.53	65.4394
1541.66	36.4414
1545.8	265.258
1549.93	286.652
1554.06	1176.77
1558.19	127.621
1562.32	0
