Measurement: Raman, 514 nm, ccw, Raman Data Processed
Mineral: Riebeckite
Rruff sample: R050082
Ideal chemistry: [box]Na_2_(Fe^2+^_3_Fe^3+^_2_)Si_8_O_22_(OH)_2_
Locality: Mt. Malosa, Zomba, Chilwa, Alkaline Area, Malawi
Source: Rock Currier
Description: Black elongated prisms
Measured chemistry: ([box]_0.63_Na_0.19_K_0.18_)(Na_1.58_Ca_0.42_)_Σ=2_Fe^2+^_3.00_(Fe^3+^_1.30_Fe^2+^_0.45_Mn_0.15_Mg_0.05_Ti_0.05_)_Σ=2_(Si_0.98_Al_0.02_)_8_O_22_(OH)_2_
Pin_id: L00434
Orientation: Laser parallel to b* (0 1 0). Fiducial mark perpendicular to laser is parallel to c [0 0 1]
Raman shift (cm-1)	intensity
146.128	0
151.063	431.859
155.995	892.57
160.925	1490.25
165.851	4283.39
170.775	5338
175.695	6112.48
180.613	8885.84
185.528	12021.8
190.44	14186.8
195.35	13427.5
200.256	11740.5
205.16	4603.6
210.061	1708.3
214.959	1186.06
219.854	884.519
224.747	1388.49
229.636	1577.86
234.523	1520.99
239.407	1284.73
244.288	693.234
249.166	630.027
254.042	709.32
258.915	1152.92
263.784	1276.78
268.651	1208.48
273.516	613.312
278.377	646.891
283.236	361.422
288.092	342.742
292.945	393.789
297.795	244.219
302.642	97.7656
307.487	307.75
312.329	641.234
317.168	929.238
322.004	1530.78
326.838	2073.3
331.668	2220.68
336.496	3040.52
341.321	4579.28
346.144	6171.7
350.963	7715.62
355.78	7316.95
360.594	6945.52
365.405	6806.92
370.214	6669.81
375.019	5766.1
379.822	5337.72
384.622	4655.44
389.42	4074.07
394.215	3196.16
399.006	2277.38
403.795	1609.56
408.582	1314.88
413.365	1171.64
418.146	1577.53
422.924	1529.12
427.7	1614.4
432.472	1262.06
437.242	1117.5
442.009	741.125
446.774	463.793
451.535	270.488
456.294	126.539
461.05	221.582
465.804	360.418
470.554	92.5859
475.302	133.977
480.047	348.543
484.79	1113.67
489.529	1220.1
494.266	1586.94
499.001	1982.25
503.732	2420.06
508.461	3860.53
513.187	3787.88
517.911	4506.19
522.631	5345.57
527.349	6904.13
532.065	7933.47
536.777	8882.03
541.487	8446.82
546.194	8239.47
550.898	7683.03
555.6	7354.81
560.299	6506.88
564.995	5406.6
569.689	4153.24
574.38	2777.42
579.068	1632.14
583.754	1002.16
588.437	65.9219
593.117	147.117
597.794	228.934
602.469	241.742
607.141	117.391
611.81	131.301
616.477	60.8594
621.141	476.035
625.802	495.984
630.461	1045.13
635.117	1648.8
639.77	2394.02
644.421	3597.8
649.069	5498.16
653.714	8455.13
658.357	13107.7
662.997	17699.4
667.634	17634.6
672.269	12536.1
676.901	8090.27
681.53	6329.34
686.157	6475.02
690.781	5932.97
695.402	6137.05
700.021	6364.47
704.637	6623.73
709.251	7188.45
713.861	7412.63
718.469	7257.25
723.075	6833.32
727.678	6307.55
732.278	5499.28
736.876	4941.33
741.47	3729.53
746.063	3343.24
750.652	2782.85
755.239	2295.37
759.824	1868.99
764.406	1908.6
768.985	1617.95
773.561	1049.07
778.135	1005.97
782.706	813.68
787.275	588.242
791.841	408.672
796.404	161.008
800.965	447.082
805.523	152.305
810.079	196.754
814.632	110.004
819.182	104.234
823.73	239.609
828.275	50.3164
832.818	180.141
837.358	12.1055
841.895	372.445
846.43	647.051
850.962	1007.97
855.491	1664.23
860.018	2095.67
864.543	3482.97
869.064	4277.08
873.583	5307.41
878.1	5551.18
882.614	5538.82
887.125	4876.51
891.634	4333.09
896.14	3746.48
900.644	3416.57
905.145	2780.37
909.644	2632.96
914.14	2354.28
918.633	2550.9
923.124	2408.56
927.612	2008.27
932.098	1908.22
936.581	2330.28
941.061	2387.12
945.539	2575
950.015	2905.7
954.487	3466.09
958.958	3824.98
963.425	4317.04
967.89	4131.61
972.353	3890.52
976.813	3780.11
981.271	3705.85
985.726	3584.67
990.178	3606.15
994.628	3583.57
999.075	3670.87
1003.52	3770.3
1007.96	3879.01
1012.4	3825.41
1016.84	3700.13
1021.27	3777.26
1025.71	3663.07
1030.13	4169.34
1034.56	4345.56
1038.99	4602.26
1043.41	4810.66
1047.83	4841.57
1052.24	4674.03
1056.66	4499.85
1061.07	4566.03
1065.48	4654.77
1069.89	4295.5
1074.29	4445.59
1078.69	4546.89
1083.09	4340.98
1087.49	3698.7
1091.88	3716.42
1096.28	2903.39
1100.66	2923.01
1105.05	2747.66
1109.43	2460.41
1113.82	2423.87
1118.2	1956.54
1122.57	1919.63
1126.95	1223.58
1131.32	818.438
1135.69	596.941
1140.05	517.867
1144.42	232.18
1148.78	76.0234
1153.14	33.875
1157.5	194.488
1161.85	212.164
1166.2	277.906
1170.55	17.9414
1174.9	92.4062
1179.24	13.9961
1183.58	136.984
1187.92	149.934
1192.26	158.144
1196.6	174.856
1200.93	204.965
1205.26	112.488
1209.58	32.543
1213.91	21.4023
1218.23	8.09375
1222.55	44.4023
1226.87	119.746
1231.18	132.113
1235.49	139.438
1239.8	260.922
1244.11	369.922
1248.41	201.848
1252.72	92.9688
1257.02	456.309
1261.32	261.379
1265.61	107.113
1269.9	204.231
1274.19	443.211
1278.48	173.277
1282.77	407.004
1287.05	356.106
1291.33	329.633
1295.61	319.492
1299.88	514.109
1304.15	473.887
1308.42	260.824
1312.69	295.766
1316.96	247.172
1321.22	524.914
1325.48	387.547
1329.74	526.473
1334	409.258
1338.25	315.277
1342.5	400.332
1346.75	395.519
1351	96.8633
1355.24	480.836
1359.48	601.512
1363.72	38.0312
1367.96	452.887
1372.19	292.199
1376.42	61.1484
1380.65	551.504
1384.88	310.434
1389.11	243.371
1393.33	473.328
1397.55	356.977
1401.76	250.184
1405.98	322.551
1410.19	292.254
1414.4	265.812
1418.61	289.047
1422.82	383.824
1427.02	404.219
1431.22	470.273
1435.42	426.445
1439.61	181.652
1443.81	685.828
1448	489.434
1452.18	257.367
1456.37	346.777
1460.56	165.098
1464.74	467.504
1468.92	589.606
1473.09	168.086
1477.27	365.258
1481.44	123.125
1485.61	211.785
1489.78	180.769
1493.94	350.93
1498.1	169.769
1502.26	335.68
1506.42	162.016
1510.58	72.9531
1514.73	33.4883
1518.88	85.625
1523.03	141.469
1527.17	302.512
1531.32	121.305
1535.46	309.481
1539.6	240.133
1543.73	181.269
1547.87	21.2188
1552	178.457
1556.13	197.914
1560.26	240.609
