Measurement: Raman, 514 nm, ccw, Raman Data Processed
Mineral: Riebeckite
Rruff sample: R050082
Ideal chemistry: [box]Na_2_(Fe^2+^_3_Fe^3+^_2_)Si_8_O_22_(OH)_2_
Locality: Mt. Malosa, Zomba, Chilwa, Alkaline Area, Malawi
Source: Rock Currier
Description: Black elongated prisms
Measured chemistry: ([box]_0.63_Na_0.19_K_0.18_)(Na_1.58_Ca_0.42_)_Σ=2_Fe^2+^_3.00_(Fe^3+^_1.30_Fe^2+^_0.45_Mn_0.15_Mg_0.05_Ti_0.05_)_Σ=2_(Si_0.98_Al_0.02_)_8_O_22_(OH)_2_
Pin_id: L00547
Orientation: Laser parallel to -a* (-1 0 0). Fiducial mark perpendicular to laser is parallel to -b [0 -1 0]
Raman shift (cm-1)	intensity
173.235	0
178.155	846.059
183.071	3563.67
187.985	7578.98
192.896	10597.2
197.803	9472.64
202.709	8492.75
207.611	1132.08
212.51	1406.93
217.407	433.68
222.301	183.785
227.192	47.9102
232.08	463.769
236.965	1076.51
241.848	1681.77
246.728	1242.06
251.604	469.547
256.479	498.953
261.35	222.363
266.218	471.106
271.084	94.8711
275.947	87.3125
280.807	118.586
285.664	105.781
290.518	154.269
295.37	110.285
300.219	27.5898
305.065	95.4531
309.908	1640.56
314.749	2296.2
319.586	4852
324.421	7585.81
329.253	9126.97
334.083	7445.23
338.909	4687.61
343.733	2545.73
348.554	2638.47
353.372	3302.8
358.187	4122.83
363	4064.79
367.81	2723.25
372.617	2256.89
377.421	2381.62
382.223	3152.46
387.022	2279.55
391.818	1350.83
396.611	630.734
401.401	178.508
406.189	107.934
410.974	47.0938
415.756	117.727
420.536	348.742
425.312	444.769
430.086	502.449
434.858	615.734
439.626	323.812
444.392	338.137
449.155	326.594
453.915	438.004
458.672	512.84
463.427	905.238
468.179	1355.19
472.928	1091.83
477.675	1034.69
482.419	773.781
487.16	1082.55
491.898	1092.27
496.634	1598.16
501.367	1707.27
506.097	1661.64
510.825	2035.82
515.549	2806.06
520.271	3454.2
524.991	4909.48
529.707	7621.75
534.421	10782
539.132	12857.1
543.841	11345.5
548.547	8612.43
553.25	6952.42
557.95	6246.95
562.648	6749.63
567.343	8375
572.035	10212.4
576.724	10741
581.411	7753.17
586.095	3945.91
590.777	2162.75
595.456	829.168
600.132	473.973
604.805	373.144
609.476	191.688
614.144	91.8672
618.809	274.133
623.472	440.777
628.132	400.93
632.789	576.356
637.444	952.231
642.096	1109.56
646.745	2039.56
651.392	3934.47
656.036	6023.32
660.677	7559.91
665.316	7387.31
669.952	5049.31
674.585	2390.14
679.216	1562.62
683.844	604.297
688.469	392.859
693.092	35.3477
697.712	302.965
702.329	79.1719
706.944	149.078
711.556	314.965
716.166	64.2852
720.773	141.785
725.377	345.961
729.978	344.945
734.577	622.746
739.173	170.359
743.767	301.891
748.358	61.0234
752.946	102.625
757.532	255.172
762.115	263.812
766.695	305.254
771.273	301.469
775.848	247.453
780.421	384.223
784.991	220.805
789.558	198.887
794.123	390.387
798.685	221.84
803.245	37.7344
807.802	11.7266
812.356	29.2695
816.907	199.613
821.456	44.418
826.003	123.461
830.547	207.637
835.088	87.1328
839.627	38.4414
844.163	18.7852
848.696	107.519
853.227	211.609
857.755	451.481
862.281	595.394
866.804	1051.71
871.324	1483.2
875.842	1944.05
880.357	2441.8
884.87	2626.68
889.38	2238.1
893.888	1867.82
898.393	1298.73
902.895	809.777
907.395	901.555
911.892	637.789
916.387	891.742
920.879	865.43
925.368	903.773
929.855	835.891
934.339	603
938.821	1167.62
943.301	1133.58
947.777	1238.9
952.251	1838.65
956.723	2244.43
961.192	3820.11
965.658	5126.98
970.122	4922.97
974.583	3762.6
979.042	2442.8
983.498	1864.58
987.952	1619.71
992.403	1406.09
996.852	1387.31
1001.3	1217.68
1005.74	1464.25
1010.18	1328.3
1014.62	1723.37
1019.06	1825.47
1023.49	2597.57
1027.92	3268.65
1032.35	3752.72
1036.78	3925.8
1041.2	3902.89
1045.62	3089.66
1050.04	2624.36
1054.45	2651.86
1058.87	2432.4
1063.28	2675.39
1067.68	3029.55
1072.09	3605.84
1076.49	3979.37
1080.89	4303.42
1085.29	4322.85
1089.69	3188.7
1094.08	2906.91
1098.47	2224.77
1102.86	2397.36
1107.24	2383.07
1111.63	2163.33
1116.01	2311.78
1120.38	2151.26
1124.76	1905.01
1129.13	1565.94
1133.5	1538.71
1137.87	1170.56
1142.24	1074.53
1146.6	317.215
1150.96	565.367
1155.32	605.902
1159.67	425.934
1164.03	14.3164
1168.38	22.8125
1172.72	72.332
1177.07	14.3008
1181.41	6.70312
1185.75	33.4805
1190.09	34.2656
1194.43	16.9766
1198.76	81.8672
1203.09	39.8281
1207.42	29.5977
1211.75	114.211
1216.07	15.6445
1220.39	38.5391
1224.71	191.25
1229.02	124.586
1233.34	142.277
1237.65	190.031
1241.96	293.195
1246.26	55.793
1250.57	312.574
1254.87	31.0273
1259.17	148.289
1263.46	178.426
1267.76	146.856
1272.05	315.977
1276.34	334.992
1280.62	260.258
1284.91	202.644
1289.19	291.637
1293.47	216.551
1297.74	203.867
1302.02	248.656
1306.29	254.152
1310.56	276.106
1314.83	218.019
1319.09	110.75
1323.35	64.6914
1327.61	635.891
1331.87	177.523
1336.12	329.566
1340.38	511.023
1344.63	39.2227
1348.87	440.356
1353.12	60.0391
1357.36	71.332
1361.6	215.617
1365.84	177.293
1370.08	206.043
1374.31	867.148
1378.54	140.519
1382.77	168.09
1386.99	124.742
1391.22	306.113
1395.44	102
1399.66	441.664
1403.87	210.707
1408.09	407.047
1412.3	278.832
1416.51	127.016
1420.71	234.488
1424.92	112.734
1429.12	298.305
1433.32	558.269
1437.51	185.031
1441.71	437.992
1445.9	490.898
1450.09	237.715
1454.28	537.481
1458.46	1017.34
1462.65	565.891
1466.83	250.219
1471	615.363
1475.18	433.328
1479.35	476.602
1483.52	108.566
1487.69	5.23438
1491.86	521.543
1496.02	565.5
1500.18	748.5
1504.34	258.715
1508.5	758.457
1512.65	181.992
1516.8	399.988
1520.95	446.297
1525.1	323.637
1529.24	358.344
1533.39	355.863
1537.53	36.7773
1541.66	109.164
1545.8	570.375
1549.93	604.297
1554.06	715.457
1558.19	83.793
1562.32	0
