Measurement: Raman, 514 nm, ccw, Raman Data Processed
Mineral: Riebeckite
Rruff sample: R050082
Ideal chemistry: [box]Na_2_(Fe^2+^_3_Fe^3+^_2_)Si_8_O_22_(OH)_2_
Locality: Mt. Malosa, Zomba, Chilwa, Alkaline Area, Malawi
Source: Rock Currier
Description: Black elongated prisms
Measured chemistry: ([box]_0.63_Na_0.19_K_0.18_)(Na_1.58_Ca_0.42_)_Σ=2_Fe^2+^_3.00_(Fe^3+^_1.30_Fe^2+^_0.45_Mn_0.15_Mg_0.05_Ti_0.05_)_Σ=2_(Si_0.98_Al_0.02_)_8_O_22_(OH)_2_
Pin_id: L00547
Orientation: Laser parallel to -a* (-1 0 0). Fiducial mark perpendicular to laser is parallel to -b [0 -1 0]
Raman shift (cm-1)	intensity
137.485	0
142.425	365.066
147.362	156.883
152.296	1006.59
157.228	1650.18
162.156	6276.74
167.082	6828.61
172.005	6801.82
176.925	5932.05
181.842	9798.78
186.757	14303.2
191.668	18905
196.577	14343.8
201.483	10519.5
206.386	2620.56
211.286	3549.01
216.183	5025.3
221.078	5518.19
225.969	6097.89
230.858	4365.3
235.744	6365.76
240.628	9467.98
245.508	10929.5
250.386	8153.73
255.26	3150.65
260.132	2607.33
265.001	1844.21
269.868	2019.68
274.731	1839.49
279.592	554.769
284.45	438.176
289.305	210.582
294.157	366.793
299.007	30.7773
303.854	403.144
308.698	619.981
313.539	509.262
318.377	1704.65
323.213	3179.83
328.046	4544.91
332.876	4199.91
337.703	2731.29
342.527	2809.39
347.349	4112.47
352.168	6236.73
356.984	7538.47
361.797	8184.17
366.608	4871.57
371.415	2727.37
376.22	3039.34
381.023	2050.7
385.822	1792.44
390.619	1421.53
395.413	894.969
400.204	361.695
404.992	19.082
409.778	136.481
414.561	239.359
419.341	303.223
424.118	727.629
428.893	555.418
433.665	903.07
438.434	554.887
443.201	343.164
447.964	8.30469
452.725	125.375
457.483	179.547
462.239	892.258
466.991	1090.42
471.741	1119.78
476.489	772.477
481.233	634.371
485.975	608.59
490.714	1303.16
495.45	1402.09
500.184	1739.47
504.915	2258.38
509.643	2402.15
514.368	2757.72
519.091	3194.24
523.811	4458.62
528.528	6832.82
533.243	9602.85
537.955	11620.5
542.664	10878.6
547.37	8125.19
552.074	6569.32
556.775	5830.57
561.473	5674.47
566.169	6313.68
570.862	7031.1
575.552	6975.31
580.24	5519.94
584.925	2899.47
589.607	1511.85
594.286	726.109
598.963	206.707
603.637	491.066
608.309	44.1445
612.977	147.957
617.643	296.5
622.307	86.793
626.967	288.836
631.625	519.641
636.281	720.223
640.933	2412.16
645.583	1905.08
650.231	3108.29
654.875	4456.62
659.517	5237.84
664.157	4999.51
668.793	3398.72
673.427	2037.52
678.059	1208.62
682.687	216.039
687.313	485.644
691.937	149.398
696.557	1.05859
701.175	136.391
705.791	144.809
710.403	53.8906
715.014	110.094
719.621	62.082
724.226	6.21094
728.828	244.469
733.428	309.359
738.025	168.953
742.619	521.164
747.21	677.172
751.799	861
756.386	1397.59
760.969	1443.13
765.551	881.559
770.129	380.898
774.705	36.8281
779.278	29.3086
783.849	0.351563
788.417	80.0547
792.982	131.301
797.545	331.258
802.105	19.5078
806.663	139.996
811.217	287.117
815.77	62.8281
820.319	2.32812
824.867	154.285
829.411	368.004
833.953	328.801
838.492	445.762
843.029	321.406
847.563	701.012
852.094	793.223
856.623	1205.82
861.15	1399.89
865.673	2162.59
870.194	3153.56
874.713	3251.89
879.229	3679.48
883.742	2895.97
888.253	2334.36
892.761	1546.7
897.267	1009.02
901.77	620.336
906.27	155.777
910.768	94.6914
915.263	306.254
919.756	377.723
924.246	312.269
928.734	149.688
933.219	179.367
937.701	460.879
942.181	773.258
946.658	644.004
951.133	1122.2
955.605	1703.26
960.075	3178.08
964.542	4796.56
969.006	5484.89
973.468	4163.39
977.928	2592.31
982.385	1901.25
986.839	1609.06
991.291	1428.92
995.74	1285.52
1000.19	1330.82
1004.63	1103.54
1009.07	1099.67
1013.51	1124.86
1017.95	1372.23
1022.38	1109.91
1026.81	1761.93
1031.24	2093.26
1035.67	2728.5
1040.09	2665.34
1044.51	2364.45
1048.93	1796.82
1053.35	1955.74
1057.76	1756.09
1062.17	2094.68
1066.58	2282.57
1070.99	2488.75
1075.39	2953.21
1079.79	3736.88
1084.19	3900.72
1088.59	3383.74
1092.98	2775.66
1097.37	2491.8
1101.76	2156.63
1106.15	2363.47
1110.53	2071.22
1114.91	2189.62
1119.29	2191.61
1123.67	1918.1
1128.04	1776.25
1132.41	1363.99
1136.78	892.008
1141.15	1004.91
1145.51	479.715
1149.87	269.691
1154.23	417.648
1158.59	242.894
1162.94	143.59
1167.29	560.625
1171.64	204.625
1175.98	254.84
1180.33	92.918
1184.67	199.164
1189.01	147.363
1193.34	284.141
1197.68	79.5742
1202.01	129.219
1206.34	194.004
1210.66	157.887
1214.99	104.465
1219.31	204.129
1223.63	73.0742
1227.94	56.375
1232.26	391.754
1236.57	58.7266
1240.88	229.309
1245.19	386.988
1249.49	109.566
1253.79	403.203
1258.09	440.449
1262.39	366.125
1266.68	0.699219
1270.97	144.5
1275.26	407.836
1279.55	262.496
1283.84	336.859
1288.12	354.082
1292.4	287.879
1296.67	631.227
1300.95	189.676
1305.22	497.297
1309.49	341.156
1313.76	522.312
1318.03	446.316
1322.29	457.039
1326.55	428.523
1330.81	471.672
1335.06	370.723
1339.31	493.332
1343.56	444.25
1347.81	245.734
1352.06	296.551
1356.3	648.059
1360.54	116.734
1364.78	353.066
1369.02	568.758
1373.25	135.504
1377.48	588.59
1381.71	588.918
1385.94	140.039
1390.16	420.231
1394.38	338.062
1398.6	246.422
1402.82	405.543
1407.03	194.098
1411.24	378.539
1415.45	254.773
1419.66	412.438
1423.87	534.348
1428.07	70.1602
1432.27	315.012
1436.46	242.848
1440.66	271.84
1444.85	444.734
1449.04	184.238
1453.23	516.238
1457.42	300.516
1461.6	920.363
1465.78	368.305
1469.96	588.199
1474.14	785.481
1478.31	333.027
1482.48	757.816
1486.65	743.426
1490.82	362.547
1494.98	508.168
1499.14	33.0898
1503.3	251.848
1507.46	393.117
1511.61	231.262
1515.77	296.715
1519.92	307.066
1524.06	498.641
1528.21	168.914
1532.35	351.531
1536.49	601.934
1540.63	99.6055
1544.77	364.953
1548.9	564.664
1553.03	110.894
1557.16	548.793
1561.29	504.394
