Measurement: Raman, 514 nm, ccw, Raman Data Processed
Mineral: Riebeckite
Rruff sample: R050082
Ideal chemistry: [box]Na_2_(Fe^2+^_3_Fe^3+^_2_)Si_8_O_22_(OH)_2_
Locality: Mt. Malosa, Zomba, Chilwa, Alkaline Area, Malawi
Source: Rock Currier
Description: Black elongated prisms
Measured chemistry: ([box]_0.63_Na_0.19_K_0.18_)(Na_1.58_Ca_0.42_)_Σ=2_Fe^2+^_3.00_(Fe^3+^_1.30_Fe^2+^_0.45_Mn_0.15_Mg_0.05_Ti_0.05_)_Σ=2_(Si_0.98_Al_0.02_)_8_O_22_(OH)_2_
Pin_id: L00462
Orientation: Laser parallel to c* (0 0 1). Fiducial mark perpendicular to laser is parallel to a [1 0 0]
Raman shift (cm-1)	intensity
147.362	0
152.296	121.359
157.228	308.773
162.156	1904.91
167.082	3111.81
172.005	3355.53
176.925	3956.2
181.842	6900.31
186.757	10202.2
191.668	12286.8
196.577	12060.2
201.483	11210.2
206.386	3119.75
211.286	2087.49
216.183	1916.53
221.078	2274.41
225.969	2375.82
230.858	2202.21
235.744	1663.61
240.628	579.738
245.508	207.473
250.386	174.461
255.26	507.129
260.132	336.582
265.001	34.1445
269.868	185.84
274.731	336.617
279.592	93.0273
284.45	108.031
289.305	3.03516
294.157	86.3711
299.007	426.137
303.854	851.703
308.698	1965.87
313.539	3169.65
318.377	2861.68
323.213	3049.06
328.046	2821.63
332.876	2593.27
337.703	2274.57
342.527	2274.11
347.349	2643.2
352.168	2992.18
356.984	3145.69
361.797	3130.38
366.608	3798.12
371.415	4157.16
376.22	3954.27
381.023	3797.38
385.822	3368.62
390.619	2722.69
395.413	1592.89
400.204	1090.46
404.992	654.207
409.778	729.887
414.561	1027.04
419.341	3224.59
424.118	3737.3
428.893	3252.19
433.665	2568.91
438.434	1937.02
443.201	1355.45
447.964	1669.38
452.725	1428.77
457.483	1571.41
462.239	1458.15
466.991	1623.68
471.741	1683.25
476.489	1931.61
481.233	2410.12
485.975	3303.82
490.714	3950.98
495.45	4590.77
500.184	5503.53
504.915	5885.88
509.643	6523.83
514.368	6796.41
519.091	7560.61
523.811	8769.4
528.528	10160.2
533.243	12024
537.955	10797.8
542.664	10611.7
547.37	10055.3
552.074	9598.02
556.775	10204.2
561.473	10679.9
566.169	10346.8
570.862	8904.28
575.552	5621.04
580.24	3022.75
584.925	931.945
589.607	47.3242
594.286	164.578
598.963	109.422
603.637	219.406
608.309	332.766
612.977	25.6094
617.643	190.484
622.307	435
626.967	1239.6
631.625	1596.38
636.281	2439.36
640.933	3792.7
645.583	5929.85
650.231	9968.36
654.875	15617
659.517	21919.8
664.157	24366.2
668.793	20335.4
673.427	13542.1
678.059	8450.22
682.687	5666.65
687.313	4138.93
691.937	4203.82
696.557	3513.93
701.175	3317.16
705.791	3677.36
710.403	3556.01
715.014	3702.67
719.621	3596.78
724.226	3381.51
728.828	3490.88
733.428	2418.08
738.025	2314.27
742.619	1824.12
747.21	1660.17
751.799	1712.04
756.386	1295.7
760.969	1125.21
765.551	922.727
770.129	914.789
774.705	929.93
779.278	560.621
783.849	498.457
788.417	547.613
792.982	317.129
797.545	339.035
802.105	49.2188
806.663	1.01953
811.217	58.7461
815.77	188.398
820.319	131.199
824.867	364.871
829.411	251.856
833.953	42.1797
838.492	120.981
843.029	186.926
847.563	286.031
852.094	194.856
856.623	578.41
861.15	842.062
865.673	1170.68
870.194	1348.14
874.713	1763.65
879.229	1895.29
883.742	2156.81
888.253	2531.86
892.761	2310.34
897.267	2547.66
901.77	2774.45
906.27	2424.51
910.768	2634.9
915.263	3047.09
919.756	3241.83
924.246	3310.94
928.734	3800.37
933.219	3564.7
937.701	3927.17
942.181	4962.88
946.658	5782.19
951.133	6897.35
955.605	8186.95
960.075	9681.01
964.542	9953.18
969.006	9904.23
973.468	9320.7
977.928	8509.06
982.385	8041.19
986.839	7239.15
991.291	6920.66
995.74	6885.07
1000.19	7351.96
1004.63	7225.46
1009.07	7402.55
1013.51	7745.3
1017.95	7869.57
1022.38	9066.37
1026.81	9884.73
1031.24	10829
1035.67	11785.6
1040.09	12068.7
1044.51	11474.5
1048.93	11120.9
1053.35	11228.1
1057.76	10699.7
1062.17	10588.3
1066.58	10176.7
1070.99	9568.97
1075.39	8744.09
1079.79	7959.91
1084.19	6933.86
1088.59	6563.84
1092.98	6063.68
1097.37	5414.31
1101.76	4886.19
1106.15	4691.02
1110.53	4398.52
1114.91	4025.67
1119.29	3938.16
1123.67	3465.05
1128.04	2579.87
1132.41	1984.92
1136.78	1134.73
1141.15	1281.74
1145.51	563.07
1149.87	549.856
1154.23	199.125
1158.59	210.91
1162.94	80.7148
1167.29	98.3242
1171.64	180.137
1175.98	12.9805
1180.33	122.293
1184.67	48.0664
1189.01	64.332
1193.34	3.55469
1197.68	72.3555
1202.01	97.9844
1206.34	83.1406
1210.66	219.086
1214.99	56.2539
1219.31	167.012
1223.63	170.527
1227.94	46.5312
1232.26	12.0352
1236.57	99.7461
1240.88	1.99609
1245.19	6.09375
1249.49	369.047
1253.79	346.277
1258.09	151.059
1262.39	411.047
1266.68	283.25
1270.97	412.562
1275.26	404.223
1279.55	533.727
1283.84	254.281
1288.12	471.769
1292.4	65.0547
1296.67	314.289
1300.95	689.359
1305.22	333.586
1309.49	957.285
1313.76	716.301
1318.03	119.953
1322.29	575.742
1326.55	200.57
1330.81	393.098
1335.06	153.391
1339.31	172.984
1343.56	116.629
1347.81	436.328
1352.06	91.3359
1356.3	180.18
1360.54	99.6211
1364.78	150.203
1369.02	252.879
1373.25	151.273
1377.48	475.363
1381.71	194.789
1385.94	314.555
1390.16	297.242
1394.38	216.352
1398.6	298.305
1402.82	346.801
1407.03	208.684
1411.24	453.93
1415.45	271.172
1419.66	253.758
1423.87	58.7617
1428.07	243.719
1432.27	66.625
1436.46	190
1440.66	501.633
1444.85	99.5977
1449.04	138.648
1453.23	623.801
1457.42	296.234
1461.6	424.918
1465.78	77.5
1469.96	262.293
1474.14	212.492
1478.31	39.7422
1482.48	290.461
1486.65	20.7461
1490.82	167.594
1494.98	97.6055
1499.14	326.113
1503.3	388.512
1507.46	298.488
1511.61	301.504
1515.77	190.746
1519.92	306.512
1524.06	80.4062
1528.21	189.348
1532.35	225.356
1536.49	245.062
1540.63	190.641
1544.77	26.1641
1548.9	273.793
1553.03	364.031
1557.16	488.84
1561.29	1.98047
