Measurement: Raman, 514 nm, ccw, Raman Data Processed
Mineral: Riebeckite
Rruff sample: R050082
Ideal chemistry: [box]Na_2_(Fe^2+^_3_Fe^3+^_2_)Si_8_O_22_(OH)_2_
Locality: Mt. Malosa, Zomba, Chilwa, Alkaline Area, Malawi
Source: Rock Currier
Description: Black elongated prisms
Measured chemistry: ([box]_0.63_Na_0.19_K_0.18_)(Na_1.58_Ca_0.42_)_Σ=2_Fe^2+^_3.00_(Fe^3+^_1.30_Fe^2+^_0.45_Mn_0.15_Mg_0.05_Ti_0.05_)_Σ=2_(Si_0.98_Al_0.02_)_8_O_22_(OH)_2_
Pin_id: L00434
Orientation: Laser parallel to b* (0 1 0). Fiducial mark perpendicular to laser is parallel to c [0 0 1]
Raman shift (cm-1)	intensity
123.885	0
128.833	2206.38
133.778	3409.91
138.72	8958.6
143.66	5362.46
148.596	2366.12
153.53	1048.27
158.46	999.418
163.388	3711.29
168.313	4554.24
173.235	3874.15
178.155	4319
183.071	6354.81
187.985	9721.66
192.896	12175.7
197.803	11336.8
202.709	10733.5
207.611	7138.44
212.51	8577
217.407	7331.39
222.301	5666.16
227.192	4788.86
232.08	5042.07
236.965	3704.38
241.848	2241.08
246.728	617.352
251.604	358.102
256.479	780.285
261.35	1610.84
266.218	898.301
271.084	365.918
275.947	350.59
280.807	285.234
285.664	615.555
290.518	516.027
295.37	118.5
300.219	319.156
305.065	1160.17
309.908	1983.93
314.749	2644.08
319.586	3086.88
324.421	3171.94
329.253	3073.8
334.083	2814.58
338.909	3380.11
343.733	4132.5
348.554	5315.32
353.372	5714.1
358.187	5551.17
363	5277.47
367.81	5015.12
372.617	4608.1
377.421	3736.34
382.223	3180.8
387.022	2326.45
391.818	1276.1
396.611	1054.29
401.401	493.492
406.189	167.219
410.974	105.074
415.756	474.109
420.536	881.965
425.312	1372.25
430.086	1379.73
434.858	616.609
439.626	99.1641
444.392	274.559
449.155	99.1328
453.915	103.25
458.672	461.824
463.427	1073.39
468.179	1104.57
472.928	846.547
477.675	811.746
482.419	915.504
487.16	812.117
491.898	1316.6
496.634	1911.03
501.367	2354.51
506.097	2774.09
510.825	3265.77
515.549	3556.54
520.271	4355.41
524.991	5440.38
529.707	6893.72
534.421	7803.06
539.132	7624.19
543.841	7107.07
548.547	6271.71
553.25	5701.68
557.95	5712.53
562.648	5615.13
567.343	5039.69
572.035	3868.29
576.724	1838.76
581.411	1220.41
586.095	29.1875
590.777	256.981
595.456	127.938
600.132	121.457
604.805	193.199
609.476	99.8477
614.144	290.766
618.809	733.207
623.472	1088.28
628.132	1723.57
632.789	2152.2
637.444	4506.17
642.096	5026.49
646.745	6741.18
651.392	10607.2
656.036	16568.7
660.677	23338.5
665.316	25717.1
669.952	19632.6
674.585	11560.9
679.216	6598.77
683.844	4468.61
688.469	4157.89
693.092	4107.39
697.712	3861.07
702.329	4108.16
706.944	4078.85
711.556	4307.43
716.166	3923.14
720.773	3910.45
725.377	3665.62
729.978	2841.8
734.577	2946.09
739.173	2386.77
743.767	1938.99
748.358	1266.69
752.946	1347.66
757.532	867.832
762.115	881.457
766.695	951.555
771.273	771.156
775.848	441.281
780.421	248.789
784.991	230.781
789.558	405.867
794.123	370.531
798.685	386.363
803.245	237.859
807.802	48.3555
812.356	193.469
816.907	312.258
821.456	246.07
826.003	358.644
830.547	368.977
835.088	20.5508
839.627	141.984
844.163	255.832
848.696	606.785
853.227	969.898
857.755	1870.22
862.281	3064.82
866.804	3807.05
871.324	4625.38
875.842	5506.4
880.357	5587.77
884.87	5647.43
889.38	5125.72
893.888	4557.56
898.393	4040.08
902.895	4032.36
907.395	3577.47
911.892	3784.44
916.387	3917.3
920.879	3531.22
925.368	3579.01
929.855	3791.85
934.339	4126.98
938.821	5035.04
943.301	5310.54
947.777	5950.21
952.251	6905.31
956.723	7800.76
961.192	8038.84
965.658	7978.12
970.122	7485.12
974.583	6713.6
979.042	6132.61
983.498	5830.23
987.952	5400.36
992.403	5670.02
996.852	5896.31
1001.3	5876.12
1005.74	6371.48
1010.18	6470.39
1014.62	6238.81
1019.06	6283.69
1023.49	6789.06
1027.92	7081.48
1032.35	7780.16
1036.78	8349.83
1041.2	8444.83
1045.62	8092.08
1050.04	7658.47
1054.45	7047.85
1058.87	7030.15
1063.28	7000.53
1067.68	6485.98
1072.09	6564.57
1076.49	6036.88
1080.89	5679.59
1085.29	4789.52
1089.69	4261.34
1094.08	3816.66
1098.47	3479.91
1102.86	3334.36
1107.24	3210.98
1111.63	2998.43
1116.01	2755.41
1120.38	2443.73
1124.76	2380.26
1129.13	1756.54
1133.5	1094.51
1137.87	1051.18
1142.24	692.371
1146.6	343.863
1150.96	386.598
1155.32	56.1719
1159.67	171.219
1164.03	55.3477
1168.38	104.496
1172.72	112.453
1177.07	68.8125
1181.41	187.504
1185.75	16.6055
1190.09	107.785
1194.43	16.8438
1198.76	0.886719
1203.09	70.9844
1207.42	5.69141
1211.75	175.805
1216.07	58.0273
1220.39	143.672
1224.71	73.3594
1229.02	10.707
1233.34	221.121
1237.65	66.957
1241.96	27.9023
1246.26	142.352
1250.57	208.973
1254.87	122.848
1259.17	343.969
1263.46	79.4023
1267.76	100.969
1272.05	517.676
1276.34	369.609
1280.62	619.754
1284.91	260.07
1289.19	256.949
1293.47	680.141
1297.74	398.117
1302.02	670.25
1306.29	396.035
1310.56	661.914
1314.83	272.535
1319.09	518.133
1323.35	411.934
1327.61	736.66
1331.87	412.734
1336.12	521.152
1340.38	656.289
1344.63	407.598
1348.87	652.531
1353.12	647.644
1357.36	370.016
1361.6	526.695
1365.84	492.543
1370.08	437.695
1374.31	325.211
1378.54	498.062
1382.77	425.496
1386.99	485.906
1391.22	431.453
1395.44	422.969
1399.66	202.07
1403.87	583.988
1408.09	373.023
1412.3	243.055
1416.51	234.598
1420.71	275.918
1424.92	392.258
1429.12	111.691
1433.32	375.219
1437.51	399.242
1441.71	83.4727
1445.9	210.18
1450.09	327.301
1454.28	68.5234
1458.46	320.027
1462.65	314.516
1466.83	49.5
1471	285.273
1475.18	209.156
1479.35	13.082
1483.52	164.59
1487.69	158.797
1491.86	225.883
1496.02	332.305
1500.18	154.891
1504.34	324.184
1508.5	127.106
1512.65	325.914
1516.8	182.371
1520.95	223.586
1525.1	250.551
1529.24	355.391
1533.39	37.5312
1537.53	38.8594
1541.66	276.477
1545.8	301.41
1549.93	371.043
1554.06	113.516
1558.19	339.562
1562.32	0
