Measurement: Raman, 514 nm, ccw, Raman Data Processed
Mineral: Riebeckite
Rruff sample: R050082
Ideal chemistry: [box]Na_2_(Fe^2+^_3_Fe^3+^_2_)Si_8_O_22_(OH)_2_
Locality: Mt. Malosa, Zomba, Chilwa, Alkaline Area, Malawi
Source: Rock Currier
Description: Black elongated prisms
Measured chemistry: ([box]_0.63_Na_0.19_K_0.18_)(Na_1.58_Ca_0.42_)_Σ=2_Fe^2+^_3.00_(Fe^3+^_1.30_Fe^2+^_0.45_Mn_0.15_Mg_0.05_Ti_0.05_)_Σ=2_(Si_0.98_Al_0.02_)_8_O_22_(OH)_2_
Pin_id: L00416
Orientation: Laser parallel to (-1 0 -1). Fiducial mark perpendicular to laser is parallel to b [0 1 0]
Raman shift (cm-1)	intensity
154.762	0
159.692	271.547
164.62	2724.57
169.544	2984.27
174.465	2645.06
179.384	4060.1
184.3	6492.21
189.213	11609.8
194.123	14814.5
199.03	13718.8
203.934	11187.6
208.836	7315.46
213.735	8261.44
218.631	6676.75
223.524	5493.92
228.414	5276.1
233.302	5305.84
238.186	3974.44
243.068	2438.45
247.947	1288.48
252.823	1227.3
257.697	1289.03
262.567	888.496
267.435	1083.34
272.3	908.031
277.162	757.309
282.021	216.941
286.878	248.137
291.732	383.691
296.583	305.098
301.431	128.727
306.276	271.113
311.119	855.436
315.958	1376.18
320.795	1680.6
325.629	1847.91
330.461	2503.41
335.289	3183.05
340.115	4189.76
344.938	6257.03
349.759	7534.44
354.576	8372.28
359.391	7721.8
364.203	7481.08
369.012	7172.2
373.818	6393.64
378.622	5156.04
383.423	3727.32
388.221	2592.45
393.016	1820.37
397.809	936.08
402.598	589.357
407.386	314.438
412.17	500.033
416.951	1133.32
421.73	1437.47
426.506	1736.94
431.279	1539.33
436.05	941.617
440.818	335
445.583	240.746
450.345	213.236
455.105	36.8066
459.861	258.863
464.615	39.9844
469.367	198.148
474.115	303.478
478.861	445.156
483.604	1239.36
488.345	822.234
493.082	1234.63
497.817	1780.26
502.55	2048.48
507.279	2478.57
512.006	2714.57
516.73	3245.66
521.451	4349.97
526.17	5184.58
530.886	6105.86
535.599	6869.63
540.31	6928.3
545.017	6655.8
549.723	6475.52
554.425	5869.71
559.125	5622.97
563.822	5041.44
568.516	4563.95
573.207	3131.5
577.896	2248.53
582.583	788.191
587.266	921.518
591.947	111.777
596.625	252.102
601.3	116.973
605.973	241.102
610.643	21.7773
615.311	464.875
619.975	743.207
624.637	1516.7
629.297	2483.47
633.953	3011.01
638.607	4371.35
643.259	6130.48
647.907	9163.42
652.553	14135.2
657.197	20805.8
661.837	29600.7
666.475	30674.6
671.111	22617.3
675.743	12806.1
680.373	7914.28
685.001	5777.65
689.625	4924.06
694.247	4380.07
698.867	4638
703.483	4579.97
708.097	4851.9
712.709	4668.35
717.318	4596.31
721.924	4513.81
726.527	4260
731.128	3639.69
735.726	3175.95
740.322	2469.04
744.915	2143.57
749.505	1837.41
754.093	1240.43
758.678	1461.12
763.26	1174.5
767.84	937.508
772.417	842.168
776.992	685.504
781.564	541.527
786.133	409.269
790.7	313.742
795.264	219.992
799.825	99.082
804.384	112.418
808.94	397.109
813.494	77.7891
818.045	295.633
822.593	197.305
827.139	281.394
831.682	241.906
836.223	106.938
840.761	238.352
845.296	644.844
849.829	739.078
854.359	1481.68
858.887	2767.5
863.412	3931.57
867.934	4865.91
872.454	6721.53
876.971	7391.54
881.486	7208.43
885.998	7154.03
890.507	6497.08
895.014	5925.58
899.518	5532.69
904.02	4813.47
908.519	4622.03
913.016	4081.24
917.51	4113.37
922.001	3963.34
926.49	3790.57
930.976	3481.9
935.46	3450.95
939.941	4200.83
944.42	4590.67
948.896	4794.16
953.369	5686.43
957.84	5924.2
962.309	6290.66
966.774	6190.69
971.238	6031.81
975.698	5561.66
980.156	5181.57
984.612	4988.88
989.065	5249.6
993.516	5430.68
997.964	6180.14
1002.41	6533.99
1006.85	7111.22
1011.29	7449.91
1015.73	7219.95
1020.16	7844.32
1024.6	7876.22
1029.03	8193.94
1033.46	8957.37
1037.88	9553.03
1042.3	9291.28
1046.72	8885.25
1051.14	8407.09
1055.56	7886.18
1059.97	7793.34
1064.38	7191.59
1068.79	6682.14
1073.19	6091.93
1077.59	5646.88
1081.99	5359.94
1086.39	4900.35
1090.79	4212.54
1095.18	3735.06
1099.57	3654.42
1103.95	3322.33
1108.34	2948.56
1112.72	2703.78
1117.1	2400.28
1121.48	2311.04
1125.85	1711.3
1130.23	1164.67
1134.6	1076.43
1138.96	821.769
1143.33	506.004
1147.69	425.539
1152.05	48.2383
1156.41	22.4219
1160.76	160.109
1165.11	242.098
1169.46	196.68
1173.81	155.258
1178.16	192.098
1182.5	98.7617
1186.84	56.6797
1191.18	37.2305
1195.51	48.2188
1199.84	87.2109
1204.17	64.4453
1208.5	186.754
1212.83	361.668
1217.15	8.29688
1221.47	136.949
1225.79	18.9492
1230.1	154.906
1234.41	260.711
1238.73	157.031
1243.03	232.32
1247.34	226.731
1251.64	220.414
1255.94	212.375
1260.24	247.043
1264.54	367.418
1268.83	322.949
1273.12	194.574
1277.41	455.394
1281.69	462.438
1285.98	336.144
1290.26	369.168
1294.54	530.43
1298.81	476.906
1303.09	427.812
1307.36	237.004
1311.63	383.492
1315.89	376.332
1320.16	284.656
1324.42	404.93
1328.68	411.406
1332.93	414.539
1337.19	408.531
1341.44	359.273
1345.69	229.969
1349.94	304.051
1354.18	219.5
1358.42	476.746
1362.66	299.449
1366.9	301.988
1371.13	259.312
1375.37	520.352
1379.6	154.781
1383.82	392.195
1388.05	517.512
1392.27	489.258
1396.49	336.867
1400.71	446.07
1404.92	390.262
1409.14	177.164
1413.35	273.703
1417.56	302.883
1421.76	386.773
1425.97	367.613
1430.17	391.941
1434.37	266.703
1438.56	314.926
1442.76	391.543
1446.95	317.711
1451.14	442.566
1455.33	393.977
1459.51	335.992
1463.69	190.305
1467.87	340.449
1472.05	146.832
1476.22	325.519
1480.4	363.473
1484.57	306.973
1488.73	188.336
1492.9	46.8867
1497.06	61.5078
1501.22	126.703
1505.38	110.684
1509.54	76.5156
1513.69	89.3672
1517.84	385.984
1521.99	283.012
1526.14	253.496
1530.28	220.129
1534.42	93.5508
1538.56	258.266
1542.7	58.6641
