Measurement: Raman, 514 nm, ccw, Raman Data Processed
Mineral: Riebeckite
Rruff sample: R050082
Ideal chemistry: [box]Na_2_(Fe^2+^_3_Fe^3+^_2_)Si_8_O_22_(OH)_2_
Locality: Mt. Malosa, Zomba, Chilwa, Alkaline Area, Malawi
Source: Rock Currier
Description: Black elongated prisms
Measured chemistry: ([box]_0.63_Na_0.19_K_0.18_)(Na_1.58_Ca_0.42_)_Σ=2_Fe^2+^_3.00_(Fe^3+^_1.30_Fe^2+^_0.45_Mn_0.15_Mg_0.05_Ti_0.05_)_Σ=2_(Si_0.98_Al_0.02_)_8_O_22_(OH)_2_
Pin_id: L00462
Orientation: Laser parallel to c* (0 0 1). Fiducial mark perpendicular to laser is parallel to a [1 0 0]
Raman shift (cm-1)	intensity
151.063	0
155.995	41.8555
160.925	735.152
165.851	2010.05
170.775	1754.29
175.695	1000.46
180.613	1338.97
185.528	3280.1
190.44	5277.58
195.35	7391.51
200.256	8018.32
205.16	5166.4
210.061	5710.09
214.959	6361.25
219.854	5569.69
224.747	5634.19
229.636	5895.62
234.523	4991.3
239.407	3472.18
244.288	1615.53
249.166	267.469
254.042	316.371
258.915	129.367
263.784	776.891
268.651	1225.79
273.516	1278.7
278.377	1249.45
283.236	891.158
288.092	237.381
292.945	66.0039
297.795	118.279
302.642	517.078
307.487	926.856
312.329	1194.38
317.168	1386.17
322.004	1595.13
326.838	1984.1
331.668	2313.49
336.496	3471.51
341.321	4262.02
346.144	4762.97
350.963	4828.93
355.78	4802.16
360.594	4313.67
365.405	3773.79
370.214	3038.98
375.019	2924.21
379.822	1430.33
384.622	889.42
389.42	472.65
394.215	25.3965
399.006	353.816
403.795	434.637
408.582	244.178
413.365	455.344
418.146	797.086
422.924	1665.15
427.7	2054.29
432.472	1801.09
437.242	1292.25
442.009	1061.33
446.774	953.541
451.535	887.312
456.294	994.402
461.05	1297.05
465.804	1310.87
470.554	1345.08
475.302	1725.1
480.047	1680.1
484.79	2296.79
489.529	2898.43
494.266	3571.03
499.001	4063.59
503.732	4464.66
508.461	4552.74
513.187	4995.36
517.911	5715.07
522.631	6516.96
527.349	7459.64
532.065	8127.14
536.777	8415.01
541.487	7502.26
546.194	6850.1
550.898	6173.59
555.6	6227.5
560.299	6183.22
564.995	6224.87
569.689	5299.73
574.38	3616.42
579.068	2172.43
583.754	714.029
588.437	114.932
593.117	80.1191
597.794	99.7949
602.469	145.717
607.141	121.467
611.81	154.984
616.477	623.139
621.141	1307.05
625.802	1925.85
630.461	2704.55
635.117	3712.18
639.77	5088.15
644.421	7366.62
649.069	11015.7
653.714	16761.7
658.357	22822.5
662.997	26135.1
667.634	22689.2
672.269	14924.2
676.901	8651.86
681.53	5238.7
686.157	3383.34
690.781	2875.85
695.402	2298.83
700.021	2206.44
704.637	1941.24
709.251	2026.17
713.861	1733.12
718.469	1708
723.075	1539.57
727.678	1531.43
732.278	1521.94
736.876	1364.09
741.47	1119.17
746.063	878.795
750.652	846.627
755.239	641.631
759.824	493.082
764.406	641.857
768.985	461.984
773.561	258.502
778.135	432.408
782.706	121.736
787.275	139.514
791.841	469.773
796.404	113.533
800.965	472.49
805.523	87.2207
810.079	39.2793
814.632	304.607
819.182	318.244
823.73	330.75
828.275	94.1523
832.818	52.8242
837.358	310.805
841.895	152.644
846.43	51.5352
850.962	547.238
855.491	621.033
860.018	984.811
864.543	1414.96
869.064	1726.23
873.583	1810.61
878.1	2531.13
882.614	2795.32
887.125	3318.81
891.634	3556.75
896.14	4071.18
900.644	4389.15
905.145	4930.62
909.644	5224.38
914.14	5411.71
918.633	5676.24
923.124	6018.27
927.612	6029.6
932.098	6430.48
936.581	7509.18
941.061	9057.21
945.539	10882.1
950.015	13331
954.487	16090.6
958.958	18008.5
963.425	19042.3
967.89	18454.7
972.353	17309.2
976.813	15072.6
981.271	13196.8
985.726	10995.7
990.178	9433.97
994.628	8140.55
999.075	7773.47
1003.52	7739.86
1007.96	7788.6
1012.4	8013.66
1016.84	8095.03
1021.27	8648.75
1025.71	9650.3
1030.13	10658.8
1034.56	11145
1038.99	11483.6
1043.41	11435.2
1047.83	10900.1
1052.24	10196.1
1056.66	9817.64
1061.07	9240.73
1065.48	8879.29
1069.89	7861.1
1074.29	7492.09
1078.69	6739.4
1083.09	5937.35
1087.49	5070.77
1091.88	4444.36
1096.28	4172.51
1100.66	3973.79
1105.05	3616.63
1109.43	3354.76
1113.82	3060.86
1118.2	2798.83
1122.57	2554.4
1126.95	2184.6
1131.32	1462.21
1135.69	1284.72
1140.05	761.674
1144.42	432.654
1148.78	349.438
1153.14	184.111
1157.5	115.91
1161.85	131.551
1166.2	2.11719
1170.55	197.613
1174.9	130.887
1179.24	180.781
1183.58	161.935
1187.92	10.2422
1192.26	252.033
1196.6	193.453
1200.93	98.3008
1205.26	65.9473
1209.58	81.1856
1213.91	56.5508
1218.23	134.264
1222.55	208.381
1226.87	281.053
1231.18	242.932
1235.49	310.07
1239.8	129.486
1244.11	334.092
1248.41	363.894
1252.72	649.943
1257.02	494.238
1261.32	282.852
1265.61	351.326
1269.9	335.041
1274.19	349.205
1278.48	613.172
1282.77	549.254
1287.05	555.623
1291.33	292.627
1295.61	396.299
1299.88	364.598
1304.15	473.512
1308.42	702.844
1312.69	413.389
1316.96	415.68
1321.22	479.221
1325.48	561.6
1329.74	439.178
1334	227.611
1338.25	428.449
1342.5	328.682
1346.75	100.644
1351	385.096
1355.24	297.164
1359.48	433.887
1363.72	254.815
1367.96	483.844
1372.19	355.248
1376.42	361.053
1380.65	426.826
1384.88	306.342
1389.11	328.887
1393.33	232.266
1397.55	161.287
1401.76	311.019
1405.98	371.617
1410.19	185.965
1414.4	325.744
1418.61	83.2168
1422.82	18.8223
1427.02	322.072
1431.22	359.834
1435.42	89.0156
1439.61	50.0586
1443.81	194.135
1448	168.555
1452.18	223.324
1456.37	455.152
1460.56	70.416
1464.74	120.658
1468.92	242.836
1473.09	392.467
1477.27	82.8184
1481.44	231.365
1485.61	369.475
1489.78	117.057
1493.94	388.451
1498.1	397.973
1502.26	115.875
1506.42	271.816
1510.58	241.287
1514.73	211.815
1518.88	473.582
1523.03	155.373
1527.17	297.09
1531.32	425.096
1535.46	342.418
1539.6	237.24
1543.73	34.6641
1547.87	21.5918
1552	283.498
1556.13	258.01
1560.26	163.625
