Measurement: Raman, 514 nm, ccw, Raman Data Processed
Mineral: Riebeckite
Rruff sample: R050082
Ideal chemistry: [box]Na_2_(Fe^2+^_3_Fe^3+^_2_)Si_8_O_22_(OH)_2_
Locality: Mt. Malosa, Zomba, Chilwa, Alkaline Area, Malawi
Source: Rock Currier
Description: Black elongated prisms
Measured chemistry: ([box]_0.63_Na_0.19_K_0.18_)(Na_1.58_Ca_0.42_)_Σ=2_Fe^2+^_3.00_(Fe^3+^_1.30_Fe^2+^_0.45_Mn_0.15_Mg_0.05_Ti_0.05_)_Σ=2_(Si_0.98_Al_0.02_)_8_O_22_(OH)_2_
Pin_id: L00462
Orientation: Laser parallel to c* (0 0 1). Fiducial mark perpendicular to laser is parallel to a [1 0 0]
Raman shift (cm-1)	intensity
105.305	0
110.264	687.365
115.22	321.91
120.173	2403.99
125.123	1759.8
130.07	8357.35
135.014	15009.9
139.955	20948.3
144.894	16156.1
149.83	11255.7
154.762	9807.32
159.692	9790.89
164.62	11443.2
169.544	10555.6
174.465	10763.2
179.384	9571.41
184.3	10895.1
189.213	13844.7
194.123	15642.9
199.03	17669.2
203.934	19519.5
208.836	21301.3
213.735	22671.9
218.631	21345.1
223.524	20551.1
228.414	18302.4
233.302	16672.8
238.186	13102.8
243.068	9436.03
247.947	6373.78
252.823	4876.98
257.697	5563.18
262.567	4277.36
267.435	4464.26
272.3	3690.43
277.162	2839.51
282.021	2692.47
286.878	1913.79
291.732	2148.28
296.583	2233.99
301.431	2381.18
306.276	2488.53
311.119	2894.53
315.958	2536.18
320.795	2596.56
325.629	2049.08
330.461	791.742
335.289	1094.92
340.115	839.436
344.938	1400.21
349.759	2156.16
354.576	2129.2
359.391	2209.19
364.203	1824.06
369.012	1950.68
373.818	1427.96
378.622	405.824
383.423	92.8281
388.221	156.701
393.016	249.908
397.809	821.297
402.598	727.746
407.386	517.623
412.17	62.9863
416.951	496.244
421.73	1699.25
426.506	2082.01
431.279	2307.07
436.05	1374.61
440.818	801.4
445.583	402.553
450.345	539.076
455.105	779.266
459.861	885.762
464.615	1036.94
469.367	1140.26
474.115	1255.86
478.861	1304.88
483.604	2057.36
488.345	2606.25
493.082	3026.55
497.817	3780.21
502.55	4605.27
507.279	4392.69
512.006	5260.45
516.73	5954.5
521.451	6678.83
526.17	8275.49
530.886	9326.95
535.599	9930.97
540.31	9937.45
545.017	8893.56
549.723	7806.02
554.425	7465.24
559.125	7703.89
563.822	8210.55
568.516	7730.6
573.207	5629.67
577.896	3407.67
582.583	1347.38
587.266	377.756
591.947	41.7773
596.625	75.8633
601.3	218.947
605.973	49.0078
610.643	421.962
615.311	645.542
619.975	1513.9
624.637	2038.32
629.297	3026.59
633.953	4536.48
638.607	6574.46
643.259	9914.74
647.907	15767.1
652.553	24916.3
657.197	35913.7
661.837	43691
666.475	40906.2
671.111	28344.6
675.743	15134.4
680.373	8060.79
685.001	4998.13
689.625	3685.88
694.247	2871.83
698.867	2339.77
703.483	2297.32
708.097	2016.93
712.709	1826.81
717.318	1565.89
721.924	1321.21
726.527	1209.47
731.128	1030.4
735.726	745.672
740.322	652.558
744.915	392.666
749.505	335.327
754.093	301.506
758.678	416.373
763.26	416.397
767.84	406.607
772.417	302.031
776.992	343.652
781.564	170.453
786.133	114.453
790.7	316.704
795.264	273.3
799.825	286.246
804.384	170.618
808.94	61.6221
813.494	108.082
818.045	105.207
822.593	115.221
827.139	198.675
831.682	140.877
836.223	153.401
840.761	195.859
845.296	51.0068
849.829	12.9815
854.359	258.514
858.887	294.148
863.412	590.752
867.934	841.426
872.454	914.802
876.971	1001.2
881.486	1245.24
885.998	1702.45
890.507	1765.46
895.014	2100.95
899.518	2685.68
904.02	2931.45
908.519	3479.19
913.016	3772.43
917.51	4013.57
922.001	3986.01
926.49	3996.18
930.976	3669.35
935.46	3626.31
939.941	3833.74
944.42	4145.4
948.896	4301.17
953.369	4603.05
957.84	5202.12
962.309	5368.34
966.774	5558.58
971.238	5488.71
975.698	5328.86
980.156	5046.48
984.612	5230.25
989.065	5002.85
993.516	4827.26
997.964	5289.46
1002.41	5489.48
1006.85	5881.35
1011.29	6593.04
1015.73	7459.51
1020.16	8386.75
1024.6	9693.79
1029.03	11445.5
1033.46	12908.9
1037.88	13282.5
1042.3	13337.6
1046.72	12371.9
1051.14	11618.9
1055.56	10944.1
1059.97	10415.3
1064.38	9712.41
1068.79	9135.72
1073.19	8110.94
1077.59	7445.19
1081.99	6631.43
1086.39	5171.1
1090.79	4814.54
1095.18	4046.61
1099.57	3793.31
1103.95	3390.15
1108.34	3460.11
1112.72	3264.73
1117.1	3159.98
1121.48	2886.86
1125.85	2494.47
1130.23	1992.63
1134.6	1752.23
1138.96	1056.33
1143.33	781.953
1147.69	383.949
1152.05	31.9766
1156.41	48.3643
1160.76	146.917
1165.11	139.242
1169.46	62.1611
1173.81	31.1094
1178.16	7.76953
1182.5	59.7988
1186.84	91.5186
1191.18	69.8174
1195.51	91.291
1199.84	1.86231
1204.17	144.674
1208.5	8.06543
1212.83	26.2617
1217.15	55.7119
1221.47	5.10547
1225.79	46.4346
1230.1	200.518
1234.41	77.6543
1238.73	144.988
1243.03	196.678
1247.34	270.416
1251.64	371.66
1255.94	348.409
1260.24	238.117
1264.54	144.003
1268.83	104.189
1273.12	327.272
1277.41	353.657
1281.69	281.94
1285.98	274.603
1290.26	215.067
1294.54	388.87
1298.81	383.401
1303.09	327.692
1307.36	545.459
1311.63	442.067
1315.89	214.128
1320.16	308.693
1324.42	259.683
1328.68	206.635
1332.93	152.783
1337.19	185.974
1341.44	253.241
1345.69	119.793
1349.94	169.83
1354.18	185.696
1358.42	199.703
1362.66	31.0781
1366.9	135.606
1371.13	25.3916
1375.37	127.573
1379.6	65.2656
1383.82	58.082
1388.05	197.881
1392.27	125.25
1396.49	245.356
1400.71	16.8545
1404.92	98.8193
1409.14	156.523
1413.35	30.1934
1417.56	92.3721
1421.76	86.0449
1425.97	79.6006
1430.17	194.705
1434.37	150.782
1438.56	157.491
1442.76	196.639
1446.95	82.8428
1451.14	92.9199
1455.33	49.5791
1459.51	188.96
1463.69	174.284
1467.87	131.674
1472.05	192.586
1476.22	208.58
1480.4	55.0039
1484.57	278.937
1488.73	202.145
1492.9	163.693
1497.06	194.044
1501.22	107.198
1505.38	147.481
1509.54	136.078
1513.69	145.788
1517.84	187.4
1521.99	112.051
1526.14	37.918
1530.28	181.435
1534.42	170.049
1538.56	273.263
1542.7	12.9873
1546.83	34.0732
1550.97	282.616
1555.1	296.76
1559.22	328.037
