Measurement: Raman, 514 nm, ccw, Raman Data Processed
Mineral: Riebeckite
Rruff sample: R050082
Ideal chemistry: [box]Na_2_(Fe^2+^_3_Fe^3+^_2_)Si_8_O_22_(OH)_2_
Locality: Mt. Malosa, Zomba, Chilwa, Alkaline Area, Malawi
Source: Rock Currier
Description: Black elongated prisms
Measured chemistry: ([box]_0.63_Na_0.19_K_0.18_)(Na_1.58_Ca_0.42_)_Σ=2_Fe^2+^_3.00_(Fe^3+^_1.30_Fe^2+^_0.45_Mn_0.15_Mg_0.05_Ti_0.05_)_Σ=2_(Si_0.98_Al_0.02_)_8_O_22_(OH)_2_
Pin_id: L00547
Orientation: Laser parallel to -a* (-1 0 0). Fiducial mark perpendicular to laser is parallel to -b [0 -1 0]
Raman shift (cm-1)	intensity
133.778	0
138.72	863.383
143.66	50.9453
148.596	225.816
153.53	1214.06
158.46	1474.78
163.388	4226.2
168.313	4762.53
173.235	5461.52
178.155	9959.15
183.071	17953.5
187.985	25047.3
192.896	30719.5
197.803	19983.7
202.709	11833.8
207.611	3889.3
212.51	3567.89
217.407	2208.37
222.301	719.357
227.192	610.975
232.08	817.646
236.965	1462.91
241.848	2014.48
246.728	1404.18
251.604	1159.55
256.479	2108.99
261.35	2194.53
266.218	2476.31
271.084	1997.63
275.947	1433.97
280.807	509.894
285.664	252.738
290.518	80.5703
295.37	327.398
300.219	230.184
305.065	21.8242
309.908	187.695
314.749	735.625
319.586	1582.89
324.421	2515.85
329.253	3008.01
334.083	2542.79
338.909	2356.46
343.733	3178.14
348.554	5941.89
353.372	9732.72
358.187	13940.2
363	13854.4
367.81	9020.33
372.617	5171.97
377.421	3549.93
382.223	2187.73
387.022	1903.28
391.818	1185.59
396.611	752.027
401.401	346.527
406.189	181.148
410.974	34.4688
415.756	73.3594
420.536	86.7734
425.312	579.547
430.086	713.121
434.858	889.57
439.626	467.781
444.392	23.1523
449.155	111.394
453.915	192.547
458.672	409.535
463.427	792.836
468.179	1066.85
472.928	849.828
477.675	632.328
482.419	455.613
487.16	485.066
491.898	846.043
496.634	763.707
501.367	1054.18
506.097	1371.58
510.825	2204.01
515.549	2118.86
520.271	3312.7
524.991	4862.04
529.707	8025.78
534.421	11473.2
539.132	13763
543.841	12569
548.547	8714
553.25	6688.41
557.95	5715.85
562.648	5112.6
567.343	5288.62
572.035	5210.64
576.724	4841.32
581.411	3391.9
586.095	1819.67
590.777	839.309
595.456	550.43
600.132	179.801
604.805	116.18
609.476	112.438
614.144	78.8008
618.809	10.6016
623.472	210.797
628.132	50.5312
632.789	386.672
637.444	369.871
642.096	850.289
646.745	1673.48
651.392	2645.11
656.036	4495.4
660.677	5181.91
665.316	4289.56
669.952	2771.13
674.585	1590.99
679.216	917.16
683.844	692.379
688.469	451.281
693.092	647.445
697.712	75.4922
702.329	116.094
706.944	73.9023
711.556	70.375
716.166	18.75
720.773	253.613
725.377	551.656
729.978	403.582
734.577	771.18
739.173	808.488
743.767	536.504
748.358	362.078
752.946	425.16
757.532	321.699
762.115	568.293
766.695	459.098
771.273	634.508
775.848	297.891
780.421	391.082
784.991	26.0742
789.558	1.33594
794.123	76.2969
798.685	341.769
803.245	222.691
807.802	294.078
812.356	14.8086
816.907	81.0117
821.456	23.4062
826.003	153.914
830.547	172.082
835.088	64.5898
839.627	120.285
844.163	171.516
848.696	234.285
853.227	1202.6
857.755	924
862.281	925.18
866.804	1338.67
871.324	2113.53
875.842	2966.77
880.357	4380.41
884.87	5308.52
889.38	5442.85
893.888	4128.57
898.393	2945.57
902.895	2169.25
907.395	1741.86
911.892	1258.41
916.387	1539.78
920.879	1290.11
925.368	1482.46
929.855	1159.91
934.339	1317.43
938.821	1178.93
943.301	1159.8
947.777	1656.66
952.251	2208.37
956.723	3888.89
961.192	6700.73
965.658	9627.16
970.122	9596.52
974.583	7170.31
979.042	4730.51
983.498	3692.28
987.952	3007.43
992.403	2314.48
996.852	1958.57
1001.3	1464.46
1005.74	1557.59
1010.18	1414.91
1014.62	1331.46
1019.06	1371.17
1023.49	1274.05
1027.92	1087.07
1032.35	1463.3
1036.78	1359.88
1041.2	1357.4
1045.62	2333.07
1050.04	1656.33
1054.45	1765.27
1058.87	1895.57
1063.28	1962.35
1067.68	2476.36
1072.09	2848.04
1076.49	3258.21
1080.89	4210.65
1085.29	4457.89
1089.69	3410.8
1094.08	3177.17
1098.47	2707.2
1102.86	2413.27
1107.24	2574.71
1111.63	2327.18
1116.01	2248.64
1120.38	2216.55
1124.76	1764.24
1129.13	1786.4
1133.5	1298.41
1137.87	1189.65
1142.24	955.191
1146.6	441.977
1150.96	548.09
1155.32	329.113
1159.67	603.066
1164.03	23.0977
1168.38	235.57
1172.72	278.723
1177.07	42.7695
1181.41	43.0938
1185.75	70.0547
1190.09	21.8086
1194.43	10.4219
1198.76	87.168
1203.09	24.0039
1207.42	111.922
1211.75	49.293
1216.07	177.004
1220.39	74.5625
1224.71	86.2969
1229.02	213.266
1233.34	280.406
1237.65	73.7734
1241.96	58.207
1246.26	70.7773
1250.57	38.7461
1254.87	30.0625
1259.17	120.863
1263.46	272.519
1267.76	301.602
1272.05	40.2891
1276.34	204.938
1280.62	537.961
1284.91	180.258
1289.19	131.356
1293.47	436.945
1297.74	373.551
1302.02	127.852
1306.29	345.805
1310.56	455.402
1314.83	604.168
1319.09	472.434
1323.35	507.773
1327.61	482.629
1331.87	469.227
1336.12	602.684
1340.38	266.195
1344.63	444.078
1348.87	241.707
1353.12	320.797
1357.36	116.648
1361.6	284.562
1365.84	226.094
1370.08	408.238
1374.31	75.5273
1378.54	216.695
1382.77	236.031
1386.99	119.918
1391.22	455.844
1395.44	73.8203
1399.66	118.609
1403.87	126.457
1408.09	116.945
1412.3	131.254
1416.51	9.46094
1420.71	291.191
1424.92	222.008
1429.12	371.332
1433.32	199.176
1437.51	374.086
1441.71	526.121
1445.9	382.57
1450.09	157.586
1454.28	430.258
1458.46	238.535
1462.65	120.305
1466.83	262.664
1471	285.711
1475.18	148.398
1479.35	58.5312
1483.52	275.828
1487.69	90.7656
1491.86	250.148
1496.02	292.559
1500.18	307.039
1504.34	400.164
1508.5	590.781
1512.65	241.629
1516.8	60.6641
1520.95	240.719
1525.1	275.41
1529.24	296.758
1533.39	280.664
1537.53	240.438
1541.66	3.41797
1545.8	245.141
1549.93	299.465
1554.06	371.965
1558.19	2.41406
1562.32	0
