Measurement: Raman, 514 nm, ccw, Raman Data Processed
Mineral: Riebeckite
Rruff sample: R050082
Ideal chemistry: [box]Na_2_(Fe^2+^_3_Fe^3+^_2_)Si_8_O_22_(OH)_2_
Locality: Mt. Malosa, Zomba, Chilwa, Alkaline Area, Malawi
Source: Rock Currier
Description: Black elongated prisms
Measured chemistry: ([box]_0.63_Na_0.19_K_0.18_)(Na_1.58_Ca_0.42_)_Σ=2_Fe^2+^_3.00_(Fe^3+^_1.30_Fe^2+^_0.45_Mn_0.15_Mg_0.05_Ti_0.05_)_Σ=2_(Si_0.98_Al_0.02_)_8_O_22_(OH)_2_
Pin_id: L00416
Orientation: Laser parallel to (-1 0 -1). Fiducial mark perpendicular to laser is parallel to b [0 1 0]
Raman shift (cm-1)	intensity
154.762	0
159.692	838.148
164.62	3630.33
169.544	3740.89
174.465	2736.34
179.384	3286.19
184.3	5196.78
189.213	9429.12
194.123	12529
199.03	10853.7
203.934	8729.65
208.836	3508.36
213.735	4576.97
218.631	3708.37
223.524	3314.79
228.414	3818.03
233.302	3647.76
238.186	2510.45
243.068	1522.7
247.947	533.144
252.823	196.394
257.697	314.555
262.567	223.769
267.435	498.465
272.3	265.488
277.162	255.254
282.021	224.652
286.878	264.578
291.732	401.68
296.583	421.688
301.431	316.078
306.276	96.6328
311.119	283.336
315.958	641.519
320.795	1047.25
325.629	962.801
330.461	1338.09
335.289	1758.38
340.115	2916.56
344.938	4344.55
349.759	5058.11
354.576	5841.56
359.391	5739.45
364.203	5561.11
369.012	4983.82
373.818	4693.19
378.622	3963.55
383.423	2972.22
388.221	2377.61
393.016	1746.2
397.809	1013.66
402.598	559.949
407.386	599.641
412.17	638.559
416.951	765.371
421.73	1784.05
426.506	2642.63
431.279	2662.12
436.05	1541.16
440.818	936.617
445.583	441.316
450.345	288.82
455.105	230.168
459.861	386.238
464.615	334.891
469.367	602.258
474.115	510.527
478.861	781.641
483.604	1328.13
488.345	1949.12
493.082	2540.67
497.817	3481.91
502.55	3785.91
507.279	3805.77
512.006	4121.56
516.73	4611.47
521.451	5160.68
526.17	6179.59
530.886	7261.59
535.599	8005.5
540.31	7934.64
545.017	7476.22
549.723	6781.32
554.425	6771.38
559.125	6329.28
563.822	6272.7
568.516	5704
573.207	3862.47
577.896	2532.23
582.583	1400.36
587.266	206.981
591.947	192.215
596.625	319.754
601.3	285.387
605.973	546.051
610.643	326.641
615.311	140.816
619.975	520.902
624.637	921.551
629.297	1540.68
633.953	2513.31
638.607	3523.45
643.259	4939.12
647.907	7064.33
652.553	10888.1
657.197	17126.4
661.837	23492
666.475	25669.9
671.111	19390.4
675.743	11187.3
680.373	6918.72
685.001	4753.32
689.625	3934.43
694.247	3483.9
698.867	3471.84
703.483	3657.23
708.097	3425.59
712.709	3575.97
717.318	3473.54
721.924	3506.28
726.527	3474.85
731.128	3304.81
735.726	3092.08
740.322	2735.56
744.915	2389.43
749.505	1864.25
754.093	1338.1
758.678	1126.85
763.26	967.09
767.84	900.816
772.417	847.07
776.992	413.859
781.564	237.223
786.133	465.184
790.7	277.777
795.264	92.0234
799.825	15.293
804.384	109.102
808.94	98.5312
813.494	95.707
818.045	45.332
822.593	212.723
827.139	354.309
831.682	5.02344
836.223	111.375
840.761	1.44141
845.296	574.062
849.829	723.008
854.359	1014.13
858.887	1546.48
863.412	2318.66
867.934	2984.39
872.454	3456
876.971	3936.51
881.486	3991.23
885.998	4365.61
890.507	3823.57
895.014	4011.12
899.518	3384.33
904.02	3284.2
908.519	3301.79
913.016	3228.4
917.51	3311.92
922.001	3431.62
926.49	3735.82
930.976	3732.12
935.46	3948.17
939.941	4053.48
944.42	4498.39
948.896	5408.65
953.369	6492.1
957.84	7546.28
962.309	8224.85
966.774	8612.07
971.238	8387.6
975.698	7724.97
980.156	7039.53
984.612	6151.59
989.065	5885.25
993.516	5838.74
997.964	5581.91
1002.41	5764.59
1006.85	6430.77
1011.29	6356.42
1015.73	6477.52
1020.16	6576.07
1024.6	7854.03
1029.03	8054.25
1033.46	9118.47
1037.88	9406.85
1042.3	9594.7
1046.72	9206.81
1051.14	8834.41
1055.56	8431.05
1059.97	8295.71
1064.38	7848.07
1068.79	7560.55
1073.19	6888.49
1077.59	6531.75
1081.99	6331.29
1086.39	5629.79
1090.79	4947.06
1095.18	4792.3
1099.57	4153.67
1103.95	3859.93
1108.34	3597.53
1112.72	3265.88
1117.1	2736.38
1121.48	2448.72
1125.85	2092.91
1130.23	1899.82
1134.6	1432.67
1138.96	1151.97
1143.33	638.781
1147.69	292.723
1152.05	85.0508
1156.41	202.594
1160.76	167.863
1165.11	1.06641
1169.46	29.8242
1173.81	166.203
1178.16	117.441
1182.5	33.043
1186.84	210.184
1191.18	78.0508
1195.51	198.887
1199.84	5.77734
1204.17	14.332
1208.5	78.1914
1212.83	56.8164
1217.15	75.9609
1221.47	106.504
1225.79	95
1230.1	200.106
1234.41	84.7109
1238.73	203.793
1243.03	321.352
1247.34	208.387
1251.64	9.48828
1255.94	406.332
1260.24	201.188
1264.54	294.324
1268.83	493.359
1273.12	238.324
1277.41	349.918
1281.69	451.836
1285.98	239.465
1290.26	448.305
1294.54	388.441
1298.81	367.871
1303.09	391.363
1307.36	593.473
1311.63	595.223
1315.89	653.945
1320.16	435.051
1324.42	598.832
1328.68	351.801
1332.93	417.945
1337.19	347.684
1341.44	532.359
1345.69	338.016
1349.94	372.078
1354.18	318.055
1358.42	470.586
1362.66	352.961
1366.9	421.965
1371.13	264.668
1375.37	394.773
1379.6	79.4258
1383.82	169.168
1388.05	430.504
1392.27	269.18
1396.49	46.1758
1400.71	343.019
1404.92	123.25
1409.14	522.781
1413.35	488.5
1417.56	332.656
1421.76	508.805
1425.97	370.727
1430.17	556.316
1434.37	428.406
1438.56	246.379
1442.76	414.191
1446.95	254.887
1451.14	403.973
1455.33	372.16
1459.51	111.629
1463.69	220.336
1467.87	320.504
1472.05	107.312
1476.22	320.035
1480.4	318.188
1484.57	99.7031
1488.73	232.973
1492.9	201.383
1497.06	156.711
1501.22	57.8047
1505.38	197.016
1509.54	132.492
1513.69	182.484
1517.84	140.34
1521.99	137.703
1526.14	190.449
1530.28	285.914
1534.42	335.769
1538.56	223.578
1542.7	61.1016
1546.83	334.332
1550.97	163.023
1555.1	75.8633
1559.22	212.731
1563.35	0
