Measurement: Raman, 514 nm, ccw, Raman Data Processed
Mineral: Rutile
Rruff sample: R050031
Ideal chemistry: TiO_2_
Locality: Chester City, Pennsylvannia, USA
Source: University of Arizona Mineral Museum
Description: Reddish brown single crystal fragment
Measured chemistry: TiO_2_
Pin_id: M00132
Orientation: Laser parallel to -a* (-1 0 0). Fiducial mark perpendicular to laser is parallel to -c [0 0 -1]
Raman shift (cm-1)	intensity
87.064	0
91.262	489.673
95.458	74.678
99.652	64.843
103.843	465.089
108.033	1103.77
112.22	2331.16
116.406	2633.03
120.589	2929.38
124.77	3223.62
128.949	3531.35
133.126	3608.03
137.301	3588.31
141.473	3129.04
145.644	2678.35
149.812	2235.04
153.979	1698.41
158.143	1117.94
162.305	1013.19
166.465	923.736
170.623	1208.82
174.778	1709.49
178.932	2103.44
183.083	3073
187.233	4089.29
191.38	4713.03
195.525	5964.67
199.669	7564.5
203.81	8882.81
207.949	10433.3
212.085	11376.6
216.22	12602.7
220.353	13108.2
224.483	13253.1
228.612	14087.2
232.738	14320.3
236.863	13722.4
240.985	13653.2
245.105	13522.7
249.223	13020.6
253.339	12148.7
257.453	11564.2
261.565	10830.7
265.675	10446.6
269.783	9498.25
273.888	8680.97
277.992	7173.73
282.093	5955.83
286.193	4356.65
290.29	3245.72
294.386	2012.61
298.479	1096.97
302.57	528.508
306.659	446.982
310.746	492.436
314.831	716.121
318.914	978.916
322.995	1050.8
327.074	1181.83
331.151	1231.62
335.226	1329.13
339.299	1103.52
343.37	1364.17
347.438	1240.46
351.505	1462.27
355.57	1379.53
359.632	1282.17
363.693	1200.1
367.751	903.25
371.808	1041.52
375.862	984.811
379.914	883.025
383.965	1166.06
388.013	1293.8
392.06	1406.16
396.104	2153.02
400.146	2994.3
404.186	3919.89
408.225	4709.69
412.261	5903.62
416.295	6661.75
420.327	7585.25
424.357	8794.29
428.386	9388.75
432.412	10228.4
436.436	11353
440.458	12002.5
444.478	11536.7
448.496	11335.6
452.513	9929.06
456.527	8376.94
460.539	6889.17
464.549	6135.64
468.557	4786.27
472.563	3742.87
476.567	3654.49
480.57	3436.05
484.57	3157.05
488.568	3960.85
492.564	4057.98
496.558	4672.2
500.551	4964.81
504.541	5764.43
508.529	6587.69
512.515	6733.45
516.5	7281.62
520.482	7712.1
524.462	7174.83
528.441	7499.71
532.417	7356.66
536.391	7325.59
540.364	6936.44
544.334	7089.11
548.303	7313.56
552.269	6839.72
556.234	6857.58
560.197	6957.11
564.157	7418.28
568.116	7791.04
572.073	8155.36
576.027	8451.19
579.98	8718.5
583.931	9107.11
587.88	9916.96
591.827	9927.97
595.772	10920.1
599.715	10993.2
603.656	10772.5
607.595	9261.63
611.532	7506.76
615.468	5092.31
619.401	3258.19
623.332	1474.3
627.262	90.537
631.189	721.106
635.115	1004.15
639.039	958.975
642.96	900.297
646.88	768.176
650.798	308.999
654.714	30.79
658.628	480.629
662.54	1159.11
666.45	1696.95
670.358	2474.11
674.264	3290.54
678.169	4016.18
682.071	4810.98
685.972	5464.88
689.87	6297.85
693.767	6489.82
697.662	7121.25
701.555	7231.91
705.446	7313.26
709.335	7446.55
713.222	7163.48
717.107	7222.3
720.99	7141.7
724.872	6783.86
728.751	6776.07
732.629	6172.17
736.504	6133.02
740.378	5900.54
744.25	5766.82
748.12	5564.24
751.988	5556.38
755.854	5442.91
759.719	5323.99
763.581	5551.99
767.442	5439.28
771.3	5740.94
775.157	5610.86
779.012	5987.53
782.865	5999.52
786.716	5954.12
790.565	6010.17
794.413	5858.35
798.258	5668.75
802.102	5162.55
805.943	4983.84
809.783	4571.35
813.621	4170.98
817.457	3755.55
821.292	3200.25
825.124	2911.95
828.954	2462.22
832.783	2071.18
836.61	1678.15
840.435	1433.83
844.258	1215.24
848.079	994.097
851.898	829.301
855.715	575.253
859.531	448.111
863.345	297.688
867.157	253.645
870.967	225.101
874.775	162.708
878.581	130.881
882.386	98.523
886.188	68.047
889.989	88.009
893.788	38.443
897.585	29.053
901.38	128.267
905.174	53.966
908.965	85.444
912.755	162.056
916.543	56.021
920.329	187.255
924.113	185.944
927.895	173
931.676	229.633
935.454	229.881
939.231	186.25
943.006	202.925
946.78	202.454
950.551	176.558
954.32	196.459
958.088	236.445
961.854	295.116
965.618	238.376
969.38	254.308
973.141	303.613
976.9	354.038
980.656	313.934
984.411	392.03
988.165	386.024
991.916	327.207
995.665	347.703
999.413	323.992
1003.16	364.46
1006.9	384.014
1010.65	373.826
1014.39	318.653
1018.12	348.279
1021.86	374.976
1025.6	304.45
1029.33	240.575
1033.06	236.246
1036.79	243.196
1040.52	292.928
1044.25	223.17
1047.97	199.915
1051.69	164.087
1055.41	132.172
1059.13	140.831
1062.85	105.205
1066.57	70.545
1070.28	4.345
1073.99	4.552
1077.7	9.241
1081.41	21.931
1085.12	23.886
1088.82	34.529
1092.52	2.369
1096.22	49.601
1099.92	12.335
1103.62	81.564
1107.32	8.956
1111.01	10.083
1114.7	20.066
1118.39	2.175
1122.08	4.232
1125.77	42.509
1129.45	25.345
1133.14	69.27
1136.82	37.436
1140.5	66.01
1144.18	46.959
1147.85	49.11
1151.53	55.296
1155.2	84.569
1158.87	123.588
1162.54	97.464
1166.21	58.544
1169.88	117.398
1173.54	76.503
1177.2	81.947
1180.86	83.779
1184.52	132.555
1188.18	98.381
1191.83	92.5
1195.49	126.009
1199.14	204.526
1202.79	86.35
1206.44	222.134
1210.08	154.396
1213.73	182.345
1217.37	196.319
1221.01	185.046
1224.65	231.316
1228.29	150.242
1231.93	175.964
1235.56	178.408
1239.19	169.873
1242.83	176.298
1246.46	294.142
1250.08	238.729
1253.71	186.29
1257.33	158.547
1260.96	207.889
1264.58	279.297
1268.19	161.795
1271.81	218.446
1275.43	171.177
1279.04	156.752
1282.65	110.48
1286.27	136.62
1289.87	118.291
1293.48	79.593
1297.09	21.649
1300.69	22.218
1304.29	3.634
1307.89	1.74
1311.49	12.646
1315.09	57.421
1318.68	25.962
1322.28	18.088
1325.87	4.703
1329.46	12.6
1333.05	41.939
1336.63	0.144
1340.22	1.135
1343.8	34.867
1347.38	33.68
1350.96	56.642
1354.54	15.401
1358.12	29.03
1361.69	52.374
1365.26	39.284
1368.83	50.662
1372.4	27.956
1375.97	101.605
1379.54	99.936
1383.1	44.409
1386.66	126.136
1390.23	122.252
1393.79	111.654
1397.34	109.32
1400.9	89.695
1404.45	183.365
1408.01	147.968
1411.56	217.824
1415.11	147.548
1418.66	175.104
1422.2	210.459
1425.75	178.299
1429.29	127.99
1432.83	139.201
1436.37	103.926
1439.91	122.157
1443.44	122.56
1446.98	74.434
1450.51	103.716
1454.04	95.898
1457.57	122.408
1461.1	136.927
1464.63	109.478
1468.15	124.187
1471.67	109.196
1475.19	86.194
1478.71	55.334
1482.23	30.904
1485.75	44.339
1489.26	112.946
1492.78	58.763
1496.29	33.076
1499.8	73.086
1503.31	140.231
1506.81	83.713
1510.32	27.756
1513.82	42.393
1517.32	0
