Measurement: Raman, 514 nm, ccw, Raman Data Processed
Mineral: Rutile
Rruff sample: R050031
Ideal chemistry: TiO_2_
Locality: Chester City, Pennsylvannia, USA
Source: University of Arizona Mineral Museum
Description: Reddish brown single crystal fragment
Measured chemistry: TiO_2_
Pin_id: M00200
Orientation: Laser parallel to c* (0 0 1). Fiducial mark perpendicular to laser is parallel to a [1 0 0]
Raman shift (cm-1)	intensity
101.049	0
105.24	21.713
109.429	611.944
113.616	1162.71
117.8	1071.29
121.983	1168.19
126.163	1186.83
130.342	1215.2
134.518	1974.89
138.692	3153.41
142.864	2775.98
147.034	1090.09
151.201	546.44
155.367	105.692
159.53	138.539
163.692	73.528
167.851	7.633
172.008	149.783
176.163	515.02
180.316	790.773
184.467	1177.17
188.616	1595.59
192.762	2016.03
196.907	2137.74
201.049	2500.09
205.189	2782.42
209.328	3184.76
213.464	3377.15
217.598	3738.8
221.73	4001.12
225.86	4464.19
229.988	4637.44
234.113	4740.84
238.237	4954.42
242.359	4928.2
246.478	4452.18
250.595	3967.75
254.711	3375.56
258.824	2879.87
262.935	2444.45
267.044	2197.05
271.151	1864.43
275.256	1609.88
279.359	1312.79
283.46	1082.93
287.559	889.972
291.656	754.887
295.75	456.531
299.843	360.426
303.933	313.545
308.022	410.464
312.108	475.062
316.193	565.502
320.275	588.669
324.355	540.961
328.434	442.021
332.51	386.983
336.584	435.76
340.656	441.239
344.726	352.32
348.794	645.439
352.86	533.568
356.924	651.968
360.986	780.627
365.046	589.544
369.104	568.723
373.159	445.169
377.213	375.891
381.265	250.902
385.315	240.675
389.362	101.883
393.408	64.948
397.451	7.223
401.493	18.855
405.533	78.665
409.57	76.573
413.606	201.719
417.639	342.074
421.671	562.789
425.7	735.875
429.728	969.312
433.753	1212.89
437.777	1476.6
441.798	1580.49
445.818	1644.61
449.835	1388.99
453.851	1123.69
457.864	948.748
461.876	668.237
465.885	411.212
469.893	326.688
473.898	30.334
477.902	32.981
481.903	86.279
485.903	185.238
489.9	164.844
493.896	241.301
497.889	151.793
501.881	126.094
505.87	8.185
509.858	303.208
513.844	428.145
517.827	470.63
521.809	807.67
525.789	950.599
529.766	1204.13
533.742	1527.16
537.716	1870.45
541.688	2364.33
545.657	3008.78
549.625	3643.82
553.591	4378.4
557.555	5505.4
561.517	6867.14
565.477	8116.79
569.435	10015.5
573.391	12055.3
577.345	14146
581.297	16847.7
585.248	19570.2
589.196	23073.6
593.142	26878
597.086	30983.2
601.029	36409.1
604.969	40055.9
608.908	41813.4
612.844	41541.5
616.779	38630.4
620.712	34190
624.642	29720.3
628.571	25261.2
632.498	21241.4
636.423	18065.9
640.346	15425.9
644.267	13032
648.186	11447
652.103	10079.6
656.019	8991.85
659.932	8296.33
663.843	7388.73
667.753	7025.85
671.66	6453.56
675.566	5951.85
679.47	5620.71
683.372	5400.12
687.271	5090.08
691.169	4750.58
695.065	4621.59
698.96	4193.11
702.852	3825.12
706.742	3407.62
710.631	3101.32
714.517	2653.59
718.402	2453.07
722.284	2048.01
726.165	1841.15
730.044	1751.29
733.921	1598.16
737.796	1395.01
741.669	1152.74
745.54	1076.45
749.41	1028.23
753.277	887.46
757.143	801.948
761.006	820.148
764.868	832.052
768.728	698.033
772.586	791.187
776.442	895.239
780.297	943.531
784.149	1008.28
787.999	1140.07
791.848	1153.87
795.695	1185.14
799.54	1165.2
803.382	1192.68
807.224	1144.08
811.063	1105.08
814.9	1039.61
818.736	1175.46
822.569	1043.88
826.401	997.454
830.231	931.337
834.059	820.127
837.885	770.021
841.709	518.348
845.532	411.943
849.352	213.745
853.171	113.025
856.988	42.73
860.803	31.895
864.616	17.052
868.427	39.613
872.236	146.083
876.044	161.7
879.849	135.656
883.653	74.018
887.455	111.66
891.255	65.709
895.054	99.973
898.85	71.007
902.645	57.804
906.438	2.764
910.229	11.822
914.018	1.935
917.805	19.898
921.59	55.166
925.374	11.66
929.156	98.219
932.936	70.352
936.714	82.97
940.49	73.882
944.264	128.109
948.037	173.631
951.808	208.349
955.577	171.764
959.344	182.213
963.109	202.595
966.872	209.138
970.634	228.703
974.394	233.095
978.152	296.741
981.908	243.173
985.663	232.417
989.415	254.712
993.166	287.323
996.915	295.359
1000.66	283.492
1004.41	311.029
1008.15	352.6
1011.89	344.285
1015.63	339.7
1019.37	352.52
1023.11	364.625
1026.84	333.433
1030.57	264.295
1034.31	247.231
1038.03	239.595
1041.76	223.795
1045.49	190.669
1049.21	212.504
1052.93	193.169
1056.65	185.131
1060.37	153.676
1064.09	165.861
1067.8	163.416
1071.52	202.69
1075.23	200.48
1078.94	130.159
1082.64	144.177
1086.35	99.923
1090.05	82.701
1093.76	97.217
1097.46	75.7
1101.16	76.585
1104.85	81.614
1108.55	103.902
1112.24	26.574
1115.93	131.343
1119.62	83.09
1123.31	90.934
1127	120.269
1130.68	67.067
1134.37	79.677
1138.05	71.705
1141.72	19.021
1145.4	53.264
1149.08	66.359
1152.75	46.77
1156.42	73.831
1160.1	80.76
1163.76	70.591
1167.43	46.944
1171.1	64.454
1174.76	64.118
1178.42	49.121
1182.08	49.274
1185.74	108.191
1189.4	105.026
1193.05	74.575
1196.7	104.052
1200.36	83.051
1204.01	78.641
1207.65	99.434
1211.3	110.725
1214.94	99.547
1218.59	110.165
1222.23	126.266
1225.87	128.162
1229.5	119.956
1233.14	112.396
1236.77	149.007
1240.41	163.105
1244.04	184.985
1247.66	82.697
1251.29	93.192
1254.92	85.08
1258.54	88.646
1262.16	70.617
1265.78	82.263
1269.4	122.7
1273.02	74.757
1276.63	63.069
1280.25	94.849
1283.86	56.467
1287.47	40.525
1291.08	78.733
1294.68	79.597
1298.29	35.55
1301.89	45.554
1305.49	15.713
1309.09	27.562
1312.69	21.01
1316.29	17.009
1319.88	0.233
1323.47	1.821
1327.06	47.744
1330.65	20.038
1334.24	10.465
1337.83	54.78
1341.41	1.884
1344.99	28.96
1348.57	23.636
1352.15	25.193
1355.73	20.846
1359.31	28.539
1362.88	67.758
1366.45	40.979
1370.02	69.804
1373.59	27.682
1377.16	2.065
1380.73	78.691
1384.29	55.244
1387.85	45.717
1391.41	44.951
1394.97	26.869
1398.53	34.809
1402.09	69.313
1405.64	31.134
1409.19	29.654
1412.74	67.648
1416.29	37.965
1419.84	50.622
1423.38	70.588
1426.93	69.631
1430.47	64.809
1434.01	36.661
1437.55	10.426
1441.09	62.615
1444.62	61.179
1448.16	64.121
1451.69	127.721
1455.22	63.173
1458.75	64.234
1462.28	41.095
1465.8	60.887
1469.33	24.757
1472.85	105.288
1476.37	106.408
1479.89	35.11
1483.4	28.194
1486.92	79.984
1490.43	74.842
1493.95	51.554
1497.46	61.905
1500.97	79.22
1504.47	34.402
1507.98	19.985
1511.48	22.321
1514.99	23.295
