Measurement: Raman, 514 nm, ccw, Raman Data Processed
Mineral: Rutile
Rruff sample: R050031
Ideal chemistry: TiO_2_
Locality: Chester City, Pennsylvannia, USA
Source: University of Arizona Mineral Museum
Description: Reddish brown single crystal fragment
Measured chemistry: TiO_2_
Pin_id: M00200
Orientation: Laser parallel to c* (0 0 1). Fiducial mark perpendicular to laser is parallel to a [1 0 0]
Raman shift (cm-1)	intensity
96.856	0
101.049	4.68
105.24	489.304
109.429	956.158
113.616	1507.15
117.8	1177.88
121.983	1292.03
126.163	1168.86
130.342	1188.7
134.518	1192.44
138.692	1389.97
142.864	1121.95
147.034	621.999
151.201	314.779
155.367	75.022
159.53	24.321
163.692	96.127
167.851	58.452
172.008	199.758
176.163	507.399
180.316	759.818
184.467	1181.94
188.616	1379.78
192.762	1814.2
196.907	2073.1
201.049	2391.43
205.189	2641.77
209.328	2792.95
213.464	3191.88
217.598	3463.6
221.73	3697.54
225.86	4252.1
229.988	4446.94
234.113	4732.05
238.237	4988.21
242.359	4907.31
246.478	4525.66
250.595	4135.84
254.711	3551.82
258.824	3108.2
262.935	2575.52
267.044	2342.63
271.151	1950.8
275.256	1749.03
279.359	1497.16
283.46	1237.88
287.559	974.443
291.656	667.037
295.75	525.233
299.843	475.405
303.933	325.159
308.022	388.478
312.108	545.337
316.193	520.722
320.275	561.346
324.355	522.153
328.434	457.217
332.51	478.855
336.584	311.887
340.656	412.98
344.726	298.065
348.794	404.111
352.86	309.468
356.924	386.209
360.986	451.337
365.046	349.855
369.104	277.77
373.159	25.084
377.213	73.79
381.265	100.893
385.315	1.644
389.362	41.1
393.408	150.159
397.451	76.475
401.493	8.909
405.533	295.038
409.57	338.236
413.606	457.619
417.639	749.415
421.671	1079.66
425.7	1423.35
429.728	1918.51
433.753	2237.14
437.777	2746.24
441.798	2905.82
445.818	2835.91
449.835	2696.52
453.851	2307.66
457.864	1829.34
461.876	1363.61
465.885	796.466
469.893	573.91
473.898	280.947
477.902	140.578
481.903	96.729
485.903	76.622
489.9	176.627
493.896	186.605
497.889	216.856
501.881	99.263
505.87	4.531
509.858	80.943
513.844	286.804
517.827	423.38
521.809	671.587
525.789	856.43
529.766	905.91
533.742	1336.39
537.716	1667.15
541.688	2075.51
545.657	2644.65
549.625	3281.12
553.591	4149.53
557.555	5032.38
561.517	6325.37
565.477	7701.23
569.435	9377.9
573.391	11395.8
577.345	13504.6
581.297	16094.4
585.248	19039.2
589.196	22476.9
593.142	26049.6
597.086	30103.2
601.029	35187.7
604.969	38502.9
608.908	40359
612.844	40365.9
616.779	36993.6
620.712	32491.9
624.642	28401
628.571	24030.8
632.498	20181.3
636.423	17102.4
640.346	14718.8
644.267	12307.5
648.186	10893.3
652.103	9654.89
656.019	8474.43
659.932	7871.3
663.843	7061.11
667.753	6627.37
671.66	6124.26
675.566	5521.77
679.47	5329.88
683.372	5028.57
687.271	4817.84
691.169	4517.67
695.065	4328.06
698.96	3848.99
702.852	3630.46
706.742	3284.8
710.631	2884.85
714.517	2542.22
718.402	2289.34
722.284	1948.52
726.165	1666.33
730.044	1477.34
733.921	1458.09
737.796	1188.4
741.669	1054.32
745.54	924.426
749.41	848.115
753.277	831.174
757.143	741.822
761.006	719.641
764.868	678.451
768.728	618.159
772.586	638.611
776.442	758.865
780.297	789.272
784.149	875.263
787.999	975.784
791.848	1015.99
795.695	964.099
799.54	1018.59
803.382	1117.35
807.224	1061.85
811.063	985.745
814.9	944.331
818.736	940.188
822.569	940.261
826.401	909.394
830.231	793.318
834.059	736.955
837.885	630.414
841.709	511.158
845.532	385.673
849.352	179.3
853.171	129.21
856.988	9.16
860.803	30.839
864.616	32.774
868.427	71.832
872.236	118.032
876.044	92.997
879.849	89.169
883.653	98.917
887.455	83.038
891.255	79.452
895.054	76.031
898.85	82.549
902.645	69.455
906.438	7.632
910.229	29.959
914.018	2.812
917.805	16.456
921.59	43.571
925.374	62.833
929.156	82.126
932.936	62.483
936.714	104.473
940.49	90.615
944.264	134.169
948.037	162.07
951.808	149.09
955.577	188.351
959.344	223.371
963.109	211.529
966.872	217.144
970.634	214.744
974.394	265.546
978.152	263.602
981.908	282.442
985.663	262.602
989.415	291.943
993.166	244.74
996.915	323.93
1000.66	282.966
1004.41	287.218
1008.15	315.646
1011.89	356.577
1015.63	327.28
1019.37	389.455
1023.11	324.188
1026.84	356.615
1030.57	345.49
1034.31	302.906
1038.03	251.883
1041.76	258.157
1045.49	220.397
1049.21	199.583
1052.93	195.961
1056.65	206.656
1060.37	142.068
1064.09	173.456
1067.8	150.391
1071.52	150.683
1075.23	138.617
1078.94	158.845
1082.64	136.307
1086.35	120.593
1090.05	108.823
1093.76	99.794
1097.46	118.112
1101.16	122.185
1104.85	51.526
1108.55	61.751
1112.24	43.174
1115.93	69.888
1119.62	76.787
1123.31	45.443
1127	80.005
1130.68	111.209
1134.37	94.231
1138.05	61.963
1141.72	43.342
1145.4	52.639
1149.08	68.751
1152.75	42.432
1156.42	60.119
1160.1	37.785
1163.76	94.942
1167.43	85.562
1171.1	15.592
1174.76	56.489
1178.42	54.051
1182.08	85.983
1185.74	62.953
1189.4	88.304
1193.05	68.741
1196.7	108.789
1200.36	77.482
1204.01	83.314
1207.65	77.528
1211.3	98.962
1214.94	72.636
1218.59	83.231
1222.23	121.456
1225.87	105.484
1229.5	85.158
1233.14	86.722
1236.77	88.131
1240.41	84.454
1244.04	104.714
1247.66	84.329
1251.29	67.553
1254.92	60.361
1258.54	98.726
1262.16	45.258
1265.78	96.592
1269.4	60.845
1273.02	49.369
1276.63	65.158
1280.25	20.591
1283.86	50.729
1287.47	18.973
1291.08	20.836
1294.68	15.107
1298.29	47.14
1301.89	11.94
1305.49	32.579
1309.09	21.522
1312.69	7.639
1316.29	21.793
1319.88	3.519
1323.47	46.107
1327.06	16.481
1330.65	6.746
1334.24	18.072
1337.83	18.215
1341.41	40.355
1344.99	18.348
1348.57	20.19
1352.15	11.004
1355.73	7.72
1359.31	8.755
1362.88	8.747
1366.45	49.093
1370.02	56.388
1373.59	53.316
1377.16	49.931
1380.73	54.466
1384.29	23.772
1387.85	1.935
1391.41	8.114
1394.97	50.097
1398.53	48.678
1402.09	14.1
1405.64	66.058
1409.19	58.034
1412.74	79.269
1416.29	36.134
1419.84	15.4
1423.38	49.346
1426.93	18.661
1430.47	17.797
1434.01	81.24
1437.55	19.019
1441.09	42.637
1444.62	24.231
1448.16	37.775
1451.69	24.423
1455.22	38.494
1458.75	33.739
1462.28	49.906
1465.8	12.033
1469.33	26.382
1472.85	36.563
1476.37	98.423
1479.89	41.918
1483.4	10.205
1486.92	94.213
1490.43	51.714
1493.95	10.549
1497.46	45.897
1500.97	50.491
1504.47	63.256
1507.98	63.911
1511.48	47.102
1514.99	0.419
