Measurement: Raman, 514 nm, ccw, Raman Data Processed
Mineral: Rutile
Rruff sample: R050031
Ideal chemistry: TiO_2_
Locality: Chester City, Pennsylvannia, USA
Source: University of Arizona Mineral Museum
Description: Reddish brown single crystal fragment
Measured chemistry: TiO_2_
Pin_id: M00200
Orientation: Laser parallel to c* (0 0 1). Fiducial mark perpendicular to laser is parallel to a [1 0 0]
Raman shift (cm-1)	intensity
91.262	0
95.458	34.045
99.652	294.807
103.843	587.926
108.033	1161.42
112.22	1961.52
116.406	1915.3
120.589	1913.22
124.77	1840.18
128.949	2084.9
133.126	2040.12
137.301	2867.11
141.473	2716.43
145.644	1277.84
149.812	500.971
153.979	198.66
158.143	125.083
162.305	56.364
166.465	200.358
170.623	17.18
174.778	300.117
178.932	603.008
183.083	927.486
187.233	1363.18
191.38	1569.74
195.525	2086.79
199.669	2194.05
203.81	2591.56
207.949	2749.66
212.085	3158.2
216.22	3467.8
220.353	3710.08
224.483	4070.75
228.612	4332.7
232.738	4554.95
236.863	4547.51
240.985	4610.39
245.105	4333.6
249.223	4017.67
253.339	3151.58
257.453	2739.4
261.565	2183.48
265.675	1897.7
269.783	1671.14
273.888	1543.63
277.992	1124.77
282.093	944.604
286.193	613.667
290.29	441.574
294.386	259.063
298.479	318.56
302.57	188.479
306.659	151.944
310.746	291.937
314.831	323.436
318.914	392.945
322.995	358.74
327.074	293.859
331.151	291.926
335.226	311.354
339.299	296.374
343.37	368.186
347.438	378.344
351.505	428.613
355.57	567.228
359.632	486.182
363.693	445.48
367.751	505.13
371.808	466.13
375.862	371.479
379.914	303.175
383.965	258.202
388.013	173.557
392.06	53.243
396.104	212.266
400.146	76.63
404.186	91.333
408.225	312.387
412.261	502.795
416.295	727.568
420.327	1081.7
424.357	1226.12
428.386	1540.82
432.412	2075.82
436.436	2251.13
440.458	2526.79
444.478	2472.82
448.496	2379.25
452.513	2016.09
456.527	1533.4
460.539	1151.2
464.549	849.527
468.557	458.369
472.563	105.729
476.567	5.607
480.57	201.088
484.57	231.671
488.568	318.065
492.564	306.383
496.558	177.798
500.551	140.363
504.541	33.016
508.529	126.621
512.515	269.781
516.5	523.484
520.482	612.731
524.462	743.527
528.441	1042.87
532.417	1286.77
536.391	1711.23
540.364	2056.24
544.334	2561.81
548.303	3219.25
552.269	3974.67
556.234	4971.99
560.197	5990.02
564.157	7458.36
568.116	9147.98
572.073	11238.5
576.027	13189.8
579.98	15662.1
583.931	18555.3
587.88	21789.4
591.827	25074.3
595.772	29780.1
599.715	33886.6
603.656	37603.9
607.595	40251.9
611.532	40431.8
615.468	38109.8
619.401	34429.7
623.332	29230.3
627.262	25031.4
631.189	21193.1
635.115	17725.1
639.039	15060.3
642.96	12960.8
646.88	10922.7
650.798	9770.89
654.714	8834.93
658.628	7927.48
662.54	7269.15
666.45	6464.91
670.358	6062.12
674.264	5919.87
678.169	5498.14
682.071	5226.92
685.972	4966.19
689.87	4745.94
693.767	4206.17
697.662	4056.86
701.555	3618
705.446	3260.12
709.335	3022.76
713.222	2750.25
717.107	2408.07
720.99	2176.6
724.872	1837.15
728.751	1593.45
732.629	1376.88
736.504	1173.76
740.378	1076.39
744.25	960.887
748.12	868.191
751.988	927.007
755.854	865.434
759.719	728.941
763.581	798.979
767.442	760.357
771.3	733.257
775.157	819.975
779.012	861.108
782.865	897.588
786.716	983.091
790.565	978.15
794.413	1090.62
798.258	1145.73
802.102	1119.54
805.943	1064.12
809.783	1040.43
813.621	1071.52
817.457	1092.63
821.292	896.205
825.124	921.128
828.954	839.591
832.783	681.383
836.61	587.621
840.435	509.827
844.258	375.713
848.079	252.343
851.898	233.226
855.715	77.97
859.531	39.461
863.345	32.444
867.157	52.383
870.967	51.726
874.775	54.868
878.581	93.451
882.386	24.84
886.188	133.233
889.989	101.74
893.788	132.241
897.585	66.603
901.38	26.854
905.174	8.705
908.965	5.428
912.755	52.442
916.543	31.69
920.329	77.388
924.113	54.893
927.895	92.173
931.676	92.405
935.454	136.177
939.231	94.359
943.006	90.772
946.78	190.206
950.551	168.996
954.32	222.589
958.088	254.872
961.854	206.726
965.618	227.914
969.38	241.157
973.141	262.835
976.9	236.939
980.656	273.938
984.411	313.265
988.165	290.968
991.916	301.977
995.665	310.546
999.413	316.634
1003.16	322.475
1006.9	303.713
1010.65	308.378
1014.39	340.862
1018.12	333.845
1021.86	308.405
1025.6	346.085
1029.33	332.833
1033.06	279.984
1036.79	255.882
1040.52	207.225
1044.25	218.189
1047.97	233.801
1051.69	199.429
1055.41	195.664
1059.13	168.566
1062.85	165.821
1066.57	135.888
1070.28	191.67
1073.99	158.735
1077.7	176.069
1081.41	131.672
1085.12	105.999
1088.82	89.614
1092.52	139.63
1096.22	158.099
1099.92	51.349
1103.62	130.321
1107.32	110.185
1111.01	71.804
1114.7	98.954
1118.39	74.712
1122.08	85.337
1125.77	79.206
1129.45	85.093
1133.14	79.945
1136.82	78.589
1140.5	77.286
1144.18	17.263
1147.85	24.904
1151.53	22.909
1155.2	56.853
1158.87	37.925
1162.54	29.1
1166.21	76.64
1169.88	100.037
1173.54	91.415
1177.2	132.016
1180.86	61.585
1184.52	113.098
1188.18	80.782
1191.83	88.261
1195.49	84.456
1199.14	101.22
1202.79	76.293
1206.44	130.35
1210.08	77.106
1213.73	154.958
1217.37	128.004
1221.01	144.09
1224.65	84.835
1228.29	93.567
1231.93	95.837
1235.56	127.856
1239.19	149.93
1242.83	112.164
1246.46	184.786
1250.08	131.388
1253.71	142.064
1257.33	83.301
1260.96	56.91
1264.58	101.057
1268.19	64.492
1271.81	85.285
1275.43	84.328
1279.04	79.594
1282.65	29.7
1286.27	66.694
1289.87	51.913
1293.48	9.012
1297.09	55.295
1300.69	21.359
1304.29	22.033
1307.89	19.372
1311.49	22.299
1315.09	15.257
1318.68	4.29
1322.28	3.294
1325.87	36.022
1329.46	39.115
1333.05	4.972
1336.63	33.245
1340.22	54.808
1343.8	31.579
1347.38	44.192
1350.96	7.282
1354.54	8.998
1358.12	42.282
1361.69	27.784
1365.26	31.209
1368.83	79.014
1372.4	15.473
1375.97	34.899
1379.54	56.138
1383.1	26.541
1386.66	18.852
1390.23	59.957
1393.79	60.905
1397.34	48.113
1400.9	60.342
1404.45	83.207
1408.01	39.992
1411.56	70.691
1415.11	85.275
1418.66	111.752
1422.2	21.776
1425.75	47.551
1429.29	37.004
1432.83	37.17
1436.37	11.906
1439.91	6.035
1443.44	63.217
1446.98	84.577
1450.51	24.161
1454.04	68.905
1457.57	107.725
1461.1	119.294
1464.63	20.357
1468.15	42.533
1471.67	23.78
1475.19	1.561
1478.71	30.206
1482.23	53.613
1485.75	18.752
1489.26	77.417
1492.78	96.985
1496.29	83.933
1499.8	53.139
1503.31	54.873
1506.81	32.952
1510.32	36.713
1513.82	94.206
1517.32	0
