Measurement: Raman, 514 nm, ccw, Raman Data Processed
Mineral: Rutile
Rruff sample: R050031
Ideal chemistry: TiO_2_
Locality: Chester City, Pennsylvannia, USA
Source: University of Arizona Mineral Museum
Description: Reddish brown single crystal fragment
Measured chemistry: TiO_2_
Pin_id: M00132
Orientation: Laser parallel to -a* (-1 0 0). Fiducial mark perpendicular to laser is parallel to -c [0 0 -1]
Raman shift (cm-1)	intensity
99.652	0
103.843	18.55
108.033	149.082
112.22	1011.2
116.406	592.447
120.589	792.883
124.77	836.55
128.949	1006.79
133.126	1310.62
137.301	2363.22
141.473	2271.19
145.644	955.128
149.812	418.436
153.979	145.703
158.143	23.256
162.305	3.715
166.465	13.442
170.623	170.052
174.778	422.37
178.932	783.17
183.083	1156.22
187.233	1620.75
191.38	1738.62
195.525	2205.91
199.669	2555.66
203.81	2855.82
207.949	3186.49
212.085	3588.19
216.22	4111.95
220.353	4477.91
224.483	4745.02
228.612	5322.54
232.738	5560.48
236.863	5538.9
240.985	5507.82
245.105	5098.48
249.223	4525.51
253.339	3931.12
257.453	3374.32
261.565	2874.85
265.675	2645.27
269.783	2481.08
273.888	2136.51
277.992	1773.98
282.093	1411
286.193	1050.41
290.29	827.333
294.386	704.628
298.479	547.685
302.57	535.103
306.659	584.256
310.746	598.292
314.831	661.217
318.914	848.307
322.995	729.389
327.074	627.4
331.151	637.311
335.226	599.818
339.299	483.509
343.37	598.893
347.438	519.809
351.505	646.293
355.57	725.357
359.632	653.008
363.693	641.251
367.751	517.096
371.808	477.547
375.862	308.228
379.914	180.269
383.965	64.79
388.013	62.312
392.06	62.325
396.104	34.479
400.146	7.798
404.186	94.459
408.225	44.743
412.261	242.411
416.295	393.367
420.327	566.816
424.357	858.954
428.386	999.794
432.412	1335.4
436.436	1657.81
440.458	1888.03
444.478	1939.05
448.496	1800.89
452.513	1473.56
456.527	1204.06
460.539	739.408
464.549	653.62
468.557	294.7
472.563	138.648
476.567	37.592
480.57	135.101
484.57	238.098
488.568	220.917
492.564	223.562
496.558	159.034
500.551	102.193
504.541	99.277
508.529	292.643
512.515	393.915
516.5	726.102
520.482	1021.2
524.462	1201.23
528.441	1579.17
532.417	1942.04
536.391	2489.84
540.364	2928.58
544.334	3768.24
548.303	4817.82
552.269	5594.3
556.234	6776.98
560.197	8181.69
564.157	10182.7
568.116	12216.4
572.073	14604.5
576.027	17484.1
579.98	20625
583.931	24107.2
587.88	28660.8
591.827	32745.6
595.772	38911.6
599.715	44228.8
603.656	48337.2
607.595	52056.6
611.532	51887
615.468	49028.5
619.401	44880.9
623.332	38154.4
627.262	32298.7
631.189	27254.1
635.115	22954.5
639.039	19254.6
642.96	16806
646.88	14233.7
650.798	12584.2
654.714	11271.4
658.628	10228.7
662.54	9360.48
666.45	8463.71
670.358	7787.78
674.264	7302.67
678.169	6958.35
682.071	6464.81
685.972	6082.03
689.87	5790
693.767	5288.7
697.662	4998.1
701.555	4388.2
705.446	4078.48
709.335	3685.85
713.222	3225.51
717.107	2838.12
720.99	2716.89
724.872	2295.24
728.751	2121.46
732.629	1816.36
736.504	1566.29
740.378	1426.78
744.25	1317.03
748.12	1153.72
751.988	1089.97
755.854	1110.04
759.719	1010.62
763.581	1059.53
767.442	1026.23
771.3	1021.49
775.157	1002.59
779.012	1060.33
782.865	1199.77
786.716	1201.43
790.565	1273.18
794.413	1350.11
798.258	1344.7
802.102	1294.47
805.943	1304.4
809.783	1294.93
813.621	1218.05
817.457	1074.54
821.292	967.275
825.124	844.35
828.954	754.491
832.783	649.741
836.61	381.559
840.435	303.583
844.258	230.66
848.079	81.395
851.898	71.597
855.715	14.738
859.531	0.258
863.345	70.546
867.157	67.47
870.967	126.363
874.775	146.521
878.581	104.274
882.386	168.363
886.188	75.038
889.989	94.89
893.788	40.268
897.585	31.996
901.38	29.955
905.174	17.697
908.965	19.497
912.755	83.172
916.543	37.837
920.329	95.761
924.113	160.811
927.895	161.592
931.676	171.253
935.454	169.203
939.231	201.709
943.006	217.987
946.78	210.42
950.551	248.102
954.32	339.89
958.088	317.773
961.854	329.016
965.618	286.994
969.38	342.833
973.141	359.031
976.9	351.382
980.656	406.617
984.411	413.025
988.165	439.366
991.916	432.633
995.665	430.117
999.413	446.765
1003.16	461.469
1006.9	476.123
1010.65	478.772
1014.39	430.259
1018.12	469.464
1021.86	394.801
1025.6	405.633
1029.33	383.912
1033.06	346.425
1036.79	329.71
1040.52	304.492
1044.25	298.422
1047.97	270.021
1051.69	264.326
1055.41	221.543
1059.13	212.611
1062.85	212.623
1066.57	188.594
1070.28	179.132
1073.99	169.256
1077.7	201.92
1081.41	174.541
1085.12	121.784
1088.82	136.699
1092.52	130.829
1096.22	106.963
1099.92	106.125
1103.62	98.406
1107.32	106.759
1111.01	98.5
1114.7	109.884
1118.39	74.083
1122.08	117.028
1125.77	72.721
1129.45	121.043
1133.14	81.299
1136.82	109.369
1140.5	86.534
1144.18	86.305
1147.85	67.742
1151.53	100.541
1155.2	96.516
1158.87	51.126
1162.54	68.44
1166.21	78.898
1169.88	64.406
1173.54	86.456
1177.2	86.23
1180.86	43.076
1184.52	118.94
1188.18	53.703
1191.83	95.007
1195.49	107.403
1199.14	61.123
1202.79	76.65
1206.44	99.994
1210.08	93.546
1213.73	86.589
1217.37	99.29
1221.01	109.086
1224.65	114.246
1228.29	137.366
1231.93	131.789
1235.56	95.371
1239.19	97.108
1242.83	95.297
1246.46	95.339
1250.08	110.437
1253.71	100.459
1257.33	49.205
1260.96	103.287
1264.58	65.169
1268.19	69.739
1271.81	68.616
1275.43	78.919
1279.04	70.245
1282.65	59.108
1286.27	8.197
1289.87	29.314
1293.48	17.268
1297.09	4.677
1300.69	10.926
1304.29	9.476
1307.89	9.66
1311.49	10.678
1315.09	10.781
1318.68	4.992
1322.28	16.168
1325.87	20.159
1329.46	11.242
1333.05	23.108
1336.63	5.938
1340.22	3.646
1343.8	12.099
1347.38	15.113
1350.96	11.616
1354.54	14.251
1358.12	0.716
1361.69	21.075
1365.26	2.254
1368.83	53.309
1372.4	10.762
1375.97	4.067
1379.54	5.307
1383.1	51.48
1386.66	57.657
1390.23	14.743
1393.79	23.796
1397.34	26.893
1400.9	13.834
1404.45	48.262
1408.01	34.262
1411.56	16.851
1415.11	48.362
1418.66	49.581
1422.2	35.064
1425.75	11.958
1429.29	45.01
1432.83	4.367
1436.37	11.434
1439.91	47.138
1443.44	1.528
1446.98	9.659
1450.51	22.35
1454.04	38.856
1457.57	54.919
1461.1	23.427
1464.63	56.532
1468.15	67.395
1471.67	20.135
1475.19	10.604
1478.71	3.911
1482.23	24.373
1485.75	34.499
1489.26	40.748
1492.78	16.054
1496.29	55.163
1499.8	33.256
1503.31	2.876
1506.81	58.424
1510.32	29.27
1513.82	27.24
