Measurement: Raman, 514 nm, ccw, Raman Data Processed
Mineral: Rutile
Rruff sample: R050031
Ideal chemistry: TiO_2_
Locality: Chester City, Pennsylvannia, USA
Source: University of Arizona Mineral Museum
Description: Reddish brown single crystal fragment
Measured chemistry: TiO_2_
Pin_id: M00132
Orientation: Laser parallel to -a* (-1 0 0). Fiducial mark perpendicular to laser is parallel to -c [0 0 -1]
Raman shift (cm-1)	intensity
96.856	0
101.049	173.629
105.24	756.984
109.429	1697.76
113.616	2467.49
117.8	1952.26
121.983	2102.57
126.163	1870.78
130.342	2213.39
134.518	2478.84
138.692	2803.66
142.864	2005.14
147.034	1182.4
151.201	827.424
155.367	47.98
159.53	18.246
163.692	171.203
167.851	180.791
172.008	72.982
176.163	400.111
180.316	899.703
184.467	1473.27
188.616	2148.11
192.762	2865.05
196.907	3324.01
201.049	4314.79
205.189	5236.89
209.328	6030.44
213.464	6724.07
217.598	7187.75
221.73	7424.48
225.86	8174.53
229.988	8327.17
234.113	7952.12
238.237	8379.36
242.359	7918.9
246.478	7250.78
250.595	6935.03
254.711	6191.66
258.824	5710.7
262.935	5087.62
267.044	4695.88
271.151	3918.67
275.256	3443.44
279.359	2779.63
283.46	1916.53
287.559	1394.31
291.656	833.254
295.75	382.188
299.843	60.713
303.933	12.238
308.022	38.16
312.108	109.451
316.193	304.865
320.275	437.943
324.355	415.281
328.434	600.494
332.51	540
336.584	714.053
340.656	919.732
344.726	919.273
348.794	1426.71
352.86	1387.59
356.924	1800.58
360.986	1945.36
365.046	1911.89
369.104	1979.57
373.159	2129.01
377.213	2160.3
381.265	2513.46
385.315	3158.5
389.362	3825.41
393.408	4444.18
397.451	5184.82
401.493	6067.33
405.533	7991.72
409.57	9527.99
413.606	11826.1
417.639	14096.2
421.671	17038.1
425.7	20021.9
429.728	23487.8
433.753	26625.8
437.777	29855.8
441.798	31307.9
445.818	30912
449.835	28528.3
453.851	24536.7
457.864	19677.1
461.876	14567.5
465.885	10365.6
469.893	7302.53
473.898	4668.01
477.902	3268.51
481.903	1832.02
485.903	1007.79
489.9	465.967
493.896	3.166
497.889	210.061
501.881	285.287
505.87	79.01
509.858	39.016
513.844	78.932
517.827	160.787
521.809	424.709
525.789	250.688
529.766	18.715
533.742	318.797
537.716	411.002
541.688	545.508
545.657	932.549
549.625	1092.17
553.591	1684.42
557.555	2209.34
561.517	3056.93
565.477	3857.12
569.435	5269.81
573.391	6755.02
577.345	7792.73
581.297	9642.86
585.248	11485.3
589.196	13789.8
593.142	16456.5
597.086	19255.2
601.029	22515.8
604.969	24328.3
608.908	24672.6
612.844	23605.9
616.779	20576.5
620.712	16865.9
624.642	13697.1
628.571	10620.1
632.498	8054.6
636.423	6110.6
640.346	4718.02
644.267	3226.8
648.186	2676.88
652.103	2038.08
656.019	1384.6
659.932	1455.81
663.843	1174.87
667.753	1294.38
671.66	1261.68
675.566	1289.71
679.47	1498.76
683.372	1538.57
687.271	1899.56
691.169	1873.3
695.065	1956.42
698.96	1905.69
702.852	2021.46
706.742	1785.13
710.631	1825.98
714.517	1502.36
718.402	1531.46
722.284	1099.53
726.165	1051.23
730.044	1038.05
733.921	774.693
737.796	676.951
741.669	683.845
745.54	557.726
749.41	510.045
753.277	628.162
757.143	519.066
761.006	519.77
764.868	590.184
768.728	646.54
772.586	682.173
776.442	974.749
780.297	1215.84
784.149	1406.51
787.999	1595.46
791.848	1553.19
795.695	1798.36
799.54	1733.42
803.382	1766.63
807.224	1559
811.063	1570.69
814.9	1261.73
818.736	1161.44
822.569	1000.46
826.401	831.411
830.231	676.097
834.059	546.467
837.885	377.717
841.709	211.884
845.532	83.046
849.352	68.928
853.171	184.352
856.988	178.73
860.803	120.28
864.616	98.688
868.427	187.783
872.236	135.599
876.044	16.538
879.849	83.853
883.653	53.725
887.455	33.705
891.255	33.821
895.054	42.613
898.85	101.162
902.645	115.277
906.438	270.786
910.229	275.522
914.018	286.888
917.805	360.208
921.59	370.773
925.374	509.167
929.156	630.741
932.936	608.906
936.714	611.224
940.49	669.971
944.264	764.89
948.037	760.169
951.808	823.414
955.577	806.866
959.344	854.181
963.109	952.017
966.872	909.628
970.634	908.46
974.394	939.504
978.152	962.292
981.908	1015.93
985.663	970.392
989.415	934.121
993.166	1067.47
996.915	1054.68
1000.66	1047.29
1004.41	1030.34
1008.15	1112.5
1011.89	907.979
1015.63	930.993
1019.37	847.484
1023.11	832.244
1026.84	785.025
1030.57	674.519
1034.31	741.549
1038.03	684.236
1041.76	630.233
1045.49	634.88
1049.21	598.272
1052.93	525.764
1056.65	497.086
1060.37	524.61
1064.09	499.205
1067.8	437.507
1071.52	448.802
1075.23	443.855
1078.94	400.489
1082.64	311.876
1086.35	310.282
1090.05	283.29
1093.76	266.318
1097.46	312.547
1101.16	327.41
1104.85	339.147
1108.55	274.001
1112.24	219.272
1115.93	261.087
1119.62	286.943
1123.31	238.209
1127	288.719
1130.68	252.837
1134.37	250.108
1138.05	204.119
1141.72	176.444
1145.4	216.993
1149.08	202.544
1152.75	236.989
1156.42	129.251
1160.1	194.986
1163.76	155.435
1167.43	164.256
1171.1	204.225
1174.76	163.613
1178.42	170.932
1182.08	191.268
1185.74	183.534
1189.4	202.644
1193.05	146.652
1196.7	172.286
1200.36	211.497
1204.01	190.292
1207.65	216.617
1211.3	229.53
1214.94	196.646
1218.59	244.763
1222.23	185.281
1225.87	185.583
1229.5	166.976
1233.14	169.998
1236.77	215.991
1240.41	168.766
1244.04	214.5
1247.66	135.732
1251.29	193.83
1254.92	159.111
1258.54	157.371
1262.16	150.061
1265.78	162.769
1269.4	139.605
1273.02	189.989
1276.63	153.223
1280.25	72.276
1283.86	130.863
1287.47	153.835
1291.08	32.761
1294.68	26.069
1298.29	66.951
1301.89	66.073
1305.49	33.091
1309.09	25.179
1312.69	46.834
1316.29	64.316
1319.88	0.865
1323.47	20.127
1327.06	1.889
1330.65	36.384
1334.24	16.043
1337.83	10.406
1341.41	44.767
1344.99	42.1
1348.57	13.35
1352.15	32.509
1355.73	21.849
1359.31	19.352
1362.88	6.604
1366.45	16.697
1370.02	18.377
1373.59	40.901
1377.16	65.158
1380.73	39.467
1384.29	76.349
1387.85	0.62
1391.41	3.73
1394.97	45.456
1398.53	95.133
1402.09	90.806
1405.64	57.09
1409.19	116.667
1412.74	152.334
1416.29	96.953
1419.84	32.824
1423.38	109.239
1426.93	55.384
1430.47	74.184
1434.01	101.68
1437.55	99.834
1441.09	90.242
1444.62	92.347
1448.16	99.643
1451.69	46.141
1455.22	41.363
1458.75	46.982
1462.28	97.188
1465.8	27.241
1469.33	0.689
1472.85	74.896
1476.37	105.737
1479.89	23.967
1483.4	40.17
1486.92	97.697
1490.43	60.451
1493.95	87.934
1497.46	23.229
1500.97	72.603
1504.47	70.937
1507.98	0.6
1511.48	0.345
1514.99	40.717
