Measurement: Raman, 514 nm, ccw, Raman Data Processed
Mineral: Sanbornite
Rruff sample: R050001
Ideal chemistry: BaSi_2_O_5_
Locality: Empire #1 mine, Fresno County, California, USA
Source: University of Arizona Mineral Museum
Description: An aggregate of white to colorless pearly anhedral plates
Measured chemistry: Ba_1.00_Si_2.00_O_5_
Pin_id: M00320
Orientation: Laser parallel to -a* (-1 0 0). Fiducial mark perpendicular to laser is parallel to -b [0 -1 0]
Raman shift (cm-1)	intensity
110.825	0
115.011	2609.31
119.195	4190.02
123.377	1818.67
127.556	457.562
131.734	63.825
135.909	51.246
140.083	164.235
144.254	550.168
148.423	710.24
152.59	291.932
156.755	42.353
160.918	43.084
165.078	128.795
169.237	341.664
173.393	213.098
177.548	185.583
181.7	915.242
185.85	2519.65
189.998	4957.27
194.144	5165.61
198.288	3062.95
202.429	1513.55
206.569	1061.59
210.707	1568.09
214.842	2916.35
218.976	5251.35
223.107	7166.09
227.236	5920.69
231.363	3345.16
235.488	1821.64
239.611	1281.23
243.732	1814.82
247.851	2149.84
251.967	1257.68
256.082	679.961
260.195	666.761
264.305	1354.83
268.414	1876.75
272.52	1169.58
276.624	852.445
280.726	1050.81
284.827	1503.93
288.925	2272.76
293.021	2482.05
297.115	1852.22
301.207	1164.26
305.296	948.235
309.384	1755.45
313.47	3370.92
317.554	3232.54
321.635	1771.15
325.715	1950.95
329.792	4172.62
333.868	5164.22
337.941	4445.72
342.013	4667.07
346.082	2818.2
350.15	929.094
354.215	409.706
358.278	87.011
362.339	66.01
366.399	76.528
370.456	9.696
374.511	44.488
378.564	9.793
382.615	401.518
386.664	725.592
390.711	411.408
394.756	88.946
398.799	37.854
402.84	21.576
406.879	26.662
410.916	31.991
414.951	96.895
418.983	20.557
423.014	59.192
427.043	30.204
431.07	226.564
435.095	126.373
439.118	115.841
443.138	196.032
447.157	334.934
451.174	885.536
455.189	1251.83
459.202	1375.85
463.212	815.825
467.221	676.407
471.228	1131.63
475.233	2143.01
479.236	1730.46
483.237	739.396
487.235	500.111
491.232	675.412
495.227	753.811
499.22	732.63
503.211	795.802
507.2	1060.45
511.187	1299.97
515.172	1874.22
519.155	2938.57
523.136	4894.17
527.115	9391.82
531.092	18259.6
535.067	23338.7
539.04	17129
543.011	8707.62
546.98	4371.78
550.947	2644.98
554.913	1755.29
558.876	1399.54
562.837	986.155
566.797	791.389
570.754	639.141
574.709	775.557
578.663	665.724
582.614	645.461
586.564	781.11
590.511	1295.23
594.457	2429.11
598.401	2602.73
602.343	1217.07
606.282	732.434
610.22	407.796
614.156	383.249
618.09	218.266
622.022	313.303
625.952	148.244
629.88	182.15
633.807	66.204
637.731	173.194
641.653	96.888
645.574	80.839
649.492	116.191
653.409	158.584
657.323	161.029
661.236	13.404
665.147	14.464
669.056	157.083
672.963	98.048
676.868	88.404
680.771	98.342
684.672	11.828
688.571	1.957
692.468	127.935
696.364	42.276
700.257	118.056
704.149	177.367
708.038	16.086
711.926	204.718
715.812	103.061
719.696	68.889
723.578	69.304
727.458	108.212
731.336	115.913
735.213	37.971
739.087	75.337
742.96	113.468
746.83	160.757
750.699	254.791
754.566	525.474
758.431	432.196
762.294	318.225
766.155	194.268
770.014	239.852
773.872	199.03
777.727	134.021
781.581	128.59
785.433	92.518
789.282	42.088
793.13	171.688
796.977	65.438
800.821	88.86
804.663	111.849
808.504	44.955
812.342	39.5
816.179	203.015
820.014	6.803
823.847	24.72
827.678	95.843
831.507	156.396
835.334	175.722
839.16	244.649
842.983	204.284
846.805	154.958
850.625	1.503
854.443	188.219
858.259	325.78
862.074	72.834
865.886	152.999
869.697	179.927
873.506	112.334
877.313	38.867
881.118	35.496
884.921	90.407
888.722	65.569
892.522	173.752
896.319	82.897
900.115	112.716
903.909	172.625
907.701	172.307
911.492	71.838
915.28	211.304
919.067	130.494
922.852	10.75
926.635	228.07
930.416	116.343
934.195	214.536
937.973	133.289
941.748	58.141
945.522	97.105
949.294	204.737
953.064	232.309
956.832	28.152
960.599	23.741
964.364	44.217
968.127	52.424
971.888	139.551
975.647	257.517
979.404	665.979
983.16	884.75
986.914	1403.91
990.666	1103.1
994.416	852.378
998.164	1011.83
1001.91	780.489
1005.65	279.764
1009.4	88.666
1013.14	207.828
1016.88	47.118
1020.62	126.392
1024.35	165.959
1028.09	255.003
1031.82	343.571
1035.55	433.563
1039.28	408.629
1043	329.096
1046.73	568.339
1050.45	631.8
1054.17	656.104
1057.89	922.956
1061.61	1463.74
1065.33	2475.08
1069.04	5495.62
1072.75	17868
1076.46	36455.5
1080.17	16748.1
1083.88	5988.03
1087.59	2939.34
1091.29	1628.83
1094.99	1130.22
1098.69	1050.21
1102.39	641.238
1106.09	732.763
1109.78	383.112
1113.47	181.948
1117.16	190.869
1120.85	101.436
1124.54	202.124
1128.23	83.061
1131.91	4.712
1135.59	25.398
1139.27	23.083
1142.95	186.477
1146.63	47.701
1150.3	169.021
1153.98	248.895
1157.65	335.326
1161.32	287.979
1164.99	626.365
1168.65	763.494
1172.32	914.713
1175.98	622.771
1179.64	336.51
1183.3	249.367
1186.96	330.24
1190.62	238.824
1194.27	96.66
1197.92	16.02
1201.57	132.662
1205.22	118.896
1208.87	214.703
1212.51	305.238
1216.16	410.691
1219.8	385.781
1223.44	165.777
1227.08	274.395
1230.72	22.293
1234.35	225.27
1237.98	139.586
1241.62	271.129
1245.25	381.939
1248.87	243.555
1252.5	194.498
1256.12	305.088
1259.75	275.645
1263.37	256.199
1266.99	176.652
1270.61	184.939
1274.22	192.791
1277.84	240.566
1281.45	207.672
1285.06	133.521
1288.67	118.789
1292.28	104.811
1295.88	127.188
1299.49	59.361
1303.09	3.699
1306.69	225.621
1310.29	226.76
1313.89	117.281
1317.48	42.807
1321.08	33.572
1324.67	15.035
1328.26	22.777
1331.85	129.992
1335.44	145.957
1339.02	141.057
1342.61	292.162
1346.19	425.73
1349.77	258.807
1353.35	301.594
1356.92	93.494
1360.5	85.529
1364.07	45.469
1367.64	154.867
1371.21	34.156
1374.78	103.881
1378.35	143.924
1381.91	418.844
1385.48	317.441
1389.04	333.643
1392.6	251.143
1396.16	157.893
1399.71	251.219
1403.27	167.443
1406.82	315.557
1410.38	366.061
1413.92	354.27
1417.47	580.889
1421.02	332.59
1424.57	314.75
1428.11	254.309
1431.65	344.219
1435.19	118.08
1438.73	312.967
1442.27	194.09
1445.8	427.492
1449.33	608.49
1452.87	513.465
1456.4	660.936
1459.92	685.383
1463.45	565.314
1466.98	334.469
1470.5	343.904
1474.02	172.648
1477.54	154.404
1481.06	232.807
1484.58	233.283
1488.09	276.777
1491.61	209.672
1495.12	403.082
1498.63	257.775
1502.14	354.115
1505.64	142.393
1509.15	163.24
1512.65	5.217
1516.15	1.045
1519.66	0
