Measurement: Raman, 514 nm, ccw, Raman Data Processed
Mineral: Sanbornite
Rruff sample: R050001
Ideal chemistry: BaSi_2_O_5_
Locality: Empire #1 mine, Fresno County, California, USA
Source: University of Arizona Mineral Museum
Description: An aggregate of white to colorless pearly anhedral plates
Measured chemistry: Ba_1.00_Si_2.00_O_5_
Pin_id: M00207
Orientation: Laser parallel to -c* (0 0 -1). Fiducial mark perpendicular to laser is parallel to -a [-1 0 0]
Raman shift (cm-1)	intensity
81.463	0
85.664	236.848
89.863	5.523
94.059	110.729
98.254	112.579
102.446	113.281
106.637	130.385
110.825	582.067
115.011	1896.4
119.195	4872.92
123.377	5976.57
127.556	2903.77
131.734	1193.79
135.909	611.064
140.083	404.99
144.254	356.39
148.423	525.582
152.59	333.841
156.755	118.89
160.918	57.665
165.078	31.566
169.237	71.501
173.393	1.495
177.548	40.725
181.7	123.305
185.85	188.962
189.998	445.228
194.144	869.769
198.288	1574.38
202.429	1212.39
206.569	319.448
210.707	69.083
214.842	13.201
218.976	21.713
223.107	17.793
227.236	16.037
231.363	35.803
235.488	3.656
239.611	45.097
243.732	67.293
247.851	4.053
251.967	78.951
256.082	176.79
260.195	278.9
264.305	536.32
268.414	801.621
272.52	773.393
276.624	849.076
280.726	1198.3
284.827	1940.41
288.925	3344.53
293.021	4648.61
297.115	3595.05
301.207	1935.51
305.296	1145.16
309.384	794.407
313.47	577.096
317.554	444.331
321.635	524.024
325.715	511.267
329.792	753.363
333.868	1660.15
337.941	702.563
342.013	386.378
346.082	253.306
350.15	227.495
354.215	205.269
358.278	212.365
362.339	214.981
366.399	177.139
370.456	186.604
374.511	199.852
378.564	202.243
382.615	140.185
386.664	201.349
390.711	174.658
394.756	129.278
398.799	130.314
402.84	89.137
406.879	109.948
410.916	87.231
414.951	69.85
418.983	128.144
423.014	93.38
427.043	78.133
431.07	100.844
435.095	142.1
439.118	155.827
443.138	220.041
447.157	259.79
451.174	525.119
455.189	1126.06
459.202	2242.66
463.212	1404.93
467.221	682.916
471.228	644.64
475.233	2078.08
479.236	2387.04
483.237	510.796
487.235	305.645
491.232	395.917
495.227	454.049
499.22	386.09
503.211	443.671
507.2	551.684
511.187	662.266
515.172	972.382
519.155	1400.7
523.136	2398.3
527.115	4805.14
531.092	10581
535.067	19972.6
539.04	16085.4
543.011	7308.83
546.98	3473.01
550.947	1894.37
554.913	1204.6
558.876	958.983
562.837	750.626
566.797	586.407
570.754	495.461
574.709	389.823
578.663	397.627
582.614	365.295
586.564	290.722
590.511	249.125
594.457	269.522
598.401	259.711
602.343	241.666
606.282	83.122
610.22	162.6
614.156	129.031
618.09	146.534
622.022	132.872
625.952	101.251
629.88	96.505
633.807	71.749
637.731	105.026
641.653	111.228
645.574	100.416
649.492	28.614
653.409	64.86
657.323	79.998
661.236	60.383
665.147	14.81
669.056	12.106
672.963	22.315
676.868	28.214
680.771	2.585
684.672	4.089
688.571	22.278
692.468	5.47
696.364	38.052
700.257	15.76
704.149	26.619
708.038	26.086
711.926	2.262
715.812	5.749
719.696	2.835
723.578	16.695
727.458	3.209
731.336	34.451
735.213	34.503
739.087	49.408
742.96	14.916
746.83	11.982
750.699	63.616
754.566	133.768
758.431	148.824
762.294	120.699
766.155	88.251
770.014	56.116
773.872	125.402
777.727	88.63
781.581	67.801
785.433	48.914
789.282	91.97
793.13	70.152
796.977	84.094
800.821	92.979
804.663	45.662
808.504	36.444
812.342	44.128
816.179	29.157
820.014	39.192
823.847	46.668
827.678	57.266
831.507	3.116
835.334	13.32
839.16	42.791
842.983	70.506
846.805	3.151
850.625	7.132
854.443	52.85
858.259	40.988
862.074	62.569
865.886	0.216
869.697	5.939
873.506	12.382
877.313	8.786
881.118	12.289
884.921	1.708
888.722	4.629
892.522	21.285
896.319	0.415
900.115	71.402
903.909	71.708
907.701	70.083
911.492	16.553
915.28	9.767
919.067	11.93
922.852	28.336
926.635	42.472
930.416	94.709
934.195	71.848
937.973	6.036
941.748	52.226
945.522	17.318
949.294	13.459
953.064	0.408
956.832	40.659
960.599	5.374
964.364	23.267
968.127	83.426
971.888	36.168
975.647	61.24
979.404	97.964
983.16	103.365
986.914	222.703
990.666	173.712
994.416	231.049
998.164	690.703
1001.91	587.9
1005.65	242.389
1009.4	176.871
1013.14	186.372
1016.88	147.435
1020.62	210.317
1024.35	258.698
1028.09	240.352
1031.82	204.21
1035.55	128.265
1039.28	200.159
1043	335.773
1046.73	428.643
1050.45	554.729
1054.17	682.09
1057.89	780.368
1061.61	1219.8
1065.33	2164.07
1069.04	4546.84
1072.75	14189.2
1076.46	49379.4
1080.17	27419.9
1083.88	7100.18
1087.59	3135.48
1091.29	1795.78
1094.99	1266.95
1098.69	1200.59
1102.39	806.115
1106.09	578.924
1109.78	335.917
1113.47	311.611
1117.16	249.574
1120.85	292.233
1124.54	257.93
1128.23	221.374
1131.91	133.756
1135.59	126.984
1139.27	142.525
1142.95	165.97
1146.63	116.874
1150.3	62.879
1153.98	50.862
1157.65	74.296
1161.32	102.385
1164.99	76.477
1168.65	70.917
1172.32	70.349
1175.98	19.595
1179.64	79.865
1183.3	78.863
1186.96	91.667
1190.62	10.042
1194.27	57.581
1197.92	5.399
1201.57	1.597
1205.22	26.786
1208.87	66.896
1212.51	136.745
1216.16	142.759
1219.8	69.854
1223.44	101.867
1227.08	113.293
1230.72	70.566
1234.35	75.644
1237.98	54.462
1241.62	38.175
1245.25	19.704
1248.87	115.312
1252.5	59.772
1256.12	37.18
1259.75	11.48
1263.37	74.72
1266.99	2.234
1270.61	96.526
1274.22	2.899
1277.84	81.535
1281.45	81.826
1285.06	59.932
1288.67	29.906
1292.28	11.38
1295.88	22.149
1299.49	21.476
1303.09	37.717
1306.69	75.745
1310.29	37.588
1313.89	17.296
1317.48	45.868
1321.08	20.201
1324.67	47.384
1328.26	24.419
1331.85	8.312
1335.44	7.558
1339.02	13.83
1342.61	36.322
1346.19	92.34
1349.77	48.989
1353.35	39.976
1356.92	29.873
1360.5	0.475
1364.07	78.245
1367.64	73.94
1371.21	8.505
1374.78	54.799
1378.35	133.368
1381.91	107.638
1385.48	142.253
1389.04	101.906
1392.6	84.902
1396.16	75.145
1399.71	18.888
1403.27	50.979
1406.82	66.531
1410.38	126.569
1413.92	137.664
1417.47	57.307
1421.02	119.973
1424.57	138.867
1428.11	44.629
1431.65	56.825
1435.19	67.645
1438.73	57.46
1442.27	52.292
1445.8	50.878
1449.33	93.694
1452.87	92.986
1456.4	128.022
1459.92	100.425
1463.45	110.352
1466.98	119.255
1470.5	103.526
1474.02	119.674
1477.54	108.976
1481.06	83.821
1484.58	172.927
1488.09	36.185
1491.61	96.754
1495.12	75.223
1498.63	90.414
1502.14	54.57
1505.64	69.051
1509.15	3.522
1512.65	38.039
1516.15	134.736
1519.66	0
