Measurement: Raman, 514 nm, ccw, Raman Data Processed
Mineral: Sanbornite
Rruff sample: R050001
Ideal chemistry: BaSi_2_O_5_
Locality: Empire #1 mine, Fresno County, California, USA
Source: University of Arizona Mineral Museum
Description: An aggregate of white to colorless pearly anhedral plates
Measured chemistry: Ba_1.00_Si_2.00_O_5_
Pin_id: M00320
Orientation: Laser parallel to -a* (-1 0 0). Fiducial mark perpendicular to laser is parallel to -b [0 -1 0]
Raman shift (cm-1)	intensity
112.22	0
116.406	2031.46
120.589	1677.33
124.77	556.219
128.949	35.147
133.126	13.487
137.301	7.209
141.473	199.613
145.644	374.494
149.812	314.159
153.979	36.029
158.143	16.924
162.305	298.592
166.465	458.262
170.623	292.444
174.778	92.792
178.932	181.396
183.083	689.519
187.233	2028.11
191.38	2970.24
195.525	2402.72
199.669	1234.12
203.81	604.705
207.949	474.601
212.085	954.032
216.22	2213.17
220.353	3752.05
224.483	3820.72
228.612	2669.18
232.738	1457.42
236.863	815.449
240.985	1042.41
245.105	1893.18
249.223	2009.83
253.339	957.132
257.453	448.425
261.565	284.779
265.675	740.472
269.783	773.111
273.888	453.5
277.992	365.188
282.093	565.87
286.193	897.461
290.29	1259.69
294.386	1352.73
298.479	1005.02
302.57	717.336
306.659	1021.54
310.746	2616.43
314.831	4331.46
318.914	3116.57
322.995	1591.66
327.074	1936.72
331.151	3290.43
335.226	4506.6
339.299	7071.38
343.37	8256
347.438	4060.44
351.505	1474.66
355.57	468.656
359.632	272.43
363.693	55.904
367.751	89.071
371.808	68.111
375.862	34.209
379.914	76.124
383.965	317.712
388.013	359.05
392.06	60.165
396.104	81.004
400.146	208.578
404.186	78.921
408.225	30.024
412.261	68.027
416.295	88.8
420.327	52.534
424.357	51.466
428.386	143.513
432.412	297.969
436.436	181.905
440.458	175.528
444.478	308.87
448.496	651.924
452.513	974.688
456.527	1407.15
460.539	1340.05
464.549	911.971
468.557	724.577
472.563	1146.15
476.567	1737.67
480.57	1008.96
484.57	698.314
488.568	619.675
492.564	809.899
496.558	940.959
500.551	1065.65
504.541	1281.62
508.529	1732.07
512.515	2311.91
516.5	3449.73
520.482	5479.16
524.462	9564.78
528.441	18363.4
532.417	30553.5
536.391	31691.8
540.364	19670.5
544.334	10099.5
548.303	5709.11
552.269	3369.29
556.234	2360.29
560.197	1657.04
564.157	1309.86
568.116	1141.08
572.073	938.632
576.027	937.685
579.98	701.92
583.931	725.935
587.88	848.852
591.827	1198.31
595.772	1986.24
599.715	1533.46
603.656	751.648
607.595	450.352
611.532	409.31
615.468	238.375
619.401	377.299
623.332	196.016
627.262	244.079
631.189	281.203
635.115	279.122
639.039	235.927
642.96	241.901
646.88	173.605
650.798	49.159
654.714	164.811
658.628	170.483
662.54	65.154
666.45	89.093
670.358	47.221
674.264	125.6
678.169	117.957
682.071	0.032
685.972	61.58
689.87	68.986
693.767	54.176
697.662	125.238
701.555	4.159
705.446	33.985
709.335	85.71
713.222	55.065
717.107	4.658
720.99	83.863
724.872	83.151
728.751	182.396
732.629	21.383
736.504	60.185
740.378	77.944
744.25	159.688
748.12	308.895
751.988	352.941
755.854	476.191
759.719	439.02
763.581	191.707
767.442	70.664
771.3	167.382
775.157	126.647
779.012	162.066
782.865	187.08
786.716	112.573
790.565	177.142
794.413	171.21
798.258	55.918
802.102	99.183
805.943	102.07
809.783	260.172
813.621	335.55
817.457	327.963
821.292	108.771
825.124	185.071
828.954	271.419
832.783	321.172
836.61	439.58
840.435	456.208
844.258	365.761
848.079	365.268
851.898	364.955
855.715	170.069
859.531	224.007
863.345	240.13
867.157	79.619
870.967	258.617
874.775	55.627
878.581	102.873
882.386	81.786
886.188	119.094
889.989	131.183
893.788	62.87
897.585	81.633
901.38	161.658
905.174	21.432
908.965	120.979
912.755	220.399
916.543	69.599
920.329	227.725
924.113	276.262
927.895	103.908
931.676	181.688
935.454	0.336
939.231	47.752
943.006	125.24
946.78	263.145
950.551	101.021
954.32	63.463
958.088	108.504
961.854	129.316
965.618	43.67
969.38	43.912
973.141	201.479
976.9	570.16
980.656	878.695
984.411	1958.2
988.165	1826.46
991.916	1155.27
995.665	766.486
999.413	656.434
1003.16	438.471
1006.9	127.74
1010.65	157.086
1014.39	166.742
1018.12	285.393
1021.86	224.344
1025.6	33.188
1029.33	112.207
1033.06	351.055
1036.79	620.533
1040.52	730.951
1044.25	610.873
1047.97	557.953
1051.69	727.734
1055.41	800.205
1059.13	1217.22
1062.85	1935.62
1066.57	3505.95
1070.28	9165.99
1073.99	28347.3
1077.7	29704
1081.41	10964.3
1085.12	4564.24
1088.82	2374.75
1092.52	1514.83
1096.22	1064.11
1099.92	774.258
1103.62	584.373
1107.32	348.729
1111.01	318.113
1114.7	162.961
1118.39	322.295
1122.08	232.893
1125.77	131.445
1129.45	110.646
1133.14	170.957
1136.82	129.904
1140.5	60.631
1144.18	102.422
1147.85	71.895
1151.53	227.857
1155.2	242.102
1158.87	14.297
1162.54	302.326
1166.21	617.746
1169.88	1115.66
1173.54	953.896
1177.2	867.193
1180.86	472.564
1184.52	210.375
1188.18	276.311
1191.83	112.363
1195.49	39.268
1199.14	174.281
1202.79	298.273
1206.44	233.301
1210.08	156.723
1213.73	17.145
1217.37	46.139
1221.01	67.471
1224.65	77.877
1228.29	143.926
1231.93	375.295
1235.56	241.715
1239.19	420.822
1242.83	339.281
1246.46	247.135
1250.08	254.17
1253.71	81.205
1257.33	76.834
1260.96	443.449
1264.58	269.383
1268.19	514.529
1271.81	397.359
1275.43	630.096
1279.04	440.805
1282.65	54.389
1286.27	392.348
1289.87	91.768
1293.48	165.895
1297.09	104.086
1300.69	35.676
1304.29	176.139
1307.89	68.334
1311.49	84.066
1315.09	79.406
1318.68	2.164
1322.28	184.158
1325.87	235.293
1329.46	215.135
1333.05	273.871
1336.63	291.461
1340.22	218.338
1343.8	154.373
1347.38	49.312
1350.96	53.654
1354.54	47.631
1358.12	159.064
1361.69	311.059
1365.26	431.664
1368.83	203.541
1372.4	364.809
1375.97	105.205
1379.54	94.207
1383.1	71.732
1386.66	193.014
1390.23	173.893
1393.79	203.674
1397.34	332.211
1400.9	418.607
1404.45	624.383
1408.01	272.859
1411.56	346.158
1415.11	411.385
1418.66	355.033
1422.2	11.102
1425.75	171.211
1429.29	223.793
1432.83	392.838
1436.37	402.855
1439.91	747.746
1443.44	658.529
1446.98	800.596
1450.51	359.816
1454.04	412.871
1457.57	275.525
1461.1	376.875
1464.63	251.658
1468.15	328.49
1471.67	396.539
1475.19	326.23
1478.71	712.488
1482.23	407.277
1485.75	633.604
1489.26	403.482
1492.78	212.682
1496.29	102.553
1499.8	72.479
1503.31	21.598
1506.81	14.947
1510.32	121.375
1513.82	93.865
1517.32	412.24
1520.82	0
