Measurement: Raman, 514 nm, ccw, Raman Data Processed
Mineral: Sanbornite
Rruff sample: R050001
Ideal chemistry: BaSi_2_O_5_
Locality: Empire #1 mine, Fresno County, California, USA
Source: University of Arizona Mineral Museum
Description: An aggregate of white to colorless pearly anhedral plates
Measured chemistry: Ba_1.00_Si_2.00_O_5_
Pin_id: M00487
Orientation: Laser parallel to -b* (0 -1 0). Fiducial mark perpendicular to laser is parallel to c [0 0 1]
Raman shift (cm-1)	intensity
49.184	0
53.401	25.102
57.617	32.591
61.83	37.064
66.041	52.666
70.25	54.027
74.456	51.952
78.661	13.895
82.863	3.311
87.064	18.801
91.262	43.32
95.458	209.998
99.652	1183.19
103.843	4709.82
108.033	2212.8
112.22	936.079
116.406	1043.63
120.589	1238.44
124.77	964.471
128.949	706.714
133.126	474.207
137.301	452.018
141.473	448.09
145.644	549.412
149.812	522.853
153.979	409.213
158.143	307.6
162.305	388.058
166.465	516.593
170.623	492.209
174.778	354.908
178.932	266.69
183.083	237.555
187.233	272.502
191.38	293.531
195.525	314.641
199.669	235.829
203.81	207.096
207.949	225.443
212.085	294.532
216.22	325.183
220.353	387.331
224.483	444.831
228.612	467.961
232.738	473.506
236.863	600.277
240.985	826.445
245.105	1323.21
249.223	1468.92
253.339	1187.6
257.453	1144.5
261.565	1361.85
265.675	1763.3
269.783	2141.26
273.888	2665.43
277.992	3697.12
282.093	5953.87
286.193	10102.7
290.29	14660.6
294.386	14468.5
298.479	9526.55
302.57	5311.62
306.659	3038.74
310.746	2418.91
314.831	2552.13
318.914	1829.39
322.995	1109.7
327.074	951.059
331.151	1361.46
335.226	1199.91
339.299	998.401
343.37	867.935
347.438	414.51
351.505	221.13
355.57	119.807
359.632	67.869
363.693	35.358
367.751	29.238
371.808	12.825
375.862	11.166
379.914	13.449
383.965	4.797
388.013	16.261
392.06	7.665
396.104	14.59
400.146	19.529
404.186	14.465
408.225	1.383
412.261	8.276
416.295	7.879
420.327	28.092
424.357	41.342
428.386	70.627
432.412	83.946
436.436	77.299
440.458	95.683
444.478	162.098
448.496	311.541
452.513	662.013
456.527	1460.51
460.539	1768.04
464.549	1259.58
468.557	1585.16
472.563	6008.75
476.567	13590.4
480.57	5640
484.57	1490.66
488.568	611.332
492.564	541.022
496.558	494.729
500.551	551.451
504.541	633.187
508.529	854.949
512.515	1109.96
516.5	1619.92
520.482	2632.27
524.462	4808.07
528.441	10476.2
532.417	21747.9
536.391	25468.7
540.364	14977.9
544.334	7137.36
548.303	3591.32
552.269	2121.82
556.234	1427.44
560.197	1027.16
564.157	787.551
568.116	661.882
572.073	544.824
576.027	466.571
579.98	411.472
583.931	343.363
587.88	255.248
591.827	245.131
595.772	242.017
599.715	196.886
603.656	137.738
607.595	141.572
611.532	123.397
615.468	133.201
619.401	143.983
623.332	94.743
627.262	126.48
631.189	93.191
635.115	76.877
639.039	78.537
642.96	93.169
646.88	71.773
650.798	44.349
654.714	55.894
658.628	64.422
662.54	27.054
666.45	16.245
670.358	14.617
674.264	10.052
678.169	5.334
682.071	10.465
685.972	1.2
689.87	1.851
693.767	11.749
697.662	0.278
701.555	2.897
705.446	2.771
709.335	20.165
713.222	12.578
717.107	2.15
720.99	8.808
724.872	24.762
728.751	32.528
732.629	19.181
736.504	35.55
740.378	67.367
744.25	191.357
748.12	436.144
751.988	1033.33
755.854	1098.48
759.719	584.629
763.581	308.419
767.442	174.424
771.3	124.383
775.157	106.297
779.012	94.166
782.865	87.99
786.716	62.769
790.565	72.505
794.413	76.197
798.258	56.846
802.102	64.454
805.943	65.019
809.783	40.544
813.621	27.029
817.457	11.471
821.292	7.485
825.124	1.118
828.954	1.517
832.783	8.373
836.61	17.635
840.435	28.144
844.258	4.48
848.079	34.632
851.898	31.861
855.715	24.387
859.531	2.127
863.345	21.785
867.157	24.848
870.967	3.864
874.775	10.47
878.581	3.301
882.386	11.987
886.188	9.328
889.989	5.663
893.788	3.027
897.585	12.588
901.38	15.166
905.174	15.722
908.965	4.277
912.755	2.169
916.543	8.379
920.329	28.916
924.113	42.458
927.895	42.006
931.676	29.561
935.454	54.124
939.231	66.697
943.006	57.281
946.78	51.878
950.551	42.488
954.32	39.114
958.088	25.756
961.854	67.417
965.618	32.083
969.38	53.532
973.141	52.603
976.9	30.852
980.656	44.911
984.411	103.954
988.165	141.891
991.916	138.287
995.665	227.925
999.413	293.071
1003.16	220.286
1006.9	166.516
1010.65	169.906
1014.39	194.766
1018.12	248.285
1021.86	248.707
1025.6	280.878
1029.33	279.578
1033.06	420.496
1036.79	655.245
1040.52	561.313
1044.25	527.855
1047.97	601.23
1051.69	760.745
1055.41	1058.86
1059.13	1486.02
1062.85	2285.14
1066.57	4380.69
1070.28	10893
1073.99	39571.4
1077.7	59709.8
1081.41	20708.2
1085.12	7277.7
1088.82	3474.25
1092.52	2140.84
1096.22	1449.48
1099.92	1045.17
1103.62	760.986
1107.32	563.771
1111.01	443.645
1114.7	399.522
1118.39	359.233
1122.08	259.32
1125.77	236.65
1129.45	225.353
1133.14	225.544
1136.82	186.105
1140.5	196.474
1144.18	171.787
1147.85	162.768
1151.53	142.608
1155.2	148.804
1158.87	187.067
1162.54	317.722
1166.21	545.25
1169.88	911.414
1173.54	988.456
1177.2	567.059
1180.86	327.483
1184.52	217.726
1188.18	135.488
1191.83	94.01
1195.49	81.545
1199.14	63.287
1202.79	87.075
1206.44	44.456
1210.08	29.286
1213.73	57.083
1217.37	26.89
1221.01	34.036
1224.65	34.026
1228.29	6.817
1231.93	32.612
1235.56	13.535
1239.19	35.5
1242.83	13.297
1246.46	14.133
1250.08	4.318
1253.71	17.127
1257.33	1.966
1260.96	0.061
1264.58	10.864
1268.19	5.257
1271.81	9.588
1275.43	9.999
1279.04	16.544
1282.65	19.03
1286.27	18.835
1289.87	21.753
1293.48	15.037
1297.09	28.495
1300.69	7.667
1304.29	11.77
1307.89	10.178
1311.49	5.983
1315.09	17.069
1318.68	20.808
1322.28	2.298
1325.87	24.523
1329.46	19.146
1333.05	8.85
1336.63	0.422
1340.22	36.913
1343.8	51.416
1347.38	2.842
1350.96	27.179
1354.54	34.469
1358.12	28.72
1361.69	32.94
1365.26	25.529
1368.83	32.643
1372.4	42.656
1375.97	41.616
1379.54	13.844
1383.1	42.298
1386.66	48.627
1390.23	19.949
1393.79	51.389
1397.34	38.57
1400.9	56.666
1404.45	47.132
1408.01	72.464
1411.56	29.48
1415.11	61.883
1418.66	34.431
1422.2	34.786
1425.75	32.075
1429.29	38.886
1432.83	36.085
1436.37	1.461
1439.91	30.861
1443.44	52.359
1446.98	54.326
1450.51	57.75
1454.04	39.445
1457.57	46.099
1461.1	10.979
1464.63	15.948
1468.15	44.007
1471.67	4.219
1475.19	35.713
1478.71	33.608
1482.23	35.083
1485.75	13.743
1489.26	32.199
1492.78	45.251
1496.29	25.385
1499.8	12.996
1503.31	4.124
1506.81	21.677
1510.32	16.305
1513.82	0.165
1517.32	22.019
