Measurement: Raman, 514 nm, ccw, Raman Data Processed
Mineral: Sanbornite
Rruff sample: R050001
Ideal chemistry: BaSi_2_O_5_
Locality: Empire #1 mine, Fresno County, California, USA
Source: University of Arizona Mineral Museum
Description: An aggregate of white to colorless pearly anhedral plates
Measured chemistry: Ba_1.00_Si_2.00_O_5_
Pin_id: M00487
Orientation: Laser parallel to -b* (0 -1 0). Fiducial mark perpendicular to laser is parallel to c [0 0 1]
Raman shift (cm-1)	intensity
49.184	0
53.401	8.527
57.617	3.999
61.83	57.397
66.041	22.205
70.25	98.164
74.456	198.867
78.661	115.403
82.863	167.237
87.064	115.234
91.262	1340.55
95.458	2912.57
99.652	947.199
103.843	2194.2
108.033	725.733
112.22	541.565
116.406	1328.11
120.589	1570.38
124.77	863.428
128.949	293.27
133.126	95.947
137.301	47.645
141.473	49.335
145.644	49.039
149.812	7.082
153.979	18.076
158.143	11.357
162.305	137.627
166.465	255.502
170.623	307.492
174.778	182.314
178.932	133.113
183.083	324.848
187.233	861.413
191.38	1330.89
195.525	1048.34
199.669	561.772
203.81	328.507
207.949	235.582
212.085	381.967
216.22	748.444
220.353	1462.4
224.483	1737.48
228.612	1234.18
232.738	582.256
236.863	336.877
240.985	336.119
245.105	729.851
249.223	813.782
253.339	368.857
257.453	72.831
261.565	3.881
265.675	1.761
269.783	21.051
273.888	6.032
277.992	8.116
282.093	45.731
286.193	137.547
290.29	355.342
294.386	447.121
298.479	377.885
302.57	298.473
306.659	396.022
310.746	931.79
314.831	1855.2
318.914	1632.03
322.995	850.439
327.074	943.569
331.151	1615.85
335.226	3741.11
339.299	10819.4
343.37	16405.6
347.438	6279.89
351.505	2018.16
355.57	856.432
359.632	373.714
363.693	217.004
367.751	137.305
371.808	78.629
375.862	99.988
379.914	71.358
383.965	174.719
388.013	193.088
392.06	69.505
396.104	2.06
400.146	37.584
404.186	2.168
408.225	14.248
412.261	14.597
416.295	0.107
420.327	19.155
424.357	2.064
428.386	47.073
432.412	124.711
436.436	104.934
440.458	117.536
444.478	233.889
448.496	408.992
452.513	759.2
456.527	1586.41
460.539	1941.62
464.549	1013.83
468.557	557.048
472.563	642.286
476.567	1034.55
480.57	597.856
484.57	492.211
488.568	572.575
492.564	701.946
496.558	877.323
500.551	1049.75
504.541	1374.18
508.529	1842.81
512.515	2651.44
516.5	3854.19
520.482	6066.86
524.462	10631.6
528.441	22039
532.417	46828
536.391	60914.8
540.364	35372.3
544.334	15720
548.303	7960.9
552.269	4595.51
556.234	3008.27
560.197	2156.37
564.157	1613.4
568.116	1394.36
572.073	1171.11
576.027	1013.14
579.98	786.052
583.931	746.736
587.88	700.891
591.827	763.154
595.772	1064.51
599.715	923.905
603.656	551.309
607.595	365.687
611.532	367.033
615.468	269.44
619.401	203.815
623.332	178.849
627.262	183.166
631.189	176.361
635.115	179.935
639.039	130.087
642.96	110.397
646.88	132.891
650.798	80.926
654.714	137.833
658.628	81.934
662.54	14.014
666.45	31.708
670.358	67.46
674.264	67.104
678.169	21.759
682.071	19.277
685.972	28.723
689.87	64.062
693.767	0.302
697.662	0.542
701.555	5.482
705.446	3.561
709.335	13.486
713.222	26.875
717.107	15.967
720.99	6.357
724.872	31.391
728.751	55.608
732.629	19.228
736.504	30.276
740.378	41.422
744.25	99.161
748.12	195.306
751.988	427.701
755.854	443.525
759.719	198.225
763.581	107.869
767.442	67.054
771.3	49.523
775.157	47.923
779.012	29.245
782.865	68.492
786.716	9.343
790.565	66.711
794.413	11.702
798.258	12.624
802.102	20.475
805.943	1.259
809.783	2.045
813.621	19.512
817.457	28.892
821.292	39.186
825.124	39.392
828.954	55.373
832.783	76.295
836.61	73.177
840.435	67.36
844.258	66.951
848.079	55.168
851.898	71.038
855.715	53.393
859.531	45.912
863.345	63.165
867.157	1.074
870.967	53.793
874.775	16.627
878.581	10.888
882.386	27.053
886.188	24.241
889.989	10.274
893.788	1.22
897.585	16.572
901.38	10.993
905.174	10.458
908.965	10.049
912.755	2.457
916.543	2.963
920.329	12.526
924.113	53.922
927.895	18.323
931.676	51.976
935.454	33.442
939.231	40.524
943.006	37.038
946.78	47.489
950.551	44.662
954.32	65.874
958.088	65.839
961.854	112.324
965.618	106.565
969.38	141.081
973.141	207.943
976.9	444.718
980.656	979.618
984.411	2406.5
988.165	2354.51
991.916	1043.58
995.665	473.717
999.413	310.908
1003.16	241.156
1006.9	202.469
1010.65	218.908
1014.39	202.173
1018.12	217.745
1021.86	209.312
1025.6	251.474
1029.33	188.525
1033.06	333.639
1036.79	572.809
1040.52	497.73
1044.25	413.932
1047.97	498.035
1051.69	582.512
1055.41	758.523
1059.13	1072.36
1062.85	1714.97
1066.57	3174.67
1070.28	7816.87
1073.99	27650.7
1077.7	45734.6
1081.41	15368.6
1085.12	5343.65
1088.82	2570.77
1092.52	1589.04
1096.22	1014.3
1099.92	674.608
1103.62	477.151
1107.32	404.298
1111.01	298.929
1114.7	263.393
1118.39	261.324
1122.08	175.988
1125.77	104.123
1129.45	142.164
1133.14	119.807
1136.82	129.341
1140.5	115.509
1144.18	132.439
1147.85	109.402
1151.53	87.578
1155.2	116.686
1158.87	153.669
1162.54	284.755
1166.21	525.478
1169.88	937.315
1173.54	898.936
1177.2	573.713
1180.86	262.833
1184.52	144.847
1188.18	132.34
1191.83	93.397
1195.49	97.375
1199.14	80.264
1202.79	54.036
1206.44	61.425
1210.08	0.406
1213.73	68.604
1217.37	15.664
1221.01	46.604
1224.65	26.078
1228.29	79.771
1231.93	79.077
1235.56	70.565
1239.19	49.535
1242.83	68.365
1246.46	31.079
1250.08	28.234
1253.71	2.455
1257.33	9.064
1260.96	71.885
1264.58	36.317
1268.19	47.932
1271.81	61.219
1275.43	79.365
1279.04	2.612
1282.65	11.192
1286.27	38.168
1289.87	59.937
1293.48	22.453
1297.09	84.998
1300.69	70.461
1304.29	2.802
1307.89	62.096
1311.49	14.206
1315.09	2.372
1318.68	16.284
1322.28	66.815
1325.87	28.261
1329.46	39.523
1333.05	22.711
1336.63	23.812
1340.22	3.923
1343.8	26.869
1347.38	46.726
1350.96	31.324
1354.54	40.82
1358.12	112.244
1361.69	72.566
1365.26	80.466
1368.83	24.579
1372.4	32.667
1375.97	47.411
1379.54	30.017
1383.1	53.13
1386.66	110.346
1390.23	96.632
1393.79	61.325
1397.34	91.416
1400.9	66.66
1404.45	83.99
1408.01	53.285
1411.56	100.538
1415.11	68.557
1418.66	55.152
1422.2	43.451
1425.75	78.12
1429.29	72.049
1432.83	62.674
1436.37	102.091
1439.91	44.056
1443.44	145.642
1446.98	94.631
1450.51	76.703
1454.04	94.832
1457.57	72.144
1461.1	80.856
1464.63	29.746
1468.15	62.368
1471.67	99.599
1475.19	56.691
1478.71	138.076
1482.23	109.008
1485.75	120.139
1489.26	74.857
1492.78	46.742
1496.29	26.619
1499.8	26.233
1503.31	7.852
1506.81	53.963
1510.32	6.768
1513.82	71.851
1517.32	55.659
1520.82	0
