Measurement: Raman, 514 nm, ccw, Raman Data Processed
Mineral: Sanbornite
Rruff sample: R050001
Ideal chemistry: BaSi_2_O_5_
Locality: Empire #1 mine, Fresno County, California, USA
Source: University of Arizona Mineral Museum
Description: An aggregate of white to colorless pearly anhedral plates
Measured chemistry: Ba_1.00_Si_2.00_O_5_
Pin_id: M00320
Orientation: Laser parallel to -a* (-1 0 0). Fiducial mark perpendicular to laser is parallel to -b [0 -1 0]
Raman shift (cm-1)	intensity
109.429	0
113.616	1434.69
117.8	2874.19
121.983	2136.84
126.163	901.896
130.342	283.59
134.518	81.429
138.692	347.826
142.864	959.64
147.034	1212.27
151.201	836.956
155.367	175.011
159.53	6.741
163.692	34.077
167.851	35.605
172.008	76.795
176.163	55.331
180.316	177.614
184.467	708.412
188.616	1818.32
192.762	2379.67
196.907	1736.31
201.049	1053.65
205.189	500.827
209.328	430.837
213.464	835.605
217.598	1828.15
221.73	2570.21
225.86	2324.59
229.988	1433.56
234.113	686.458
238.237	474.658
242.359	551.312
246.478	815.799
250.595	766.263
254.711	527.936
258.824	679.521
262.935	1427.17
267.044	2253.5
271.151	2002.62
275.256	1350.03
279.359	1239.96
283.46	1671.38
287.559	2601.91
291.656	3107.03
295.75	2650.24
299.843	1686.5
303.933	1085.16
308.022	992.958
312.108	1490.5
316.193	1649.16
320.275	1151.86
324.355	1292.15
328.434	3638.02
332.51	5879.13
336.584	3626.44
340.656	1835.7
344.726	843.475
348.794	383.403
352.86	73.083
356.924	14.536
360.986	45.693
365.046	59.529
369.104	47.249
373.159	4.395
377.213	27.001
381.265	79.97
385.315	241.636
389.362	162.032
393.408	115.212
397.451	1.115
401.493	15.302
405.533	2.559
409.57	64.992
413.606	61.981
417.639	22.569
421.671	43.49
425.7	35.758
429.728	120.501
433.753	90.793
437.777	111.765
441.798	172.48
445.818	366.896
449.835	595
453.851	1274.83
457.864	1416.3
461.876	1143.65
465.885	656.659
469.893	870.661
473.898	1872.76
477.902	2302.15
481.903	956.276
485.903	512.323
489.9	620.613
493.896	620.008
497.889	548.112
501.881	502.707
505.87	611.3
509.858	784.331
513.844	1071.43
517.827	1642.64
521.809	2644.08
525.789	4820.47
529.766	9164.66
533.742	13564.5
537.716	11367.1
541.688	6541.52
545.657	3409.64
549.625	2033.04
553.591	1207.19
557.555	961.737
561.517	752.59
565.477	592.074
569.435	519.069
573.391	431.843
577.345	487.792
581.297	490.267
585.248	387.208
589.196	592.453
593.142	945.306
597.086	1214.3
601.029	799.723
604.969	376.126
608.908	217.401
612.844	206.388
616.779	193.756
620.712	198.88
624.642	117.625
628.571	104.871
632.498	136.771
636.423	154.388
640.346	108.777
644.267	89.1
648.186	198.928
652.103	267.492
656.019	50.021
659.932	189.413
663.843	72.646
667.753	58.823
671.66	36.297
675.566	27.539
679.47	34.155
683.372	55.787
687.271	51.347
691.169	59.788
695.065	79.205
698.96	43.538
702.852	79.594
706.742	36.396
710.631	103.982
714.517	61.336
718.402	106.647
722.284	24.14
726.165	45.132
730.044	39.044
733.921	119.464
737.796	60.268
741.669	0.152
745.54	152.37
749.41	250.949
753.277	390.26
757.143	477.499
761.006	416.604
764.868	177.569
768.728	102.398
772.586	28.878
776.442	102.041
780.297	4.316
784.149	143.247
787.999	176.994
791.848	166.335
795.695	87.894
799.54	33.458
803.382	211.891
807.224	153.254
811.063	112.356
814.9	14.476
818.736	208.324
822.569	129.549
826.401	142.089
830.231	202.562
834.059	92.379
837.885	193.146
841.709	150.86
845.532	142.145
849.352	100.865
853.171	81.425
856.988	91.951
860.803	129.392
864.616	155.556
868.427	156.456
872.236	77.266
876.044	165.751
879.849	103.395
883.653	96.139
887.455	14.16
891.255	62.162
895.054	21.383
898.85	22.018
902.645	43.18
906.438	73.656
910.229	14.499
914.018	65.312
917.805	16.095
921.59	106.712
925.374	96.521
929.156	4.887
932.936	25.207
936.714	65.639
940.49	196.12
944.264	185.627
948.037	75.967
951.808	46.042
955.577	124.95
959.344	75.479
963.109	14.236
966.872	25.539
970.634	126.048
974.394	65.928
978.152	286.285
981.908	456.703
985.663	757.63
989.415	868.839
993.166	710.332
996.915	1041.55
1000.66	892.537
1004.41	253.585
1008.15	234.864
1011.89	68.319
1015.63	189.6
1019.37	71.05
1023.11	112.604
1026.84	84.33
1030.57	213.235
1034.31	298.484
1038.03	390.197
1041.76	369.583
1045.49	211.158
1049.21	345.314
1052.93	547.012
1056.65	823.919
1060.37	1182.42
1064.09	1915.29
1067.8	3917.49
1071.52	11320.8
1075.23	29773.5
1078.94	18906.1
1082.64	6807.73
1086.35	3160.18
1090.05	1731.56
1093.76	1124.4
1097.46	1026.41
1101.16	769.722
1104.85	523.084
1108.55	361.218
1112.24	452.678
1115.93	204.717
1119.62	106.542
1123.31	170.036
1127	122.659
1130.68	6.04
1134.37	19.728
1138.05	74.896
1141.72	58.221
1145.4	282.203
1149.08	206.092
1152.75	119.902
1156.42	103.745
1160.1	236.976
1163.76	242.118
1167.43	318.601
1171.1	318.11
1174.76	390.297
1178.42	202.312
1182.08	248.756
1185.74	130.503
1189.4	141.317
1193.05	132.535
1196.7	273.669
1200.36	93.547
1204.01	31.122
1207.65	70.445
1211.3	109.601
1214.94	59.003
1218.59	157.376
1222.23	298.094
1225.87	376.098
1229.5	216.178
1233.14	160.309
1236.77	220.053
1240.41	126.762
1244.04	113.058
1247.66	149.43
1251.29	175.297
1254.92	330.953
1258.54	296.886
1262.16	81.965
1265.78	68.1
1269.4	113.763
1273.02	27.705
1276.63	20.831
1280.25	124.208
1283.86	167.101
1287.47	78.745
1291.08	250.045
1294.68	211.074
1298.29	78.112
1301.89	152.217
1305.49	80.208
1309.09	78.762
1312.69	77.053
1316.29	294.928
1319.88	202.268
1323.47	109.115
1327.06	135.454
1330.65	151.232
1334.24	46.45
1337.83	71.51
1341.41	283.021
1344.99	166.028
1348.57	188.792
1352.15	251.182
1355.73	193.396
1359.31	255.246
1362.88	287.626
1366.45	38.98
1370.02	0.026
1373.59	28.18
1377.16	0.123
1380.73	257.861
1384.29	305.339
1387.85	282.124
1391.41	518.814
1394.97	333.67
1398.53	367.197
1402.09	288.271
1405.64	69.283
1409.19	38.576
1412.74	182.863
1416.29	217.607
1419.84	165.279
1423.38	334.08
1426.93	269.113
1430.47	425.521
1434.01	318.447
1437.55	174.246
1441.09	319.469
1444.62	155.311
1448.16	129.883
1451.69	181.557
1455.22	162.141
1458.75	321.711
1462.28	435.688
1465.8	328.252
1469.33	485.465
1472.85	599.635
1476.37	475.404
1479.89	330.91
1483.4	144.592
1486.92	232.598
1490.43	200.523
1493.95	269.379
1497.46	199.018
1500.97	174.408
1504.47	286.736
1507.98	450.986
1511.48	382.725
1514.99	322.248
