Measurement: Raman, 514 nm, ccw, Raman Data Processed
Mineral: Sanbornite
Rruff sample: R050001
Ideal chemistry: BaSi_2_O_5_
Locality: Empire #1 mine, Fresno County, California, USA
Source: University of Arizona Mineral Museum
Description: An aggregate of white to colorless pearly anhedral plates
Measured chemistry: Ba_1.00_Si_2.00_O_5_
Pin_id: M00207
Orientation: Laser parallel to -c* (0 0 -1). Fiducial mark perpendicular to laser is parallel to -a [-1 0 0]
Raman shift (cm-1)	intensity
92.661	0
96.856	96.591
101.049	255.371
105.24	1245.27
109.429	5.159
113.616	556.735
117.8	1931.03
121.983	3435.84
126.163	1738.78
130.342	516.709
134.518	336.343
138.692	458.477
142.864	1007.85
147.034	3073.71
151.201	3615.98
155.367	1129.71
159.53	435.014
163.692	181.447
167.851	128.527
172.008	56.583
176.163	6.297
180.316	3.146
184.467	40.819
188.616	145.569
192.762	343.837
196.907	643.152
201.049	717.056
205.189	214.371
209.328	9.955
213.464	59.089
217.598	24.802
221.73	4.166
225.86	17.316
229.988	37.888
234.113	11.113
238.237	51.827
242.359	81.199
246.478	132.031
250.595	187.281
254.711	426.737
258.824	793.74
262.935	1873.74
267.044	4940.08
271.151	4569.88
275.256	2001.32
279.359	1501.96
283.46	2016.4
287.559	3201.73
291.656	4780.76
295.75	4579.39
299.843	2858.63
303.933	1542.7
308.022	931.786
312.108	779.787
316.193	768.747
320.275	845.752
324.355	1231.58
328.434	3444.62
332.51	13998.2
336.584	8202.62
340.656	1966.42
344.726	907.674
348.794	596.881
352.86	375.447
356.924	295.873
360.986	275.76
365.046	235.275
369.104	194.462
373.159	207.098
377.213	148.933
381.265	155.174
385.315	165.029
389.362	85.066
393.408	97.948
397.451	79.43
401.493	41.433
405.533	39.803
409.57	15.021
413.606	23.009
417.639	27.552
421.671	35.952
425.7	77.005
429.728	106.386
433.753	58.126
437.777	118.256
441.798	132.834
445.818	181.886
449.835	480.469
453.851	1411.81
457.864	1599.74
461.876	1458.57
465.885	671.889
469.893	598.929
473.898	1435.53
477.902	4842.11
481.903	1023.44
485.903	437.527
489.9	538.476
493.896	907.637
497.889	558.55
501.881	305.907
505.87	378.886
509.858	480.724
513.844	643.09
517.827	974.088
521.809	1483.03
525.789	2648.72
529.766	5806.72
533.742	13533.5
537.716	15251.7
541.688	6992.26
545.657	3203.91
549.625	1799.98
553.591	1114.82
557.555	723.458
561.517	526.873
565.477	489.046
569.435	394.998
573.391	265.056
577.345	233.754
581.297	213.503
585.248	204.196
589.196	173.318
593.142	165.505
597.086	150.624
601.029	155.141
604.969	102.116
608.908	140.007
612.844	74.802
616.779	50.514
620.712	146.128
624.642	81.659
628.571	119.175
632.498	58.517
636.423	44.827
640.346	68.051
644.267	73.244
648.186	20.757
652.103	42.707
656.019	38.566
659.932	6.457
663.843	20.889
667.753	4.422
671.66	64.701
675.566	51.201
679.47	39.64
683.372	39.422
687.271	0.655
691.169	17.962
695.065	1.284
698.96	4.117
702.852	34.037
706.742	9.367
710.631	18.456
714.517	19.151
718.402	40.115
722.284	2.921
726.165	27.587
730.044	9.319
733.921	49.539
737.796	66.415
741.669	99.352
745.54	112.108
749.41	186.844
753.277	432.464
757.143	765.898
761.006	604.222
764.868	316.52
768.728	175.874
772.586	148.447
776.442	132.638
780.297	153.207
784.149	144.764
787.999	104.2
791.848	60.348
795.695	86.233
799.54	86.286
803.382	83.051
807.224	69.723
811.063	48.303
814.9	60.641
818.736	90.112
822.569	41.191
826.401	77.369
830.231	22.478
834.059	17.566
837.885	34.486
841.709	4.287
845.532	76.81
849.352	24.236
853.171	30.445
856.988	30.217
860.803	7.021
864.616	66.315
868.427	36.368
872.236	113.878
876.044	73.805
879.849	7.826
883.653	25.933
887.455	75.581
891.255	72.891
895.054	13.53
898.85	8.97
902.645	33.545
906.438	26.1
910.229	101.622
914.018	72.111
917.805	6.567
921.59	24.971
925.374	14.328
929.156	23.655
932.936	76.95
936.714	67.145
940.49	70.399
944.264	33.523
948.037	23.723
951.808	10.793
955.577	110.439
959.344	100.533
963.109	4.468
966.872	34.531
970.634	35.641
974.394	84.405
978.152	146.541
981.908	170.239
985.663	201.996
989.415	349.045
993.166	474.525
996.915	1293.9
1000.66	2242.05
1004.41	805.661
1008.15	320.978
1011.89	197.973
1015.63	157.805
1019.37	214.227
1023.11	137.847
1026.84	223.606
1030.57	166.947
1034.31	129.771
1038.03	207.767
1041.76	156.411
1045.49	305.149
1049.21	369.498
1052.93	493.155
1056.65	751.236
1060.37	1007.98
1064.09	1560.04
1067.8	2817.77
1071.52	7287.21
1075.23	29290.8
1078.94	36824.6
1082.64	10048.6
1086.35	3807.25
1090.05	2032.83
1093.76	1325.54
1097.46	1418.42
1101.16	1308.89
1104.85	667.428
1108.55	456.852
1112.24	421.226
1115.93	236.539
1119.62	246.313
1123.31	300.102
1127	235.675
1130.68	216.164
1134.37	140.096
1138.05	123.513
1141.72	56.361
1145.4	148.307
1149.08	103.911
1152.75	37.01
1156.42	17.551
1160.1	21.788
1163.76	58.892
1167.43	82.021
1171.1	42.701
1174.76	18.673
1178.42	49.385
1182.08	28.69
1185.74	69.38
1189.4	30.431
1193.05	120.023
1196.7	141.615
1200.36	42.498
1204.01	76.513
1207.65	21.318
1211.3	82.265
1214.94	77.635
1218.59	97.547
1222.23	171.017
1225.87	114.58
1229.5	101.521
1233.14	106.767
1236.77	150.192
1240.41	120.786
1244.04	126.036
1247.66	98.458
1251.29	145.956
1254.92	113.024
1258.54	120.071
1262.16	95.843
1265.78	34.53
1269.4	77.051
1273.02	14.6
1276.63	2.348
1280.25	40.029
1283.86	51.738
1287.47	146.317
1291.08	175.662
1294.68	43.896
1298.29	73.461
1301.89	72.794
1305.49	8.928
1309.09	22.761
1312.69	27.568
1316.29	92.911
1319.88	109.114
1323.47	60.947
1327.06	71.628
1330.65	62.213
1334.24	70.431
1337.83	68.444
1341.41	75.954
1344.99	75.644
1348.57	97.999
1352.15	70.378
1355.73	60.707
1359.31	149.803
1362.88	26.879
1366.45	26.916
1370.02	31.36
1373.59	19.272
1377.16	16.696
1380.73	49.536
1384.29	174.484
1387.85	191.297
1391.41	188.67
1394.97	199.318
1398.53	159.737
1402.09	102.132
1405.64	127.684
1409.19	123.939
1412.74	86.79
1416.29	52.732
1419.84	8.833
1423.38	138.714
1426.93	102.384
1430.47	157.553
1434.01	82.218
1437.55	138.207
1441.09	160.407
1444.62	68.073
1448.16	35.833
1451.69	104.198
1455.22	49.796
1458.75	76.309
1462.28	80.999
1465.8	157.485
1469.33	141.122
1472.85	118.877
1476.37	160.609
1479.89	2.173
1483.4	71.269
1486.92	115.534
1490.43	13.334
1493.95	30.398
1497.46	46.025
1500.97	94.909
1504.47	66.991
1507.98	138.309
1511.48	160.621
1514.99	113.621
1518.49	184.402
