Measurement: Raman, 514 nm, ccw, Raman Data Processed
Mineral: Sanbornite
Rruff sample: R050001
Ideal chemistry: BaSi_2_O_5_
Locality: Empire #1 mine, Fresno County, California, USA
Source: University of Arizona Mineral Museum
Description: An aggregate of white to colorless pearly anhedral plates
Measured chemistry: Ba_1.00_Si_2.00_O_5_
Pin_id: M00207
Orientation: Laser parallel to -c* (0 0 -1). Fiducial mark perpendicular to laser is parallel to -a [-1 0 0]
Raman shift (cm-1)	intensity
68.847	0
73.054	299.051
77.26	335.907
81.463	414.882
85.664	494.062
89.863	132.588
94.059	103.661
98.254	477.209
102.446	4547.03
106.637	3791.68
110.825	538.224
115.011	627.297
119.195	2017.68
123.377	1036.34
127.556	538.23
131.734	287.182
135.909	255.833
140.083	401.124
144.254	443.143
148.423	593.256
152.59	398.668
156.755	168.81
160.918	43.263
165.078	2.645
169.237	55.985
173.393	9.812
177.548	65.951
181.7	33.896
185.85	22.178
189.998	20.77
194.144	31.16
198.288	39.906
202.429	11.408
206.569	75.903
210.707	47.874
214.842	37.404
218.976	81.323
223.107	94.817
227.236	141.033
231.363	114.01
235.488	232.171
239.611	300.592
243.732	494.715
247.851	740.501
251.967	825.093
256.082	929.418
260.195	1175.51
264.305	1689.45
268.414	2139.27
272.52	2353.81
276.624	2905.77
280.726	3987.68
284.827	6213.65
288.925	10757.3
293.021	15283.2
297.115	11718.9
301.207	6134.86
305.296	3497.03
309.384	2315.49
313.47	1737.46
317.554	1423.52
321.635	1154.55
325.715	1039.99
329.792	1361.03
333.868	2541.81
337.941	1391.14
342.013	1403.93
346.082	923.437
350.15	564.17
354.215	497.595
358.278	436.47
362.339	399.192
366.399	298.091
370.456	300.012
374.511	228.911
378.564	198.822
382.615	190.767
386.664	182.239
390.711	184.054
394.756	166.641
398.799	134.86
402.84	163.721
406.879	131.274
410.916	185.22
414.951	130.059
418.983	172.283
423.014	165.669
427.043	120.274
431.07	156.983
435.095	141.872
439.118	173.016
443.138	244.538
447.157	288.478
451.174	465.884
455.189	1028.89
459.202	1887.75
463.212	1410.3
467.221	962.706
471.228	1726.05
475.233	8685.28
479.236	11369.4
483.237	1660.33
487.235	710.397
491.232	618.529
495.227	570.793
499.22	506.003
503.211	530.691
507.2	693.205
511.187	868.321
515.172	1120.65
519.155	1573.27
523.136	2659.96
527.115	5334.44
531.092	11603.5
535.067	22268.7
539.04	18531.1
543.011	8563.17
546.98	4076.57
550.947	2164.01
554.913	1339.45
558.876	1036.64
562.837	896.911
566.797	628.604
570.754	531.534
574.709	488.689
578.663	457.623
582.614	361.787
586.564	243.926
590.511	183.161
594.457	134.658
598.401	197.612
602.343	162.459
606.282	102.527
610.22	85.669
614.156	122.813
618.09	88.968
622.022	142.137
625.952	101.313
629.88	83.496
633.807	55.765
637.731	57.961
641.653	38.163
645.574	53.367
649.492	75.836
653.409	103.897
657.323	93.128
661.236	13.389
665.147	27.443
669.056	14.959
672.963	63.795
676.868	37.321
680.771	37.776
684.672	18.647
688.571	26.947
692.468	5.602
696.364	20.067
700.257	45.176
704.149	18.797
708.038	37.303
711.926	5.331
715.812	11.792
719.696	28.316
723.578	31.078
727.458	3.535
731.336	76.77
735.213	57.104
739.087	19.601
742.96	94.179
746.83	170.037
750.699	553.675
754.566	1332.29
758.431	875.954
762.294	440.571
766.155	245.127
770.014	179.089
773.872	174.209
777.727	109.592
781.581	132.886
785.433	54.397
789.282	81.388
793.13	94.355
796.977	81.249
800.821	170.104
804.663	35.864
808.504	63.455
812.342	104.143
816.179	87.299
820.014	84.101
823.847	55.166
827.678	69.744
831.507	49.625
835.334	29.613
839.16	72.414
842.983	29.485
846.805	39.619
850.625	5.12
854.443	88.207
858.259	58.673
862.074	74.861
865.886	64.787
869.697	13.104
873.506	14.42
877.313	18.571
881.118	7.025
884.921	34.499
888.722	19.549
892.522	0.85
896.319	24.942
900.115	12.963
903.909	64.794
907.701	74.547
911.492	41.258
915.28	68.937
919.067	45.584
922.852	103.197
926.635	72.766
930.416	56.292
934.195	50.793
937.973	44.188
941.748	46.634
945.522	16.063
949.294	105.473
953.064	78.867
956.832	52.681
960.599	86.464
964.364	77.816
968.127	39.09
971.888	4.566
975.647	51.387
979.404	32.767
983.16	60.031
986.914	179.242
990.666	153.836
994.416	335.29
998.164	912.53
1001.91	931.268
1005.65	391.92
1009.4	276.306
1013.14	236.913
1016.88	257.274
1020.62	252.72
1024.35	365.612
1028.09	429.547
1031.82	300.348
1035.55	223.639
1039.28	277.887
1043	398.881
1046.73	496.262
1050.45	601.673
1054.17	745.728
1057.89	929.465
1061.61	1452.12
1065.33	2493.72
1069.04	5529.36
1072.75	16766.7
1076.46	57958.6
1080.17	32801.3
1083.88	8444.25
1087.59	3646.7
1091.29	2179.67
1094.99	1643.61
1098.69	1423.68
1102.39	948.646
1106.09	625.649
1109.78	431.607
1113.47	292.582
1117.16	307.688
1120.85	355.618
1124.54	358.029
1128.23	293.64
1131.91	211.886
1135.59	132.237
1139.27	108.915
1142.95	110.692
1146.63	81.37
1150.3	64.003
1153.98	90.25
1157.65	105.886
1161.32	42.358
1164.99	75.691
1168.65	79.607
1172.32	67.289
1175.98	13.43
1179.64	111.163
1183.3	113.705
1186.96	71.308
1190.62	17.631
1194.27	3.358
1197.92	8.37
1201.57	66.718
1205.22	10.07
1208.87	111.307
1212.51	99.361
1216.16	108.997
1219.8	73.276
1223.44	80.538
1227.08	16.801
1230.72	62.026
1234.35	24.847
1237.98	20.546
1241.62	19.34
1245.25	75.037
1248.87	79.632
1252.5	92.321
1256.12	60.109
1259.75	35.561
1263.37	45.286
1266.99	42.267
1270.61	4.098
1274.22	121.223
1277.84	27.247
1281.45	13.114
1285.06	37.788
1288.67	11.315
1292.28	13.746
1295.88	65.101
1299.49	48.371
1303.09	47.603
1306.69	74.543
1310.29	93.425
1313.89	29.192
1317.48	92.824
1321.08	36.993
1324.67	24.683
1328.26	35.521
1331.85	32.491
1335.44	31.239
1339.02	36.889
1342.61	97.19
1346.19	98.739
1349.77	51.057
1353.35	71.499
1356.92	14.704
1360.5	7.48
1364.07	15.583
1367.64	52.793
1371.21	93.706
1374.78	60.524
1378.35	153.272
1381.91	115.378
1385.48	116.387
1389.04	86.551
1392.6	139.401
1396.16	46.985
1399.71	14.176
1403.27	37.163
1406.82	101.229
1410.38	78.115
1413.92	143.646
1417.47	122.947
1421.02	115.632
1424.57	90.089
1428.11	84.871
1431.65	67.943
1435.19	85.441
1438.73	48.634
1442.27	66.589
1445.8	54.551
1449.33	100.841
1452.87	149.311
1456.4	169.25
1459.92	173.287
1463.45	202.361
1466.98	169.533
1470.5	93.384
1474.02	120.808
1477.54	28.247
1481.06	29.489
1484.58	58.395
1488.09	56.069
1491.61	84.505
1495.12	93.617
1498.63	77.24
1502.14	124.442
1505.64	92.479
1509.15	102.543
1512.65	54.423
1516.15	0.455
