Measurement: Raman, 514 nm, ccw, Raman Data Processed
Mineral: Sanbornite
Rruff sample: R050001
Ideal chemistry: BaSi_2_O_5_
Locality: Empire #1 mine, Fresno County, California, USA
Source: University of Arizona Mineral Museum
Description: An aggregate of white to colorless pearly anhedral plates
Measured chemistry: Ba_1.00_Si_2.00_O_5_
Pin_id: M00487
Orientation: Laser parallel to -b* (0 -1 0). Fiducial mark perpendicular to laser is parallel to c [0 0 1]
Raman shift (cm-1)	intensity
49.184	0
53.401	2.911
57.617	57.685
61.83	64.329
66.041	39.861
70.25	2.994
74.456	43.182
78.661	9.095
82.863	9.495
87.064	13.154
91.262	425.881
95.458	1111.52
99.652	1606.99
103.843	3688.29
108.033	1994.29
112.22	1194.88
116.406	1709.96
120.589	1665.49
124.77	1246.39
128.949	837.642
133.126	648.825
137.301	615.107
141.473	598.226
145.644	602.875
149.812	612.263
153.979	519.001
158.143	673.902
162.305	1311.83
166.465	2265.8
170.623	2276.82
174.778	1363.91
178.932	702.057
183.083	526.272
187.233	580.553
191.38	639.9
195.525	533.311
199.669	360.784
203.81	229.318
207.949	204.914
212.085	227.572
216.22	424.057
220.353	676.216
224.483	806.342
228.612	716.348
232.738	701.06
236.863	956.22
240.985	2091.6
245.105	4763.07
249.223	5477.63
253.339	2850.54
257.453	1407.76
261.565	1127.43
265.675	1258.91
269.783	1476.51
273.888	1571.2
277.992	2059.99
282.093	3219.86
286.193	5376.8
290.29	7955.82
294.386	8124.9
298.479	5752.04
302.57	3579.24
306.659	3250.48
310.746	5899.78
314.831	10400.1
318.914	8131.46
322.995	3182.84
327.074	1830.25
331.151	2206.67
335.226	2614.12
339.299	3660.59
343.37	4116.08
347.438	1870.59
351.505	648.122
355.57	312.685
359.632	113.289
363.693	91.935
367.751	27.638
371.808	76.394
375.862	99.177
379.914	80.982
383.965	66.788
388.013	72.626
392.06	12.517
396.104	4.593
400.146	49.786
404.186	42.184
408.225	31.762
412.261	34.483
416.295	16.319
420.327	1.254
424.357	128.74
428.386	358.813
432.412	495.846
436.436	273.874
440.458	133.896
444.478	141.909
448.496	228.913
452.513	584.904
456.527	1162.88
460.539	1390.84
464.549	883.788
468.557	956.713
472.563	3176.62
476.567	7272.5
480.57	3574.36
484.57	897.191
488.568	483.027
492.564	476.806
496.558	480.643
500.551	531.566
504.541	669.352
508.529	938.115
512.515	1256.88
516.5	1875.93
520.482	3043.72
524.462	5392.93
528.441	11480.4
532.417	23500.9
536.391	28340.9
540.364	17219.7
544.334	8023.5
548.303	4089.72
552.269	2371.08
556.234	1524.25
560.197	1119.99
564.157	897.875
568.116	690.508
572.073	589.102
576.027	469.084
579.98	427.879
583.931	375.784
587.88	337.655
591.827	326.349
595.772	466.029
599.715	356.679
603.656	229.277
607.595	182.815
611.532	149.295
615.468	120.716
619.401	133.073
623.332	65.416
627.262	91.643
631.189	104.804
635.115	124.898
639.039	91.974
642.96	49.97
646.88	83.86
650.798	67.77
654.714	29.68
658.628	49.39
662.54	19.454
666.45	15.971
670.358	1.423
674.264	24.737
678.169	13.908
682.071	6.063
685.972	12.785
689.87	18.482
693.767	34.066
697.662	0.456
701.555	14.089
705.446	1.886
709.335	9.172
713.222	13.195
717.107	10.073
720.99	11.895
724.872	46.588
728.751	26.302
732.629	33.156
736.504	47.908
740.378	19.332
744.25	97.507
748.12	312.157
751.988	730.45
755.854	800.038
759.719	432.425
763.581	253.715
767.442	112.475
771.3	83.618
775.157	89.69
779.012	97.689
782.865	80.617
786.716	100.457
790.565	67.326
794.413	43.05
798.258	79.88
802.102	43.471
805.943	74.997
809.783	71.286
813.621	45.712
817.457	79.814
821.292	36.499
825.124	35.619
828.954	86.768
832.783	103.535
836.61	155.034
840.435	161.861
844.258	115.787
848.079	94.217
851.898	124.933
855.715	59.424
859.531	23.005
863.345	22.961
867.157	11.302
870.967	1.66
874.775	13.93
878.581	15.682
882.386	7.565
886.188	14.061
889.989	8.547
893.788	5.24
897.585	26.783
901.38	27.43
905.174	13.166
908.965	9.053
912.755	28.265
916.543	6.522
920.329	43.682
924.113	51.888
927.895	15.102
931.676	19.275
935.454	35.511
939.231	3.759
943.006	28.023
946.78	42.222
950.551	18.514
954.32	31.812
958.088	8.086
961.854	7.49
965.618	39.652
969.38	82.586
973.141	88.052
976.9	130.535
980.656	352.104
984.411	821.74
988.165	795.468
991.916	426.301
995.665	346.222
999.413	414.216
1003.16	236.301
1006.9	205.471
1010.65	178.745
1014.39	185.111
1018.12	184.076
1021.86	252.187
1025.6	236.884
1029.33	259.077
1033.06	663.031
1036.79	1254.07
1040.52	754.245
1044.25	540.493
1047.97	498.886
1051.69	635.435
1055.41	876.848
1059.13	1203.72
1062.85	1936.24
1066.57	3504.64
1070.28	8955.98
1073.99	32330.7
1077.7	49595.5
1081.41	17890.4
1085.12	6099.41
1088.82	2904.39
1092.52	1820.51
1096.22	1217.68
1099.92	859.701
1103.62	637.274
1107.32	473.617
1111.01	388.851
1114.7	294.304
1118.39	263.813
1122.08	241.376
1125.77	200.056
1129.45	219.718
1133.14	201.216
1136.82	178.529
1140.5	189.574
1144.18	170.604
1147.85	153.852
1151.53	203.528
1155.2	289.241
1158.87	334.507
1162.54	659.69
1166.21	1143.08
1169.88	2205.74
1173.54	2141.65
1177.2	1247.43
1180.86	565.883
1184.52	357.719
1188.18	197.773
1191.83	162.127
1195.49	88.711
1199.14	166.173
1202.79	111.665
1206.44	70.608
1210.08	60.948
1213.73	25.276
1217.37	59.083
1221.01	49.567
1224.65	32.624
1228.29	43.895
1231.93	100.066
1235.56	87.558
1239.19	73.726
1242.83	77.795
1246.46	36.866
1250.08	15.091
1253.71	37.216
1257.33	51.27
1260.96	61.494
1264.58	74.669
1268.19	17.549
1271.81	32.379
1275.43	60.145
1279.04	4.76
1282.65	8.196
1286.27	21.473
1289.87	44.705
1293.48	1.018
1297.09	15.046
1300.69	25.822
1304.29	21.514
1307.89	38.011
1311.49	16.443
1315.09	14.099
1318.68	16.896
1322.28	43.122
1325.87	3.159
1329.46	6.795
1333.05	56.458
1336.63	23.023
1340.22	6.429
1343.8	45.778
1347.38	4.001
1350.96	73.135
1354.54	20.216
1358.12	74.239
1361.69	66.21
1365.26	94.203
1368.83	89.024
1372.4	100.71
1375.97	74.066
1379.54	40.262
1383.1	73.366
1386.66	89.014
1390.23	64.029
1393.79	56.857
1397.34	147.554
1400.9	65.791
1404.45	47.816
1408.01	83.598
1411.56	104.96
1415.11	133.026
1418.66	91.429
1422.2	43.437
1425.75	104.387
1429.29	71.08
1432.83	79.596
1436.37	120.95
1439.91	116.128
1443.44	57.376
1446.98	94.746
1450.51	114.749
1454.04	109.562
1457.57	78.709
1461.1	71.451
1464.63	85.241
1468.15	66.534
1471.67	25.045
1475.19	58.994
1478.71	68.403
1482.23	131.501
1485.75	109.197
1489.26	71.081
1492.78	9.284
1496.29	6.044
1499.8	5.496
1503.31	46.905
1506.81	45.341
1510.32	60.58
1513.82	91.011
1517.32	55.408
