Measurement: Raman, 514 nm, ccw, Raman Data Processed
Mineral: Scheelite
Rruff sample: R040172
Ideal chemistry: CaWO_4_
Locality: Sonora, Mexico
Source: University of Arizona Mineral Museum
Description: Colorless water worn single crystal
Measured chemistry: Ca_1.01_W_1.00_O_4_
Pin_id: L00329
Orientation: Laser parallel to a* (1 0 0). Fiducial mark perpendicular to laser is parallel to c [0 0 1]
Raman shift (cm-1)	intensity
60.254	0
64.467	12.728
68.678	19.787
72.886	8.519
77.092	25.996
81.296	23.577
85.498	30.934
89.697	28.57
93.895	27.487
98.09	35.189
102.283	72.058
106.473	79.394
110.662	198.981
114.848	785.528
119.032	605.137
123.214	198.903
127.394	135.155
131.571	65.408
135.747	25.706
139.92	38.049
144.091	25.442
148.26	18.928
152.426	9.516
156.591	0.806
160.753	3.948
164.913	2.237
169.071	16.374
173.227	17.475
177.381	2.558
181.532	1.626
185.681	6.678
189.828	28.283
193.973	61.229
198.116	96.147
202.257	156.971
206.395	566.807
210.532	1909.67
214.666	1268.57
218.798	452.513
222.928	215.512
227.055	169.785
231.181	149.49
235.304	160.253
239.426	137.024
243.545	129.793
247.662	160.546
251.777	195.282
255.889	194.988
260	208.646
264.108	236.26
268.215	261.442
272.319	305.412
276.421	333.915
280.521	347.349
284.619	408.63
288.714	477.858
292.808	574.084
296.899	732.331
300.989	889.597
305.076	1155.88
309.161	1675.16
313.244	2359.39
317.325	3293.48
321.403	4933.03
325.48	9659.67
329.554	24518.6
333.627	40636
337.697	21072.8
341.765	8542.25
345.831	4371.25
349.895	2646.31
353.957	1729.77
358.017	1326.3
362.075	1058.85
366.13	839.956
370.184	642.541
374.235	543.034
378.285	428.229
382.332	367.189
386.377	360.781
390.42	307.916
394.461	287.35
398.5	292.659
402.537	295.521
406.571	304.777
410.604	255.776
414.635	206.986
418.663	152.119
422.69	94.59
426.714	105.042
430.736	106.152
434.757	89.918
438.775	75.435
442.791	58.698
446.805	52.164
450.817	46.626
454.827	49.091
458.835	39.564
462.84	17.084
466.844	19.511
470.846	20.952
474.845	41.456
478.843	22.854
482.839	22.834
486.832	22.355
490.823	12.738
494.813	5.127
498.8	12.529
502.785	7.795
506.769	8.578
510.75	6.834
514.729	5.171
518.706	6.489
522.681	17.79
526.655	4.061
530.626	26.303
534.595	4.474
538.562	4.287
542.527	8.133
546.489	9.975
550.45	8.053
554.409	8.09
558.366	8.082
562.321	11.196
566.274	5.695
570.225	16.452
574.173	2.344
578.12	8.098
582.065	11.069
586.008	5.546
589.949	2.418
593.887	20.201
597.824	7.236
601.759	31.193
605.692	13.779
609.622	17.311
613.551	8.82
617.478	19.418
621.402	26.933
625.325	23.434
629.246	5.857
633.165	29.256
637.082	3.364
640.996	28.981
644.909	18.304
648.82	13.607
652.729	26.827
656.636	1.09
660.54	16.282
664.443	22.982
668.344	8.71
672.243	10.846
676.14	37.93
680.035	14.013
683.928	30.473
687.819	35.528
691.708	35.208
695.595	19.609
699.48	8.741
703.363	10.64
707.244	17.076
711.124	20.211
715.001	12.542
718.876	37.229
722.749	46.378
726.621	33.674
730.49	12.509
734.358	2.439
738.223	1.415
742.087	3.995
745.948	0.808
749.808	18.388
753.666	14.292
757.521	1.369
761.375	0.545
765.227	19.474
769.077	22.502
772.925	19.333
776.771	2.788
780.615	46.187
784.457	59.052
788.298	155.053
792.136	381.48
795.972	1362.51
799.807	942.425
803.639	276.498
807.47	107.596
811.298	83.454
815.125	55.62
818.95	75.829
822.773	65.169
826.594	70.46
830.413	107.784
834.23	146.134
838.045	149.532
841.858	200.957
845.67	225.411
849.479	267.907
853.287	310.434
857.093	362.008
860.896	479.625
864.698	534.279
868.498	630.203
872.296	793.934
876.092	1056.71
879.886	1898.53
883.679	2819.95
887.469	2713.19
891.258	2593.92
895.044	3462.25
898.829	5930.96
902.612	12121
906.393	30289.4
910.172	61677.2
913.949	43096.3
917.724	13956.3
921.498	5631.65
925.269	3044.77
929.039	2160.02
932.806	1711.32
936.572	1322.65
940.336	997.028
944.098	770.426
947.859	611.954
951.617	486.815
955.373	389.278
959.128	344.803
962.881	286.348
966.631	242.255
970.38	214.199
974.128	217.45
977.873	166.72
981.616	163.455
985.358	137.298
989.097	136.454
992.835	147.222
996.571	108.742
1000.3	95.563
1004.04	75.653
1007.77	73.71
1011.5	59.699
1015.22	61.589
1018.95	37.523
1022.67	32.496
1026.39	37.487
1030.11	34.488
1033.83	58.076
1037.54	23.529
1041.26	37.57
1044.97	11.753
1048.68	18.83
1052.39	0.039
1056.09	18.06
1059.8	33.211
1063.5	7.615
1067.2	24.775
1070.9	2.932
1074.6	7.107
1078.29	3.265
1081.99	9.426
1085.68	3.767
1089.37	10.932
1093.06	11.096
1096.74	23.29
1100.43	18.451
1104.11	11.584
1107.79	15.292
1111.47	10.176
1115.15	13.938
1118.82	4.969
1122.5	15.939
1126.17	17.036
1129.84	18.997
1133.51	3.978
1137.17	10.93
1140.84	2.865
1144.5	4.757
1148.16	2.861
1151.82	29.757
1155.48	29.657
1159.13	28.462
1162.79	13.865
1166.44	25.535
1170.09	34.354
1173.74	24.089
1177.38	18.824
1181.03	40.532
1184.67	47.221
1188.31	41.91
1191.95	32.592
1195.59	18.237
1199.22	24.884
1202.86	26.481
1206.49	22.06
1210.12	41.36
1213.75	23.403
1217.38	20.741
1221	44.233
1224.62	25.645
1228.24	7.1
1231.86	24.537
1235.48	37.936
1239.1	25.327
1242.71	20.945
1246.33	23.567
1249.94	34.157
1253.55	37.605
1257.15	17.372
1260.76	25.027
1264.36	49.842
1267.96	37.803
1271.56	29.669
1275.16	14.072
1278.76	28.835
1282.35	45.959
1285.95	15.017
1289.54	16.413
1293.13	11.411
1296.72	15.285
1300.3	21
1303.89	23.026
1307.47	10.026
1311.05	6.986
1314.63	40.92
1318.21	16.818
1321.78	22.677
1325.36	27.51
1328.93	18.313
1332.5	13.096
1336.07	47.739
1339.63	9.488
1343.2	26.22
1346.76	23.933
1350.33	10.629
1353.88	19.302
1357.44	14.751
1361	16.424
1364.55	23.079
1368.11	17.981
1371.66	13.493
1375.21	27.105
1378.76	14.786
1382.3	24.627
1385.85	20.501
1389.39	2.311
1392.93	2.142
1396.47	6.053
1400.01	15.873
1403.54	17.739
1407.08	31.299
1410.61	39.125
1414.14	43.275
1417.67	1.05
1421.2	11.684
1424.72	25.423
1428.25	29.091
1431.77	39.75
1435.29	29.438
1438.81	30.164
1442.33	44.897
1445.84	20.171
1449.35	44.286
1452.87	55
1456.38	66.921
1459.88	44.755
1463.39	59.393
1466.9	44.408
1470.4	26.772
1473.9	27.203
1477.4	15.58
1480.9	31.879
1484.4	32.078
1487.89	14.189
1491.39	39.635
1494.88	29.31
1498.37	45.12
1501.86	30.121
1505.34	2.504
1508.83	23.357
1512.31	12.077
1515.79	0.021
