Measurement: Raman, 514 nm, ccw, Raman Data Processed
Mineral: Scheelite
Rruff sample: R040172
Ideal chemistry: CaWO_4_
Locality: Sonora, Mexico
Source: University of Arizona Mineral Museum
Description: Colorless water worn single crystal
Measured chemistry: Ca_1.01_W_1.00_O_4_
Pin_id: L00329
Orientation: Laser parallel to a* (1 0 0). Fiducial mark perpendicular to laser is parallel to c [0 0 1]
Raman shift (cm-1)	intensity
53.228	0
57.445	45.594
61.659	64.568
65.871	71.171
70.081	30.618
74.288	4.207
78.494	87.742
82.697	2227.36
86.898	2080.12
91.097	452.49
95.293	313.557
99.488	250.459
103.68	335.272
107.87	765.048
112.057	3106.13
116.243	8681.77
120.426	3233.75
124.608	1453.71
128.787	705.818
132.963	249.072
137.138	153.465
141.311	98.986
145.481	64.615
149.649	22.308
153.815	24.082
157.979	4.961
162.14	8.94
166.3	3.016
170.457	11.827
174.612	19.621
178.765	5.292
182.915	32.085
187.064	84.532
191.21	309.047
195.355	841.603
199.497	667.094
203.637	559.651
207.774	1744.29
211.91	3996.01
216.043	1575.82
220.175	490.705
224.304	233.647
228.431	130.587
232.556	67.411
236.678	31.262
240.799	38.804
244.917	33.898
249.034	39.003
253.148	30.168
257.26	69.367
261.37	129.614
265.477	204.89
269.583	372.199
273.686	610.549
277.788	548.899
281.887	370.116
285.984	299.354
290.079	329.642
294.172	379.979
298.263	434.352
302.351	537.759
306.438	748.2
310.522	1020.7
314.604	1446.2
318.684	2186.76
322.762	3689.3
326.838	7411.05
330.912	17604.1
334.984	21223.3
339.053	10020.4
343.121	4306.67
347.186	2247.19
351.25	1453.33
355.311	1050.28
359.37	765.068
363.427	560.153
367.482	456.285
371.535	406.36
375.585	351.229
379.634	352.492
383.68	412.803
387.725	499.103
391.767	880.702
395.808	1782.31
399.846	4256.9
403.882	3648.47
407.916	1929.1
411.948	902.808
415.978	474.14
420.006	280.592
424.031	226.381
428.055	168.027
432.077	107.761
436.096	106.875
440.114	76.959
444.129	66.481
448.142	54.905
452.154	45.831
456.163	38.097
460.17	63.492
464.175	23.102
468.178	15.651
472.179	20.368
476.178	34.383
480.175	31.328
484.17	16.289
488.163	21.967
492.153	12.024
496.142	7.114
500.129	16.9
504.113	4.012
508.096	27.724
512.077	9.992
516.055	33.49
520.032	16.917
524.006	6.278
527.978	17.566
531.949	4.214
535.917	1.996
539.883	5.779
543.848	3.709
547.81	6.366
551.77	19.642
555.728	1.053
559.685	1.547
563.639	2.855
567.591	17.837
571.541	10.668
575.489	17.384
579.435	13.345
583.38	11.24
587.322	5.111
591.262	3.928
595.2	11.055
599.136	29.478
603.07	3.054
607.002	17.334
610.932	12.355
614.86	14.868
618.786	11.035
622.71	3.863
626.632	9.148
630.552	6.109
634.471	29.027
638.387	18.862
642.301	12.345
646.213	3.766
650.123	0.203
654.031	8.215
657.937	16.411
661.842	0.872
665.744	0.417
669.644	9.449
673.542	25.663
677.438	11.87
681.333	17.695
685.225	27.655
689.115	4.077
693.004	16.886
696.89	5.081
700.775	20.566
704.657	12.511
708.538	3.891
712.416	29.239
716.293	33.395
720.167	43.822
724.04	43.666
727.911	6.134
731.78	1.555
735.646	1.763
739.511	8.62
743.374	7.473
747.235	18.626
751.094	16.945
754.951	14.481
758.806	17.994
762.659	25.61
766.511	41.168
770.36	61.461
774.207	91.567
778.053	166.039
781.896	265.411
785.738	432.191
789.577	979.689
793.415	3499.23
797.251	8274.94
801.084	3010.31
804.916	922.935
808.746	416.675
812.574	214.226
816.4	121.63
820.224	127.487
824.047	135.841
827.867	136.932
831.685	241.123
835.502	476.394
839.316	652.735
843.129	368.041
846.94	273.946
850.749	274.355
854.556	305.993
858.361	364.623
862.164	382.432
865.965	449.324
869.764	521.285
873.562	698.328
877.357	1082.45
881.151	1991.66
884.942	2650.96
888.732	2115.36
892.52	2250.78
896.306	3490.12
900.09	6552.32
903.872	13736
907.653	32814.7
911.431	54063.6
915.208	26043
918.982	9102
922.755	4043.15
926.526	2349.37
930.295	1614.37
934.062	1280.77
937.827	1083.2
941.59	792.237
945.352	660.333
949.112	513.034
952.869	335.322
956.625	280.216
960.379	276.198
964.131	223.699
967.881	188.63
971.63	166.473
975.376	156.057
979.121	151.952
982.864	134.588
986.605	130.474
990.344	115.923
994.081	111.137
997.816	76.2
1001.55	87.49
1005.28	52.498
1009.01	116.53
1012.74	68.594
1016.47	52.886
1020.19	56.018
1023.91	45.133
1027.63	37.337
1031.35	54.489
1035.07	2.353
1038.78	19.813
1042.49	33.992
1046.21	28.211
1049.92	11.409
1053.62	18.615
1057.33	36.824
1061.03	11.037
1064.73	17.24
1068.44	3.564
1072.13	23.606
1075.83	19.777
1079.53	1.93
1083.22	3.951
1086.91	13.133
1090.6	20.205
1094.29	18.254
1097.97	11.711
1101.66	0.712
1105.34	2.737
1109.02	13.802
1112.7	3.943
1116.37	14.86
1120.05	1.601
1123.72	3.294
1127.39	17.074
1131.06	5.449
1134.73	4.911
1138.39	26.323
1142.06	25.728
1145.72	12.039
1149.38	31.333
1153.04	34.588
1156.69	26.183
1160.35	9.404
1164	37.67
1167.65	47.91
1171.3	57.962
1174.95	60.041
1178.6	56.259
1182.24	62.157
1185.88	42.375
1189.52	30.438
1193.16	86.369
1196.8	51.164
1200.43	94.991
1204.07	84.779
1207.7	113.065
1211.33	86.325
1214.96	90.902
1218.58	83.835
1222.21	93.199
1225.83	104.885
1229.45	82.246
1233.07	110.756
1236.69	96.44
1240.3	83.985
1243.92	53.243
1247.53	71.537
1251.14	65.21
1254.75	58.123
1258.35	71.448
1261.96	113.776
1265.56	95.505
1269.16	86.752
1272.76	71.325
1276.36	52.824
1279.96	48.518
1283.55	46.975
1287.14	77.45
1290.73	55.92
1294.32	55.298
1297.91	46.86
1301.5	41.355
1305.08	20.586
1308.66	30.974
1312.24	61.223
1315.82	32.446
1319.4	46.545
1322.97	49.618
1326.55	43.639
1330.12	45.64
1333.69	30.517
1337.26	45.368
1340.82	42.17
1344.39	14.91
1347.95	3.404
1351.51	35.654
1355.07	39.267
1358.63	32.814
1362.18	42.33
1365.74	40.782
1369.29	9.162
1372.84	28.521
1376.39	19.839
1379.94	5.565
1383.48	13.473
1387.03	24.568
1390.57	24.625
1394.11	23.684
1397.65	38.77
1401.19	30.923
1404.72	47.035
1408.26	61.137
1411.79	19.707
1415.32	27.374
1418.85	33.384
1422.37	24.004
1425.9	21.263
1429.42	48.901
1432.94	32.495
1436.46	38
1439.98	78.083
1443.5	76.972
1447.01	61.228
1450.53	74.284
1454.04	60.927
1457.55	51.918
1461.05	57.921
1464.56	37.502
1468.07	9.883
1471.57	26.795
1475.07	33.368
1478.57	13.971
1482.07	84.459
1485.56	61.969
1489.06	58.706
1492.55	45.734
1496.04	13.718
1499.53	43.002
1503.02	29.638
1506.5	13.577
1509.99	4.256
1513.47	18.046
1516.95	0.162
