Measurement: Raman, 514 nm, ccw, Raman Data Processed
Mineral: Scheelite
Rruff sample: R040172
Ideal chemistry: CaWO_4_
Locality: Sonora, Mexico
Source: University of Arizona Mineral Museum
Description: Colorless water worn single crystal
Measured chemistry: Ca_1.01_W_1.00_O_4_
Pin_id: L00480
Orientation: Laser parallel to -c* (0 0 -1). Fiducial mark perpendicular to laser is parallel to a [1 0 0]
Raman shift (cm-1)	intensity
57.445	0
61.659	25.874
65.871	65.219
70.081	14.877
74.288	18.873
78.494	271.382
82.697	4438.98
86.898	6200.2
91.097	1405.71
95.293	960.295
99.488	581.8
103.68	341.087
107.87	288
112.057	292.447
116.243	318.369
120.426	203.725
124.608	128.484
128.787	104.627
132.963	67.14
137.138	69.01
141.311	63.218
145.481	39.572
149.649	17.965
153.815	30.462
157.979	46.109
162.14	15.921
166.3	39.906
170.457	49.065
174.612	29.399
178.765	28.904
182.915	34.583
187.064	51.443
191.21	95.487
195.355	201.725
199.497	434.15
203.637	1067.8
207.774	3810.61
211.91	8403.65
216.043	3510.84
220.175	1174.24
224.304	631.04
228.431	366.449
232.556	216.719
236.678	113.053
240.799	52.855
244.917	51.912
249.034	39.204
253.148	18.695
257.26	14.364
261.37	18.196
265.477	34.174
269.583	38.299
273.686	40.55
277.788	61.917
281.887	107.4
285.984	162.988
290.079	220.676
294.172	284.456
298.263	350.322
302.351	494.267
306.438	649.793
310.522	915.007
314.604	1265.17
318.684	1891.58
322.762	3146.36
326.838	6092.05
330.912	12341.4
334.984	15472.1
339.053	9218.99
343.121	4521.25
347.186	2420.69
351.25	1524.02
355.311	1138.34
359.37	877.829
363.427	684.802
367.482	583.638
371.535	546.331
375.585	540.321
379.634	577.728
383.68	708.461
387.725	1097.87
391.767	1865.03
395.808	4154.12
399.846	9863.16
403.882	6604.25
407.916	2090.61
411.948	837.409
415.978	423.573
420.006	251.385
424.031	170.586
428.055	149.881
432.077	94.538
436.096	92.766
440.114	58.64
444.129	63.128
448.142	46.622
452.154	13.085
456.163	26.458
460.17	9.795
464.175	11.094
468.178	4.688
472.179	11.776
476.178	7.194
480.175	17.07
484.17	1.825
488.163	1.278
492.153	4.421
496.142	0.123
500.129	9.66
504.113	0.533
508.096	15.191
512.077	1.044
516.055	14.3
520.032	7.947
524.006	9.643
527.978	23.025
531.949	11.673
535.917	1.477
539.883	8.913
543.848	13.212
547.81	9.211
551.77	2.133
555.728	19.171
559.685	27.386
563.639	11.821
567.591	26.868
571.541	22.464
575.489	4.112
579.435	25.586
583.38	12.004
587.322	33.913
591.262	34.365
595.2	23.077
599.136	22.159
603.07	29.573
607.002	14.599
610.932	30.388
614.86	23.318
618.786	42.162
622.71	36.948
626.632	33.05
630.552	8.724
634.471	6.343
638.387	21.843
642.301	25.638
646.213	14.823
650.123	4.257
654.031	16.287
657.937	6.603
661.842	28.662
665.744	11.151
669.644	14.471
673.542	25.931
677.438	22.572
681.333	17.204
685.225	17.046
689.115	38.978
693.004	20.318
696.89	2.372
700.775	7.044
704.657	15.205
708.538	19.403
712.416	5.384
716.293	13.022
720.167	10.534
724.04	7.969
727.911	6.135
731.78	3.911
735.646	1.242
739.511	7.483
743.374	0.06
747.235	4.961
751.094	23.404
754.951	2.901
758.806	12.233
762.659	24.072
766.511	1.364
770.36	10.449
774.207	6.675
778.053	6.861
781.896	25.112
785.738	1.049
789.577	14.546
793.415	26.715
797.251	109.885
801.084	52.969
804.916	72.789
808.746	59.053
812.574	100.615
816.4	126.053
820.224	151.385
824.047	210.783
827.867	342.315
831.685	656.899
835.502	1552.52
839.316	2514.17
843.129	1307.9
846.94	692.674
850.749	522.143
854.556	530.839
858.361	573.722
862.164	614.65
865.965	672.424
869.764	750.298
873.562	990.321
877.357	1428.01
881.151	2802.8
884.942	3709.15
888.732	2607.32
892.52	2435.2
896.306	3571.21
900.09	6468.17
903.872	13603.2
907.653	32730.5
911.431	56728.7
915.208	28977.1
918.982	10064.9
922.755	4434.67
926.526	2533.24
930.295	1798.04
934.062	1455.77
937.827	1149.67
941.59	924.405
945.352	710.228
949.112	598.325
952.869	447.37
956.625	387.257
960.379	323.185
964.131	258.324
967.881	226.891
971.63	204.177
975.376	193.773
979.121	183.442
982.864	154.711
986.605	144.524
990.344	122.287
994.081	131.616
997.816	121.341
1001.55	115.058
1005.28	71.4
1009.01	60.83
1012.74	45.54
1016.47	70.07
1020.19	19.52
1023.91	68.169
1027.63	49.855
1031.35	15.386
1035.07	16.946
1038.78	22.536
1042.49	48.139
1046.21	31.773
1049.92	15.332
1053.62	9.103
1057.33	3.844
1061.03	5.618
1064.73	25.393
1068.44	9.012
1072.13	10.903
1075.83	21.714
1079.53	3.411
1083.22	6.412
1086.91	15.246
1090.6	1.076
1094.29	20.953
1097.97	15.802
1101.66	5.669
1105.34	13.518
1109.02	7.488
1112.7	0.603
1116.37	0.527
1120.05	11.617
1123.72	8.81
1127.39	8.984
1131.06	15.782
1134.73	21.448
1138.39	11.668
1142.06	0.84
1145.72	4.159
1149.38	4.608
1153.04	3.171
1156.69	4.324
1160.35	5.491
1164	7.134
1167.65	4.284
1171.3	1.062
1174.95	38.002
1178.6	17.523
1182.24	8.028
1185.88	22.517
1189.52	20.282
1193.16	18.667
1196.8	9.653
1200.43	37.693
1204.07	14.061
1207.7	20.548
1211.33	56.888
1214.96	21.239
1218.58	40.203
1222.21	44.458
1225.83	34.583
1229.45	28.77
1233.07	42.697
1236.69	56.889
1240.3	18.967
1243.92	31.769
1247.53	37.636
1251.14	25.763
1254.75	5.211
1258.35	20.669
1261.96	7.968
1265.56	28.259
1269.16	24.074
1272.76	64.944
1276.36	38.675
1279.96	30.463
1283.55	7.152
1287.14	19.631
1290.73	35.123
1294.32	34.268
1297.91	43.893
1301.5	28.429
1305.08	17.674
1308.66	36.098
1312.24	35.575
1315.82	1.726
1319.4	24.149
1322.97	35.371
1326.55	32.87
1330.12	10.184
1333.69	1.535
1337.26	31.709
1340.82	21.997
1344.39	25.203
1347.95	35.321
1351.51	21.423
1355.07	21.505
1358.63	20.747
1362.18	20.709
1365.74	6.737
1369.29	24.699
1372.84	59.719
1376.39	41.753
1379.94	16.962
1383.48	33.299
1387.03	21.535
1390.57	15.559
1394.11	11.625
1397.65	7.128
1401.19	23.029
1404.72	53.112
1408.26	37.351
1411.79	15.526
1415.32	17.818
1418.85	36.153
1422.37	41.274
1425.9	32.287
1429.42	20.554
1432.94	12.037
1436.46	5.687
1439.98	34.297
1443.5	65.97
1447.01	25.573
1450.53	79.206
1454.04	56.938
1457.55	48.405
1461.05	45.492
1464.56	12.76
1468.07	28.034
1471.57	26.27
1475.07	6.472
1478.57	26.857
1482.07	4.245
1485.56	1.573
1489.06	50.868
1492.55	31.433
1496.04	24.188
1499.53	41.102
1503.02	33.457
1506.5	1.754
1509.99	48.398
1513.47	2.069
1516.95	0.123
