Measurement: Raman, 514 nm, ccw, Raman Data Processed
Mineral: Scheelite
Rruff sample: R040173
Ideal chemistry: CaWO_4_
Locality: Santa Cruz, Sonora, Mexico
Source: University of Arizona Mineral Museum
Description: Yellow crystal fragments
Measured chemistry: Ca_1.00_W_1.00_O_4_
Pin_id: M00301
Orientation: Laser parallel to c* (0 0 1). Fiducial mark perpendicular to laser is parallel to a [1 0 0]
Raman shift (cm-1)	intensity
61.962	0
66.157	1.53
70.349	46.855
74.54	306.101
78.729	2464.33
82.916	10177.3
87.101	2767.66
91.284	761.488
95.465	403.42
99.644	219.843
103.82	200.541
107.995	291.973
112.168	633.28
116.339	700.263
120.508	279.55
124.675	169.665
128.84	100.542
133.003	55.067
137.164	19.239
141.323	5.072
145.48	39.417
149.635	19.153
153.788	24.136
157.939	35.463
162.088	15.242
166.235	51.442
170.38	134.472
174.523	269.786
178.664	432.433
182.803	800.637
186.94	1323.39
191.076	1855
195.209	2787.54
199.34	4694.36
203.47	7160.67
207.597	9960.48
211.722	10050.8
215.846	7830.6
219.967	6306.92
224.087	5108.77
228.204	3618.38
232.32	2475.41
236.434	2104.88
240.545	1913.45
244.655	1918.98
248.763	1939.44
252.869	1448.69
256.973	1085.76
261.075	903.781
265.175	691.714
269.273	544.193
273.369	436.072
277.463	364.658
281.556	353.464
285.646	582.697
289.734	957.667
293.821	1061.17
297.905	796.396
301.988	983.846
306.069	1580.57
310.147	1909.78
314.224	2305.16
318.299	2718.7
322.372	3983.87
326.443	7254.03
330.512	12110.3
334.579	11318.5
338.645	7744.03
342.708	5389.98
346.769	4309.34
350.829	5336.1
354.887	6542.25
358.942	4058.8
362.996	2216.76
367.048	2098.11
371.098	2488.87
375.146	1905.02
379.192	1750.56
383.236	1469.49
387.279	1523.8
391.319	1930.49
395.358	3797.54
399.394	6365.95
403.429	5139.71
407.462	2812.82
411.493	1536.3
415.522	1202.14
419.549	1093.35
423.575	656.958
427.598	301.01
431.619	96.576
435.639	23.693
439.657	12.427
443.673	9.818
447.687	15.153
451.699	25.498
455.709	40.205
459.717	125.334
463.724	121.01
467.728	58.233
471.731	40.115
475.732	69.075
479.731	201.536
483.728	299.429
487.723	414.731
491.716	530.385
495.708	621.39
499.697	666.771
503.685	822.518
507.671	991.585
511.655	1060.94
515.637	1239.56
519.617	1464.45
523.596	1653.59
527.572	1753.98
531.547	1855.62
535.52	2010.48
539.491	2196.56
543.46	2502.86
547.427	2728.36
551.393	3056.06
555.356	3514.95
559.318	3984.01
563.278	4390.25
567.236	4686.65
571.192	4908.21
575.147	4768.91
579.099	4397.39
583.05	3814.79
586.999	3243.86
590.946	2802.91
594.891	2627.64
598.834	2578.66
602.776	2547.33
606.715	2612.31
610.653	2803.32
614.589	3086.3
618.523	3238.35
622.456	3026.22
626.386	2627.68
630.315	2241.7
634.242	1967.07
638.167	1765.1
642.09	1562.01
646.012	1416.79
649.931	1290.67
653.849	1207.07
657.765	1146.68
661.679	1080.02
665.592	986.404
669.502	873.236
673.411	702.879
677.318	587.325
681.223	485.568
685.126	413.6
689.028	388.416
692.927	339.01
696.825	279.374
700.721	245.503
704.616	223.391
708.508	258.034
712.399	219.424
716.288	187.559
720.175	201.436
724.06	154.052
727.944	133.407
731.825	108.499
735.705	64.313
739.584	11.786
743.46	19.195
747.334	15.737
751.207	58.911
755.078	44.847
758.947	28.582
762.815	74.07
766.68	67.364
770.544	56.494
774.406	51.394
778.267	55.012
782.125	38.12
785.982	5.685
789.837	143.184
793.69	761.371
797.542	704.283
801.391	140.922
805.239	15.274
809.085	26.245
812.93	29.802
816.772	102.979
820.613	182.86
824.452	400.484
828.29	908.858
832.125	2334.99
835.959	5589.87
839.791	4524.52
843.621	1741.94
847.45	813.125
851.277	522.09
855.102	453.837
858.925	436.372
862.746	416.7
866.566	425.865
870.384	586.981
874.2	933.092
878.015	1798.23
881.828	3461.47
885.639	2749.78
889.448	1919.98
893.256	2179.12
897.061	3452.35
900.865	6735.69
904.668	16388.4
908.468	38570.4
912.267	36932.8
916.064	12733.7
919.86	4779.08
923.653	2230.39
927.445	1314.75
931.236	929.734
935.024	703.861
938.811	498.902
942.596	357.57
946.379	296.093
950.161	221.657
953.94	238.608
957.719	237.017
961.495	226.209
965.27	240.898
969.043	236.684
972.814	250.388
976.583	370.44
980.351	456.591
984.117	596.846
987.882	857.212
991.644	1093.69
995.405	1611.3
999.165	2400.02
1002.92	3396.89
1006.68	4713.89
1010.43	6420.03
1014.18	6831.42
1017.93	5760.13
1021.68	4860.02
1025.43	5111.2
1029.18	5280.32
1032.92	4175.77
1036.66	2754.34
1040.4	2034.23
1044.14	1590.77
1047.88	1271.52
1051.62	1239.56
1055.35	1513.94
1059.08	1960.72
1062.81	2425.91
1066.54	2816.49
1070.27	4184.49
1073.99	6670.94
1077.72	7080.83
1081.44	5291.16
1085.16	3768.91
1088.88	3560.01
1092.59	3985.37
1096.31	3477.9
1100.02	3283.61
1103.73	2571.49
1107.44	1993.57
1111.15	1619.89
1114.86	1391.47
1118.57	1137.27
1122.27	979.262
1125.97	793.431
1129.67	574.777
1133.37	489.302
1137.07	464.005
1140.76	513.885
1144.45	534.944
1148.15	443.18
1151.84	265.594
1155.53	141.187
1159.21	59.958
1162.9	41.096
1166.58	94.128
1170.26	86.314
1173.94	113.705
1177.62	115.39
1181.3	74.455
1184.97	37.775
1188.65	46.238
1192.32	18.262
1195.99	26.919
1199.66	69.758
1203.33	128.777
1206.99	166.984
1210.65	229.381
1214.32	212.968
1217.98	336.73
1221.64	501.669
1225.29	623.78
1228.95	633.063
1232.6	688.512
1236.26	724.125
1239.91	850.904
1243.56	942.847
1247.2	1115.95
1250.85	1307.21
1254.49	1464.58
1258.13	1859.06
1261.78	2216.64
1265.41	2704.33
1269.05	3177.11
1272.69	3578.99
1276.32	3708.98
1279.95	3774.06
1283.59	3725.24
1287.21	3796.54
1290.84	4043.97
1294.47	4301.54
1298.09	4696.27
1301.72	4757.15
1305.34	4770.19
1308.96	4592.11
1312.58	4142.29
1316.19	3704.87
1319.81	3441.57
1323.42	3320.06
1327.03	3044.89
1330.64	3011.99
1334.25	3138.43
1337.86	3243.77
1341.46	3236.69
1345.07	2937.85
1348.67	2525.01
1352.27	2207.63
1355.87	1934.83
1359.46	1743.08
1363.06	1627.81
1366.65	1514
1370.25	1450.36
1373.84	1451.02
1377.43	1523.65
1381.02	1629.57
1384.6	1591.04
1388.18	1496.3
1391.77	1337.73
1395.35	1176.53
1398.93	993.321
1402.51	808.24
1406.08	762.282
1409.66	617.444
1413.23	514.724
1416.8	454.115
1420.37	368.606
1423.94	332.292
1427.51	287.854
1431.08	288.824
1434.64	250.225
1438.2	238.469
1441.76	293.038
1445.32	245.851
1448.88	255.871
1452.43	240.122
1455.99	182.581
1459.54	126.239
1463.09	79.076
1466.64	77.231
1470.19	8.048
1473.74	14.621
1477.28	2.06
1480.83	0.492
1484.37	11.263
1487.91	22.072
1491.45	29.022
1494.98	28.861
1498.52	5.757
1502.05	21.947
1505.59	2.96
1509.12	11.985
1512.65	6.743
1516.17	11.411
1519.7	9.653
1523.23	0.914
1526.75	33.554
1530.27	19.158
1533.79	0
