Measurement: Raman, 514 nm, ccw, Raman Data Processed
Mineral: Scheelite
Rruff sample: R040172
Ideal chemistry: CaWO_4_
Locality: Sonora, Mexico
Source: University of Arizona Mineral Museum
Description: Colorless water worn single crystal
Measured chemistry: Ca_1.01_W_1.00_O_4_
Pin_id: L00480
Orientation: Laser parallel to -c* (0 0 -1). Fiducial mark perpendicular to laser is parallel to a [1 0 0]
Raman shift (cm-1)	intensity
53.228	0
57.445	35.237
61.659	67.159
65.871	60.601
70.081	11.161
74.288	1.038
78.494	49.53
82.697	961.225
86.898	1134.82
91.097	267.171
95.293	210.171
99.488	169.724
103.68	148.72
107.87	155.089
112.057	163.792
116.243	251.805
120.426	204.112
124.608	168.698
128.787	158.547
132.963	114.642
137.138	110.97
141.311	142.415
145.481	114.925
149.649	90.451
153.815	95.079
157.979	99.823
162.14	85.689
166.3	84.684
170.457	116.816
174.612	121.107
178.765	87.527
182.915	117.099
187.064	118.817
191.21	172.655
195.355	232.611
199.497	485.688
203.637	1124.86
207.774	3828.15
211.91	8331.56
216.043	3434.07
220.175	1178.25
224.304	611.667
228.431	370.098
232.556	212.354
236.678	144.815
240.799	88.998
244.917	77.792
249.034	66.728
253.148	31.795
257.26	40.987
261.37	26.289
265.477	21.695
269.583	28.192
273.686	50.778
277.788	41.628
281.887	62.363
285.984	91.621
290.079	129.219
294.172	182.338
298.263	233.372
302.351	310.807
306.438	434.104
310.522	576.579
314.604	827.82
318.684	1232.04
322.762	2100.38
326.838	4082.76
330.912	8756.33
334.984	11124.1
339.053	6385.55
343.121	3080.08
347.186	1588.75
351.25	1083.34
355.311	801.419
359.37	595.887
363.427	423.604
367.482	364.687
371.535	289.722
375.585	245.419
379.634	226.018
383.68	189.28
387.725	236.093
391.767	298.606
395.808	473.618
399.846	906.463
403.882	618.353
407.916	248.737
411.948	81.558
415.978	55.425
420.006	31.841
424.031	21.55
428.055	30.817
432.077	8.877
436.096	1.917
440.114	10.049
444.129	13.672
448.142	12.302
452.154	1.828
456.163	1.227
460.17	0.245
464.175	10.094
468.178	23.947
472.179	16.153
476.178	15.876
480.175	6.83
484.17	5.645
488.163	2.56
492.153	8.697
496.142	7.259
500.129	14.693
504.113	13.612
508.096	7.25
512.077	22.86
516.055	22.425
520.032	2.934
524.006	2.603
527.978	0.82
531.949	10.796
535.917	4.53
539.883	18.808
543.848	4.959
547.81	5.813
551.77	7.394
555.728	12.967
559.685	18.81
563.639	23.844
567.591	8.354
571.541	5.227
575.489	6.936
579.435	4.611
583.38	7.173
587.322	34.385
591.262	30.857
595.2	22.478
599.136	11.032
603.07	15.062
607.002	13.09
610.932	4.121
614.86	23.518
618.786	8.788
622.71	18.645
626.632	10.351
630.552	16.471
634.471	27.683
638.387	20.638
642.301	18.621
646.213	25.414
650.123	5.766
654.031	18.931
657.937	24.767
661.842	15.572
665.744	25.241
669.644	18.984
673.542	10.229
677.438	16.026
681.333	23.278
685.225	7.695
689.115	10.211
693.004	10.696
696.89	9.459
700.775	4.811
704.657	11.209
708.538	8.338
712.416	24.99
716.293	20.433
720.167	5.146
724.04	3.136
727.911	15.967
731.78	16.498
735.646	9.239
739.511	8.109
743.374	1.578
747.235	3.356
751.094	2.435
754.951	10.426
758.806	13.504
762.659	6.313
766.511	8.294
770.36	16.789
774.207	14.726
778.053	31.833
781.896	32.913
785.738	44.106
789.577	52.309
793.415	101.739
797.251	200.057
801.084	145.4
804.916	136.442
808.746	187.842
812.574	182.269
816.4	287.723
820.224	369.199
824.047	573.705
827.867	947.252
831.685	2001.85
835.502	4931.5
839.316	7442.19
843.129	3515.92
846.94	1585.69
850.749	1036.51
854.556	856.376
858.361	795.32
862.164	798.634
865.965	795.658
869.764	886.871
873.562	1074.62
877.357	1561.45
881.151	2830.75
884.942	3682.09
888.732	2576.35
892.52	2477.5
896.306	3547.65
900.09	6414.21
903.872	13649.6
907.653	32566.9
911.431	55525.9
915.208	27894.5
918.982	9833.11
922.755	4304.8
926.526	2517.52
930.295	1805.31
934.062	1438.13
937.827	1148
941.59	934.131
945.352	700.09
949.112	562.553
952.869	419.05
956.625	355.509
960.379	314.71
964.131	281.73
967.881	227.93
971.63	204.32
975.376	190.195
979.121	175.616
982.864	150.133
986.605	156.789
990.344	143.198
994.081	133.539
997.816	75.525
1001.55	97.447
1005.28	75.86
1009.01	71.608
1012.74	53.437
1016.47	62.057
1020.19	54.833
1023.91	63.515
1027.63	61.313
1031.35	29.061
1035.07	25.341
1038.78	10.806
1042.49	33.866
1046.21	35.816
1049.92	35.721
1053.62	34.672
1057.33	14.336
1061.03	15.65
1064.73	4.349
1068.44	24.661
1072.13	51.684
1075.83	46.737
1079.53	19.787
1083.22	23.952
1086.91	1.981
1090.6	9.093
1094.29	4.72
1097.97	9.654
1101.66	6.6
1105.34	0.445
1109.02	1.468
1112.7	1.684
1116.37	19.704
1120.05	7.283
1123.72	0.707
1127.39	18.216
1131.06	10.275
1134.73	6.609
1138.39	0.51
1142.06	16.602
1145.72	25.441
1149.38	14.25
1153.04	1.045
1156.69	0.05
1160.35	20.647
1164	1.402
1167.65	24.052
1171.3	45.674
1174.95	8.316
1178.6	5.05
1182.24	28.805
1185.88	2.871
1189.52	18.853
1193.16	50.715
1196.8	30.88
1200.43	41.97
1204.07	36.493
1207.7	38.867
1211.33	26.574
1214.96	46.845
1218.58	20.437
1222.21	25.234
1225.83	38.493
1229.45	66.744
1233.07	28.921
1236.69	35.945
1240.3	57.643
1243.92	28.14
1247.53	36.959
1251.14	41.03
1254.75	21.279
1258.35	39.513
1261.96	28.235
1265.56	41.854
1269.16	35.539
1272.76	51.256
1276.36	57.5
1279.96	21.813
1283.55	3.555
1287.14	20.639
1290.73	21.869
1294.32	23.152
1297.91	14.198
1301.5	28.177
1305.08	24.773
1308.66	44.156
1312.24	20.751
1315.82	12.249
1319.4	20.611
1322.97	1.948
1326.55	14.28
1330.12	3.608
1333.69	33.752
1337.26	17.966
1340.82	37.226
1344.39	17.439
1347.95	20.624
1351.51	3.199
1355.07	22.953
1358.63	13.112
1362.18	4.772
1365.74	15.323
1369.29	31.421
1372.84	40.438
1376.39	40.695
1379.94	7.248
1383.48	5.009
1387.03	16.268
1390.57	21.493
1394.11	22.776
1397.65	30.939
1401.19	26.235
1404.72	30.196
1408.26	46.484
1411.79	32.548
1415.32	8.774
1418.85	43.059
1422.37	22.89
1425.9	44.698
1429.42	16.221
1432.94	20.447
1436.46	27.761
1439.98	8.667
1443.5	57.238
1447.01	64.091
1450.53	51.619
1454.04	55.974
1457.55	33.821
1461.05	39.373
1464.56	25.915
1468.07	33.211
1471.57	7.356
1475.07	48.625
1478.57	20.119
1482.07	47.523
1485.56	12.092
1489.06	16.79
1492.55	23.58
1496.04	34.488
1499.53	34.614
1503.02	20.992
1506.5	20.705
1509.99	3.587
1513.47	0.588
1516.95	3.072
