Measurement: Raman, 514 nm, ccw, Raman Data Processed
Mineral: Scheelite
Rruff sample: R040172
Ideal chemistry: CaWO_4_
Locality: Sonora, Mexico
Source: University of Arizona Mineral Museum
Description: Colorless water worn single crystal
Measured chemistry: Ca_1.01_W_1.00_O_4_
Pin_id: L00329
Orientation: Laser parallel to a* (1 0 0). Fiducial mark perpendicular to laser is parallel to c [0 0 1]
Raman shift (cm-1)	intensity
53.228	0
57.445	38.041
61.659	102.171
65.871	58.633
70.081	2.091
74.288	2.18
78.494	299.348
82.697	6165.31
86.898	6098.43
91.097	1351.53
95.293	859.488
99.488	539.183
103.68	376.043
107.87	354.257
112.057	548.491
116.243	1067.13
120.426	516.162
124.608	255.561
128.787	198.328
132.963	134.451
137.138	90.902
141.311	90.53
145.481	57.244
149.649	62.976
153.815	68.84
157.979	64.862
162.14	48.048
166.3	43.402
170.457	71.923
174.612	45.609
178.765	40.459
182.915	53.473
187.064	106.701
191.21	114.158
195.355	263.879
199.497	476.799
203.637	1171.94
207.774	4156.22
211.91	9459.61
216.043	3745.13
220.175	1246.29
224.304	675.472
228.431	402.496
232.556	217.232
236.678	114.931
240.799	73.286
244.917	52.757
249.034	22.418
253.148	30.249
257.26	21.233
261.37	41.359
265.477	28.621
269.583	60.007
273.686	98.509
277.788	124.121
281.887	111.835
285.984	151.644
290.079	222.541
294.172	338.522
298.263	365.586
302.351	491.779
306.438	686.994
310.522	933.007
314.604	1299.15
318.684	1945.39
322.762	3284.24
326.838	6296.43
330.912	12749.1
334.984	16070.4
339.053	9511.92
343.121	4536.26
347.186	2413.43
351.25	1564.97
355.311	1149.91
359.37	906.859
363.427	671.972
367.482	562.69
371.535	509.733
375.585	530.772
379.634	588.405
383.68	788.52
387.725	1141.75
391.767	1965.35
395.808	4504
399.846	10910.1
403.882	7120.15
407.916	2265.7
411.948	877.996
415.978	450.293
420.006	294.623
424.031	181.023
428.055	159.066
432.077	102.503
436.096	88.218
440.114	87.734
444.129	77.086
448.142	54.433
452.154	14.794
456.163	27.303
460.17	2.614
464.175	12.681
468.178	0.941
472.179	10.827
476.178	5.349
480.175	2.707
484.17	18.03
488.163	28.015
492.153	10.66
496.142	11.842
500.129	20.898
504.113	9.423
508.096	5.742
512.077	10.707
516.055	23.911
520.032	7.346
524.006	0.57
527.978	10.994
531.949	13.243
535.917	4.576
539.883	15.679
543.848	3.868
547.81	3.18
551.77	7.679
555.728	9.577
559.685	0.297
563.639	22.002
567.591	26.578
571.541	30.228
575.489	38.823
579.435	37.073
583.38	3.924
587.322	41.801
591.262	22.336
595.2	45.559
599.136	45.637
603.07	31.811
607.002	34.766
610.932	25.144
614.86	16.492
618.786	29.203
622.71	53.893
626.632	46.523
630.552	52.948
634.471	33.084
638.387	18.71
642.301	25.667
646.213	10.669
650.123	19.911
654.031	20.319
657.937	5.159
661.842	6.23
665.744	8.944
669.644	10.862
673.542	7.69
677.438	20.45
681.333	38.755
685.225	5.093
689.115	7.754
693.004	0.36
696.89	17.415
700.775	9.622
704.657	16.584
708.538	18.177
712.416	10.202
716.293	9.648
720.167	5.504
724.04	0.373
727.911	13.019
731.78	15.696
735.646	17.573
739.511	10.109
743.374	9.711
747.235	3.664
751.094	2.231
754.951	3.613
758.806	6.402
762.659	2.556
766.511	16.637
770.36	24.421
774.207	28.993
778.053	51.147
781.896	70.305
785.738	86.477
789.577	215.669
793.415	698.579
797.251	1797.69
801.084	790.769
804.916	268.799
808.746	145.164
812.574	131.148
816.4	104.895
820.224	112.489
824.047	143.036
827.867	209.856
831.685	403.464
835.502	910.164
839.316	1323.91
843.129	660.707
846.94	438.396
850.749	400.334
854.556	489.16
858.361	532.206
862.164	548.31
865.965	637.349
869.764	705.045
873.562	919.718
877.357	1361.98
881.151	2379.57
884.942	3106.71
888.732	2355.96
892.52	2645.9
896.306	4009.45
900.09	7471.91
903.872	15712.5
907.653	37171.1
911.431	60969.6
915.208	29358.4
918.982	10417.1
922.755	4631.94
926.526	2666.81
930.295	1861.72
934.062	1530.75
937.827	1211.75
941.59	961.794
945.352	771.891
949.112	598.042
952.869	465.235
956.625	353.489
960.379	325.864
964.131	273.193
967.881	240.483
971.63	207.589
975.376	178.6
979.121	146.208
982.864	156.401
986.605	141.782
990.344	143.818
994.081	119.882
997.816	105.52
1001.55	115.176
1005.28	62.135
1009.01	65.599
1012.74	69.687
1016.47	64.549
1020.19	61.529
1023.91	75.533
1027.63	43.596
1031.35	43.567
1035.07	11.586
1038.78	9.657
1042.49	12.836
1046.21	37.108
1049.92	13.582
1053.62	6.753
1057.33	10.903
1061.03	21.076
1064.73	21.266
1068.44	15.462
1072.13	29.686
1075.83	20.916
1079.53	3.858
1083.22	11.371
1086.91	16.606
1090.6	4.854
1094.29	6.27
1097.97	6.366
1101.66	0.313
1105.34	16.033
1109.02	16.226
1112.7	14.502
1116.37	11.256
1120.05	7.953
1123.72	2.152
1127.39	7.319
1131.06	21.563
1134.73	19.488
1138.39	3.518
1142.06	8.543
1145.72	14.546
1149.38	3.307
1153.04	3.807
1156.69	20.071
1160.35	13.951
1164	3.765
1167.65	4.506
1171.3	16.201
1174.95	16.876
1178.6	41.634
1182.24	20.303
1185.88	5.934
1189.52	10.529
1193.16	34.101
1196.8	46.642
1200.43	17.156
1204.07	15.78
1207.7	30.418
1211.33	27.864
1214.96	15.745
1218.58	17.157
1222.21	20.529
1225.83	41.792
1229.45	26.178
1233.07	31.474
1236.69	31.162
1240.3	33.415
1243.92	34.354
1247.53	38.758
1251.14	48.437
1254.75	37.36
1258.35	29.75
1261.96	36.527
1265.56	60.633
1269.16	36.186
1272.76	27.199
1276.36	37.16
1279.96	15.491
1283.55	12.668
1287.14	38.228
1290.73	12.126
1294.32	42.177
1297.91	41.434
1301.5	14.093
1305.08	8.404
1308.66	12.829
1312.24	18.081
1315.82	26.095
1319.4	5.342
1322.97	21.981
1326.55	39.596
1330.12	24.052
1333.69	31.473
1337.26	31.971
1340.82	32.125
1344.39	12.57
1347.95	14.065
1351.51	36.55
1355.07	3.982
1358.63	17.393
1362.18	16.756
1365.74	19.106
1369.29	19.44
1372.84	36.943
1376.39	20.201
1379.94	42.761
1383.48	10.191
1387.03	0.385
1390.57	0.006
1394.11	17.391
1397.65	0.19
1401.19	36.229
1404.72	42.737
1408.26	31.139
1411.79	10.508
1415.32	14.066
1418.85	36.538
1422.37	1.902
1425.9	22.684
1429.42	26.307
1432.94	21.697
1436.46	32.237
1439.98	41.801
1443.5	49.318
1447.01	75.899
1450.53	55.059
1454.04	36.695
1457.55	25.643
1461.05	47.072
1464.56	46.83
1468.07	22.858
1471.57	18.958
1475.07	30.715
1478.57	23.397
1482.07	31.813
1485.56	41.408
1489.06	20.324
1492.55	7.295
1496.04	22.408
1499.53	28.702
1503.02	19.216
1506.5	24.809
1509.99	5.188
1513.47	14.261
