Measurement: Raman, 514 nm, ccw, Raman Data Processed
Mineral: Scheelite
Rruff sample: R040173
Ideal chemistry: CaWO_4_
Locality: Santa Cruz, Sonora, Mexico
Source: University of Arizona Mineral Museum
Description: Yellow crystal fragments
Measured chemistry: Ca_1.00_W_1.00_O_4_
Pin_id: M00301
Orientation: Laser parallel to c* (0 0 1). Fiducial mark perpendicular to laser is parallel to a [1 0 0]
Raman shift (cm-1)	intensity
61.962	0
66.157	20.707
70.349	62.054
74.54	387.034
78.729	2601.17
82.916	11099.9
87.101	3796.87
91.284	975.237
95.465	518.58
99.644	309.265
103.82	307.173
107.995	652.339
112.168	1831.89
116.339	2431.82
120.508	928.519
124.675	623.186
128.84	311.742
133.003	105.039
137.164	31.068
141.323	0.849
145.48	4.597
149.635	38.214
153.788	39.011
157.939	38.08
162.088	35.529
166.235	26.56
170.38	113.088
174.523	207.08
178.664	407.487
182.803	764.535
186.94	1417.17
191.076	1994.71
195.209	3009.1
199.34	4966.65
203.47	7372.75
207.597	10168.4
211.722	11155.7
215.846	8487.54
219.967	6865.98
224.087	5589.02
228.204	3982.99
232.32	2816.05
236.434	2403.66
240.545	2155.43
244.655	2127.23
248.763	2084.02
252.869	1548.67
256.973	1250.15
261.075	1098.6
265.175	946.091
269.273	798.3
273.369	697.92
277.463	558.016
281.556	470.054
285.646	658.825
289.734	979.044
293.821	1106.14
297.905	765.798
301.988	908.38
306.069	1545.19
310.147	1990.29
314.224	2275.85
318.299	2605.44
322.372	3614.6
326.443	6261.06
330.512	10267.8
334.579	10494.2
338.645	7645.01
342.708	5479.29
346.769	4454.02
350.829	5342.2
354.887	6889.83
358.942	4408.93
362.996	2283.49
367.048	2284.51
371.098	2605.32
375.146	2146.91
379.192	1792.29
383.236	1510.11
387.279	1653.37
391.319	2056.05
395.358	4285.17
399.394	6899.69
403.429	5969.63
407.462	3513.98
411.493	1809.75
415.522	1323.94
419.549	1228.58
423.575	765.71
427.598	345.38
431.619	80.676
435.639	17.68
439.657	29.581
443.673	22.677
447.687	10.063
451.699	6.058
455.709	19.19
459.717	80.769
463.724	101.794
467.728	36.334
471.731	82.662
475.732	209.188
479.731	303.238
483.728	422.792
487.723	521.842
491.716	562.34
495.708	670.199
499.697	755.432
503.685	861.066
507.671	977.101
511.655	1093.48
515.637	1304.17
519.617	1528.17
523.596	1688.45
527.572	1833.02
531.547	1924.86
535.52	2012.21
539.491	2286.31
543.46	2665.91
547.427	2883.74
551.393	3260.8
555.356	3712.07
559.318	4320.55
563.278	4749.22
567.236	5075.07
571.192	5201.11
575.147	5219.08
579.099	4925.73
583.05	4315.06
586.999	3636.59
590.946	3143.65
594.891	3004.26
598.834	2952.46
602.776	2995.29
606.715	3037.27
610.653	3239.98
614.589	3560.51
618.523	3759.16
622.456	3513.81
626.386	3080.49
630.315	2650.44
634.242	2328
638.167	2080.44
642.09	1826.75
646.012	1642.91
649.931	1474.92
653.849	1386.32
657.765	1318.22
661.679	1186.04
665.592	1098.07
669.502	959.377
673.411	760.26
677.318	638.921
681.223	505.354
685.126	430.551
689.028	371.504
692.927	299.207
696.825	273.653
700.721	223.835
704.616	226.746
708.508	238.381
712.399	226.734
716.288	198.089
720.175	180.577
724.06	175.064
727.944	149.258
731.825	67.147
735.705	29.665
739.584	0.275
743.46	22.784
747.334	49.036
751.207	63.008
755.078	65.199
758.947	72.164
762.815	103.122
766.68	86.141
770.544	78.127
774.406	44.042
778.267	18.735
782.125	15.937
785.982	184.129
789.837	646
793.69	2570.56
797.542	2965.82
801.391	718.783
805.239	213.444
809.085	46.804
812.93	21.781
816.772	47.328
820.613	108.47
824.452	315.305
828.29	783.864
832.125	2020.15
835.959	5000.17
839.791	4561.93
843.621	1726.43
847.45	782.686
851.277	496.693
855.102	394.459
858.925	425.991
862.746	385.302
866.566	458.457
870.384	588.589
874.2	943.756
878.015	1849.03
881.828	3805.42
885.639	3173.32
889.448	2145.21
893.256	2404.08
897.061	3773.92
900.865	7233.97
904.668	17620.2
908.468	42026
912.267	44860.8
916.064	16010.8
919.86	5803.74
923.653	2640.47
927.445	1537.19
931.236	1031.79
935.024	763.884
938.811	504.571
942.596	325.207
946.379	266.887
950.161	168.617
953.94	174.404
957.719	189.255
961.495	189.4
965.27	192.647
969.043	219.071
972.814	268.41
976.583	312.699
980.351	444.098
984.117	641.615
987.882	866.256
991.644	1177.03
995.405	1717.93
999.165	2630.98
1002.92	3832.18
1006.68	5298.52
1010.43	7131.03
1014.18	7800.05
1017.93	6573.18
1021.68	5519.25
1025.43	5707.55
1029.18	5858.62
1032.92	4802.71
1036.66	3245.75
1040.4	2328.74
1044.14	1805.02
1047.88	1456.51
1051.62	1356.69
1055.35	1617.49
1059.08	2132.18
1062.81	2552.35
1066.54	3066.05
1070.27	4351.28
1073.99	7079.02
1077.72	7878.26
1081.44	5881.93
1085.16	4161.96
1088.88	3972.23
1092.59	4416.68
1096.31	3948.31
1100.02	3644.12
1103.73	2851.13
1107.44	2256.32
1111.15	1805.71
1114.86	1579.35
1118.57	1265.25
1122.27	1058.38
1125.97	832.712
1129.67	615.229
1133.37	491.936
1137.07	470.831
1140.76	525.915
1144.45	563.187
1148.15	474.648
1151.84	268.298
1155.53	129.138
1159.21	23.167
1162.9	60.646
1166.58	133.482
1170.26	86.586
1173.94	139.999
1177.62	102.888
1181.3	47.136
1184.97	79.57
1188.65	22.164
1192.32	26.286
1195.99	44.877
1199.66	53.668
1203.33	161.664
1206.99	181.85
1210.65	229.231
1214.32	311.8
1217.98	357.553
1221.64	609.487
1225.29	666.6
1228.95	759.892
1232.6	777.37
1236.26	824.039
1239.91	986.89
1243.56	1111.92
1247.2	1255.14
1250.85	1519.49
1254.49	1822.95
1258.13	2120.52
1261.78	2584.2
1265.41	3014.99
1269.05	3562.89
1272.69	4104.89
1276.32	4221
1279.95	4402.21
1283.59	4387.54
1287.21	4498
1290.84	4728.62
1294.47	5091.4
1298.09	5501.36
1301.72	5762.49
1305.34	5696.79
1308.96	5553.64
1312.58	5068.94
1316.19	4731.22
1319.81	4429.11
1323.42	4303.66
1327.03	4047.51
1330.64	4183.03
1334.25	4359.84
1337.86	4667.47
1341.46	4745.52
1345.07	4292.44
1348.67	3796.57
1352.27	3146.31
1355.87	2763.55
1359.46	2443.67
1363.06	2226.17
1366.65	2152.06
1370.25	1943.25
1373.84	1938.8
1377.43	1925.25
1381.02	2031.62
1384.6	2001.29
1388.18	1890.16
1391.77	1652.25
1395.35	1408.39
1398.93	1190.67
1402.51	1039.1
1406.08	902.667
1409.66	754.377
1413.23	664.223
1416.8	613.196
1420.37	507.294
1423.94	425.925
1427.51	406.01
1431.08	344.878
1434.64	329.024
1438.2	331.809
1441.76	338.652
1445.32	337.306
1448.88	309.02
1452.43	341.025
1455.99	305.245
1459.54	197.644
1463.09	125.279
1466.64	82.602
1470.19	44.794
1473.74	37.975
1477.28	0.296
1480.83	6.85
1484.37	14.55
1487.91	1.003
1491.45	20.595
1494.98	6.578
1498.52	7.764
1502.05	33.9
1505.59	52.964
1509.12	43.643
1512.65	35.273
1516.17	2.067
1519.7	36.799
1523.23	42.658
1526.75	35.227
1530.27	5.181
