Measurement: Raman, 514 nm, ccw, Raman Data Processed
Mineral: Scheelite
Rruff sample: R040173
Ideal chemistry: CaWO_4_
Locality: Santa Cruz, Sonora, Mexico
Source: University of Arizona Mineral Museum
Description: Yellow crystal fragments
Measured chemistry: Ca_1.00_W_1.00_O_4_
Pin_id: M00301
Orientation: Laser parallel to c* (0 0 1). Fiducial mark perpendicular to laser is parallel to a [1 0 0]
Raman shift (cm-1)	intensity
61.962	0
66.157	2.858
70.349	62.364
74.54	329.046
78.729	2118.61
82.916	9074.48
87.101	3315.85
91.284	819.508
95.465	411.184
99.644	225.349
103.82	185.193
107.995	258.584
112.168	457.088
116.339	527.703
120.508	213.58
124.675	155.176
128.84	87.447
133.003	32.315
137.164	11.785
141.323	12.132
145.48	38.42
149.635	15.046
153.788	34.039
157.939	20.899
162.088	4.447
166.235	19.987
170.38	98.729
174.523	250.753
178.664	412.088
182.803	727.937
186.94	1258.26
191.076	1731.6
195.209	2612.98
199.34	4417.69
203.47	6808.84
207.597	9746.45
211.722	10088.5
215.846	7537.05
219.967	6158.06
224.087	4908.55
228.204	3448.74
232.32	2332.66
236.434	2043.88
240.545	1861.17
244.655	1828.45
248.763	1808.68
252.869	1365.77
256.973	1022.75
261.075	820.757
265.175	657.612
269.273	499.233
273.369	368.347
277.463	306.35
281.556	344.81
285.646	581.641
289.734	924.727
293.821	1007.76
297.905	788.644
301.988	947.332
306.069	1517.02
310.147	1934.11
314.224	2216.03
318.299	2676.43
322.372	3968.51
326.443	7123.8
330.512	11722.6
334.579	10971.8
338.645	7488.51
342.708	5198.55
346.769	4276.96
350.829	5085.74
354.887	6279.9
358.942	3953.43
362.996	2151.33
367.048	2042.6
371.098	2276.25
375.146	1819.26
379.192	1603.63
383.236	1371.36
387.279	1363.44
391.319	1604.88
395.358	3046.65
399.394	5063.77
403.429	4518.22
407.462	2639.01
411.493	1422.14
415.522	1149.62
419.549	1038.45
423.575	658.67
427.598	277.296
431.619	104.392
435.639	43.988
439.657	9.12
443.673	7.186
447.687	52.088
451.699	15.975
455.709	59.559
459.717	84.576
463.724	78.139
467.728	43.25
471.731	24.146
475.732	93.139
479.731	152.611
483.728	323.474
487.723	409.685
491.716	502.211
495.708	585.079
499.697	675.289
503.685	794.832
507.671	899.659
511.655	1056.75
515.637	1203.08
519.617	1450.67
523.596	1529.48
527.572	1716.53
531.547	1832.79
535.52	1981.27
539.491	2116.95
543.46	2345.83
547.427	2613.89
551.393	2980.14
555.356	3363.56
559.318	3833.14
563.278	4244.88
567.236	4468.77
571.192	4778.79
575.147	4544.95
579.099	4267.25
583.05	3576.95
586.999	3039.07
590.946	2647.56
594.891	2491.64
598.834	2412.92
602.776	2328.5
606.715	2433.67
610.653	2591.32
614.589	2852.04
618.523	3007.54
622.456	2867.37
626.386	2543.97
630.315	2069.37
634.242	1866.1
638.167	1649.8
642.09	1507.12
646.012	1300.31
649.931	1209.71
653.849	1144.32
657.765	1104.21
661.679	1043.18
665.592	956.672
669.502	823.955
673.411	663.058
677.318	542.326
681.223	474.698
685.126	395.223
689.028	354.542
692.927	276.65
696.825	299.542
700.721	254.211
704.616	257.654
708.508	218.863
712.399	177.835
716.288	203.567
720.175	180.055
724.06	159.298
727.944	144.295
731.825	78.045
735.705	26.524
739.584	15.669
743.46	10.586
747.334	21.341
751.207	29.646
755.078	48.563
758.947	55.156
762.815	59.494
766.68	45.596
770.544	72.426
774.406	49.993
778.267	39.242
782.125	60.139
785.982	23.73
789.837	92.065
793.69	480.524
797.542	492.724
801.391	101.668
805.239	21.325
809.085	33.599
812.93	11.509
816.772	116.071
820.613	177.379
824.452	399.448
828.29	917.283
832.125	2257.89
835.959	5490.27
839.791	4510.43
843.621	1783.37
847.45	852.094
851.277	557.615
855.102	487.933
858.925	452.053
862.746	433.983
866.566	493.766
870.384	626.5
874.2	906.269
878.015	1790.09
881.828	3545.97
885.639	2791.73
889.448	1976.45
893.256	2171.49
897.061	3425.03
900.865	6666.06
904.668	16164.6
908.468	38511.3
912.267	37416.1
916.064	12907.7
919.86	4899.89
923.653	2256.33
927.445	1345.74
931.236	1015.38
935.024	747.944
938.811	544.602
942.596	352.324
946.379	297.483
950.161	235.684
953.94	207.792
957.719	254.545
961.495	227.571
965.27	229.42
969.043	247.088
972.814	295.65
976.583	304.344
980.351	455.134
984.117	607.027
987.882	818.029
991.644	1030.14
995.405	1484.38
999.165	2215.73
1002.92	3217.22
1006.68	4422.84
1010.43	6076.6
1014.18	6464.71
1017.93	5383.5
1021.68	4583.56
1025.43	4846.19
1029.18	5023.06
1032.92	3949.8
1036.66	2554.78
1040.4	1898.52
1044.14	1437.16
1047.88	1174.78
1051.62	1144.43
1055.35	1448.23
1059.08	1877.44
1062.81	2326
1066.54	2784.97
1070.27	3911.34
1073.99	6378.11
1077.72	6833.3
1081.44	5100.92
1085.16	3616.93
1088.88	3382.34
1092.59	3722.06
1096.31	3342.95
1100.02	3111.02
1103.73	2477.25
1107.44	1862.69
1111.15	1564.38
1114.86	1352.29
1118.57	1063.41
1122.27	874.712
1125.97	735.962
1129.67	521.825
1133.37	408.64
1137.07	436.627
1140.76	494.787
1144.45	528.118
1148.15	433.622
1151.84	282.297
1155.53	133.145
1159.21	31.164
1162.9	39.654
1166.58	95.441
1170.26	141.382
1173.94	101.611
1177.62	95.108
1181.3	48.852
1184.97	52.749
1188.65	68.728
1192.32	6.737
1195.99	15.385
1199.66	56.687
1203.33	114.167
1206.99	156.818
1210.65	191.639
1214.32	217.628
1217.98	345.786
1221.64	461.113
1225.29	539.603
1228.95	604.261
1232.6	645.708
1236.26	661.053
1239.91	771.18
1243.56	889.463
1247.2	982.896
1250.85	1221.45
1254.49	1445.1
1258.13	1684.85
1261.78	2049.7
1265.41	2420.65
1269.05	2931.7
1272.69	3236.83
1276.32	3481.06
1279.95	3536.39
1283.59	3523.81
1287.21	3641.35
1290.84	3692.01
1294.47	3998.81
1298.09	4275.76
1301.72	4397.09
1305.34	4401.07
1308.96	4233.2
1312.58	3702.93
1316.19	3435.07
1319.81	3101.82
1323.42	2898.74
1327.03	2729.26
1330.64	2663.15
1334.25	2705.98
1337.86	2663.35
1341.46	2614.25
1345.07	2412.65
1348.67	2108.1
1352.27	1854.8
1355.87	1594.75
1359.46	1510.98
1363.06	1431.76
1366.65	1307.63
1370.25	1298.12
1373.84	1309.58
1377.43	1399.05
1381.02	1465.72
1384.6	1464.77
1388.18	1411.78
1391.77	1258.55
1395.35	1070.27
1398.93	912.101
1402.51	804.046
1406.08	647.1
1409.66	525.261
1413.23	467.523
1416.8	402.879
1420.37	348.321
1423.94	311.115
1427.51	284.041
1431.08	255.276
1434.64	237.543
1438.2	225.334
1441.76	229.358
1445.32	193.631
1448.88	236.13
1452.43	210.822
1455.99	196.678
1459.54	149.704
1463.09	114.922
1466.64	52.656
1470.19	13.036
1473.74	5.15
1477.28	11.887
1480.83	10.001
1484.37	3.337
1487.91	14.015
1491.45	18.124
1494.98	16.118
1498.52	20.195
1502.05	33.542
1505.59	6.625
1509.12	16.141
1512.65	0.749
1516.17	54.963
1519.7	36.388
1523.23	34.747
1526.75	8.924
1530.27	1.399
