Measurement: Raman, 514 nm, ccw, Raman Data Processed
Mineral: Scheelite
Rruff sample: R040172
Ideal chemistry: CaWO_4_
Locality: Sonora, Mexico
Source: University of Arizona Mineral Museum
Description: Colorless water worn single crystal
Measured chemistry: Ca_1.01_W_1.00_O_4_
Pin_id: L00480
Orientation: Laser parallel to -c* (0 0 -1). Fiducial mark perpendicular to laser is parallel to a [1 0 0]
Raman shift (cm-1)	intensity
57.445	0
61.659	11.099
65.871	52.356
70.081	14.678
74.288	17.963
78.494	209.397
82.697	4054.08
86.898	5338.57
91.097	1256.52
95.293	826.691
99.488	542.916
103.68	350.041
107.87	319.886
112.057	302.341
116.243	345.342
120.426	248.841
124.608	184.808
128.787	156.227
132.963	152.087
137.138	117.364
141.311	114.03
145.481	107.868
149.649	107.779
153.815	103.77
157.979	84.93
162.14	69.278
166.3	69.822
170.457	100.566
174.612	80.511
178.765	93.654
182.915	86.017
187.064	91.612
191.21	120.427
195.355	184.527
199.497	409.905
203.637	1013.49
207.774	3450.29
211.91	7411.25
216.043	3113.37
220.175	1087.69
224.304	581.357
228.431	346.472
232.556	211.52
236.678	107.663
240.799	98.675
244.917	52.455
249.034	22.491
253.148	44.755
257.26	26.227
261.37	28.886
265.477	53.721
269.583	42.723
273.686	82.871
277.788	63.157
281.887	90.575
285.984	122.13
290.079	184.804
294.172	267.59
298.263	350.484
302.351	420.474
306.438	614.556
310.522	839.287
314.604	1189.78
318.684	1734.23
322.762	2989.09
326.838	5596.73
330.912	11374.5
334.984	14264.5
339.053	8361.73
343.121	4052.62
347.186	2243.83
351.25	1394.2
355.311	1078.42
359.37	819.447
363.427	657.848
367.482	532.73
371.535	485.222
375.585	482.575
379.634	522.031
383.68	686.581
387.725	1003.06
391.767	1691.03
395.808	3873.47
399.846	8976.97
403.882	5857.7
407.916	1854.31
411.948	721.901
415.978	365.792
420.006	218.386
424.031	145.082
428.055	112.945
432.077	97.67
436.096	84.384
440.114	91.255
444.129	52.949
448.142	43.182
452.154	18.249
456.163	26.432
460.17	18.362
464.175	10.174
468.178	14.921
472.179	11.153
476.178	8.482
480.175	7.504
484.17	24.275
488.163	20.749
492.153	12.089
496.142	10.552
500.129	0.998
504.113	16.778
508.096	6.89
512.077	4.299
516.055	13.458
520.032	8.196
524.006	9.755
527.978	1.195
531.949	3.517
535.917	2.222
539.883	4.11
543.848	12.51
547.81	1.996
551.77	9.802
555.728	27.896
559.685	14.25
563.639	12.748
567.591	15.992
571.541	26.24
575.489	44.374
579.435	28.143
583.38	42.173
587.322	58.283
591.262	26.167
595.2	36.995
599.136	31.763
603.07	10.891
607.002	18.719
610.932	24.305
614.86	23.788
618.786	35.204
622.71	22.584
626.632	40.338
630.552	31.156
634.471	38.109
638.387	15.472
642.301	25.772
646.213	15.764
650.123	32.976
654.031	11.13
657.937	33.281
661.842	6.91
665.744	4.352
669.644	14.503
673.542	8.804
677.438	12.538
681.333	27.357
685.225	22.647
689.115	12.477
693.004	48.937
696.89	32.543
700.775	4.907
704.657	12.518
708.538	6.531
712.416	12.661
716.293	23.623
720.167	6.345
724.04	8.333
727.911	10.327
731.78	9.01
735.646	9.059
739.511	4.241
743.374	4.4
747.235	9.85
751.094	5.971
754.951	12.395
758.806	13.934
762.659	22.426
766.511	28.938
770.36	6.191
774.207	1.79
778.053	5.297
781.896	6.896
785.738	51.505
789.577	31.23
793.415	72.309
797.251	144.653
801.084	105.306
804.916	75.042
808.746	76.437
812.574	88.334
816.4	115.475
820.224	133.44
824.047	180.433
827.867	316.274
831.685	632.069
835.502	1584.17
839.316	2389.3
843.129	1256.5
846.94	664.742
850.749	501.023
854.556	490.346
858.361	503.715
862.164	499.787
865.965	600.55
869.764	702.034
873.562	863.354
877.357	1304.91
881.151	2421.44
884.942	3318.57
888.732	2356.55
892.52	2232.55
896.306	3233.28
900.09	5840.06
903.872	12297.8
907.653	29994.2
911.431	51150.2
915.208	25786.9
918.982	8973.83
922.755	3878.85
926.526	2289.92
930.295	1607
934.062	1317.15
937.827	1074.68
941.59	798.908
945.352	620.498
949.112	508.034
952.869	404.049
956.625	341.458
960.379	287.908
964.131	255.64
967.881	213.345
971.63	201.921
975.376	186.064
979.121	202.539
982.864	165.267
986.605	159.032
990.344	150.462
994.081	149.607
997.816	117.023
1001.55	70.864
1005.28	97.87
1009.01	81.503
1012.74	72.625
1016.47	37.158
1020.19	36.255
1023.91	51.604
1027.63	28.961
1031.35	47.037
1035.07	70.133
1038.78	25.293
1042.49	33.834
1046.21	28.307
1049.92	24.311
1053.62	14.9
1057.33	14.142
1061.03	33.518
1064.73	28.8
1068.44	2.081
1072.13	26.056
1075.83	40.782
1079.53	6.729
1083.22	56.058
1086.91	9.394
1090.6	16.217
1094.29	3.831
1097.97	13.514
1101.66	4.976
1105.34	26.263
1109.02	34.547
1112.7	34.909
1116.37	28.241
1120.05	17.476
1123.72	8.101
1127.39	0.092
1131.06	16.071
1134.73	14.916
1138.39	5.358
1142.06	10.983
1145.72	7.024
1149.38	0.048
1153.04	7.945
1156.69	22.914
1160.35	1.033
1164	1.926
1167.65	18.013
1171.3	38.164
1174.95	48.878
1178.6	44.761
1182.24	8.692
1185.88	0.12
1189.52	1.719
1193.16	5.43
1196.8	69.587
1200.43	55.276
1204.07	6.033
1207.7	18.681
1211.33	22.338
1214.96	30.883
1218.58	10.851
1222.21	49.443
1225.83	32.892
1229.45	60.327
1233.07	44.438
1236.69	45.772
1240.3	21.745
1243.92	4.893
1247.53	26.293
1251.14	35.807
1254.75	23.09
1258.35	27.006
1261.96	53.058
1265.56	62.196
1269.16	63.56
1272.76	21.375
1276.36	42.333
1279.96	2.285
1283.55	0.907
1287.14	50.889
1290.73	39.315
1294.32	33.019
1297.91	25.15
1301.5	34.25
1305.08	38.808
1308.66	7.358
1312.24	7.033
1315.82	18.2
1319.4	7.416
1322.97	22.899
1326.55	1.692
1330.12	41.352
1333.69	41.459
1337.26	41.686
1340.82	27.962
1344.39	5.292
1347.95	9.436
1351.51	29.831
1355.07	35.108
1358.63	0.429
1362.18	37.541
1365.74	44.72
1369.29	41.294
1372.84	66.992
1376.39	26.579
1379.94	13.993
1383.48	6.685
1387.03	57.784
1390.57	8.085
1394.11	10.299
1397.65	61.952
1401.19	65.639
1404.72	62.883
1408.26	55.269
1411.79	1.582
1415.32	24.793
1418.85	29.863
1422.37	38.469
1425.9	16.352
1429.42	42.828
1432.94	32.577
1436.46	35.584
1439.98	21.03
1443.5	96.804
1447.01	45.591
1450.53	73.174
1454.04	69.469
1457.55	42.584
1461.05	65.061
1464.56	54.368
1468.07	49.894
1471.57	31.404
1475.07	70.926
1478.57	53.297
1482.07	71.706
1485.56	46.445
1489.06	45.357
1492.55	49.52
1496.04	41.921
1499.53	33.676
1503.02	47.608
1506.5	45.552
1509.99	2.168
1513.47	32.298
