Measurement: Raman, 514 nm, ccw, Raman Data Processed
Mineral: Scheelite
Rruff sample: R040173
Ideal chemistry: CaWO_4_
Locality: Santa Cruz, Sonora, Mexico
Source: University of Arizona Mineral Museum
Description: Yellow crystal fragments
Measured chemistry: Ca_1.00_W_1.00_O_4_
Pin_id: M00457
Orientation: Laser parallel to -a* (-1 0 0). Fiducial mark perpendicular to laser is parallel to c [0 0 1]
Raman shift (cm-1)	intensity
61.962	0
66.157	10.953
70.349	197.145
74.54	858.784
78.729	5113.22
82.916	38492.1
87.101	10128.4
91.284	2490.59
95.465	1419.27
99.644	655.821
103.82	396.859
107.995	420.062
112.168	803.152
116.339	1157.22
120.508	402.968
124.675	305.952
128.84	181.058
133.003	85.054
137.164	50.895
141.323	12.419
145.48	34.884
149.635	68.398
153.788	64.853
157.939	42.363
162.088	57.091
166.235	16.172
170.38	132.216
174.523	202.964
178.664	366.126
182.803	701.091
186.94	1380.87
191.076	1823.36
195.209	2581.44
199.34	4536.59
203.47	7475.24
207.597	11269.5
211.722	14308.2
215.846	9327.59
219.967	7260.52
224.087	5647.02
228.204	4143.5
232.32	2852.93
236.434	2332.8
240.545	2045.07
244.655	2084.36
248.763	2113.56
252.869	1591.44
256.973	1150.94
261.075	1035.25
265.175	889.418
269.273	618.017
273.369	506.566
277.463	419.293
281.556	478.219
285.646	543.94
289.734	1127.91
293.821	1352.56
297.905	1070.38
301.988	1126.82
306.069	1934.2
310.147	2677.63
314.224	3037.76
318.299	3720.69
322.372	5539.05
326.443	10071
330.512	18522.7
334.579	18670.2
338.645	12098.1
342.708	7744.44
346.769	5215.2
350.829	5525.37
354.887	7719.96
358.942	5262.98
362.996	2554.45
367.048	2266.34
371.098	3152.67
375.146	2434.42
379.192	2187.59
383.236	1989.19
387.279	2448.19
391.319	3515.6
395.358	7409.4
399.394	13917.6
403.429	8642.1
407.462	4294.98
411.493	1952.23
415.522	1436.84
419.549	1345.83
423.575	881.22
427.598	373.029
431.619	120.302
435.639	92.128
439.657	90.571
443.673	0.373
447.687	10.663
451.699	5.332
455.709	33.393
459.717	74.992
463.724	143.225
467.728	113.147
471.731	12.385
475.732	152.519
479.731	215.226
483.728	252.468
487.723	450.215
491.716	568.401
495.708	613.973
499.697	619.972
503.685	792.501
507.671	968.592
511.655	1056.22
515.637	1103.3
519.617	1330.75
523.596	1587.49
527.572	1779.51
531.547	1798.78
535.52	1841.3
539.491	2073.06
543.46	2518.05
547.427	2737.26
551.393	2979.68
555.356	3381.31
559.318	4015.13
563.278	4585.14
567.236	4717.32
571.192	4764.67
575.147	4818.19
579.099	4817.19
583.05	4162.49
586.999	3375.11
590.946	2879.83
594.891	2762.23
598.834	2843.5
602.776	2812.72
606.715	2781.07
610.653	2875.14
614.589	3347.22
618.523	3569.46
622.456	3349.79
626.386	2777.37
630.315	2378.42
634.242	2153.97
638.167	1918.05
642.09	1659.05
646.012	1412.94
649.931	1306.85
653.849	1254.08
657.765	1257.37
661.679	1090.34
665.592	1031.69
669.502	880.985
673.411	788.304
677.318	672.137
681.223	517.49
685.126	403.608
689.028	373.482
692.927	360.104
696.825	312.469
700.721	269.568
704.616	242.394
708.508	209.942
712.399	209.205
716.288	261.18
720.175	224.864
724.06	127.257
727.944	151.357
731.825	97.161
735.705	88.661
739.584	73.809
743.46	3.429
747.334	38.176
751.207	49.578
755.078	21.69
758.947	45.542
762.815	48.212
766.68	73.646
770.544	56.857
774.406	47.754
778.267	15.286
782.125	34.369
785.982	38.963
789.837	210.866
793.69	967.427
797.542	1475.66
801.391	367.564
805.239	63.14
809.085	16.693
812.93	74.121
816.772	44.342
820.613	3.387
824.452	21.151
828.29	20.484
832.125	169.7
835.959	642.602
839.791	712.2
843.621	308.499
847.45	181.503
851.277	157.217
855.102	311.645
858.925	403.793
862.746	476.698
866.566	564.504
870.384	754.291
874.2	1106.13
878.015	2110.03
881.828	4753
885.639	4548.98
889.448	2914.57
893.256	2964.76
897.061	4475.16
900.865	8687.75
904.668	20212
908.468	48908.8
912.267	59878
916.064	20958.7
919.86	7781.81
923.653	3750.39
927.445	2308.18
931.236	1653.01
935.024	1302.44
938.811	919.285
942.596	689.375
946.379	615.331
950.161	565.227
953.94	489.069
957.719	426.78
961.495	391.201
965.27	321.617
969.043	348.665
972.814	386.877
976.583	449.298
980.351	585.616
984.117	658.763
987.882	857.614
991.644	1188.52
995.405	1694.48
999.165	2597.52
1002.92	3776.62
1006.68	5220.81
1010.43	6708.1
1014.18	7525.66
1017.93	6514.66
1021.68	5348.42
1025.43	5367.46
1029.18	5548.39
1032.92	4695.21
1036.66	3501.09
1040.4	2710.86
1044.14	2021.41
1047.88	1601.09
1051.62	1396.36
1055.35	1493.89
1059.08	1773.68
1062.81	2145.79
1066.54	2473.23
1070.27	3587.99
1073.99	6019.08
1077.72	6924.51
1081.44	5235.27
1085.16	3614.32
1088.88	3447.62
1092.59	4019.06
1096.31	3490.63
1100.02	3231.32
1103.73	2657.15
1107.44	1961.11
1111.15	1504.28
1114.86	1257.77
1118.57	1023.63
1122.27	906.88
1125.97	887.465
1129.67	571.304
1133.37	436.322
1137.07	331.489
1140.76	373.806
1144.45	398.276
1148.15	336.9
1151.84	252.681
1155.53	134.622
1159.21	59.721
1162.9	64.164
1166.58	155.268
1170.26	190.774
1173.94	180.739
1177.62	152.155
1181.3	112.066
1184.97	27.395
1188.65	17.127
1192.32	36.696
1195.99	28.373
1199.66	85.223
1203.33	131.276
1206.99	163.535
1210.65	323.006
1214.32	362.688
1217.98	432.595
1221.64	598.743
1225.29	723.127
1228.95	706.763
1232.6	756.643
1236.26	926.769
1239.91	988.144
1243.56	1199.78
1247.2	1424.67
1250.85	1617.75
1254.49	1862.96
1258.13	2223.32
1261.78	2605.82
1265.41	3080.47
1269.05	3740.26
1272.69	4275.19
1276.32	4765.27
1279.95	5062.48
1283.59	5075.86
1287.21	5303.43
1290.84	5552.22
1294.47	6026.24
1298.09	6553.51
1301.72	7090.02
1305.34	7401.77
1308.96	7529.71
1312.58	7450.3
1316.19	7220.58
1319.81	7587.64
1323.42	8317.29
1327.03	8443.11
1330.64	8951.5
1334.25	10277.7
1337.86	11536.8
1341.46	12317.3
1345.07	11660.8
1348.67	10194.8
1352.27	8609.44
1355.87	7324.49
1359.46	6218.1
1363.06	5585.06
1366.65	4940.6
1370.25	4436.27
1373.84	4139.67
1377.43	3846.8
1381.02	3678.47
1384.6	3440.53
1388.18	3159.8
1391.77	2798.54
1395.35	2353.3
1398.93	2128.32
1402.51	1795.62
1406.08	1622.19
1409.66	1407.04
1413.23	1242.16
1416.8	1193.57
1420.37	1044.28
1423.94	967.063
1427.51	856.742
1431.08	706.612
1434.64	644.235
1438.2	656.774
1441.76	713.961
1445.32	623.735
1448.88	687.03
1452.43	662.717
1455.99	570.735
1459.54	540.066
1463.09	362.718
1466.64	289.473
1470.19	184.62
1473.74	154.334
1477.28	47.831
1480.83	67.23
1484.37	64.342
1487.91	39.084
1491.45	33.625
1494.98	64.278
1498.52	54.549
1502.05	56.961
1505.59	47.877
1509.12	39.665
1512.65	6.991
1516.17	38.093
1519.7	35.141
1523.23	28.583
1526.75	3.228
1530.27	14.704
