Measurement: Raman, 514 nm, ccw, Raman Data Processed
Mineral: Scheelite
Rruff sample: R040173
Ideal chemistry: CaWO_4_
Locality: Santa Cruz, Sonora, Mexico
Source: University of Arizona Mineral Museum
Description: Yellow crystal fragments
Measured chemistry: Ca_1.00_W_1.00_O_4_
Pin_id: M00457
Orientation: Laser parallel to -a* (-1 0 0). Fiducial mark perpendicular to laser is parallel to c [0 0 1]
Raman shift (cm-1)	intensity
61.962	0
66.157	78.466
70.349	69.722
74.54	311.449
78.729	2213.47
82.916	18334.9
87.101	5084.15
91.284	1227.73
95.465	723.988
99.644	463.311
103.82	524.704
107.995	1209.43
112.168	4619.75
116.339	8897.38
120.508	2470.47
124.675	2089.33
128.84	1082.36
133.003	423.195
137.164	179.75
141.323	113.082
145.48	80.27
149.635	17.118
153.788	40.96
157.939	47.5
162.088	97.004
166.235	76.685
170.38	17.528
174.523	55.545
178.664	192.185
182.803	494.288
186.94	1098.54
191.076	1742.41
195.209	2969.42
199.34	4264.61
203.47	6167.98
207.597	7632.08
211.722	9096.93
215.846	6504.54
219.967	5365.91
224.087	4444.07
228.204	3780.05
232.32	3280.77
236.434	3106.48
240.545	2614.13
244.655	2323.42
248.763	2133.26
252.869	1717.52
256.973	1685.96
261.075	2146.78
265.175	2318.26
269.273	2146.23
273.369	1849.11
277.463	1394.42
281.556	983.427
285.646	808.032
289.734	1113.44
293.821	1256.87
297.905	825.935
301.988	772.86
306.069	1441.72
310.147	2200.03
314.224	2759.22
318.299	3405.61
322.372	5131.86
326.443	10157.9
330.512	21095.7
334.579	19290.3
338.645	10669.8
342.708	6412.63
346.769	4098.05
350.829	3992.04
354.887	5647.59
358.942	3862.74
362.996	2068.5
367.048	2388.87
371.098	4220.87
375.146	2924.48
379.192	1632.69
383.236	1205.51
387.279	1480.93
391.319	1920.93
395.358	4055.43
399.394	8409.4
403.429	7489.85
407.462	4621.79
411.493	2028.22
415.522	1364.16
419.549	1362.65
423.575	963.797
427.598	237.621
431.619	92.75
435.639	109.285
439.657	108.046
443.673	100.053
447.687	80.259
451.699	64.616
455.709	21.852
459.717	12.089
463.724	117.076
467.728	300.736
471.731	672.061
475.732	1073.1
479.731	1150.92
483.728	1164.56
487.723	1136.05
491.716	1011.37
495.708	757.474
499.697	516.187
503.685	520.493
507.671	610.507
511.655	683.309
515.637	623.867
519.617	747.063
523.596	931.787
527.572	1022.96
531.547	1120.55
535.52	1151.56
539.491	1353
543.46	1783.88
547.427	2036.15
551.393	2251.79
555.356	2515.78
559.318	3182.11
563.278	3786.76
567.236	4121.73
571.192	4272
575.147	4452.73
579.099	4653.34
583.05	4518.95
586.999	3882.17
590.946	3662.49
594.891	3829.75
598.834	4307.73
602.776	4415.45
606.715	4132.01
610.653	4128.4
614.589	4553.25
618.523	4929.61
622.456	4823.82
626.386	4117.06
630.315	3551.52
634.242	3177.93
638.167	2776.3
642.09	2315.61
646.012	2013.84
649.931	1813.98
653.849	1747.01
657.765	1553.89
661.679	1352.06
665.592	1083.59
669.502	984.898
673.411	906.917
677.318	720.989
681.223	543.324
685.126	373.788
689.028	329.979
692.927	338.321
696.825	344.418
700.721	237.12
704.616	195.76
708.508	169.397
712.399	214.693
716.288	190.642
720.175	189.239
724.06	108.479
727.944	61.359
731.825	49.855
735.705	3.872
739.584	7.247
743.46	97.085
747.334	133.402
751.207	119.76
755.078	68.149
758.947	83.555
762.815	61.061
766.68	84.562
770.544	38.044
774.406	51.6
778.267	119.554
782.125	211.989
785.982	419.972
789.837	1198.52
793.69	5102.62
797.542	7496.28
801.391	1981.51
805.239	568.285
809.085	148.619
812.93	4.464
816.772	6.58
820.613	57.226
824.452	31.113
828.29	4.05
832.125	83.488
835.959	355.389
839.791	415.857
843.621	180.895
847.45	76.484
851.277	89.561
855.102	136.144
858.925	260.285
862.746	289.2
866.566	352.009
870.384	508.784
874.2	825.542
878.015	1750.33
881.828	4032.97
885.639	4007.3
889.448	2482.11
893.256	2544.08
897.061	3808.63
900.865	7363.17
904.668	17232.3
908.468	42403.5
912.267	53802.8
916.064	19034.2
919.86	6901.45
923.653	3174.97
927.445	1903.12
931.236	1364.85
935.024	1061.27
938.811	723.736
942.596	480.038
946.379	484.178
950.161	394.165
953.94	372.004
957.719	414.705
961.495	277.76
965.27	298.936
969.043	308.025
972.814	368.373
976.583	507.342
980.351	634.917
984.117	744.13
987.882	1066.95
991.644	1497.96
995.405	2222.77
999.165	3563.14
1002.92	4988.92
1006.68	6694.15
1010.43	8693.34
1014.18	9626.27
1017.93	8134.52
1021.68	6238.34
1025.43	5994.79
1029.18	6233.49
1032.92	5757.74
1036.66	5083.62
1040.4	4062.69
1044.14	2942.79
1047.88	2068.25
1051.62	1565.06
1055.35	1432.2
1059.08	1553.73
1062.81	1833.63
1066.54	2136.93
1070.27	3110.55
1073.99	5179.5
1077.72	6150.7
1081.44	4753.05
1085.16	3582.49
1088.88	3828
1092.59	4805.58
1096.31	3888.24
1100.02	3212.99
1103.73	2544.83
1107.44	1845.78
1111.15	1395.83
1114.86	1222.04
1118.57	971.548
1122.27	835.451
1125.97	799.785
1129.67	518.467
1133.37	334.387
1137.07	316.467
1140.76	300.685
1144.45	254.046
1148.15	191.579
1151.84	185.313
1155.53	97.237
1159.21	12.76
1162.9	100.047
1166.58	185.796
1170.26	216.13
1173.94	251.045
1177.62	188.636
1181.3	105.871
1184.97	48.583
1188.65	56.504
1192.32	107.699
1195.99	119.047
1199.66	146.607
1203.33	307.407
1206.99	348.452
1210.65	485.755
1214.32	538.319
1217.98	723.155
1221.64	903.275
1225.29	999.707
1228.95	1045.47
1232.6	1115.58
1236.26	1260.02
1239.91	1520.81
1243.56	1718.95
1247.2	2080.45
1250.85	2338.2
1254.49	2703.12
1258.13	3161.24
1261.78	3589.55
1265.41	4190.06
1269.05	4915.77
1272.69	5848.68
1276.32	6466.79
1279.95	7051.12
1283.59	7295.7
1287.21	7700.55
1290.84	8195.73
1294.47	8831.25
1298.09	9767.14
1301.72	10613.4
1305.34	11430.2
1308.96	11984.6
1312.58	12303.9
1316.19	12662.4
1319.81	13579.4
1323.42	14877.3
1327.03	15410.3
1330.64	16810.5
1334.25	19837
1337.86	22755.1
1341.46	24624.8
1345.07	23157.1
1348.67	20340.1
1352.27	17024.3
1355.87	14119
1359.46	11704.8
1363.06	10291.3
1366.65	9070.23
1370.25	8170.87
1373.84	7373.01
1377.43	6874.4
1381.02	6324.51
1384.6	5841.93
1388.18	5327.97
1391.77	4686.31
1395.35	3984.53
1398.93	3499.2
1402.51	2977.31
1406.08	2689.88
1409.66	2524.93
1413.23	2272.45
1416.8	2100.45
1420.37	1903.17
1423.94	1652.85
1427.51	1520.13
1431.08	1400.43
1434.64	1183.02
1438.2	1098.82
1441.76	1150.61
1445.32	1163.3
1448.88	1126.85
1452.43	1127.05
1455.99	1028.71
1459.54	917.839
1463.09	693.497
1466.64	542.852
1470.19	308.353
1473.74	249.254
1477.28	177.861
1480.83	90.291
1484.37	115.306
1487.91	96.862
1491.45	92.228
1494.98	89.881
1498.52	94.612
1502.05	76.229
1505.59	57.306
1509.12	106.463
1512.65	47.811
1516.17	46.736
1519.7	47.308
1523.23	28.859
1526.75	22.253
1530.27	0.881
