Measurement: Raman, 514 nm, ccw, Raman Data Processed
Mineral: Scheelite
Rruff sample: R040173
Ideal chemistry: CaWO_4_
Locality: Santa Cruz, Sonora, Mexico
Source: University of Arizona Mineral Museum
Description: Yellow crystal fragments
Measured chemistry: Ca_1.00_W_1.00_O_4_
Pin_id: M00457
Orientation: Laser parallel to -a* (-1 0 0). Fiducial mark perpendicular to laser is parallel to c [0 0 1]
Raman shift (cm-1)	intensity
61.962	0
66.157	15.728
70.349	29.598
74.54	17.214
78.729	33.926
82.916	67.671
87.101	51.035
91.284	68.716
95.465	68.103
99.644	98.803
103.82	112.707
107.995	178.661
112.168	443.413
116.339	866.425
120.508	337.408
124.675	292.273
128.84	233.078
133.003	135.189
137.164	118.54
141.323	84.193
145.48	70.236
149.635	40.053
153.788	20.64
157.939	6.155
162.088	19.469
166.235	36.414
170.38	36.064
174.523	34.525
178.664	12.858
182.803	47.934
186.94	145.829
191.076	269.773
195.209	575.561
199.34	1118.99
203.47	1428.17
207.597	1733.58
211.722	2285.39
215.846	1035.8
219.967	724.786
224.087	838.219
228.204	1226.99
232.32	1695.6
236.434	1785.89
240.545	1489.76
244.655	1130.41
248.763	908.72
252.869	842.697
256.973	1150.23
261.075	1695.33
265.175	2007.23
269.273	1854.93
273.369	1467.51
277.463	1117.55
281.556	836.881
285.646	699.753
289.734	797.747
293.821	834.047
297.905	793.07
301.988	831.972
306.069	1208.94
310.147	1868.56
314.224	2787.68
318.299	4037.06
322.372	6667.76
326.443	14793.9
330.512	34601.7
334.579	28280.4
338.645	11591.1
342.708	5396.82
346.769	2838.94
350.829	1799.54
354.887	1473.58
358.942	1136.53
362.996	1052.81
367.048	1628.97
371.098	2999.14
375.146	1890.99
379.192	699.976
383.236	383.21
387.279	322.763
391.319	298.625
395.358	372.737
399.394	881.099
403.429	1807.72
407.462	1404.6
411.493	722.745
415.522	591.168
419.549	619.877
423.575	510.909
427.598	207.285
431.619	73.044
435.639	53.221
439.657	106.858
443.673	129.98
447.687	94.585
451.699	155.67
455.709	241.227
459.717	319.263
463.724	396.786
467.728	563.781
471.731	995.216
475.732	1396.05
479.731	1400.23
483.728	1302.79
487.723	1139.77
491.716	865.172
495.708	504.006
499.697	238.281
503.685	132.002
507.671	92.121
511.655	59.574
515.637	4.667
519.617	71.635
523.596	49.423
527.572	11.087
531.547	39.604
535.52	4.948
539.491	55.914
543.46	157.984
547.427	238.255
551.393	308.722
555.356	377.377
559.318	593.215
563.278	809.23
567.236	923.416
571.192	1052.77
575.147	1311.33
579.099	1642.02
583.05	1835.95
586.999	1848.45
590.946	1907.24
594.891	2207.77
598.834	2659.18
602.776	2750
606.715	2615.68
610.653	2507.49
614.589	2748.47
618.523	2885.75
622.456	2887.25
626.386	2598.83
630.315	2268.16
634.242	2050.43
638.167	1751.99
642.09	1458.52
646.012	1254.01
649.931	1137.49
653.849	1083.43
657.765	965.356
661.679	775.938
665.592	605.341
669.502	561.578
673.411	498.776
677.318	462.624
681.223	337.346
685.126	273.791
689.028	250.712
692.927	223.456
696.825	227.558
700.721	193.51
704.616	118.305
708.508	127.941
712.399	127.414
716.288	108.722
720.175	110.86
724.06	83.828
727.944	76.622
731.825	44.237
735.705	0.652
739.584	8.796
743.46	41.351
747.334	18.903
751.207	23.903
755.078	40.405
758.947	20.455
762.815	49.007
766.68	25.088
770.544	41.658
774.406	15.769
778.267	5.393
782.125	14.502
785.982	15.974
789.837	136.15
793.69	700.098
797.542	1163.82
801.391	309.319
805.239	83.592
809.085	8.614
812.93	2.301
816.772	0.404
820.613	14.465
824.452	17.976
828.29	34.162
832.125	68.068
835.959	102.78
839.791	112.351
843.621	119.753
847.45	163.963
851.277	220.993
855.102	274.861
858.925	378.625
862.746	435.323
866.566	535.994
870.384	699.661
874.2	1020.3
878.015	1877.92
881.828	4186.49
885.639	4091.9
889.448	2699.03
893.256	2699.47
897.061	3997.7
900.865	7716.11
904.668	17733
908.468	43145.2
912.267	54598.3
916.064	19420.4
919.86	7179.5
923.653	3494.87
927.445	2184.52
931.236	1605.89
935.024	1219.85
938.811	922.22
942.596	726.175
946.379	609.407
950.161	525.55
953.94	417.607
957.719	369.34
961.495	331.215
965.27	257.122
969.043	278.357
972.814	310.432
976.583	346.971
980.351	409.508
984.117	467.26
987.882	656.814
991.644	844.312
995.405	1208.84
999.165	1911.92
1002.92	2730.39
1006.68	3520.27
1010.43	4433.8
1014.18	4811.15
1017.93	3928.87
1021.68	2838.36
1025.43	2391.11
1029.18	2521.7
1032.92	2780.54
1036.66	2988.33
1040.4	2416.36
1044.14	1677.37
1047.88	996.403
1051.62	655.504
1055.35	435.714
1059.08	391.045
1062.81	347.517
1066.54	457.116
1070.27	634.851
1073.99	1074.71
1077.72	1312.72
1081.44	1163.87
1085.16	1055.14
1088.88	1574.49
1092.59	2198.87
1096.31	1596.26
1100.02	1034.66
1103.73	735.084
1107.44	455.528
1111.15	332.022
1114.86	314.604
1118.57	260.311
1122.27	251.14
1125.97	236.062
1129.67	136.067
1133.37	43.142
1137.07	35.202
1140.76	6.734
1144.45	10.332
1148.15	28.571
1151.84	5.52
1155.53	22.535
1159.21	18.744
1162.9	72.186
1166.58	100.954
1170.26	89.053
1173.94	116.427
1177.62	73.066
1181.3	22.916
1184.97	34.109
1188.65	33.106
1192.32	52.194
1195.99	90.392
1199.66	179.705
1203.33	178.137
1206.99	246.694
1210.65	313.382
1214.32	375.208
1217.98	452.179
1221.64	531.311
1225.29	533.605
1228.95	585.079
1232.6	610.736
1236.26	704.576
1239.91	837.61
1243.56	953.848
1247.2	1144.29
1250.85	1352.86
1254.49	1435.53
1258.13	1686.29
1261.78	1898.14
1265.41	2285.11
1269.05	2684.18
1272.69	3072.36
1276.32	3445.66
1279.95	3889.1
1283.59	4119.77
1287.21	4413.23
1290.84	4708.95
1294.47	5202.35
1298.09	5759.93
1301.72	6249.1
1305.34	6940.98
1308.96	7679
1312.58	8186.27
1316.19	8469.37
1319.81	9323.16
1323.42	10211.5
1327.03	10702.1
1330.64	12024.4
1334.25	14212.5
1337.86	16552
1341.46	18091.9
1345.07	17142.3
1348.67	14923
1352.27	12394.3
1355.87	10256.2
1359.46	8368.49
1363.06	7279.19
1366.65	6405.77
1370.25	5650.96
1373.84	5191.87
1377.43	4688.48
1381.02	4283.88
1384.6	3855.8
1388.18	3433.61
1391.77	3005.16
1395.35	2538.79
1398.93	2279.71
1402.51	1978.92
1406.08	1792.43
1409.66	1645.35
1413.23	1552.68
1416.8	1372.52
1420.37	1262.22
1423.94	1110.22
1427.51	1019.66
1431.08	881.446
1434.64	829.267
1438.2	794.703
1441.76	740.734
1445.32	811.34
1448.88	752.469
1452.43	769.034
1455.99	713.932
1459.54	600.122
1463.09	481.612
1466.64	358.17
1470.19	234.078
1473.74	181.476
1477.28	138.496
1480.83	69.139
1484.37	123.32
1487.91	71.087
1491.45	65.617
1494.98	41.204
1498.52	72.336
1502.05	51.514
1505.59	21.088
1509.12	25.492
1512.65	0.54
1516.17	28.84
1519.7	35.015
1523.23	9.28
1526.75	5.377
1530.27	11.019
