Measurement: Raman, 514 nm, ccw, Raman Data Processed
Mineral: Scholzite
Rruff sample: R050238
Ideal chemistry: CaZn_2_(PO_4_)_2_2H_2_O
Locality: near Blinman, South Australia, Australia
Source: Marcus Origlieri
Description: Colorless bladed crystals
Measured chemistry: Ca_1.00_Zn_2.00_(P_1.00_O_4_)_2_Â·2H_2_O
Pin_id: M00184
Orientation: Laser parallel to -a* (-1 0 0). Fiducial mark perpendicular to laser is parallel to -b [0 -1 0]
Raman shift (cm-1)	intensity
135.356	0
140.271	40.1299
145.184	115.742
150.094	875.618
155.002	1436.27
159.908	2723.98
164.811	5004.74
169.711	3433.31
174.61	1174.39
179.505	229.872
184.399	56.7158
189.29	40.793
194.178	161.477
199.064	432.078
203.948	423.466
208.829	13.3711
213.708	673.378
218.585	1977.44
223.459	4289.83
228.33	5871.57
233.199	9250.63
238.066	12536.9
242.93	9906.57
247.792	6983.47
252.651	4446.03
257.508	4159.28
262.363	3347.33
267.215	4300.8
272.064	5597.37
276.912	6421.39
281.756	7370.11
286.598	8346.6
291.438	7231.79
296.276	5497.82
301.111	4762.86
305.943	5115.12
310.773	5426.96
315.601	4699.76
320.426	3465.74
325.248	2776.45
330.068	2187.34
334.886	1786.69
339.701	1507.46
344.514	1079.17
349.324	640.543
354.132	472.853
358.938	235.482
363.741	146.387
368.541	70.9336
373.339	111.471
378.135	68.2773
382.928	80.7832
387.718	8.08301
392.506	56.5391
397.292	10.9473
402.075	8.29199
406.856	236.718
411.634	441.438
416.41	597.234
421.183	395.401
425.954	377.063
430.722	318.128
435.488	181.536
440.251	164.249
445.012	233.247
449.77	114.619
454.526	70.3135
459.28	172.352
464.03	118.606
468.779	159.111
473.525	127.584
478.268	80.2305
483.009	282.878
487.747	155.799
492.483	181.961
497.217	112.534
501.948	154.363
506.676	175.041
511.402	190.26
516.125	260.091
520.846	261.91
525.565	173.281
530.281	227.45
534.994	213.493
539.705	460.165
544.413	1218.32
549.119	2253.82
553.822	3859.93
558.523	2178.16
563.222	1007.25
567.917	742.507
572.611	706.802
577.302	876.799
581.99	946.724
586.676	1178.9
591.359	1337.84
596.04	1649.62
600.718	1684.92
605.394	1535.47
610.067	1134.63
614.737	816.747
619.406	1100.26
624.071	987.215
628.734	885.971
633.395	736.299
638.053	604.7
642.708	747.803
647.361	856.686
652.012	887.186
656.66	673.492
661.305	618.625
665.948	392.138
670.588	238.533
675.226	134.095
679.861	119.536
684.494	213.785
689.124	214.827
693.752	115.576
698.377	53.2334
702.999	117.663
707.619	60.6465
712.237	34.9912
716.852	39.3818
721.464	62.9912
726.074	35.127
730.681	81.1904
735.286	20.1123
739.888	169.683
744.488	40.6211
749.085	37.4639
753.68	16.9268
758.272	20.0039
762.861	128.87
767.448	179.195
772.033	212.25
776.614	68.0801
781.194	58.3105
785.77	101.95
790.345	186.053
794.916	110.942
799.485	29.4746
804.052	249.821
808.616	246.955
813.177	138.88
817.736	147.158
822.292	68.8535
826.846	46.6816
831.397	6.67383
835.945	35.2637
840.491	142.567
845.035	174.37
849.576	173.185
854.114	159.238
858.65	339.908
863.183	358.853
867.713	133.614
872.241	175.669
876.767	110.649
881.29	128.544
885.81	82.9619
890.328	113.849
894.843	16.0645
899.356	32.9121
903.866	229.956
908.373	541.359
912.878	959.924
917.38	2233.31
921.88	4404.36
926.377	4847.67
930.872	3112.24
935.364	1849.02
939.853	1133.35
944.34	795.268
948.824	685.082
953.306	721.391
957.785	675.794
962.261	693.914
966.735	882.294
971.207	1387.01
975.675	2150.52
980.141	3580.08
984.605	6796.3
989.066	13833.5
993.524	24475.5
997.98	38653.1
1002.43	46567.1
1006.88	29687.8
1011.33	12815.9
1015.78	6260.76
1020.22	4244.59
1024.66	4566.61
1029.1	2831.89
1033.53	1375.36
1037.97	1015.24
1042.4	934.558
1046.82	911.273
1051.25	939.437
1055.67	917.074
1060.09	825.764
1064.51	926.335
1068.92	1000.48
1073.33	1087.62
1077.74	1140.52
1082.15	1474.95
1086.55	1981.66
1090.95	1980.78
1095.35	1623.12
1099.75	1296.45
1104.14	996.724
1108.53	1023.15
1112.92	1394.7
1117.31	1510.44
1121.69	850.654
1126.07	420.695
1130.45	225.928
1134.82	183.394
1139.19	47.5938
1143.57	238.484
1147.93	231.248
1152.3	432.248
1156.66	463.647
1161.02	641.225
1165.38	1433.89
1169.73	2070.69
1174.08	2086.53
1178.43	733.373
1182.78	278.207
1187.12	94.0234
1191.46	4.78906
1195.8	100.574
1200.14	134.668
1204.47	23.4512
1208.8	17.1973
1213.13	154.248
1217.46	192.99
1221.78	26.6289
1226.1	79.3809
1230.42	24.7148
1234.73	238.666
1239.04	126.523
1243.35	105.147
1247.66	123.717
1251.97	24.0469
1256.27	178.125
1260.57	2.05469
1264.86	398.764
1269.16	367.086
1273.45	329.758
1277.74	297.664
1282.03	476.723
1286.31	270.713
1290.59	476.522
1294.87	498.994
1299.14	283.027
1303.42	338.254
1307.69	554.213
1311.95	474.004
1316.22	486.615
1320.48	574.354
1324.74	628.875
1329	384.223
1333.26	336.603
1337.51	152.719
1341.76	263.728
1346	313.377
1350.25	216.834
1354.49	360.566
1358.73	240.887
1362.96	305.199
1367.2	108.174
1371.43	18.7051
1375.66	125.465
1379.88	244.883
1384.11	96.7402
1388.33	198.09
1392.54	183.826
1396.76	4.55078
1400.97	4.16406
1405.18	165.211
1409.39	38.6055
1413.59	15.416
1417.8	82.293
1421.99	118.602
1426.19	12.8633
1430.38	221.459
1434.58	45.6348
1438.77	514.828
1442.95	533.416
1447.13	706.6
1451.32	792.58
1455.49	739.91
1459.67	619.869
1463.84	610.975
1468.01	205.109
1472.18	358.455
1476.35	330.606
1480.51	282.273
1484.67	70.1582
1488.83	171.779
1492.98	9.76953
1497.13	53.0215
1501.28	153.815
1505.43	125.674
1509.57	221.65
1513.71	34.1191
1517.85	9.58984
1521.99	93.5918
1526.12	110.844
1530.25	109.326
1534.38	224.391
1538.5	299.088
1542.62	231.797
1546.74	165.033
1550.86	399.31
1554.98	754.828
1559.09	17.168
1563.2	214.481
1567.31	219.703
1571.41	263.644
