Measurement: Raman, 514 nm, ccw, Raman Data Processed
Mineral: Scholzite
Rruff sample: R050238
Ideal chemistry: CaZn_2_(PO_4_)_2_2H_2_O
Locality: near Blinman, South Australia, Australia
Source: Marcus Origlieri
Description: Colorless bladed crystals
Measured chemistry: Ca_1.00_Zn_2.00_(P_1.00_O_4_)_2_Â·2H_2_O
Pin_id: M00305
Orientation: Laser parallel to b* (0 1 0). Fiducial mark perpendicular to laser is parallel to -b [0 -1 0]
Raman shift (cm-1)	intensity
127.979	0
132.898	48.5273
137.814	708.809
142.728	1074.27
147.639	1573.85
152.549	3621.95
157.455	8014.4
162.359	11975.7
167.261	9625.64
172.161	4582.97
177.058	1494.02
181.952	478.219
186.845	47.6855
191.734	50.7051
196.622	52.8184
201.507	373.109
206.389	1962.34
211.269	7258.13
216.147	16859.9
221.022	23588.1
225.895	18430.3
230.765	9428.1
235.633	4672.44
240.498	2948.84
245.361	2013.68
250.222	1346.37
255.08	1172.44
259.936	1829.76
264.789	2881.72
269.64	4088.13
274.488	4403.98
279.334	4833.77
284.178	5052.58
289.019	4536.12
293.857	3750.21
298.693	3207.3
303.527	3425.69
308.358	3836.75
313.187	3376.59
318.013	2699.12
322.837	2234.95
327.659	2230.71
332.478	2480.87
337.294	2599.72
342.108	2430.97
346.92	1832.31
351.729	1121.09
356.535	431.556
361.34	134.965
366.141	17.6699
370.94	63.3218
375.737	118.809
380.531	459.979
385.323	888.424
390.113	1701.95
394.9	3495.16
399.684	7011.78
404.466	12574.7
409.245	15980.9
414.022	13073.4
418.797	7279.19
423.569	3460.41
428.338	1820.1
433.105	1064.11
437.87	532.411
442.632	276.955
447.391	100.664
452.149	42.4094
456.903	16.9946
461.655	66.0193
466.405	113.876
471.152	121.926
475.897	74.1121
480.639	11.373
485.378	35.6509
490.116	29.1125
494.85	185.18
499.582	189.079
504.312	314.994
509.039	345.351
513.764	446.575
518.486	360.602
523.206	342.591
527.923	350.767
532.638	390.855
537.35	493.653
542.059	615.197
546.766	731.281
551.471	830.985
556.173	735.304
560.873	745.634
565.57	1001.19
570.264	1213.5
574.957	1510.97
579.646	1762.68
584.333	1924.8
589.018	1961.84
593.7	2010.32
598.379	1850.14
603.056	1455.38
607.73	1018.41
612.402	584.942
617.072	424.899
621.739	397.627
626.403	484.529
631.065	512.411
635.724	515.19
640.381	548.754
645.035	345.38
649.687	249.159
654.336	259.262
658.983	203.348
663.627	193.553
668.268	183.137
672.907	174.535
677.544	85.1985
682.178	122.079
686.809	93.436
691.438	149.198
696.065	143.447
700.688	123.204
705.31	118.618
709.929	225.769
714.545	220.054
719.158	216.678
723.77	256.591
728.378	242.846
732.984	207.27
737.588	235.984
742.189	183.669
746.787	160.971
751.383	117.867
755.976	142.902
760.567	82.1685
765.155	114.519
769.741	44.7666
774.324	84.8242
778.904	4.39258
783.482	13.0996
788.058	12.6929
792.631	48.04
797.201	37.5488
801.769	70.4814
806.334	82.8823
810.897	79.2398
815.457	58.2637
820.014	25.9141
824.569	33.5059
829.122	78.9653
833.671	78.3447
838.219	17.5835
842.763	94.3984
847.306	46.3149
851.845	68.7778
856.382	33.6973
860.917	6.02002
865.448	106.48
869.978	9.64209
874.505	80.1245
879.029	22.0479
883.55	30.4707
888.069	62.4131
892.586	226.723
897.1	427.6
901.611	843.04
906.12	1500.19
910.626	3166.61
915.129	7554.9
919.63	14784.6
924.129	18116
928.625	14471.2
933.118	9316.19
937.609	6111.47
942.097	4244.91
946.582	3040.12
951.065	2222.38
955.546	1635.45
960.023	1358.88
964.499	1467.64
968.971	1767.74
973.441	2363.22
977.909	3630.77
982.374	7153.04
986.836	14679.8
991.295	26971
995.753	42719.2
1000.21	51952.6
1004.66	40581.5
1009.11	19815.7
1013.55	8620.04
1018	5225.32
1022.44	4929.12
1026.88	3572.53
1031.32	1831.67
1035.75	1221.52
1040.18	874
1044.61	872.129
1049.04	1023.9
1053.46	1477.39
1057.88	1376.56
1062.3	701.347
1066.71	251.762
1071.13	177.821
1075.54	165.543
1079.94	119.866
1084.35	202.818
1088.75	311.356
1093.15	269.582
1097.55	282.461
1101.94	323.998
1106.34	631.9
1110.73	1605.54
1115.11	3616.25
1119.5	3210.22
1123.88	1059.82
1128.26	481.637
1132.63	552.709
1137.01	298.146
1141.38	472.986
1145.75	821.318
1150.12	1431.74
1154.48	2262.24
1158.84	4256.24
1163.2	8926.28
1167.55	19841.7
1171.91	29597.9
1176.26	18196.3
1180.61	6847.35
1184.95	3136.76
1189.29	1736.4
1193.63	935.234
1197.97	657.289
1202.31	225.488
1206.64	219.872
1210.97	125.354
1215.29	85.0615
1219.62	15.7632
1223.94	41.1392
1228.26	91.4912
1232.57	12.605
1236.89	98.2437
1241.2	98.812
1245.51	6.9126
1249.81	53.0264
1254.12	5.4043
1258.42	37.2876
1262.72	68.145
1267.01	65.8389
1271.3	74.3106
1275.59	17.5601
1279.88	25.4531
1284.17	85.6201
1288.45	40.4829
1292.73	50.8994
1297.01	43.4824
1301.28	2.7749
1305.55	55.7725
1309.82	111.85
1314.09	132.406
1318.35	766.655
1322.61	97.5776
1326.87	221.212
1331.13	139.579
1335.38	169.661
1339.63	175.232
1343.88	211.651
1348.12	25.4282
1352.37	114.113
1356.61	226.632
1360.85	72.7363
1365.08	130.817
1369.31	89.3799
1373.54	141.95
1377.77	128.318
1381.99	109.757
1386.22	131.969
1390.43	168.423
1394.65	148.925
1398.87	76.6235
1403.08	84.7725
1407.29	40.0727
1411.49	99.4331
1415.69	90.1919
1419.89	44.959
1424.09	125.107
1428.29	91.2549
1432.48	22.7124
1436.67	168.445
1440.86	177.314
1445.04	217.432
1449.23	176.829
1453.4	320.719
1457.58	113.817
1461.76	146.648
1465.93	94.2256
1470.1	154.211
1474.26	126.213
1478.43	2.51074
1482.59	83.2485
1486.75	107.68
1490.9	35.0356
1495.06	25.2524
1499.21	136.912
1503.35	179.973
1507.5	83.2188
1511.64	66.9477
1515.78	98.6128
1519.92	141.319
1524.05	28.6055
1528.18	93.3706
1532.31	119.121
1536.44	95.4463
1540.56	62.4477
1544.69	113.579
1548.8	54.7881
1552.92	24.6001
1557.03	102.125
1561.14	91.1148
1565.25	1.67871
1569.36	23.0591
