Measurement: Raman, 514 nm, ccw, Raman Data Processed
Mineral: Scholzite
Rruff sample: R050238
Ideal chemistry: CaZn_2_(PO_4_)_2_2H_2_O
Locality: near Blinman, South Australia, Australia
Source: Marcus Origlieri
Description: Colorless bladed crystals
Measured chemistry: Ca_1.00_Zn_2.00_(P_1.00_O_4_)_2_Â·2H_2_O
Pin_id: M00184
Orientation: Laser parallel to -a* (-1 0 0). Fiducial mark perpendicular to laser is parallel to -b [0 -1 0]
Raman shift (cm-1)	intensity
135.356	0
140.271	42.9375
145.184	288.125
150.094	1053.39
155.002	1960.3
159.908	2047.32
164.811	2481.8
169.711	1616.68
174.61	1005.64
179.505	509.975
184.399	516.889
189.29	693.15
194.178	814.926
199.064	907.426
203.948	643.881
208.829	253.998
213.708	30.8984
218.585	472.15
223.459	1523.73
228.33	1819.96
233.199	2543.65
238.066	3174.33
242.93	2567.57
247.792	1699.59
252.651	1370.85
257.508	2037.72
262.363	1566.41
267.215	1974.27
272.064	2718.98
276.912	2951.52
281.756	3392.16
286.598	3412.09
291.438	3299.9
296.276	2718.75
301.111	2352.01
305.943	2399.98
310.773	2434.47
315.601	2209.55
320.426	2064.77
325.248	1714.11
330.068	1341.77
334.886	1236.91
339.701	996.973
344.514	828.572
349.324	713.787
354.132	482.356
358.938	312.18
363.741	162.699
368.541	243.158
373.339	201.518
378.135	369.94
382.928	285.404
387.718	459.562
392.506	633.451
397.292	1161.06
402.075	1878.41
406.856	3677.55
411.634	4329.52
416.41	3097.34
421.183	1538.99
425.954	562.518
430.722	453.676
435.488	76.3809
440.251	204.553
445.012	130.812
449.77	398.977
454.526	34.1934
459.28	34.252
464.03	130.459
468.779	34.7559
473.525	141.574
478.268	126.148
483.009	50.5918
487.747	24.4375
492.483	1.88867
497.217	97.1582
501.948	95.8574
506.676	266.174
511.402	380.141
516.125	336.412
520.846	501.728
525.565	411.164
530.281	456.723
534.994	743.019
539.705	1293.15
544.413	2924.12
549.119	6781.77
553.822	9757.76
558.523	4412.45
563.222	1990.08
567.917	1075.98
572.611	868.271
577.302	638.094
581.99	700.615
586.676	657.84
591.359	845.727
596.04	1182.66
600.718	1246.96
605.394	1113.54
610.067	696.359
614.737	582.602
619.406	667.256
624.071	714.193
628.734	646.018
633.395	643.264
638.053	497.422
642.708	377.49
647.361	764.631
652.012	559.512
656.66	838.781
661.305	1169.15
665.948	1053.53
670.588	541.18
675.226	283.861
679.861	193.732
684.494	77.125
689.124	237.656
693.752	30.0664
698.377	102.25
702.999	232.647
707.619	85.209
712.237	44.2441
716.852	166.803
721.464	175.881
726.074	201.715
730.681	108.449
735.286	22.0098
739.888	330.467
744.488	14.2852
749.085	216.315
753.68	82.8594
758.272	165.393
762.861	213.695
767.448	192.426
772.033	1.15625
776.614	285.076
781.194	159.42
785.77	297.348
790.345	245.875
794.916	236.893
799.485	217.277
804.052	204.211
808.616	44.7285
813.177	106.699
817.736	80.2344
822.292	46.8594
826.846	228.041
831.397	25.7305
835.945	52.2715
840.491	15.5977
845.035	252.266
849.576	83.416
854.114	56.6016
858.65	250.889
863.183	256.83
867.713	247.242
872.241	126.522
876.767	81.6152
881.29	102.66
885.81	122.107
890.328	119.582
894.843	38.7832
899.356	141.904
903.866	60.5527
908.373	447.619
912.878	542.25
917.38	1739.76
921.88	3348.84
926.377	3741.54
930.872	2517.64
935.364	1458.08
939.853	872.195
944.34	697.238
948.824	449.748
953.306	598.32
957.785	419.607
962.261	409.455
966.735	468.457
971.207	1003.98
975.675	1456.48
980.141	2301.03
984.605	4798.52
989.066	10263.7
993.524	17707.8
997.98	27053.2
1002.43	31710.2
1006.88	19295.4
1011.33	8261.65
1015.78	3778.14
1020.22	2332.12
1024.66	2098
1029.1	1270.31
1033.53	544.453
1037.97	312.891
1042.4	393.647
1046.82	509.5
1051.25	494.943
1055.67	804.344
1060.09	918.168
1064.51	1250.89
1068.92	2022.31
1073.33	2333.88
1077.74	2618.95
1082.15	3489.7
1086.55	4372
1090.95	4553.83
1095.35	3721.08
1099.75	2646.5
1104.14	1848.28
1108.53	1837.83
1112.92	2640.36
1117.31	2525.64
1121.69	1256.55
1126.07	916.887
1130.45	509.473
1134.82	391.394
1139.19	284.557
1143.57	211.531
1147.93	42.0273
1152.3	376.338
1156.66	196.727
1161.02	471.68
1165.38	1007.16
1169.73	1445.98
1174.08	1301.99
1178.43	1040.98
1182.78	772.621
1187.12	4.97656
1191.46	201.039
1195.8	241.703
1200.14	226.391
1204.47	106.85
1208.8	139.309
1213.13	191.685
1217.46	73.3789
1221.78	35.0664
1226.1	222.508
1230.42	210.606
1234.73	194.785
1239.04	2.08203
1243.35	187.309
1247.66	189.207
1251.97	291.438
1256.27	254.961
1260.57	297.336
1264.86	642.477
1269.16	351.441
1273.45	434.148
1277.74	579.504
1282.03	590.375
1286.31	740.242
1290.59	747.555
1294.87	787.106
1299.14	605.078
1303.42	741.762
1307.69	508.527
1311.95	862.992
1316.22	520.805
1320.48	897.465
1324.74	707.945
1329	157.848
1333.26	613.769
1337.51	338.758
1341.76	501.906
1346	411.773
1350.25	391.414
1354.49	308.711
1358.73	608.394
1362.96	230.023
1367.2	412.469
1371.43	466.469
1375.66	221.144
1379.88	443.277
1384.11	251.215
1388.33	155.496
1392.54	243.891
1396.76	160.215
1400.97	103.551
1405.18	184.617
1409.39	106.043
1413.59	214.832
1417.8	58.043
1421.99	24.6211
1426.19	68.4648
1430.38	269.098
1434.58	312.16
1438.77	263.922
1442.95	481.371
1447.13	586.043
1451.32	631.523
1455.49	848.602
1459.67	515.5
1463.84	838.352
1468.01	343.129
1472.18	427.301
1476.35	369.309
1480.51	260.676
1484.67	449.66
1488.83	498.762
1492.98	120.215
1497.13	511.629
1501.28	254.867
1505.43	839.066
1509.57	555.656
1513.71	636.484
1517.85	841.965
1521.99	431.66
1526.12	661.754
1530.25	710.195
1534.38	351.137
1538.5	689.34
1542.62	478.816
1546.74	664.465
1550.86	875.621
1554.98	794.598
1559.09	277.023
1563.2	323.758
1567.31	353.441
1571.41	35.7227
