Measurement: Raman, 514 nm, ccw, Raman Data Processed
Mineral: Scholzite
Rruff sample: R050238
Ideal chemistry: CaZn_2_(PO_4_)_2_2H_2_O
Locality: near Blinman, South Australia, Australia
Source: Marcus Origlieri
Description: Colorless bladed crystals
Measured chemistry: Ca_1.00_Zn_2.00_(P_1.00_O_4_)_2_Â·2H_2_O
Pin_id: M00184
Orientation: Laser parallel to -a* (-1 0 0). Fiducial mark perpendicular to laser is parallel to -b [0 -1 0]
Raman shift (cm-1)	intensity
135.356	0
140.271	142.305
145.184	102.449
150.094	93.7153
155.002	427.695
159.908	1146.82
164.811	2997.35
169.711	2505.61
174.61	1570.42
179.505	1237.87
184.399	1118.35
189.29	998.612
194.178	882.283
199.064	940.747
203.948	854.731
208.829	289.915
213.708	67.6479
218.585	478.71
223.459	1331.73
228.33	967.559
233.199	356.45
238.066	237.54
242.93	150.367
247.792	133.81
252.651	539.098
257.508	1556.17
262.363	1764.98
267.215	2961.36
272.064	3731.5
276.912	3648.42
281.756	3233.76
286.598	3026.78
291.438	2532.13
296.276	1933.65
301.111	1453.08
305.943	1274.31
310.773	1131.07
315.601	998.746
320.426	982.616
325.248	942.412
330.068	928.227
334.886	804.13
339.701	541.92
344.514	410.9
349.324	310.431
354.132	209.872
358.938	277.196
363.741	353.937
368.541	448.867
373.339	588.577
378.135	870.566
382.928	1136.42
387.718	1776.17
392.506	2469.92
397.292	3802.2
402.075	6563.42
406.856	11092.5
411.634	14239.3
416.41	9339.97
421.183	4219.47
425.954	1932.79
430.722	871.775
435.488	483.377
440.251	238.584
445.012	48.4141
449.77	98.3916
454.526	26.8594
459.28	58.5166
464.03	2.68848
468.779	7.5
473.525	70.9522
478.268	49.3359
483.009	43.5996
487.747	4.23633
492.483	254.019
497.217	225.226
501.948	287.572
506.676	501.988
511.402	634.262
516.125	887.392
520.846	923.48
525.565	1208.57
530.281	1400.66
534.994	2023.76
539.705	3979.01
544.413	8885.34
549.119	19403.3
553.822	29097.5
558.523	13223.8
563.222	5353.61
567.917	2680.25
572.611	1662.71
577.302	1286.96
581.99	1249
586.676	1516
591.359	1793.22
596.04	2367.18
600.718	2764.22
605.394	2473.54
610.067	1922.55
614.737	1423.07
619.406	1322.31
624.071	1575.78
628.734	1388.33
633.395	1364.37
638.053	1015.85
642.708	824.759
647.361	765.439
652.012	564.778
656.66	359.456
661.305	248.803
665.948	395.92
670.588	178.571
675.226	104.834
679.861	117.223
684.494	140.079
689.124	166.077
693.752	5.81543
698.377	114.506
702.999	286.935
707.619	350.699
712.237	360.532
716.852	465.143
721.464	459.53
726.074	393.726
730.681	579.91
735.286	405.138
739.888	291.863
744.488	341.821
749.085	44.7695
753.68	83.0176
758.272	190.395
762.861	63.709
767.448	172.818
772.033	1.31348
776.614	106.221
781.194	109.343
785.77	0.601563
790.345	79.6035
794.916	17.3105
799.485	78.7353
804.052	58.7197
808.616	36.7344
813.177	38.2627
817.736	2.87305
822.292	36.0059
826.846	85.333
831.397	27.7432
835.945	25.0186
840.491	124.455
845.035	195.783
849.576	74.0029
854.114	181.147
858.65	178.227
863.183	326.248
867.713	56.2178
872.241	119.151
876.767	13.0566
881.29	128.116
885.81	69.8438
890.328	185.07
894.843	166.887
899.356	184.9
903.866	387.971
908.373	869.58
912.878	1347.82
917.38	3133.74
921.88	5780.68
926.377	6257.18
930.872	4370.12
935.364	2697.85
939.853	1891.05
944.34	1331.06
948.824	1211.11
953.306	1065.51
957.785	1021.34
962.261	1324.28
966.735	1521.35
971.207	2112.83
975.675	2910.65
980.141	4574.17
984.605	8305.66
989.066	16967.4
993.524	29520.4
997.98	44782.7
1002.43	51047.2
1006.88	31724.2
1011.33	13512.7
1015.78	5988.57
1020.22	4213.12
1024.66	3292.79
1029.1	2009.84
1033.53	1199.17
1037.97	802.773
1042.4	727.681
1046.82	753.936
1051.25	983.544
1055.67	1057.62
1060.09	821.836
1064.51	729.937
1068.92	730.706
1073.33	1311.93
1077.74	1147.28
1082.15	1503.77
1086.55	1788.29
1090.95	1852.81
1095.35	1596.39
1099.75	1014.92
1104.14	809.537
1108.53	703.579
1112.92	822.213
1117.31	728.191
1121.69	546.178
1126.07	163.922
1130.45	373.074
1134.82	294.334
1139.19	81.6699
1143.57	77.0176
1147.93	7.44336
1152.3	59.8594
1156.66	280.731
1161.02	324.435
1165.38	529.129
1169.73	908.862
1174.08	1005.65
1178.43	235.398
1182.78	152.085
1187.12	147.68
1191.46	126.071
1195.8	46.9824
1200.14	168.386
1204.47	44.6475
1208.8	144.737
1213.13	53.0107
1217.46	6.49707
1221.78	111.643
1226.1	78.4033
1230.42	42.0938
1234.73	0.464844
1239.04	10.5215
1243.35	85.5039
1247.66	250.885
1251.97	198.015
1256.27	172.947
1260.57	50.1035
1264.86	218.683
1269.16	259.845
1273.45	255.36
1277.74	479.067
1282.03	322.259
1286.31	358.68
1290.59	333.387
1294.87	454.864
1299.14	357.644
1303.42	427.915
1307.69	431.259
1311.95	669.328
1316.22	428.906
1320.48	611.538
1324.74	438.031
1329	367.497
1333.26	223.512
1337.51	321.708
1341.76	204.144
1346	307.463
1350.25	204.108
1354.49	302.249
1358.73	251.783
1362.96	163.725
1367.2	36.9248
1371.43	114.774
1375.66	289.364
1379.88	255.719
1384.11	72.2285
1388.33	156.852
1392.54	156.283
1396.76	63.9463
1400.97	200.911
1405.18	197.455
1409.39	40.9395
1413.59	2.37695
1417.8	165.779
1421.99	168.34
1426.19	15.8896
1430.38	152.56
1434.58	489.648
1438.77	548.394
1442.95	348.269
1447.13	656.933
1451.32	722.157
1455.49	644.925
1459.67	544.468
1463.84	533.714
1468.01	407.656
1472.18	249.213
1476.35	308.695
1480.51	349.201
1484.67	290.836
1488.83	76.6543
1492.98	243.449
1497.13	243.584
1501.28	50.2637
1505.43	209.756
1509.57	341.627
1513.71	2.95898
1517.85	207.588
1521.99	46.332
1526.12	432.127
1530.25	226.951
1534.38	286.713
1538.5	333.072
1542.62	260.326
1546.74	134.641
1550.86	452.262
1554.98	454.793
1559.09	150.103
1563.2	2.91797
1567.31	46.959
1571.41	186.777
