Measurement: Raman, 514 nm, ccw, Raman Data Processed
Mineral: Scholzite
Rruff sample: R050238
Ideal chemistry: CaZn_2_(PO_4_)_2_2H_2_O
Locality: near Blinman, South Australia, Australia
Source: Marcus Origlieri
Description: Colorless bladed crystals
Measured chemistry: Ca_1.00_Zn_2.00_(P_1.00_O_4_)_2_Â·2H_2_O
Pin_id: M00218
Orientation: Laser parallel to c* (0 0 1). Fiducial mark perpendicular to laser is parallel to a [1 0 0]
Raman shift (cm-1)	intensity
135.356	0
140.271	265.262
145.184	55.7559
150.094	604.594
155.002	1133.35
159.908	2146.4
164.811	3309.97
169.711	2026.3
174.61	796.748
179.505	372.408
184.399	164.319
189.29	229.717
194.178	476.595
199.064	636.349
203.948	864.305
208.829	252.115
213.708	692.148
218.585	2316.16
223.459	3779.53
228.33	4208.82
233.199	5785.76
238.066	6675.23
242.93	5398.74
247.792	3290.43
252.651	2348.13
257.508	2419.13
262.363	2051.18
267.215	2812.93
272.064	3503.57
276.912	4112.8
281.756	4590.76
286.598	5189.6
291.438	4679.01
296.276	3832.66
301.111	3566.65
305.943	3727.55
310.773	3800.9
315.601	3192.2
320.426	2626.65
325.248	2139.28
330.068	1678.98
334.886	1525.97
339.701	1177.71
344.514	861.094
349.324	724.743
354.132	456.849
358.938	180.067
363.741	1.80273
368.541	80.4268
373.339	42.3115
378.135	18.5205
382.928	15.1504
387.718	96.0391
392.506	121.183
397.292	290.973
402.075	758.16
406.856	1227.97
411.634	1698.72
416.41	1259.82
421.183	646.415
425.954	449.428
430.722	298.588
435.488	144.786
440.251	317.144
445.012	91.624
449.77	86.2451
454.526	129.807
459.28	164.332
464.03	63.1934
468.779	20.1602
473.525	20.6104
478.268	92.6543
483.009	127.752
487.747	203.535
492.483	168.507
497.217	292.737
501.948	400.079
506.676	375.885
511.402	466.507
516.125	229.79
520.846	250.023
525.565	264.732
530.281	179.121
534.994	445.03
539.705	526.688
544.413	1047.7
549.119	2217.84
553.822	2767.16
558.523	1528.39
563.222	691.721
567.917	588.989
572.611	750.38
577.302	869.666
581.99	886.165
586.676	1014.49
591.359	1077.15
596.04	1163.17
600.718	1218.96
605.394	1068.46
610.067	707.996
614.737	624.908
619.406	382.049
624.071	409.543
628.734	277.507
633.395	216.131
638.053	599.07
642.708	515.023
647.361	502.723
652.012	340.914
656.66	337.999
661.305	436.975
665.948	310.6
670.588	170.689
675.226	102.411
679.861	60.8887
684.494	14.5312
689.124	41.459
693.752	139.791
698.377	214.409
702.999	36.8545
707.619	168.925
712.237	6.67285
716.852	54.3574
721.464	52.2383
726.074	129.663
730.681	172.15
735.286	189.078
739.888	92.3184
744.488	130.173
749.085	117.28
753.68	124.982
758.272	178.347
762.861	57.7236
767.448	276.673
772.033	120.804
776.614	287.558
781.194	99.8965
785.77	18.9092
790.345	255.137
794.916	144.669
799.485	122.532
804.052	235.753
808.616	299.897
813.177	487.601
817.736	718.829
822.292	279.249
826.846	259.798
831.397	79.6025
835.945	57.1387
840.491	193.295
845.035	40.4678
849.576	113.679
854.114	152.173
858.65	254.448
863.183	349.562
867.713	179.645
872.241	47.2315
876.767	38.331
881.29	54.4912
885.81	37.1006
890.328	28.7969
894.843	3.97949
899.356	105.366
903.866	34.7793
908.373	462.328
912.878	1154.19
917.38	2745.88
921.88	4504.38
926.377	5030.82
930.872	4081.46
935.364	3119.65
939.853	2362.67
944.34	1492.48
948.824	1032.88
953.306	549.859
957.785	734.262
962.261	702.832
966.735	552
971.207	1196.89
975.675	1762.96
980.141	2863.7
984.605	5813.02
989.066	11876.3
993.524	20087.5
997.98	29742
1002.43	32876.2
1006.88	21078.1
1011.33	9023.43
1015.78	4342.58
1020.22	3052.39
1024.66	2971.91
1029.1	1763.21
1033.53	973.519
1037.97	904.092
1042.4	741.217
1046.82	499.512
1051.25	553.951
1055.67	667.555
1060.09	771.822
1064.51	964.836
1068.92	681.621
1073.33	968.215
1077.74	1121.45
1082.15	1527.73
1086.55	1979.86
1090.95	1747.08
1095.35	1637.05
1099.75	1639.96
1104.14	1569.19
1108.53	2651.19
1112.92	5242.16
1117.31	7074.94
1121.69	3399.08
1126.07	1396.64
1130.45	371.285
1134.82	234.404
1139.19	324.244
1143.57	158.531
1147.93	408.268
1152.3	341.303
1156.66	897.644
1161.02	1590.28
1165.38	2452.93
1169.73	4635.56
1174.08	4675.83
1178.43	2045.75
1182.78	793.363
1187.12	247.4
1191.46	116.545
1195.8	56.0918
1200.14	21.0684
1204.47	75.8262
1208.8	34.6152
1213.13	73.3984
1217.46	5.50586
1221.78	133.961
1226.1	59.5254
1230.42	63.6484
1234.73	242.635
1239.04	153.16
1243.35	219.295
1247.66	214.945
1251.97	352.272
1256.27	287.219
1260.57	376.777
1264.86	424.986
1269.16	359.625
1273.45	380.565
1277.74	242.44
1282.03	373.106
1286.31	342.389
1290.59	208.58
1294.87	335.934
1299.14	254.797
1303.42	495.889
1307.69	809.934
1311.95	458.922
1316.22	677.07
1320.48	500.482
1324.74	695.488
1329	538.891
1333.26	339.83
1337.51	365.695
1341.76	270.17
1346	480.584
1350.25	282.135
1354.49	215.791
1358.73	279.383
1362.96	13.1191
1367.2	202.945
1371.43	85.4023
1375.66	83.8574
1379.88	14.5938
1384.11	152.139
1388.33	221.602
1392.54	71.3809
1396.76	200.496
1400.97	19.3398
1405.18	102.647
1409.39	38.3926
1413.59	186.697
1417.8	1.39648
1421.99	268.383
1426.19	129.457
1430.38	418.912
1434.58	785.481
1438.77	687.861
1442.95	1058.57
1447.13	967.387
1451.32	935.758
1455.49	1031.32
1459.67	921.938
1463.84	831.582
1468.01	487.772
1472.18	508.461
1476.35	384.883
1480.51	253.535
1484.67	192.227
1488.83	384.025
1492.98	204.725
1497.13	244.539
1501.28	69.2227
1505.43	410.166
1509.57	449.125
1513.71	294.535
1517.85	274.731
1521.99	288.684
1526.12	238.291
1530.25	325.943
1534.38	328.859
1538.5	213.398
1542.62	214.824
1546.74	284.582
1550.86	365.859
1554.98	589.879
1559.09	845.863
1563.2	420.66
1567.31	73.4727
1571.41	0.859375
