Measurement: Raman, 514 nm, ccw, Raman Data Processed
Mineral: Scholzite
Rruff sample: R050238
Ideal chemistry: CaZn_2_(PO_4_)_2_2H_2_O
Locality: near Blinman, South Australia, Australia
Source: Marcus Origlieri
Description: Colorless bladed crystals
Measured chemistry: Ca_1.00_Zn_2.00_(P_1.00_O_4_)_2_Â·2H_2_O
Pin_id: M00218
Orientation: Laser parallel to c* (0 0 1). Fiducial mark perpendicular to laser is parallel to a [1 0 0]
Raman shift (cm-1)	intensity
135.356	0
140.271	419.228
145.184	249.624
150.094	599.199
155.002	1443.49
159.908	2293.01
164.811	3556.79
169.711	2056.62
174.61	1249.61
179.505	355.492
184.399	82.4531
189.29	47.7109
194.178	102.898
199.064	354.921
203.948	174.738
208.829	23.9873
213.708	1636.6
218.585	3859.55
223.459	5416.59
228.33	4570.6
233.199	4444.18
238.066	4812.77
242.93	3708.49
247.792	2259.15
252.651	1482.99
257.508	1971.19
262.363	1727.38
267.215	2189.73
272.064	3038.35
276.912	3502.99
281.756	3906.1
286.598	4276.17
291.438	3923.94
296.276	3512.17
301.111	3167.73
305.943	3391.71
310.773	3468.33
315.601	3117.8
320.426	2536.56
325.248	1974.33
330.068	1658.28
334.886	1447.14
339.701	1251.41
344.514	896.061
349.324	604.129
354.132	307.905
358.938	137.338
363.741	41.373
368.541	50.3272
373.339	69.8877
378.135	31.8359
382.928	75.1934
387.718	101.436
392.506	349.843
397.292	755.876
402.075	1684.03
406.856	2794.66
411.634	3276.43
416.41	2388.59
421.183	1182.18
425.954	753.185
430.722	343.326
435.488	403.507
440.251	234.721
445.012	237.909
449.77	142.105
454.526	113.445
459.28	62.2559
464.03	17.1494
468.779	30.0254
473.525	23.1533
478.268	1.61231
483.009	128.652
487.747	90.5439
492.483	135.601
497.217	339.435
501.948	447.646
506.676	450.854
511.402	537.21
516.125	401.131
520.846	264.261
525.565	298.098
530.281	211.992
534.994	244.615
539.705	510.366
544.413	1157.77
549.119	1696.99
553.822	2104.61
558.523	1159.86
563.222	837.539
567.917	706.718
572.611	911.954
577.302	1029.53
581.99	1071.5
586.676	1134.48
591.359	1102.45
596.04	1088.03
600.718	1091.77
605.394	777.622
610.067	680.622
614.737	492.649
619.406	302.126
624.071	468.551
628.734	417.078
633.395	432.139
638.053	357.425
642.708	315.565
647.361	335.317
652.012	188.988
656.66	305.143
661.305	374.182
665.948	221.288
670.588	182.421
675.226	5.12793
679.861	89.5186
684.494	12.7354
689.124	84.4356
693.752	138.791
698.377	82.5352
702.999	140.46
707.619	31.792
712.237	6.42481
716.852	125.773
721.464	11.6065
726.074	90.8174
730.681	87.584
735.286	92.8867
739.888	63.9853
744.488	132.204
749.085	222.907
753.68	92.3906
758.272	2.72461
762.861	236.501
767.448	174.087
772.033	198.208
776.614	298.7
781.194	121.57
785.77	134.636
790.345	75.0547
794.916	129.913
799.485	106.074
804.052	168.495
808.616	46.0645
813.177	299.579
817.736	314.778
822.292	76.5586
826.846	76.3545
831.397	61.6113
835.945	84.5186
840.491	137.892
845.035	73.8281
849.576	3.07324
854.114	95.0547
858.65	119.709
863.183	36.0127
867.713	73.2109
872.241	148.467
876.767	57.125
881.29	89.1914
885.81	190.825
890.328	94.6523
894.843	144.636
899.356	110.713
903.866	478.272
908.373	670.526
912.878	1779.39
917.38	3631.83
921.88	5966.97
926.377	6604.49
930.872	5093.69
935.364	4075.14
939.853	2960.6
944.34	1980.63
948.824	1240.54
953.306	1158.89
957.785	679.695
962.261	712.071
966.735	764.675
971.207	1097.77
975.675	1778.91
980.141	2872.74
984.605	6735.69
989.066	12262.5
993.524	19782.2
997.98	28328.2
1002.43	30268.3
1006.88	18843.7
1011.33	8092.36
1015.78	3844.7
1020.22	2831.71
1024.66	2684.22
1029.1	1608.17
1033.53	848.383
1037.97	450.336
1042.4	421.553
1046.82	591.039
1051.25	596.779
1055.67	634.791
1060.09	710.064
1064.51	535.398
1068.92	1053.65
1073.33	756.363
1077.74	1044.94
1082.15	1404.88
1086.55	1717.62
1090.95	1544
1095.35	1386.99
1099.75	1699.43
1104.14	1853.74
1108.53	3193.54
1112.92	6674
1117.31	8244.67
1121.69	3590.57
1126.07	1563.83
1130.45	736.674
1134.82	547.885
1139.19	241.391
1143.57	447.391
1147.93	512.049
1152.3	616.139
1156.66	1160.49
1161.02	2007.68
1165.38	4101.64
1169.73	7126.31
1174.08	6373.62
1178.43	2749.58
1182.78	1069.54
1187.12	572.854
1191.46	299.922
1195.8	82.7734
1200.14	195.639
1204.47	134.029
1208.8	95.3594
1213.13	58.0312
1217.46	80.3691
1221.78	27.5137
1226.1	75.3984
1230.42	32.4355
1234.73	48.5293
1239.04	5.2832
1243.35	42.4023
1247.66	77.9531
1251.97	4.17188
1256.27	148.178
1260.57	111.35
1264.86	337.197
1269.16	176.162
1273.45	370.746
1277.74	275.875
1282.03	116.371
1286.31	207.795
1290.59	249.166
1294.87	159.51
1299.14	418.525
1303.42	379.184
1307.69	213.998
1311.95	383.06
1316.22	324.443
1320.48	475.127
1324.74	203.082
1329	456.047
1333.26	273.881
1337.51	265.272
1341.76	351.818
1346	385.69
1350.25	237.75
1354.49	61.9023
1358.73	38.6348
1362.96	286.701
1367.2	90.9199
1371.43	116.869
1375.66	42.6133
1379.88	260.75
1384.11	59.0098
1388.33	98.543
1392.54	6.49023
1396.76	152.375
1400.97	148.324
1405.18	41.6113
1409.39	227.389
1413.59	269.551
1417.8	82.832
1421.99	291.096
1426.19	88.5703
1430.38	263.613
1434.58	320.856
1438.77	375.266
1442.95	631.668
1447.13	717.193
1451.32	590.336
1455.49	474.197
1459.67	259.65
1463.84	315.859
1468.01	278.717
1472.18	305.719
1476.35	248.297
1480.51	200.898
1484.67	65.3613
1488.83	230.705
1492.98	122.398
1497.13	156.182
1501.28	15.9004
1505.43	269.566
1509.57	360.432
1513.71	166.791
1517.85	77.3418
1521.99	157.414
1526.12	246.871
1530.25	267.871
1534.38	267.84
1538.5	301.482
1542.62	274.172
1546.74	175.852
1550.86	725.248
1554.98	551.197
1559.09	413.315
1563.2	22.0254
1567.31	260.461
1571.41	3.39062
