Measurement: Raman, 514 nm, ccw, Raman Data Processed
Mineral: Scholzite
Rruff sample: R050238
Ideal chemistry: CaZn_2_(PO_4_)_2_2H_2_O
Locality: near Blinman, South Australia, Australia
Source: Marcus Origlieri
Description: Colorless bladed crystals
Measured chemistry: Ca_1.00_Zn_2.00_(P_1.00_O_4_)_2_Â·2H_2_O
Pin_id: M00218
Orientation: Laser parallel to c* (0 0 1). Fiducial mark perpendicular to laser is parallel to a [1 0 0]
Raman shift (cm-1)	intensity
135.356	0
140.271	531.759
145.184	569.612
150.094	937.947
155.002	2308.07
159.908	5025.91
164.811	7392.22
169.711	4545.84
174.61	1542.34
179.505	512.51
184.399	19.5166
189.29	6.2334
194.178	32.5664
199.064	144.314
203.948	363.177
208.829	1625.05
213.708	5937.26
218.585	12409.9
223.459	15558
228.33	8896.71
233.199	4295.51
238.066	2748.02
242.93	1597.58
247.792	984.764
252.651	745.877
257.508	1436.32
262.363	1528.58
267.215	2589.98
272.064	3256.21
276.912	3752.2
281.756	4086.46
286.598	4816.91
291.438	3982.67
296.276	3296.23
301.111	3366.79
305.943	3520.36
310.773	3375.35
315.601	2806.22
320.426	2165.69
325.248	1853.16
330.068	1851.34
334.886	1837.73
339.701	1789.23
344.514	1445.64
349.324	1046.16
354.132	418.134
358.938	65.7607
363.741	50.959
368.541	23.6914
373.339	101.168
378.135	96.875
382.928	429.207
387.718	844.331
392.506	1395.48
397.292	2874.19
402.075	5427.75
406.856	8917.03
411.634	10640.5
416.41	7108.02
421.183	3615.74
425.954	2297.13
430.722	1032.44
435.488	586.139
440.251	333.635
445.012	276.842
449.77	73.7041
454.526	119.134
459.28	39.8603
464.03	58.5742
468.779	67.9434
473.525	26.4043
478.268	14.6953
483.009	56.6768
487.747	133.668
492.483	98.4775
497.217	398.734
501.948	532.55
506.676	638.685
511.402	695.146
516.125	500.54
520.846	339.152
525.565	354.754
530.281	330.856
534.994	424.067
539.705	563.231
544.413	947.855
549.119	1127.19
553.822	1228.8
558.523	823.661
563.222	679.657
567.917	802.744
572.611	1034.87
577.302	1225.38
581.99	1386.08
586.676	1487.27
591.359	1476.22
596.04	1352.69
600.718	1225.68
605.394	801.21
610.067	552.402
614.737	365.045
619.406	308.502
624.071	299.924
628.734	470.539
633.395	484.881
638.053	587.818
642.708	418.924
647.361	368.802
652.012	183.317
656.66	253.165
661.305	195.719
665.948	237.268
670.588	69.6768
675.226	46.7129
679.861	10.6836
684.494	108.493
689.124	15.374
693.752	35.1045
698.377	484.943
702.999	39.0586
707.619	84.0557
712.237	184.982
716.852	135.171
721.464	215.763
726.074	105.243
730.681	258.937
735.286	216.6
739.888	250.864
744.488	228.925
749.085	127.255
753.68	69.9658
758.272	71.6699
762.861	168.885
767.448	153.663
772.033	66.8887
776.614	125.529
781.194	31.54
785.77	130.65
790.345	143.264
794.916	53.75
799.485	12.8018
804.052	33.9268
808.616	42.3408
813.177	414.318
817.736	31.1543
822.292	25.0557
826.846	41.3633
831.397	22.2754
835.945	8.62891
840.491	32.8975
845.035	3.99707
849.576	25.9277
854.114	14.6592
858.65	12.1299
863.183	17.5293
867.713	77.2266
872.241	108.62
876.767	93.3877
881.29	46.4033
885.81	193.23
890.328	161.089
894.843	216.666
899.356	407.893
903.866	794.781
908.373	1484.7
912.878	3400.42
917.38	7037.06
921.88	11490.1
926.377	11980.2
930.872	8559.47
935.364	5951.11
939.853	4017.48
944.34	2872.76
948.824	2026.18
953.306	1405.23
957.785	1263.16
962.261	927.48
966.735	1231.88
971.207	1496.73
975.675	2181.57
980.141	3889.95
984.605	7723.26
989.066	15053.4
993.524	24913.5
997.98	34826.3
1002.43	35396.2
1006.88	21250
1011.33	9329.66
1015.78	4536.23
1020.22	3365.72
1024.66	2997.11
1029.1	1984.01
1033.53	923.354
1037.97	617.133
1042.4	504.365
1046.82	486.039
1051.25	808.209
1055.67	784.908
1060.09	595.07
1064.51	370.691
1068.92	394.668
1073.33	381.174
1077.74	732.18
1082.15	619.393
1086.55	903.596
1090.95	713.061
1095.35	782.072
1099.75	942.953
1104.14	1292.23
1108.53	2616.47
1112.92	5845.6
1117.31	6792.39
1121.69	2421.48
1126.07	839.479
1130.45	584.941
1134.82	509.057
1139.19	393.973
1143.57	521.525
1147.93	786.176
1152.3	1358.96
1156.66	2338.61
1161.02	4741.47
1165.38	10046.5
1169.73	17701
1174.08	15235.6
1178.43	6296.57
1182.78	2555.65
1187.12	1307.71
1191.46	724.475
1195.8	341.322
1200.14	274.951
1204.47	163.603
1208.8	220.606
1213.13	18.8516
1217.46	93.1797
1221.78	14.4902
1226.1	52.3379
1230.42	66.4414
1234.73	150.832
1239.04	37.5039
1243.35	157.549
1247.66	74.3418
1251.97	49.4277
1256.27	9.08008
1260.57	159.918
1264.86	28.9648
1269.16	80.8301
1273.45	71.416
1277.74	46.7246
1282.03	91.5195
1286.31	151.547
1290.59	211.217
1294.87	165.228
1299.14	149.082
1303.42	215.932
1307.69	220.574
1311.95	200.199
1316.22	322.131
1320.48	269.58
1324.74	333.217
1329	265.213
1333.26	300.656
1337.51	455.357
1341.76	121.939
1346	412.705
1350.25	329.277
1354.49	487.978
1358.73	109.83
1362.96	200.715
1367.2	37.3398
1371.43	75.1894
1375.66	37.2031
1379.88	227.139
1384.11	218.025
1388.33	152.441
1392.54	297.051
1396.76	399.559
1400.97	149.158
1405.18	95.3535
1409.39	12.6934
1413.59	65.4941
1417.8	133.635
1421.99	60.832
1426.19	126.029
1430.38	237.736
1434.58	13.332
1438.77	203.644
1442.95	312.264
1447.13	542.006
1451.32	287.551
1455.49	393.488
1459.67	336.945
1463.84	890.434
1468.01	407.193
1472.18	85.1543
1476.35	234.066
1480.51	66.2285
1484.67	198.084
1488.83	125.223
1492.98	173.418
1497.13	46.0645
1501.28	123.248
1505.43	125.24
1509.57	137.844
1513.71	215.406
1517.85	355.297
1521.99	237.904
1526.12	72.1621
1530.25	294.506
1534.38	255.928
1538.5	178.879
1542.62	317.742
1546.74	218.764
1550.86	380.518
1554.98	556.242
1559.09	110.268
1563.2	278.965
1567.31	212.147
1571.41	60.0117
