Measurement: Raman, 514 nm, ccw, Raman Data Processed
Mineral: Scholzite
Rruff sample: R050238
Ideal chemistry: CaZn_2_(PO_4_)_2_2H_2_O
Locality: near Blinman, South Australia, Australia
Source: Marcus Origlieri
Description: Colorless bladed crystals
Measured chemistry: Ca_1.00_Zn_2.00_(P_1.00_O_4_)_2_Â·2H_2_O
Pin_id: M00305
Orientation: Laser parallel to b* (0 1 0). Fiducial mark perpendicular to laser is parallel to -b [0 -1 0]
Raman shift (cm-1)	intensity
100.883	0
105.815	474.896
110.744	1310.62
115.671	3375.08
120.596	1037.18
125.519	164.845
130.439	3.82324
135.356	50.8171
140.271	475.733
145.184	532.922
150.094	219.598
155.002	817.5
159.908	1830.72
164.811	2609.41
169.711	1938.02
174.61	1129.27
179.505	799.208
184.399	609.935
189.29	396.279
194.178	224.007
199.064	12.1067
203.948	49.5071
208.829	55.2869
213.708	179.579
218.585	882.576
223.459	1302.2
228.33	805.771
233.199	348.028
238.066	172.136
242.93	188.099
247.792	356.008
252.651	724.095
257.508	1210.58
262.363	2231.11
267.215	3384.27
272.064	3849.37
276.912	3721.74
281.756	3392.45
286.598	3098.66
291.438	2627.67
296.276	2024.51
301.111	1465.64
305.943	1243.58
310.773	1144.69
315.601	1052.71
320.426	1091.64
325.248	943.78
330.068	896.265
334.886	778.413
339.701	528.312
344.514	401.116
349.324	324.825
354.132	258.275
358.938	268.526
363.741	530.709
368.541	501.209
373.339	806.537
378.135	1004.72
382.928	1379.76
387.718	2027.65
392.506	3086.41
397.292	5096.01
402.075	8806.41
406.856	13251.6
411.634	13114.6
416.41	7834.43
421.183	3612.05
425.954	1618.53
430.722	841.828
435.488	295.958
440.251	156.923
445.012	19.7288
449.77	8.3313
454.526	65.3862
459.28	0.872314
464.03	79.0891
468.779	42.1211
473.525	49.7361
478.268	47.8767
483.009	11.5698
487.747	47.4724
492.483	151.577
497.217	257.002
501.948	331.618
506.676	550.162
511.402	772.627
516.125	1100.02
520.846	1092.34
525.565	1331.6
530.281	1590.8
534.994	2782.93
539.705	5529.01
544.413	13494.1
549.119	25050.1
553.822	24682
558.523	10944.1
563.222	4559.16
567.917	2325.32
572.611	1529.62
577.302	1147.1
581.99	1220.77
586.676	1494.3
591.359	1893.23
596.04	2449.88
600.718	2735.49
605.394	2355.37
610.067	1821.48
614.737	1393.53
619.406	1223.21
624.071	1155.97
628.734	1210.04
633.395	1299.87
638.053	1036.79
642.708	638.849
647.361	435.025
652.012	220.529
656.66	174.816
661.305	125.012
665.948	172.48
670.588	113.038
675.226	143.688
679.861	143.892
684.494	55.2959
689.124	187.558
693.752	236.464
698.377	190.418
702.999	288.551
707.619	267.676
712.237	597.305
716.852	557.43
721.464	614.379
726.074	541.366
730.681	555.078
735.286	423.393
739.888	449.771
744.488	297.594
749.085	299.022
753.68	152.012
758.272	151.193
762.861	93.5898
767.448	120.027
772.033	99.459
776.614	16.8799
781.194	1.71387
785.77	37.6685
790.345	70.022
794.916	16.3535
799.485	47.6489
804.052	30.9077
808.616	54.1489
813.177	58.373
817.736	15.5757
822.292	38.6904
826.846	25.7734
831.397	31.1982
835.945	14.5913
840.491	73.73
845.035	45.3765
849.576	21.3726
854.114	38.7881
858.65	75.3696
863.183	46.5571
867.713	52.375
872.241	47.8643
876.767	43.523
881.29	60.2803
885.81	93.5938
890.328	103.429
894.843	121.251
899.356	300.06
903.866	447.855
908.373	841.641
912.878	1838.42
917.38	4086.09
921.88	6594.87
926.377	6576.35
930.872	4340.16
935.364	2819.22
939.853	1907.19
944.34	1601.32
948.824	1566.61
953.306	1302.54
957.785	1274.14
962.261	1520.92
966.735	1794.69
971.207	2454.06
975.675	3419.23
980.141	5568.27
984.605	10626.7
989.066	20519.2
993.524	34982.9
997.98	51222.4
1002.43	52087.2
1006.88	31320.2
1011.33	13033.3
1015.78	5915.07
1020.22	3863.73
1024.66	3302.24
1029.1	2127.92
1033.53	1353.76
1037.97	1044.78
1042.4	918.972
1046.82	817.333
1051.25	992.867
1055.67	1108.58
1060.09	840.466
1064.51	509.218
1068.92	339.495
1073.33	284.193
1077.74	346.078
1082.15	301.885
1086.55	413.572
1090.95	376.69
1095.35	409.308
1099.75	324.397
1104.14	198.118
1108.53	116.936
1112.92	220.1
1117.31	197.453
1121.69	44.148
1126.07	31.3882
1130.45	61.5972
1134.82	310.896
1139.19	81.7324
1143.57	97.6245
1147.93	66.6099
1152.3	100.918
1156.66	192.694
1161.02	291.024
1165.38	540.109
1169.73	948.554
1174.08	887.06
1178.43	441.608
1182.78	217.196
1187.12	85.8144
1191.46	32.4609
1195.8	53.8872
1200.14	20.6099
1204.47	40.0249
1208.8	52.9351
1213.13	20.0903
1217.46	5.40381
1221.78	16.9775
1226.1	16.1055
1230.42	5.76172
1234.73	35.9932
1239.04	11.7041
1243.35	81.4087
1247.66	39.0645
1251.97	17.8564
1256.27	105.726
1260.57	68.9214
1264.86	79.1006
1269.16	81.2144
1273.45	102.282
1277.74	143.947
1282.03	132.616
1286.31	127.782
1290.59	109.447
1294.87	71
1299.14	217.114
1303.42	168.472
1307.69	143.709
1311.95	176.898
1316.22	129.901
1320.48	220.781
1324.74	270.75
1329	191.468
1333.26	244.227
1337.51	156.431
1341.76	156.645
1346	139.703
1350.25	160.897
1354.49	49.9844
1358.73	64.2856
1362.96	32.8628
1367.2	145.459
1371.43	82.6089
1375.66	74.2007
1379.88	61.5366
1384.11	61.6045
1388.33	222.047
1392.54	32.2793
1396.76	37.1294
1400.97	20.1533
1405.18	64.1621
1409.39	159.88
1413.59	85.2363
1417.8	126.96
1421.99	57.9487
1426.19	54.3711
1430.38	154.982
1434.58	72.46
1438.77	59.374
1442.95	141.852
1447.13	133.336
1451.32	130.165
1455.49	146.763
1459.67	123.689
1463.84	95.0249
1468.01	139.889
1472.18	91.8589
1476.35	116.547
1480.51	120.514
1484.67	147.255
1488.83	117.012
1492.98	113.449
1497.13	65.6709
1501.28	99.6836
1505.43	79.6963
1509.57	139.9
1513.71	137.188
1517.85	88.5835
1521.99	213
1526.12	89.4927
1530.25	127.275
1534.38	23.0947
1538.5	108.477
1542.62	48.4712
1546.74	84.6143
1550.86	97.4634
1554.98	40.1704
1559.09	45.9595
1563.2	54.3496
1567.31	86.9644
1571.41	0
