Measurement: Raman, 514 nm, ccw, Raman Data Processed
Mineral: Scholzite
Rruff sample: R050238
Ideal chemistry: CaZn_2_(PO_4_)_2_2H_2_O
Locality: near Blinman, South Australia, Australia
Source: Marcus Origlieri
Description: Colorless bladed crystals
Measured chemistry: Ca_1.00_Zn_2.00_(P_1.00_O_4_)_2_Â·2H_2_O
Pin_id: M00305
Orientation: Laser parallel to b* (0 1 0). Fiducial mark perpendicular to laser is parallel to -b [0 -1 0]
Raman shift (cm-1)	intensity
100.883	0
105.815	355.159
110.744	4.1709
115.671	728.079
120.596	2904.84
125.519	2024.74
130.439	1187.55
135.356	3839.57
140.271	6925.41
145.184	5517.32
150.094	2198.7
155.002	1989.18
159.908	3735.04
164.811	4381.09
169.711	2332.71
174.61	1221.35
179.505	1199.56
184.399	1870.19
189.29	2492.15
194.178	1921.42
199.064	646.321
203.948	52.46
208.829	91.5332
213.708	2596.06
218.585	6627.36
223.459	7564.75
228.33	3561.64
233.199	1177.22
238.066	321.062
242.93	80.7642
247.792	266.565
252.651	23.4648
257.508	679.267
262.363	1897.93
267.215	3696.43
272.064	5237.63
276.912	6027.98
281.756	6666.18
286.598	7486.04
291.438	7748.26
296.276	7719.97
301.111	7492.14
305.943	7212.87
310.773	6269.48
315.601	4732.96
320.426	3266.81
325.248	2468.73
330.068	2249.49
334.886	2097.28
339.701	2155.13
344.514	2081.93
349.324	1456.7
354.132	890.521
358.938	437.085
363.741	415.603
368.541	310.733
373.339	410.503
378.135	661.867
382.928	1011.76
387.718	1497.41
392.506	2470.18
397.292	4383.83
402.075	8014.89
406.856	12215.4
411.634	12060.6
416.41	7353.24
421.183	3412.47
425.954	1662.34
430.722	762.785
435.488	360.954
440.251	216.723
445.012	66.0713
449.77	9.00488
454.526	18.8833
459.28	97.6992
464.03	37.4204
468.779	17.5366
473.525	76.1011
478.268	152.676
483.009	190.323
487.747	537.141
492.483	1070.67
497.217	1769.65
501.948	2622.58
506.676	3323.39
511.402	3477.64
516.125	3127.63
520.846	2316.35
525.565	1903.37
530.281	1688.33
534.994	2065.68
539.705	3978.81
544.413	8427.31
549.119	14828.4
553.822	14158.6
558.523	6836.03
563.222	2984.7
567.917	1682.82
572.611	1341.78
577.302	1033.68
581.99	1086.62
586.676	1219.28
591.359	1576.28
596.04	1814.42
600.718	1807.29
605.394	1533.88
610.067	1125.16
614.737	766.16
619.406	772.225
624.071	988.825
628.734	1475.1
633.395	1878.96
638.053	1765.13
642.708	1231.15
647.361	632.111
652.012	438.371
656.66	293.471
661.305	215.335
665.948	102.343
670.588	17.2554
675.226	38.2075
679.861	21.6875
684.494	50.3511
689.124	15.4326
693.752	59.2549
698.377	40.2769
702.999	191.251
707.619	223.167
712.237	310.981
716.852	359.398
721.464	587.528
726.074	636.364
730.681	561.865
735.286	539.394
739.888	423.639
744.488	308.557
749.085	252.718
753.68	330.707
758.272	211.5
762.861	220.247
767.448	128.699
772.033	140.802
776.614	107.536
781.194	41.876
785.77	87.7876
790.345	162.302
794.916	115.441
799.485	129.624
804.052	92.5928
808.616	100.667
813.177	114.31
817.736	164.61
822.292	183.062
826.846	56.9331
831.397	90.3144
835.945	1.51269
840.491	51.8755
845.035	6.10791
849.576	75.8984
854.114	14.5317
858.65	67.8769
863.183	18.9951
867.713	8.67285
872.241	50.5102
876.767	51.458
881.29	22.5698
885.81	172.79
890.328	6.33252
894.843	177.444
899.356	334.635
903.866	705.675
908.373	1377.26
912.878	2850.05
917.38	6648.55
921.88	10708.7
926.377	10401.5
930.872	6820.04
935.364	4280.95
939.853	2998.38
944.34	2421.42
948.824	1835.22
953.306	1389.21
957.785	1279.51
962.261	1447.77
966.735	1746.11
971.207	2344.16
975.675	3342.7
980.141	5419.72
984.605	10507.3
989.066	20571.5
993.524	35243.9
997.98	50764.2
1002.43	51424.6
1006.88	30903.5
1011.33	13141.6
1015.78	6215.43
1020.22	4474.42
1024.66	4088.1
1029.1	2466.96
1033.53	1588.17
1037.97	1248.73
1042.4	1019.65
1046.82	1169.96
1051.25	1292.66
1055.67	1491.76
1060.09	881.246
1064.51	639.122
1068.92	398.386
1073.33	369.044
1077.74	277.45
1082.15	418.4
1086.55	573.86
1090.95	562.205
1095.35	456.187
1099.75	368.79
1104.14	306.81
1108.53	476.171
1112.92	920.76
1117.31	980.521
1121.69	595.488
1126.07	199.567
1130.45	154.602
1134.82	179.031
1139.19	144.195
1143.57	150.517
1147.93	264.993
1152.3	724.232
1156.66	1356.93
1161.02	2595.25
1165.38	5838.84
1169.73	11708.7
1174.08	11625.8
1178.43	4978.88
1182.78	2114.18
1187.12	1045.66
1191.46	470.287
1195.8	290.061
1200.14	219.967
1204.47	84.0723
1208.8	1.19678
1213.13	51.6196
1217.46	15.5547
1221.78	2.93994
1226.1	139.264
1230.42	90.04
1234.73	15.4268
1239.04	8.32422
1243.35	41.2393
1247.66	2.32471
1251.97	133.627
1256.27	62.1128
1260.57	7.62207
1264.86	73.9771
1269.16	11.397
1273.45	31.2339
1277.74	8.54199
1282.03	19.1206
1286.31	26.1953
1290.59	42.4927
1294.87	68.8389
1299.14	118.087
1303.42	228.707
1307.69	179.41
1311.95	133.071
1316.22	221.4
1320.48	171.69
1324.74	226.584
1329	225.278
1333.26	188.768
1337.51	178.672
1341.76	119.603
1346	169.378
1350.25	106.421
1354.49	79.6484
1358.73	80.9893
1362.96	131.614
1367.2	135.109
1371.43	166.174
1375.66	114.325
1379.88	192.916
1384.11	164.286
1388.33	86.2832
1392.54	125.975
1396.76	72.5566
1400.97	83.751
1405.18	118.991
1409.39	21.6602
1413.59	5.0918
1417.8	161.87
1421.99	163.407
1426.19	26.4697
1430.38	110.44
1434.58	77.7617
1438.77	123.464
1442.95	39.8272
1447.13	225.258
1451.32	241.869
1455.49	164.01
1459.67	139.875
1463.84	280.13
1468.01	242.09
1472.18	155.31
1476.35	233.427
1480.51	181.176
1484.67	38.2529
1488.83	41.875
1492.98	73.9951
1497.13	160.881
1501.28	162.597
1505.43	138.629
1509.57	180.391
1513.71	143.376
1517.85	100.122
1521.99	2.82324
1526.12	116.816
1530.25	103.368
1534.38	172.195
1538.5	15.1807
1542.62	23.2734
1546.74	156.29
1550.86	191.089
1554.98	122.81
1559.09	50.0273
1563.2	5.5791
1567.31	224.191
1571.41	0
