Measurement: Raman, 514 nm, ccw, Raman Data Processed
Mineral: Scolecite
Rruff sample: R050083
Ideal chemistry: Ca(Si_3_Al_2_)O_10_3H_2_O
Locality: near Ahmednagar, Maharashtra, India
Source: Rock Currier
Description: Colorless acicular single crystals associated with fluorapophyllite
Measured chemistry: (Ca_.992_Na_.008_)[Al_2_Si_3_O_10_]Â·3H_2_O
Pin_id: M00267
Orientation: Laser parallel to -c* (0 0 -1). Fiducial mark perpendicular to laser is parallel to -a [-1 0 0]
Raman shift (cm-1)	intensity
49.184	0
53.401	0.251
57.617	159.822
61.83	514.391
66.041	599.31
70.25	419.253
74.456	568.803
78.661	598.615
82.863	444.164
87.064	68.894
91.262	0.468
95.458	428.076
99.652	631.893
103.843	578.679
108.033	1024.22
112.22	2034.11
116.406	1796.74
120.589	750.07
124.77	539.444
128.949	843.861
133.126	514.34
137.301	630.575
141.473	1672.72
145.644	2022.36
149.812	1087.67
153.979	1525.12
158.143	3127.43
162.305	3172.34
166.465	1857.78
170.623	1233.12
174.778	1075.64
178.932	1179.35
183.083	1649.78
187.233	1995.82
191.38	1288.31
195.525	753.857
199.669	561.53
203.81	566.036
207.949	505.328
212.085	420.533
216.22	428.974
220.353	701.771
224.483	1211.2
228.612	730.793
232.738	482.593
236.863	320.096
240.985	66.43
245.105	27.317
249.223	10.311
253.339	315.356
257.453	483.789
261.565	217.089
265.675	49.44
269.783	110.285
273.888	44.594
277.992	21.701
282.093	230.753
286.193	411.649
290.29	469.431
294.386	219.109
298.479	78.681
302.57	20.121
306.659	89.415
310.746	115.592
314.831	248.309
318.914	222.753
322.995	163.075
327.074	121.707
331.151	39.893
335.226	67.03
339.299	52.125
343.37	41.124
347.438	114.048
351.505	173.949
355.57	210.248
359.632	253.667
363.693	326.455
367.751	379.231
371.808	459.009
375.862	435.789
379.914	351.559
383.965	259.237
388.013	203.816
392.06	179.304
396.104	220.714
400.146	310.056
404.186	585.77
408.225	628.835
412.261	477.668
416.295	351.52
420.327	333.838
424.357	515.201
428.386	703.859
432.412	1060.19
436.436	1374.02
440.458	1405.79
444.478	1231.32
448.496	1290.02
452.513	1387.23
456.527	1787.61
460.539	1997.33
464.549	1506.39
468.557	834.269
472.563	543.973
476.567	390.385
480.57	365.046
484.57	452.595
488.568	556.909
492.564	639.626
496.558	634.329
500.551	565.965
504.541	645.19
508.529	676.312
512.515	833.449
516.5	1115.8
520.482	1679.23
524.462	2648.74
528.441	4707.3
532.417	9032.93
536.391	13706.6
540.364	10170.3
544.334	5168.12
548.303	2755.96
552.269	1673.85
556.234	1230.79
560.197	981.767
564.157	853.803
568.116	708.982
572.073	591.748
576.027	430.927
579.98	335.494
583.931	186.1
587.88	119.877
591.827	92.945
595.772	54.209
599.715	27.679
603.656	23.789
607.595	21.266
611.532	33.773
615.468	13.314
619.401	64.155
623.332	27.675
627.262	25.762
631.189	2.886
635.115	1.073
639.039	0.349
642.96	54.6
646.88	104.429
650.798	95.57
654.714	140.308
658.628	179.045
662.54	85.397
666.45	131.625
670.358	158.874
674.264	244.805
678.169	208.691
682.071	180.88
685.972	89.847
689.87	114.523
693.767	159.839
697.662	231.033
701.555	273.93
705.446	474.196
709.335	536.635
713.222	381.08
717.107	279.944
720.99	160.351
724.872	169.59
728.751	210.913
732.629	159.214
736.504	101.229
740.378	36.188
744.25	56.181
748.12	71.013
751.988	108.173
755.854	148.465
759.719	188.516
763.581	175.733
767.442	227.853
771.3	192.856
775.157	89.174
779.012	70.415
782.865	59.367
786.716	38.267
790.565	7.598
794.413	11.18
798.258	21.232
802.102	26.866
805.943	14.729
809.783	30.201
813.621	49.948
817.457	20.508
821.292	47.888
825.124	25.951
828.954	5.009
832.783	8.774
836.61	1.553
840.435	60.984
844.258	39.424
848.079	85.772
851.898	41.014
855.715	15.142
859.531	58.173
863.345	72.122
867.157	32
870.967	38.802
874.775	3.478
878.581	46.137
882.386	26.678
886.188	66.148
889.989	53.55
893.788	27.808
897.585	63.078
901.38	55.199
905.174	96.352
908.965	84.442
912.755	154.483
916.543	134.498
920.329	242.485
924.113	522.444
927.895	879.353
931.676	1292.21
935.454	891.016
939.231	557.123
943.006	245.495
946.78	245.431
950.551	187.511
954.32	220.529
958.088	219.505
961.854	230.552
965.618	317.704
969.38	541.771
973.141	692.83
976.9	375.213
980.656	281.731
984.411	310.716
988.165	382.073
991.916	515.152
995.665	662.52
999.413	625.399
1003.16	476.506
1006.9	438.769
1010.65	568.853
1014.39	861.778
1018.12	1342.92
1021.86	2253.49
1025.6	2811.11
1029.33	1669.85
1033.06	918.844
1036.79	648.73
1040.52	581.305
1044.25	566.29
1047.97	584.141
1051.69	577.605
1055.41	591.642
1059.13	736.303
1062.85	833.67
1066.57	970.747
1070.28	627.839
1073.99	411.054
1077.7	347.173
1081.41	270.441
1085.12	218.786
1088.82	314.014
1092.52	543.408
1096.22	754.796
1099.92	782.223
1103.62	754.879
1107.32	577.631
1111.01	415.527
1114.7	287.505
1118.39	292.355
1122.08	202.357
1125.77	90.342
1129.45	132.758
1133.14	37.899
1136.82	76.721
1140.5	4.195
1144.18	55.284
1147.85	16.149
1151.53	56.485
1155.2	84.818
1158.87	9.857
1162.54	19.503
1166.21	38.086
1169.88	46.51
1173.54	43.805
1177.2	20.363
1180.86	18.812
1184.52	29.685
1188.18	13.825
1191.83	8.334
1195.49	3.792
1199.14	127.289
1202.79	39.201
1206.44	50.134
1210.08	58.965
1213.73	111.8
1217.37	14.509
1221.01	56.383
1224.65	18.989
1228.29	87.173
1231.93	112.731
1235.56	39.136
1239.19	64.561
1242.83	96.715
1246.46	72.703
1250.08	18.812
1253.71	41.704
1257.33	22.548
1260.96	46.59
1264.58	76.342
1268.19	103.532
1271.81	113.754
1275.43	116.124
1279.04	101.205
1282.65	9.638
1286.27	46.978
1289.87	44.53
1293.48	70.258
1297.09	57.967
1300.69	98.89
1304.29	6.526
1307.89	49.649
1311.49	15.118
1315.09	23.496
1318.68	35.251
1322.28	7.346
1325.87	46.144
1329.46	82.83
1333.05	43.231
1336.63	76.056
1340.22	67.158
1343.8	52.341
1347.38	16.452
1350.96	18.787
1354.54	33.319
1358.12	34.055
1361.69	76.589
1365.26	126.157
1368.83	78.526
1372.4	62.92
1375.97	32.271
1379.54	33.582
1383.1	51.649
1386.66	84.295
1390.23	47.573
1393.79	102
1397.34	112.958
1400.9	67.047
1404.45	205.78
1408.01	52.752
1411.56	150.161
1415.11	49.093
1418.66	84.627
1422.2	18.455
1425.75	81.055
1429.29	68.542
1432.83	81.311
1436.37	73.536
1439.91	114.513
1443.44	173.044
1446.98	205.116
1450.51	103.696
1454.04	192.751
1457.57	59.13
1461.1	115.603
1464.63	40.912
1468.15	59.729
1471.67	61.968
1475.19	99.266
1478.71	101.927
1482.23	215.739
1485.75	182.124
1489.26	156.503
1492.78	119.339
1496.29	51.87
1499.8	39.966
1503.31	52.45
1506.81	9.491
1510.32	29.345
1513.82	61.182
1517.32	0
