Measurement: Raman, 514 nm, ccw, Raman Data Processed
Mineral: Scolecite
Rruff sample: R040111
Ideal chemistry: Ca(Si_3_Al_2_)O_10_3H_2_O
Locality: Bombay-Poona area, Mahahashtra Province, India
Source: National Museums of Canada
Description: Pale pink prismatic crystals in parallel or near parallel aggregates
Measured chemistry: Ca_0.98_(Si_3.05_Al_1.95_)O_10_Â·3H_2_O
Pin_id: L00237
Orientation: Laser parallel to a* (1 0 0). Fiducial mark perpendicular to laser is parallel to b [0 1 0]
Raman shift (cm-1)	intensity
79.427	0
83.614	471.388
87.798	2106.8
91.981	4892.48
96.161	6813.09
100.34	6104.29
104.516	3365.11
108.691	1417.05
112.864	2322.94
117.034	5873.36
121.203	2638.21
125.369	1519.27
129.534	1568.26
133.696	364.157
137.857	875.404
142.016	827.863
146.172	46.714
150.327	1289.78
154.48	4503.83
158.63	5331.48
162.779	2881.42
166.926	1171.77
171.07	762.052
175.213	1018.19
179.354	2319.32
183.493	3850.33
187.63	3721
191.765	1989.97
195.898	1004.05
200.029	1159.34
204.158	1584.49
208.285	1040.03
212.41	473.637
216.533	674.288
220.654	1019.95
224.773	420.229
228.891	127.723
233.006	377.683
237.119	509.713
241.231	496.868
245.34	349.554
249.448	186.357
253.553	275.247
257.657	516.262
261.758	488.606
265.858	1222.86
269.956	2630.98
274.052	2153.25
278.146	2800.23
282.237	4609.65
286.327	3238.09
290.416	1447.02
294.502	448.601
298.586	71.787
302.668	48.355
306.749	230.412
310.827	453.813
314.903	616.951
318.978	484.826
323.051	318.814
327.121	354.428
331.19	1147.1
335.257	1993.08
339.322	2854.97
343.385	2944.74
347.446	2423.35
351.505	2060.8
355.563	1410.83
359.618	790.393
363.672	525.729
367.723	229.67
371.773	3.158
375.821	68.026
379.866	73.041
383.91	136.459
387.952	496.4
391.992	763.23
396.031	903.913
400.067	869.268
404.101	1041.13
408.134	826.979
412.165	270.813
416.193	163.935
420.22	560.015
424.245	1114.83
428.268	1909.34
432.289	3127.5
436.309	2384.3
440.326	1101.72
444.342	813.75
448.355	942.389
452.367	988.861
456.377	699.219
460.385	556.324
464.391	194.447
468.395	152.807
472.398	262.486
476.398	12.518
480.397	78.033
484.394	151.363
488.389	151.805
492.382	227.135
496.373	352.463
500.362	626.633
504.349	1071.69
508.335	1404.59
512.319	2301.31
516.3	3746.81
520.28	5838.11
524.259	10545.2
528.235	20727.2
532.209	35171.6
536.182	33684
540.152	17919.7
544.121	8754.33
548.088	4766.32
552.053	2965.32
556.017	2141.68
559.978	1359.77
563.938	1096.74
567.895	960.592
571.851	700.061
575.805	627.451
579.758	662.881
583.708	501.219
587.657	397.512
591.603	283.646
595.548	339.74
599.491	224.764
603.432	203.725
607.372	137.373
611.309	66.801
615.245	223.295
619.179	363.723
623.111	1081.2
627.041	1258.85
630.97	718.141
634.896	142.93
638.821	456.385
642.744	765.562
646.665	1155.96
650.584	963.25
654.502	907.99
658.418	678.627
662.331	361.812
666.244	584.551
670.154	733.336
674.062	724.479
677.969	596.625
681.874	573.773
685.777	593.973
689.678	950.406
693.577	1059.31
697.475	783.703
701.371	1308.42
705.265	1972.26
709.157	1703.14
713.047	775.062
716.936	504.008
720.823	317.98
724.708	309.957
728.591	337.941
732.472	284.928
736.352	367.916
740.23	260.91
744.106	573.914
747.98	777.93
751.853	1052.96
755.723	1106.01
759.592	949.082
763.459	700.67
767.325	351.006
771.188	65.713
775.05	144.873
778.91	87.078
782.768	208.332
786.625	177.992
790.479	46.73
794.332	66.498
798.183	2.139
802.033	98.684
805.88	141.543
809.726	97.475
813.57	127.33
817.413	15.975
821.253	39.35
825.092	92.268
828.929	303.934
832.764	415.65
836.598	484.434
840.429	650.33
844.259	802.367
848.088	623.545
851.914	923.879
855.739	1070.06
859.562	1526.29
863.383	1394.26
867.203	932.348
871.02	697.672
874.836	663.045
878.65	813.449
882.463	737
886.274	606.629
890.083	578.33
893.89	588.09
897.695	696.834
901.499	640.156
905.301	720.355
909.102	662.607
912.9	536.873
916.697	355.189
920.492	498.701
924.285	586.436
928.077	759.748
931.867	761.064
935.655	850.229
939.442	759.518
943.226	379.229
947.009	779.611
950.791	955.312
954.57	759.646
958.348	317.93
962.124	409.896
965.899	344.785
969.671	152.156
973.442	144.514
977.211	66.521
980.979	185.68
984.745	577.277
988.509	839.695
992.271	788.125
996.032	1682.77
999.791	2688.04
1003.55	2785.77
1007.3	2174.83
1011.06	2019.86
1014.81	1282.77
1018.56	1081.32
1022.31	1132.46
1026.06	1464.76
1029.8	1671.49
1033.55	2319.28
1037.29	1680.61
1041.03	1201.07
1044.77	1590.4
1048.5	1917.28
1052.24	1144.45
1055.97	970.203
1059.7	692.119
1063.43	865.871
1067.16	912.211
1070.89	819.908
1074.61	776.861
1078.34	678.771
1082.06	1055.96
1085.78	946.893
1089.5	795.771
1093.21	762.293
1096.93	923.348
1100.64	908.203
1104.35	1018.88
1108.06	581.508
1111.77	567.84
1115.48	485.848
1119.18	519.395
1122.89	645.195
1126.59	750.053
1130.29	470.646
1133.99	8.975
1137.68	344.018
1141.38	31.334
1145.07	191.697
1148.76	80.887
1152.45	222.902
1156.14	66.852
1159.83	39.387
1163.51	84.098
1167.19	324.59
1170.88	115.588
1174.56	434.285
1178.23	170.648
1181.91	196.582
1185.59	12.826
1189.26	189.834
1192.93	68.316
1196.6	344.965
1200.27	120.152
1203.94	340.451
1207.6	411.018
1211.27	221.98
1214.93	345.609
1218.59	407.182
1222.25	60.215
1225.9	257.092
1229.56	491.564
1233.21	422.779
1236.86	738.705
1240.51	819.709
1244.16	518.936
1247.81	422.742
1251.45	505.105
1255.1	443.043
1258.74	522.494
1262.38	471.486
1266.02	612.09
1269.66	587.502
1273.29	791.074
1276.93	650.621
1280.56	506.645
1284.19	565.406
1287.82	385.344
1291.45	333.666
1295.07	479.506
1298.7	505.664
1302.32	322.211
1305.94	484.918
1309.56	718.357
1313.18	361.496
1316.8	713.137
1320.41	629.562
1324.02	705.076
1327.63	531.434
1331.24	448.207
1334.85	221.99
1338.46	108.807
1342.06	19.311
1345.67	101.15
1349.27	59.666
1352.87	146.941
1356.47	239.346
1360.07	229.307
1363.66	331.93
1367.25	303.289
1370.85	333.121
1374.44	430.125
1378.03	224.463
1381.61	301.061
1385.2	402.75
1388.78	90.193
1392.37	222.049
1395.95	306.289
1399.53	221.828
1403.1	261.715
1406.68	37.812
1410.26	30.812
1413.83	354.508
1417.4	55.648
1420.97	319.438
