Measurement: Raman, 514 nm, ccw, Raman Data Processed
Mineral: Scolecite
Rruff sample: R040111
Ideal chemistry: Ca(Si_3_Al_2_)O_10_3H_2_O
Locality: Bombay-Poona area, Mahahashtra Province, India
Source: National Museums of Canada
Description: Pale pink prismatic crystals in parallel or near parallel aggregates
Measured chemistry: Ca_0.98_(Si_3.05_Al_1.95_)O_10_Â·3H_2_O
Pin_id: L00237
Orientation: Laser parallel to a* (1 0 0). Fiducial mark perpendicular to laser is parallel to b [0 1 0]
Raman shift (cm-1)	intensity
79.427	0
83.614	219.72
87.798	922.479
91.981	1797.94
96.161	1861.89
100.34	2196.97
104.516	3600.61
108.691	6785.63
112.864	4978.39
117.034	3048.03
121.203	364.922
125.369	430.421
129.534	1288.78
133.696	2342.11
137.857	7176.57
142.016	8376.72
146.172	4926.16
150.327	5756.46
154.48	9909.51
158.63	8553.74
162.779	4237.48
166.926	2431.74
171.07	2051.45
175.213	2338.35
179.354	3324.27
183.493	4788.87
187.63	4677.66
191.765	2693.43
195.898	1541.87
200.029	1580.95
204.158	2160.29
208.285	1682.47
212.41	1423.29
216.533	2028.69
220.654	2592.93
224.773	1419.25
228.891	649.474
233.006	510.476
237.119	158.232
241.231	23.255
245.34	101.213
249.448	609.664
253.553	1137.9
257.657	473.079
261.758	71.921
265.858	176.358
269.956	30.198
274.052	180.911
278.146	11.075
282.237	564.604
286.327	1164.46
290.416	922.494
294.502	226.549
298.586	111.503
302.668	221.991
306.749	227.312
310.827	45.546
314.903	866.491
318.978	64.146
323.051	41.713
327.121	107.313
331.19	87.988
335.257	185.651
339.322	78.706
343.385	39.843
347.446	70.677
351.505	1037.03
355.563	402.61
359.618	575.786
363.672	780.283
367.723	1075.35
371.773	885.641
375.821	684.507
379.866	570.721
383.91	683.723
387.952	668.545
391.992	800.185
396.031	1398.65
400.067	1763.93
404.101	2831.17
408.134	2809.96
412.165	1972.04
416.193	1396.22
420.22	1376.32
424.245	1957
428.268	3235.04
432.289	4846.11
436.309	3954.47
440.326	2176.65
444.342	1795.4
448.355	2114.77
452.367	2645.78
456.377	2495.48
460.385	2140.37
464.391	1590.56
468.395	1412.87
472.398	1492.31
476.398	1732.84
480.397	2324.45
484.394	3517.55
488.389	4648.5
492.382	5194.85
496.373	4431.78
500.362	3568.71
504.349	2987.61
508.335	2912.89
512.319	3430.74
516.3	4598.93
520.28	6766.76
524.259	11616.9
528.235	22823.1
532.209	38558.3
536.182	37093.4
540.152	20138.4
544.121	10229.4
548.088	5658.31
552.053	3691.18
556.017	2670
559.978	2024.77
563.938	1706.49
567.895	1689.83
571.851	1249.15
575.805	1246.86
579.758	1140.68
583.708	799.578
587.657	798.294
591.603	441.444
595.548	658.266
599.491	533.373
603.432	450.236
607.372	255.047
611.309	199.291
615.245	407.227
619.179	686.338
623.111	1110.38
627.041	1252.38
630.97	908.217
634.896	537.557
638.821	640.957
642.744	902.398
646.665	1234.93
650.584	1272.62
654.502	1102.65
658.418	732.713
662.331	185.592
666.244	282.635
670.154	125.721
674.062	175.266
677.969	56.236
681.874	148.555
685.777	1435.75
689.678	537.91
693.577	482.055
697.475	425.182
701.371	672.291
705.265	1248.39
709.157	1099.47
713.047	411.549
716.936	262.619
720.823	133.684
724.708	209.719
728.591	14.57
732.472	113.857
736.352	11.377
740.23	223.535
744.106	10.98
747.98	100.387
751.853	7.389
755.723	188.785
759.592	229.955
763.459	180.125
767.325	90.725
771.188	62.75
775.05	109.012
778.91	13.578
782.768	91.951
786.625	146.891
790.479	69.867
794.332	106.553
798.183	57.891
802.033	125.453
805.88	168.723
809.726	7.18
813.57	77.844
817.413	62.799
821.253	282.713
825.092	239.584
828.929	485.752
832.764	194.336
836.598	504.385
840.429	666.312
844.259	692.482
848.088	529.881
851.914	627.359
855.739	1113.98
859.562	1286.75
863.383	1233.59
867.203	836.477
871.02	675.537
874.836	598.6
878.65	777.027
882.463	551.094
886.274	342.346
890.083	540.877
893.89	725.096
897.695	768.438
901.499	526.715
905.301	596.725
909.102	711.971
912.9	668.387
916.697	412.914
920.492	833.779
924.285	1182.96
928.077	1497.61
931.867	2941.11
935.655	5801.47
939.442	4351.8
943.226	1847.52
947.009	1229.01
950.791	953.322
954.57	754.541
958.348	512.121
962.124	375.746
965.899	611.809
969.671	648.008
973.442	556.902
977.211	786.213
980.979	1709.68
984.745	3381.34
988.509	2910.01
992.271	1633.53
996.032	1714.74
999.791	2887.37
1003.55	3849.53
1007.3	4545.43
1011.06	4408.78
1014.81	2686.13
1018.56	1894.13
1022.31	1762.86
1026.06	1903
1029.8	2406.08
1033.55	2976.04
1037.29	2704.9
1041.03	3384.83
1044.77	6512.79
1048.5	7350.75
1052.24	3776.55
1055.97	2126.34
1059.7	1103.77
1063.43	850.176
1067.16	933.871
1070.89	643.258
1074.61	761.43
1078.34	1012.12
1082.06	1059.65
1085.78	912.959
1089.5	969.773
1093.21	1174.58
1096.93	1498.34
1100.64	1511.04
1104.35	1135.53
1108.06	688.439
1111.77	478.611
1115.48	194.121
1119.18	85.359
1122.89	357.562
1126.59	369.625
1130.29	308.531
1133.99	57.254
1137.68	397.963
1141.38	27.125
1145.07	6.854
1148.76	79.295
1152.45	60.02
1156.14	99.359
1159.83	122.285
1163.51	315.453
1167.19	261.014
1170.88	62.316
1174.56	276.279
1178.23	242.85
1181.91	238.197
1185.59	388
1189.26	110.105
1192.93	131.189
1196.6	156.068
1200.27	155.602
1203.94	322.129
1207.6	211.633
1211.27	163.811
1214.93	177.297
1218.59	328.773
1222.25	129.219
1225.9	155.713
1229.56	340.629
1233.21	396.34
1236.86	629.09
1240.51	604.104
1244.16	447.51
1247.81	128.449
1251.45	245.184
1255.1	454.318
1258.74	413.266
1262.38	161.275
1266.02	345.535
1269.66	343.059
1273.29	478.252
1276.93	439.389
1280.56	584.219
1284.19	430.795
1287.82	369.537
1291.45	258.988
1295.07	328.463
1298.7	485.061
1302.32	115.137
1305.94	201.48
1309.56	559.855
1313.18	242.281
1316.8	392.383
1320.41	412.502
1324.02	411.131
1327.63	97.484
1331.24	341.244
1334.85	66.512
1338.46	44.744
1342.06	49.656
1345.67	61.275
1349.27	21.615
1352.87	264.412
1356.47	107.531
1360.07	425.064
1363.66	261.598
1367.25	471.924
1370.85	346.785
1374.44	241.178
1378.03	170.756
1381.61	285.613
1385.2	270.713
1388.78	243.32
1392.37	370.49
1395.95	270.992
1399.53	255.766
1403.1	138.752
1406.68	26.676
1410.26	17.072
1413.83	371.027
1417.4	191.115
1420.97	304.961
1424.54	55.43
1428.1	0
