Measurement: Raman, 514 nm, ccw, Raman Data Processed
Mineral: Scolecite
Rruff sample: R050083
Ideal chemistry: Ca(Si_3_Al_2_)O_10_3H_2_O
Locality: near Ahmednagar, Maharashtra, India
Source: Rock Currier
Description: Colorless acicular single crystals associated with fluorapophyllite
Measured chemistry: (Ca_.992_Na_.008_)[Al_2_Si_3_O_10_]Â·3H_2_O
Pin_id: M00476
Orientation: Laser parallel to a* (1 0 0). Fiducial mark perpendicular to laser is parallel to b [0 1 0]
Raman shift (cm-1)	intensity
89.863	0
94.059	348.047
98.254	1282.77
102.446	679.231
106.637	1349.3
110.825	2581.05
115.011	2027.09
119.195	450.275
123.377	209.114
127.556	368.301
131.734	784.533
135.909	1701.31
140.083	4140.85
144.254	3578.35
148.423	1644.71
152.59	1990.6
156.755	3745.13
160.918	3344.75
165.078	1916.85
169.237	1811.42
173.393	2264
177.548	3291.88
181.7	3830.23
185.85	3736.24
189.998	3251.91
194.144	2304.21
198.288	1621.02
202.429	1194.26
206.569	1011.21
210.707	699.901
214.842	452.216
218.976	630.739
223.107	791.331
227.236	379.987
231.363	40.695
235.488	65.31
239.611	207.25
243.732	265.689
247.851	143.66
251.967	109.47
256.082	637.794
260.195	804.114
264.305	359.685
268.414	236.32
272.52	329.095
276.624	358.789
280.726	825.814
284.827	1349.05
288.925	1389.37
293.021	1158.72
297.115	586.911
301.207	272.798
305.296	202.389
309.384	216.724
313.47	186.832
317.554	110.704
321.635	8.913
325.715	94.416
329.792	45.19
333.868	125.595
337.941	291.366
342.013	396.141
346.082	462.917
350.15	391.688
354.215	383.443
358.278	323.176
362.339	263.879
366.399	179.546
370.456	144.135
374.511	115.047
378.564	61.598
382.615	23.096
386.664	81.508
390.711	108.882
394.756	210.239
398.799	334.399
402.84	550.222
406.879	779.341
410.916	739.665
414.951	484.922
418.983	370.179
423.014	504.51
427.043	829.846
431.07	1383.15
435.095	1826.41
439.118	1453.6
443.138	870.719
447.157	658.785
451.174	838.501
455.189	869.505
459.202	836.29
463.212	672.286
467.221	473.929
471.228	373.501
475.233	336.021
479.236	469.795
483.237	648.499
487.235	973.05
491.232	1268.31
495.227	1337.04
499.22	1238.67
503.211	1055.38
507.2	982.189
511.187	1032.09
515.172	1364.04
519.155	1957.07
523.136	3324.16
527.115	6246.31
531.092	12528.5
535.067	18989.7
539.04	15859.8
543.011	8215.65
546.98	4174.67
550.947	2373.84
554.913	1542.17
558.876	1206.57
562.837	884.266
566.797	735.501
570.754	633.658
574.709	529.467
578.663	458.626
582.614	385.809
586.564	333.015
590.511	221.244
594.457	160.492
598.401	106.758
602.343	42.043
606.282	17.344
610.22	31.349
614.156	40.105
618.09	16.002
622.022	46.057
625.952	82.133
629.88	61.484
633.807	27.954
637.731	20.618
641.653	58.703
645.574	39.654
649.492	56.008
653.409	133.239
657.323	145.841
661.236	117.955
665.147	82.994
669.056	122.07
672.963	135.756
676.868	183.692
680.771	222.335
684.672	221.836
688.571	336.365
692.468	515.534
696.364	489.63
700.257	548.52
704.149	755.311
708.038	870.02
711.926	787.661
715.812	524.443
719.696	325.073
723.578	212.702
727.458	159.165
731.336	123.702
735.213	129.185
739.087	139.632
742.96	141.038
746.83	187.172
750.699	322.776
754.566	489.071
758.431	604.903
762.294	639.63
766.155	477.844
770.014	288.985
773.872	191.263
777.727	112.694
781.581	77.047
785.433	7.684
789.282	4.195
793.13	18.311
796.977	18.429
800.821	30.018
804.663	16.273
808.504	33.631
812.342	19.766
816.179	26.114
820.014	6.77
823.847	3.634
827.678	4.704
831.507	10.981
835.334	21.53
839.16	17.895
842.983	27.145
846.805	29.284
850.625	40.319
854.443	72.252
858.259	62.089
862.074	93.835
865.886	75.488
869.697	87.045
873.506	68.517
877.313	63.899
881.118	45.193
884.921	84.397
888.722	58.513
892.522	48.542
896.319	69.479
900.115	97.331
903.909	95.099
907.701	86.787
911.492	102.396
915.28	137.927
919.067	172.399
922.852	243.858
926.635	415.322
930.416	726.735
934.195	1477.08
937.973	1644.78
941.748	946.753
945.522	611.815
949.294	632.471
953.064	511.415
956.832	317.26
960.599	245.113
964.364	156.15
968.127	194.372
971.888	226.247
975.647	285.03
979.404	456.9
983.16	804.155
986.914	1023.42
990.666	702.398
994.416	652.445
998.164	813.796
1001.91	1196.18
1005.65	1638.84
1009.4	1873.94
1013.14	1432.69
1016.88	969.487
1020.62	738.132
1024.35	677.78
1028.09	815.46
1031.82	1124.58
1035.55	1316.6
1039.28	1207.61
1043	1785.19
1046.73	2459.45
1050.45	1925.75
1054.17	948.678
1057.89	513.644
1061.61	387.63
1065.33	365.849
1069.04	271.118
1072.75	224.156
1076.46	233.266
1080.17	204.372
1083.88	206.547
1087.59	237.755
1091.29	368.977
1094.99	586.297
1098.69	747.675
1102.39	705.164
1106.09	550.444
1109.78	328.081
1113.47	188.787
1117.16	172.004
1120.85	162.997
1124.54	127.98
1128.23	100.142
1131.91	76.325
1135.59	60.308
1139.27	36.554
1142.95	5.561
1146.63	14.966
1150.3	3.455
1153.98	9.128
1157.65	67.256
1161.32	29.288
1164.99	36.031
1168.65	26.979
1172.32	53.573
1175.98	14.954
1179.64	19.452
1183.3	31.034
1186.96	54.726
1190.62	36.313
1194.27	26.422
1197.92	14.399
1201.57	6.421
1205.22	13.893
1208.87	22.261
1212.51	16.729
1216.16	54.321
1219.8	24.632
1223.44	61.841
1227.08	1.211
1230.72	7.493
1234.35	37.104
1237.98	44.387
1241.62	57.728
1245.25	98.067
1248.87	22.37
1252.5	62.621
1256.12	32.945
1259.75	2.826
1263.37	31.586
1266.99	39.718
1270.61	6.791
1274.22	41.056
1277.84	22.074
1281.45	100.326
1285.06	37.197
1288.67	37.098
1292.28	7.78
1295.88	16.421
1299.49	7.127
1303.09	30.08
1306.69	63.495
1310.29	52.785
1313.89	31.081
1317.48	96.249
1321.08	32.974
1324.67	9.958
1328.26	5.746
1331.85	10.31
1335.44	29.168
1339.02	2.069
1342.61	30.633
1346.19	41.27
1349.77	70.838
1353.35	37.354
1356.92	18.604
1360.5	6.223
1364.07	36.773
1367.64	57.609
1371.21	35.042
1374.78	40.302
1378.35	77.508
1381.91	61.633
1385.48	82.22
1389.04	35.922
1392.6	70.929
1396.16	20.232
1399.71	42.455
1403.27	26.583
1406.82	46.621
1410.38	81.176
1413.92	70.738
1417.47	89.892
1421.02	92.124
1424.57	94.815
1428.11	43.597
1431.65	72.152
1435.19	66.302
1438.73	93.449
1442.27	100.047
1445.8	92.575
1449.33	125.02
1452.87	148.526
1456.4	120.995
1459.92	133.303
1463.45	118.409
1466.98	116.213
1470.5	111.733
1474.02	45.737
1477.54	18.288
1481.06	61.281
1484.58	54.374
1488.09	65.892
1491.61	62.506
1495.12	49.21
1498.63	74.184
1502.14	34.407
1505.64	64.344
1509.15	31.875
1512.65	44.363
1516.15	36.791
1519.66	0.329
