Measurement: Raman, 514 nm, ccw, Raman Data Processed
Mineral: Scolecite
Rruff sample: R040111
Ideal chemistry: Ca(Si_3_Al_2_)O_10_3H_2_O
Locality: Bombay-Poona area, Mahahashtra Province, India
Source: National Museums of Canada
Description: Pale pink prismatic crystals in parallel or near parallel aggregates
Measured chemistry: Ca_0.98_(Si_3.05_Al_1.95_)O_10_Â·3H_2_O
Pin_id: L00237
Orientation: Laser parallel to a* (1 0 0). Fiducial mark perpendicular to laser is parallel to b [0 1 0]
Raman shift (cm-1)	intensity
76.635	0
80.823	671.443
85.009	2908.64
89.193	7861.61
93.375	12187.5
97.554	9087.44
101.732	7008.66
105.908	8532.45
110.082	6636.24
114.254	4196.18
118.424	2981.81
122.592	1117.34
126.758	1088.93
130.922	1766.21
135.083	4572.63
139.243	8107.11
143.401	5178.9
147.557	2427.81
151.711	4088.81
155.863	7442.3
160.013	5984.49
164.161	3433.87
168.308	3183.26
172.452	4693.28
176.594	6636.24
180.734	7634.11
184.872	7284.72
189.008	5259.81
193.143	3759.16
197.275	2193.68
201.405	1642.82
205.534	1729.62
209.66	714.204
213.784	400.982
217.907	952.897
222.027	1080.29
226.146	101.493
230.263	294.785
234.377	347.38
238.49	518.068
242.601	793.378
246.709	628.609
250.816	364.233
254.921	1586.51
259.024	1213.75
263.125	569.95
267.224	717.779
271.321	1110.28
275.416	837.882
279.51	1892.17
283.601	2729.73
287.69	2649.8
291.778	1656.58
295.863	959.053
299.947	450.018
304.029	369.436
308.108	622.199
312.186	371.295
316.262	215.735
320.336	67.396
324.408	346.479
328.478	117.912
332.546	354.529
336.612	832.721
340.677	1246.66
344.739	1188.31
348.799	1002.67
352.858	638.764
356.915	418.539
360.969	392.965
365.022	159.469
369.073	106.217
373.122	48.387
377.169	78.758
381.215	133.25
385.258	337.91
389.299	500.467
393.339	673.455
397.376	766.434
401.412	1208.31
405.446	1402.94
409.478	1079.4
413.508	785.826
417.536	426.609
421.562	561.055
425.586	1485.09
429.609	2507.68
433.629	3403.76
437.648	2360.3
441.665	1146.29
445.68	1061.7
449.693	1336.88
453.704	1251.66
457.713	1176.26
461.721	1053.38
465.726	961.947
469.73	682.998
473.731	476.674
477.731	857.959
481.729	1236.12
485.725	1755.32
489.72	2267.01
493.712	2585.91
497.703	2227.1
501.691	1907.27
505.678	1845.56
509.663	1901.11
513.646	2814.89
517.627	4195.17
521.607	7007.82
525.584	13069
529.56	26450.2
533.534	38034.8
537.506	28850.1
541.476	14868.8
545.444	7110.68
549.41	4217.61
553.375	2487.92
557.337	1870.45
561.298	1474.62
565.257	1250.22
569.214	1042.92
573.17	1037.48
577.123	666.4
581.075	472.648
585.024	434.461
588.972	633.117
592.918	282.568
596.863	193.77
600.805	136.738
604.746	39.486
608.685	47.23
612.621	154.818
616.557	338.662
620.49	554.676
624.421	1614.06
628.351	770.949
632.279	326.002
636.205	347.361
640.129	649.924
644.051	673.113
647.972	913.738
651.89	1103.33
655.807	659.008
659.722	275.795
663.636	207.15
667.547	27.059
671.457	48.617
675.365	31.344
679.271	15.314
683.175	297.322
687.077	323.926
690.978	765.709
694.877	544.678
698.774	1001
702.669	1034.38
706.562	1600.58
710.454	1072.57
714.344	889.365
718.232	537.938
722.118	251.275
726.002	204.34
729.885	260.924
733.766	71.123
737.645	76.01
741.522	16.58
745.397	286.814
749.271	458.789
753.143	840.518
757.013	1453.99
760.881	1289.06
764.748	738.43
768.613	541.482
772.476	448.738
776.337	108.014
780.196	121.023
784.054	21.559
787.91	7.498
791.764	3.709
795.616	67.41
799.467	50.391
803.316	251.113
807.163	1.793
811.008	85.238
814.851	140.893
818.693	174.156
822.533	227.572
826.371	292.656
830.208	455.766
834.042	163.162
837.875	278.117
841.706	449.354
845.536	451.807
849.363	901.262
853.189	771.756
857.013	1052.29
860.836	1324.95
864.656	973.543
868.475	876.016
872.292	722.355
876.108	418.029
879.922	713.457
883.733	434.623
887.544	763.91
891.352	732.34
895.159	593.176
898.964	711.875
902.767	914.895
906.568	901.734
910.368	679.389
914.166	1108.86
917.962	807.383
921.757	678.082
925.55	998.977
929.341	1368.28
933.13	2655.53
936.918	4511.31
940.703	2598.39
944.488	1439.97
948.27	1715.2
952.051	1438.87
955.83	1023.62
959.607	745.551
963.383	677.338
967.156	432.773
970.928	276.391
974.699	815.162
978.468	1000.51
982.234	2084.19
986	2573.67
989.763	1720.4
993.525	1558.13
997.285	2335.97
1001.04	3461.98
1004.8	4131.84
1008.55	4450.49
1012.31	3869.24
1016.06	2749.49
1019.81	2182.99
1023.56	2191.39
1027.31	2071.59
1031.05	2613.28
1034.79	2905.15
1038.53	2612.18
1042.27	3231.47
1046.01	5270.56
1049.75	4346.37
1053.48	2419.16
1057.22	1259.13
1060.95	1139.45
1064.68	1077.75
1068.4	666.525
1072.13	611.842
1075.86	550.244
1079.58	856.822
1083.3	1218.27
1087.02	1059.59
1090.74	1052.27
1094.45	1222.98
1098.17	1605.43
1101.88	1581.74
1105.59	1048.98
1109.3	922.203
1113.01	780.881
1116.71	416.338
1120.42	467.15
1124.12	721.732
1127.82	7.121
1131.52	261.23
1135.22	112.402
1138.91	13.193
1142.61	213.188
1146.3	126.689
1149.99	125.543
1153.68	236.076
1157.37	44.691
1161.06	55.004
1164.74	233.699
1168.42	295.777
1172.1	236.422
1175.78	238.641
1179.46	177.371
1183.14	346.66
1186.81	276.379
1190.48	281.586
1194.15	197.547
1197.83	172.371
1201.49	292.734
1205.16	305.586
1208.82	340.988
1212.49	296.199
1216.15	304.91
1219.81	258.891
1223.46	350.945
1227.12	479.523
1230.78	292.496
1234.43	576.164
1238.08	557.047
1241.73	599.152
1245.38	841.449
1249.03	840.996
1252.67	610.832
1256.31	282.023
1259.95	305.789
1263.6	639.035
1267.23	784.188
1270.87	897.34
1274.51	913.023
1278.14	710.344
1281.77	618.328
1285.4	428.887
1289.03	51.203
1292.66	574.516
1296.28	699.891
1299.91	506.648
1303.53	303.66
1307.15	551.609
1310.77	852.645
1314.38	1073.09
1318	799.898
1321.61	587.211
1325.23	755.5
1328.84	241.441
1332.45	61.473
1336.06	54.73
1339.66	24.594
1343.27	164.402
1346.87	601.832
1350.47	515.199
1354.07	449.176
1357.67	549.23
1361.26	80.555
1364.86	377.215
1368.45	388.395
1372.04	262.754
1375.63	366.383
1379.22	152.922
1382.81	489.859
1386.39	460.273
1389.98	289.68
1393.56	142.777
1397.14	232.953
1400.72	130.566
1404.3	51.996
1407.87	140.551
