Measurement: Raman, 514 nm, ccw, Raman Data Processed
Mineral: Scolecite
Rruff sample: R040111
Ideal chemistry: Ca(Si_3_Al_2_)O_10_3H_2_O
Locality: Bombay-Poona area, Mahahashtra Province, India
Source: National Museums of Canada
Description: Pale pink prismatic crystals in parallel or near parallel aggregates
Measured chemistry: Ca_0.98_(Si_3.05_Al_1.95_)O_10_Â·3H_2_O
Pin_id: M00095
Orientation: Laser parallel to -b* (0 -1 0). Fiducial mark perpendicular to laser is parallel to -c [0 0 -1]
Raman shift (cm-1)	intensity
79.427	0
83.614	346.829
87.798	2019.43
91.981	4862.5
96.161	7218.84
100.34	8322.6
104.516	14527.8
108.691	25941.2
112.864	21933.1
117.034	9541.94
121.203	2984.97
125.369	2480.9
129.534	1648.27
133.696	124.821
137.857	218.306
142.016	74.91
146.172	261.437
150.327	2333.89
154.48	7245.34
158.63	12285.6
162.779	10417.3
166.926	5775.33
171.07	2899.69
175.213	3957.4
179.354	7811.77
183.493	9609.86
187.63	4583.49
191.765	1649.87
195.898	889.786
200.029	1278.35
204.158	1705.74
208.285	927.908
212.41	808.874
216.533	3499.58
220.654	8517.84
224.773	9911.46
228.891	5974.48
233.006	3837.26
237.119	1264.92
241.231	312.44
245.34	636.104
249.448	2639.67
253.553	6445.75
257.657	4990.6
261.758	1448.54
265.858	292.067
269.956	489.601
274.052	729.853
278.146	1463.77
282.237	2463.59
286.327	2207.6
290.416	1040.05
294.502	87.052
298.586	519.683
302.668	464.021
306.749	49.222
310.827	967.317
314.903	1912.8
318.978	2230.01
323.051	2150.31
327.121	1799.29
331.19	1584.86
335.257	1320.9
339.322	1851.47
343.385	2118.76
347.446	1666.6
351.505	1259.91
355.563	1099.72
359.618	1231.47
363.672	752.788
367.723	312.661
371.773	141.042
375.821	241.869
379.866	246.174
383.91	27.872
387.952	143.171
391.992	217.878
396.031	1062.16
400.067	2507.45
404.101	4261.95
408.134	3709.86
412.165	1724.62
416.193	775.057
420.22	821.039
424.245	1928.48
428.268	4012.32
432.289	7627.53
436.309	9202.05
440.326	9004.89
444.342	8545.01
448.355	7458.39
452.367	6225.09
456.377	3960.8
460.385	2693.25
464.391	1405.12
468.395	699.171
472.398	479.197
476.398	120.077
480.397	111.49
484.394	82.277
488.389	89.939
492.382	121.981
496.373	99.359
500.362	184.07
504.349	761.789
508.335	1405.7
512.319	2330.72
516.3	4009.83
520.28	6546.04
524.259	11021.4
528.235	21338.7
532.209	38282.2
536.182	44331.6
540.152	25274.8
544.121	11664.9
548.088	5693.8
552.053	3242.47
556.017	1962.01
559.978	1195.54
563.938	731.069
567.895	684.584
571.851	323.067
575.805	187.505
579.758	292.884
583.708	318.194
587.657	535.427
591.603	422.568
595.548	535.613
599.491	464.559
603.432	450.389
607.372	146.097
611.309	117.655
615.245	21.06
619.179	10.156
623.111	150.031
627.041	233.877
630.97	127.149
634.896	143.322
638.821	34.264
642.744	247.282
646.665	653.159
650.584	793.736
654.502	1264.56
658.418	1626.63
662.331	2110.3
666.244	3090.55
670.154	3663.74
674.062	3429.8
677.969	2490.61
681.874	1433.38
685.777	688.261
689.678	235.198
693.577	394.115
697.475	144.369
701.371	655.374
705.265	1292.24
709.157	1296.03
713.047	897.514
716.936	1005.68
720.823	1232.54
724.708	878.585
728.591	1191.8
732.472	1209.7
736.352	1072.54
740.23	807.783
744.106	943.693
747.98	1229.28
751.853	1377.04
755.723	1516.95
759.592	1339.53
763.459	736.578
767.325	401.227
771.188	78.098
775.05	89.4
778.91	87.98
782.768	2.459
786.625	116.609
790.479	21.895
794.332	207.959
798.183	84.25
802.033	90.908
805.88	144.025
809.726	58.721
813.57	30.268
817.413	90.061
821.253	61.074
825.092	74.412
828.929	283.357
832.764	95.953
836.598	245.176
840.429	431.09
844.259	439.852
848.088	345.396
851.914	274.443
855.739	361.518
859.562	719.629
863.383	764.449
867.203	466
871.02	420.381
874.836	159.52
878.65	359.398
882.463	307.025
886.274	256.385
890.083	486.477
893.89	412.301
897.695	356.723
901.499	336.199
905.301	360.283
909.102	356.154
912.9	306.811
916.697	258.268
920.492	416.523
924.285	537.688
928.077	566.512
931.867	386.803
935.655	296.869
939.442	399.779
943.226	394.385
947.009	790.273
950.791	976.928
954.57	604.25
958.348	382.699
962.124	321.604
965.899	399.5
969.671	443.086
973.442	399.648
977.211	378.4
980.979	1162.41
984.745	2832.98
988.509	2789.49
992.271	1489.45
996.032	1051.79
999.791	1481.78
1003.55	1761.06
1007.3	1591.06
1011.06	1382.07
1014.81	986.807
1018.56	1298.15
1022.31	1411.74
1026.06	1468.72
1029.8	1626.29
1033.55	2252.72
1037.29	1863.05
1041.03	1996.64
1044.77	3118.2
1048.5	4291.98
1052.24	2631.33
1055.97	1332.55
1059.7	940.805
1063.43	756.123
1067.16	864.145
1070.89	722.783
1074.61	811.248
1078.34	877.898
1082.06	941.801
1085.78	1008.43
1089.5	1331.09
1093.21	1841.95
1096.93	2507.83
1100.64	2461.68
1104.35	1938.54
1108.06	1224.38
1111.77	704.311
1115.48	514.906
1119.18	327.414
1122.89	527.078
1126.59	235.75
1130.29	157.625
1133.99	52.59
1137.68	226.895
1141.38	128.24
1145.07	113.965
1148.76	56.906
1152.45	28.352
1156.14	13.633
1159.83	110.551
1163.51	11.238
1167.19	71.922
1170.88	35.402
1174.56	182.586
1178.23	85.355
1181.91	211.217
1185.59	81.779
1189.26	131.229
1192.93	134.529
1196.6	99.367
1200.27	16.416
1203.94	306.553
1207.6	15.086
1211.27	0.49
1214.93	155.449
1218.59	220.555
1222.25	20.047
1225.9	179.734
1229.56	383.238
1233.21	225.641
1236.86	394.562
1240.51	309.223
1244.16	292.656
1247.81	306.836
1251.45	203.715
1255.1	181.334
1258.74	101.986
1262.38	183.717
1266.02	246.334
1269.66	281.639
1273.29	292.625
1276.93	118.818
1280.56	253.25
1284.19	107.191
1287.82	115.258
1291.45	129.162
1295.07	387.934
1298.7	235.824
1302.32	105.752
1305.94	119.771
1309.56	240.373
1313.18	218.082
1316.8	366.912
1320.41	301.42
1324.02	244.297
1327.63	15.152
1331.24	200.869
1334.85	68.883
1338.46	21.453
1342.06	76.504
1345.67	132.131
1349.27	49.719
1352.87	45.734
1356.47	181.703
1360.07	269.035
1363.66	325.389
1367.25	210.918
1370.85	271.65
1374.44	199.326
1378.03	247.074
1381.61	219.777
1385.2	215.672
1388.78	324.789
1392.37	221.492
1395.95	312.666
1399.53	188.262
1403.1	384.965
1406.68	197.164
1410.26	249.881
1413.83	372.99
1417.4	178.268
1420.97	313.922
1424.54	448.193
1428.1	460.236
1431.67	492.789
1435.23	729.385
1438.8	772.518
1442.36	964.906
1445.91	1123.78
1449.47	1116.42
1453.03	1360.58
1456.58	1278.42
1460.13	1344.86
1463.68	1421.58
1467.23	908.406
1470.78	1052.92
1474.33	895.863
1477.87	740.354
1481.42	562.961
1484.96	647.156
1488.5	541.846
1492.04	551.305
1495.57	522.068
1499.11	18.848
1502.64	52.762
1506.17	84.402
1509.71	164.549
1513.23	256.186
1516.76	0.688
1520.29	51.178
