Measurement: Raman, 514 nm, ccw, Raman Data Processed
Mineral: Scolecite
Rruff sample: R050083
Ideal chemistry: Ca(Si_3_Al_2_)O_10_3H_2_O
Locality: near Ahmednagar, Maharashtra, India
Source: Rock Currier
Description: Colorless acicular single crystals associated with fluorapophyllite
Measured chemistry: (Ca_.992_Na_.008_)[Al_2_Si_3_O_10_]Â·3H_2_O
Pin_id: M00106
Orientation: Laser parallel to (1 0 1). Fiducial mark perpendicular to laser is parallel to b [0 1 0]
Raman shift (cm-1)	intensity
49.184	0
53.401	2.808
57.617	283.669
61.83	236.684
66.041	513.392
70.25	542.128
74.456	468.122
78.661	273.142
82.863	80.118
87.064	88.513
91.262	304.095
95.458	1530.28
99.652	3229.88
103.843	4451.14
108.033	10520.6
112.22	19539
116.406	8709.47
120.589	2384.07
124.77	1096.32
128.949	1242.49
133.126	320.077
137.301	72.396
141.473	72.267
145.644	77.299
149.812	742.306
153.979	3790.51
158.143	10807.9
162.305	12888.5
166.465	7663.15
170.623	2937.07
174.778	2112.21
178.932	3275.16
183.083	6636.84
187.233	7049.14
191.38	2383.1
195.525	528.718
199.669	394.968
203.81	1114.84
207.949	1341.26
212.085	592.227
216.22	1138.34
220.353	4578.42
224.483	8619.47
228.612	6166.79
232.738	3731.43
236.863	1499.53
240.985	98.549
245.105	107.552
249.223	1321.95
253.339	5008.25
257.453	6364.53
261.565	2183.37
265.675	273.686
269.783	157.208
273.888	388.27
277.992	722.903
282.093	2479.13
286.193	2763.98
290.29	1808.36
294.386	551.606
298.479	53.912
302.57	114.744
306.659	176.173
310.746	802.739
314.831	1719.51
318.914	2068.69
322.995	1773.61
327.074	1292.05
331.151	1094.1
335.226	1186.9
339.299	1709.37
343.37	2360
347.438	2705.26
351.505	2208.35
355.57	1362.28
359.632	1378.67
363.693	1110.69
367.751	202.017
371.808	58.757
375.862	132.148
379.914	169.291
383.965	85.444
388.013	433.38
392.06	785.753
396.104	1432.71
400.146	2316.35
404.186	3536.73
408.225	3567.3
412.261	2211.93
416.295	1232.05
420.327	1100.24
424.357	1590.27
428.386	3145.81
432.412	5715.23
436.436	7457.61
440.458	6751.44
444.478	5877.57
448.496	5965.53
452.513	5955.34
456.527	4942.27
460.539	3460.69
464.549	2225.4
468.557	1576.95
472.563	1162.05
476.567	831.837
480.57	698.814
484.57	671.306
488.568	799.533
492.564	785.629
496.558	777.795
500.551	942.908
504.541	1318.98
508.529	1768.02
512.515	2303.01
516.5	3357.93
520.482	5499.78
524.462	9124.65
528.441	16359.3
532.417	31727.5
536.391	45716
540.364	30638.7
544.334	14067.4
548.303	7051.01
552.269	3908.09
556.234	2712.51
560.197	1903.89
564.157	1508.27
568.116	1058.85
572.073	867.524
576.027	822.155
579.98	686.74
583.931	586.277
587.88	545.774
591.827	562.31
595.772	605.873
599.715	567.439
603.656	472.958
607.595	372.42
611.532	364.823
615.468	162.171
619.401	76.528
623.332	87.684
627.262	137.931
631.189	109.526
635.115	17.025
639.039	34.899
642.96	162.521
646.88	251.64
650.798	447.951
654.714	700.577
658.628	1042.73
662.54	1478.11
666.45	2281.85
670.358	3486.32
674.264	4367.46
678.169	3668.59
682.071	2257.35
685.972	1237.51
689.87	717.745
693.767	441.151
697.662	457.742
701.555	707.257
705.446	1163.47
709.335	1485.46
713.222	1209.57
717.107	1068.34
720.99	1057.87
724.872	1280.19
728.751	1720.34
732.629	1488.06
736.504	1091.63
740.378	890.045
744.25	906.236
748.12	1171.28
751.988	1600.02
755.854	1773.27
759.719	1490.48
763.581	1037.37
767.442	710.209
771.3	508.465
775.157	287.073
779.012	126.246
782.865	3.314
786.716	20.256
790.565	12.536
794.413	49.366
798.258	29.595
802.102	67.373
805.943	43.752
809.783	16.236
813.621	13.004
817.457	14.394
821.292	17.44
825.124	1.849
828.954	5.426
832.783	42.708
836.61	56.57
840.435	61.186
844.258	50.569
848.079	77.728
851.898	85.665
855.715	115.378
859.531	84.872
863.345	60.15
867.157	46.212
870.967	98.059
874.775	81.7
878.581	67.134
882.386	110.365
886.188	60.399
889.989	37.237
893.788	76.886
897.585	46.35
901.38	77.628
905.174	106.726
908.965	55.651
912.755	63.403
916.543	43.99
920.329	69.411
924.113	138.676
927.895	160.807
931.676	171.146
935.454	185.967
939.231	199.658
943.006	122.627
946.78	46.515
950.551	94.054
954.32	81.216
958.088	40.16
961.854	16.868
965.618	55.651
969.38	119.156
973.141	192.126
976.9	131.263
980.656	218.171
984.411	437.298
988.165	798.453
991.916	669.002
995.665	489.391
999.413	384.044
1003.16	406.706
1006.9	486.583
1010.65	908.416
1014.39	1760.33
1018.12	2701.97
1021.86	2715.09
1025.6	2698
1029.33	3081.94
1033.06	1885.11
1036.79	1283.13
1040.52	1222.4
1044.25	1157.75
1047.97	803.888
1051.69	608.448
1055.41	478.86
1059.13	482.304
1062.85	569.91
1066.57	612.424
1070.28	630.981
1073.99	639.307
1077.7	497.539
1081.41	472.958
1085.12	583.113
1088.82	839.352
1092.52	1421.73
1096.22	2011.34
1099.92	2418.41
1103.62	2033.35
1107.32	1378.6
1111.01	936.201
1114.7	670.969
1118.39	523.91
1122.08	359.608
1125.77	302.721
1129.45	190.097
1133.14	181.163
1136.82	107.575
1140.5	85.979
1144.18	35.103
1147.85	96.247
1151.53	79.622
1155.2	53.762
1158.87	44.961
1162.54	33.262
1166.21	1.641
1169.88	6.349
1173.54	14.703
1177.2	34.87
1180.86	80.559
1184.52	75.953
1188.18	8.238
1191.83	2.543
1195.49	14.228
1199.14	26.875
1202.79	23.569
1206.44	38.747
1210.08	70.272
1213.73	36.708
1217.37	32.175
1221.01	12.503
1224.65	14.417
1228.29	20.28
1231.93	32.137
1235.56	21.75
1239.19	14.019
1242.83	39.019
1246.46	52.061
1250.08	29.102
1253.71	6.854
1257.33	7.767
1260.96	16.335
1264.58	46.241
1268.19	45.476
1271.81	31.174
1275.43	73.028
1279.04	56.646
1282.65	2.895
1286.27	13.846
1289.87	7.6
1293.48	15.826
1297.09	44.099
1300.69	64.711
1304.29	75.406
1307.89	47.885
1311.49	22.268
1315.09	25.481
1318.68	1.423
1322.28	13.562
1325.87	53.43
1329.46	10.827
1333.05	44.604
1336.63	40.024
1340.22	46.132
1343.8	66.289
1347.38	37.336
1350.96	19.276
1354.54	19.003
1358.12	17.729
1361.69	57.244
1365.26	4.094
1368.83	56.171
1372.4	13.501
1375.97	86.76
1379.54	88.071
1383.1	64.949
1386.66	69.368
1390.23	61.73
1393.79	61.415
1397.34	50.292
1400.9	51.481
1404.45	115.283
1408.01	82.249
1411.56	115.154
1415.11	95.947
1418.66	82.022
1422.2	71.319
1425.75	7.645
1429.29	2.523
1432.83	44.009
1436.37	16.183
1439.91	62.975
1443.44	121.79
1446.98	93.969
1450.51	104.12
1454.04	105.016
1457.57	51.711
1461.1	90.653
1464.63	47.039
1468.15	31.583
1471.67	33.083
1475.19	16.912
1478.71	46.677
1482.23	44.105
1485.75	86.127
1489.26	72.375
1492.78	77.57
1496.29	68.774
1499.8	15.312
1503.31	66.289
1506.81	24.921
1510.32	5.324
1513.82	20.03
1517.32	0.979
1520.82	0
