Measurement: Raman, 514 nm, ccw, Raman Data Processed
Mineral: Scolecite
Rruff sample: R050083
Ideal chemistry: Ca(Si_3_Al_2_)O_10_3H_2_O
Locality: near Ahmednagar, Maharashtra, India
Source: Rock Currier
Description: Colorless acicular single crystals associated with fluorapophyllite
Measured chemistry: (Ca_.992_Na_.008_)[Al_2_Si_3_O_10_]Â·3H_2_O
Pin_id: M00106
Orientation: Laser parallel to (1 0 1). Fiducial mark perpendicular to laser is parallel to b [0 1 0]
Raman shift (cm-1)	intensity
49.184	0
53.401	146.374
57.617	218.44
61.83	301.087
66.041	470.868
70.25	436.149
74.456	319.051
78.661	167.842
82.863	15.128
87.064	15.787
91.262	275.162
95.458	1508.57
99.652	2303.37
103.843	2829.26
108.033	5473.45
112.22	9374.39
116.406	5069.15
120.589	2336.23
124.77	2131.08
128.949	2218.08
133.126	1633.61
137.301	3195.72
141.473	7697.23
145.644	6409
149.812	3702.55
153.979	5792.69
158.143	10913.2
162.305	10101
166.465	6239.26
170.623	4531.67
174.778	4502.82
178.932	5568.25
183.083	7487.26
187.233	7432.41
191.38	4037.63
195.525	1947.86
199.669	1425.12
203.81	1681.44
207.949	1773.83
212.085	1261.31
216.22	1346.95
220.353	2791.4
224.483	3953.64
228.612	2219.16
232.738	1457.82
236.863	675.596
240.985	20.571
245.105	108.956
249.223	331.208
253.339	1700.27
257.453	2140.11
261.565	713.074
265.675	128.018
269.783	267.587
273.888	125.95
277.992	66.022
282.093	710.693
286.193	1230.29
290.29	1301.89
294.386	594.515
298.479	167.123
302.57	116.694
306.659	460.229
310.746	971.745
314.831	983.377
318.914	846.924
322.995	623.139
327.074	453.719
331.151	261.23
335.226	288.912
339.299	296.777
343.37	232.806
347.438	302.021
351.505	348.428
355.57	334.031
359.632	426.835
363.693	716.843
367.751	925.058
371.808	1180.48
375.862	1093.12
379.914	674.93
383.965	529.628
388.013	391.238
392.06	332.836
396.104	462.49
400.146	871.281
404.186	1603.69
408.225	1852.67
412.261	1221.18
416.295	710.185
420.327	744.552
424.357	1190.12
428.386	1708.18
432.412	2511.66
436.436	3548.02
440.458	4023.66
444.478	4751.82
448.496	6146.69
452.513	6568.63
456.527	5439.55
460.539	3292.72
464.549	1720.15
468.557	1010.71
472.563	725.928
476.567	482.904
480.57	515.912
484.57	696.364
488.568	1012.3
492.564	1339.73
496.558	1548.63
500.551	1776
504.541	2131.76
508.529	2569.9
512.515	2992.45
516.5	3941.37
520.482	5589.66
524.462	8578.31
528.441	15027.3
532.417	28976.5
536.391	42816
540.364	30105.8
544.334	14665.8
548.303	7676
552.269	4621.48
556.234	3497.2
560.197	2902.15
564.157	2391.36
568.116	1914.12
572.073	1590.43
576.027	1346.96
579.98	1045.68
583.931	741.581
587.88	392.744
591.827	271.613
595.772	185.216
599.715	83.366
603.656	105.296
607.595	94.974
611.532	49.694
615.468	45.596
619.401	105.99
623.332	7.499
627.262	86.608
631.189	72.097
635.115	22.582
639.039	115.344
642.96	260.468
646.88	536.054
650.798	862.347
654.714	724.544
658.628	599.619
662.54	582.39
666.45	678.016
670.358	893.912
674.264	1082.93
678.169	855.437
682.071	454.122
685.972	324.319
689.87	375.092
693.767	478.45
697.662	570.511
701.555	771.498
705.446	1346.49
709.335	1607.07
713.222	1168.49
717.107	724.656
720.99	506.754
724.872	562.456
728.751	558.631
732.629	492.77
736.504	288.667
740.378	171.252
744.25	194.708
748.12	278.872
751.988	506.823
755.854	703.551
759.719	654.782
763.581	624.335
767.442	624.071
771.3	642.492
775.157	364.029
779.012	151.282
782.865	54.184
786.716	53.492
790.565	3.618
794.413	19.733
798.258	63.738
802.102	54.478
805.943	42.895
809.783	40.959
813.621	26.356
817.457	37.192
821.292	17.464
825.124	29.669
828.954	5.382
832.783	29.427
836.61	4.803
840.435	109.78
844.258	63.451
848.079	87.83
851.898	113.928
855.715	96.749
859.531	101.286
863.345	92.549
867.157	92.544
870.967	62.275
874.775	105.747
878.581	145.967
882.386	175.952
886.188	173.697
889.989	142.205
893.788	138.482
897.585	175.532
901.38	238.362
905.174	222.976
908.965	269.377
912.755	273.599
916.543	320.712
920.329	606.709
924.113	990.553
927.895	1629.21
931.676	2950.7
935.454	3971.24
939.231	2194.07
943.006	1071.68
946.78	708.923
950.551	620.441
954.32	508.611
958.088	459.497
961.854	661.645
965.618	1045.57
969.38	2214.22
973.141	2607.88
976.9	1488.12
980.656	1047.44
984.411	1106.31
988.165	1344.26
991.916	1371.63
995.665	1502.06
999.413	1359.19
1003.16	1328.54
1006.9	1611.69
1010.65	2748.85
1014.39	4940.26
1018.12	6435.4
1021.86	5737.28
1025.6	4557.4
1029.33	4341.05
1033.06	2607.35
1036.79	1874.52
1040.52	2327.82
1044.25	2435.36
1047.97	1853.95
1051.69	1465.74
1055.41	1133.55
1059.13	1108.42
1062.85	1338.49
1066.57	1670.4
1070.28	1825.36
1073.99	1784.47
1077.7	1387.55
1081.41	1041.65
1085.12	938.87
1088.82	1103.78
1092.52	1505.35
1096.22	2179.18
1099.92	2671.67
1103.62	2389.07
1107.32	1864.43
1111.01	1356.51
1114.7	964.616
1118.39	680.532
1122.08	533.241
1125.77	362.963
1129.45	228.864
1133.14	171.763
1136.82	105.519
1140.5	82.127
1144.18	58.772
1147.85	49.283
1151.53	91.887
1155.2	78.358
1158.87	41.043
1162.54	31.292
1166.21	5.388
1169.88	25.063
1173.54	11.096
1177.2	18.426
1180.86	59.906
1184.52	31.045
1188.18	29.213
1191.83	15.329
1195.49	6.9
1199.14	3.25
1202.79	5.912
1206.44	0.654
1210.08	20.693
1213.73	16.042
1217.37	41.678
1221.01	26.01
1224.65	32.465
1228.29	24.036
1231.93	60.369
1235.56	7.909
1239.19	39.052
1242.83	28.108
1246.46	25.323
1250.08	4.583
1253.71	4.417
1257.33	8.374
1260.96	18.585
1264.58	8.621
1268.19	30.775
1271.81	48.546
1275.43	40.5
1279.04	51.048
1282.65	4.589
1286.27	13.001
1289.87	67.18
1293.48	56.415
1297.09	11.147
1300.69	41.535
1304.29	4.913
1307.89	25.038
1311.49	41.033
1315.09	18.708
1318.68	1.573
1322.28	19.337
1325.87	28.673
1329.46	37.86
1333.05	42.194
1336.63	5.574
1340.22	2.127
1343.8	42.768
1347.38	56.618
1350.96	44.211
1354.54	35.035
1358.12	17.028
1361.69	20.905
1365.26	42.519
1368.83	30.143
1372.4	28.506
1375.97	98.747
1379.54	70.311
1383.1	89.728
1386.66	70.539
1390.23	96.455
1393.79	106.317
1397.34	59.417
1400.9	78.443
1404.45	98.212
1408.01	47.945
1411.56	78.727
1415.11	146.87
1418.66	110.181
1422.2	92.457
1425.75	16.297
1429.29	65.17
1432.83	67.973
1436.37	50.458
1439.91	82.177
1443.44	124.13
1446.98	138.311
1450.51	62.478
1454.04	99.423
1457.57	82.668
1461.1	51.01
1464.63	53.705
1468.15	38.087
1471.67	41.432
1475.19	45.437
1478.71	61.888
1482.23	54.51
1485.75	92.214
1489.26	76.31
1492.78	115.664
1496.29	57.319
1499.8	8.479
1503.31	26.503
1506.81	43.229
1510.32	78.294
1513.82	26.326
1517.32	0.402
