Measurement: Raman, 514 nm, ccw, Raman Data Processed
Mineral: Scolecite
Rruff sample: R050083
Ideal chemistry: Ca(Si_3_Al_2_)O_10_3H_2_O
Locality: near Ahmednagar, Maharashtra, India
Source: Rock Currier
Description: Colorless acicular single crystals associated with fluorapophyllite
Measured chemistry: (Ca_.992_Na_.008_)[Al_2_Si_3_O_10_]Â·3H_2_O
Pin_id: M00476
Orientation: Laser parallel to a* (1 0 0). Fiducial mark perpendicular to laser is parallel to b [0 1 0]
Raman shift (cm-1)	intensity
98.254	0
102.446	321.737
106.637	1000.63
110.825	4811.57
115.011	3986.48
119.195	697.846
123.377	417.112
127.556	1211.43
131.734	1635.58
135.909	2697.61
140.083	7639.18
144.254	9062.93
148.423	5122.95
152.59	6669.11
156.755	10525.7
160.918	8252.27
165.078	4110.7
169.237	3012
173.393	2598.48
177.548	2578.5
181.7	3746.29
185.85	5480.33
189.998	5102.18
194.144	2655.32
198.288	1942.88
202.429	2240.88
206.569	2297.03
210.707	1909.07
214.842	1988.07
218.976	2455.95
223.107	2699.84
227.236	1745.99
231.363	1254.82
235.488	870.345
239.611	235.427
243.732	441.913
247.851	631.7
251.967	853.766
256.082	1213.11
260.195	901.717
264.305	434.036
268.414	208.037
272.52	312.882
276.624	323.916
280.726	410.903
284.827	499.251
288.925	1152.38
293.021	1312.91
297.115	322.628
301.207	274.888
305.296	16.986
309.384	321.196
313.47	131.508
317.554	323.168
321.635	10.889
325.715	151.607
329.792	254.209
333.868	336.571
337.941	76.559
342.013	236.324
346.082	31.294
350.15	50.464
354.215	528.522
358.278	812.566
362.339	489.66
366.399	648.532
370.456	1166.81
374.511	1115.45
378.564	602.996
382.615	345.725
386.664	767.588
390.711	977.311
394.756	673.118
398.799	825.079
402.84	1950.19
406.879	3013.44
410.916	2467.83
414.951	1439.35
418.983	1287.13
423.014	1736.1
427.043	1899.32
431.07	2883.29
435.095	4279.97
439.118	3834.36
443.138	2328.14
447.157	1648.49
451.174	2203.47
455.189	2929.72
459.202	2886.27
463.212	1891.34
467.221	1398.3
471.228	1763.87
475.233	1896.19
479.236	1767.81
483.237	2357.03
487.235	3713.95
491.232	4768.79
495.227	4754.01
499.22	3874.03
503.211	3338.96
507.2	3333.22
511.187	3343
515.172	3462.54
519.155	4560.75
523.136	7759.67
527.115	13928.1
531.092	26550.2
535.067	38958.9
539.04	32277.8
543.011	17316.9
546.98	8956.18
550.947	5005.61
554.913	3265.18
558.876	2884.88
562.837	2644.73
566.797	1824.7
570.754	1254.77
574.709	1213.98
578.663	1584.35
582.614	1365.8
586.564	766.392
590.511	264.706
594.457	675.716
598.401	847.937
602.343	472.618
606.282	61.928
610.22	139.429
614.156	519.709
618.09	627.167
622.022	306.553
625.952	104.165
629.88	245.684
633.807	688.497
637.731	792.942
641.653	242.672
645.574	87.736
649.492	579.383
653.409	1076.86
657.323	950.661
661.236	392.29
665.147	85.668
669.056	569.293
672.963	772.503
676.868	660.422
680.771	144.286
684.672	30.245
688.571	663.609
692.468	1337.81
696.364	1263.38
700.257	864.898
704.149	949.105
708.038	1331.91
711.926	1577.43
715.812	1220.01
719.696	499.914
723.578	173.285
727.458	503.861
731.336	931.021
735.213	713.211
739.087	238.532
742.96	31.235
746.83	224.227
750.699	727.77
754.566	908.033
758.431	541.806
762.294	159.128
766.155	156.81
770.014	638.494
773.872	927.584
777.727	519.622
781.581	27.599
785.433	60.705
789.282	233.183
793.13	710.45
796.977	706.362
800.821	192.962
804.663	139.704
808.504	105.86
812.342	680.443
816.179	935.416
820.014	540.154
823.847	27.411
827.678	4.643
831.507	258.45
835.334	851.38
839.16	781.178
842.983	344.138
846.805	163.118
850.625	19.143
854.443	641.163
858.259	1052.9
862.074	744.461
865.886	275.784
869.697	43.164
873.506	287.592
877.313	648.076
881.118	858.363
884.921	659.392
888.722	299.141
892.522	77.709
896.319	331.385
900.115	930.629
903.909	1073.62
907.701	722.584
911.492	160.08
915.28	198.681
919.067	627.244
922.852	1429.05
926.635	2028.24
930.416	2639.49
934.195	4276.18
937.973	4608.01
941.748	2776.08
945.522	1765.8
949.294	1884.58
953.064	1354.32
956.832	591.367
960.599	70.826
964.364	348.766
968.127	974.344
971.888	1285.28
975.647	1312.61
979.404	1170.27
983.16	1771.38
986.914	2772.73
990.666	2133.25
994.416	2098.47
998.164	2206.68
1001.91	2557.42
1005.65	3271.31
1009.4	3911.12
1013.14	3168.74
1016.88	2672.23
1020.62	2530
1024.35	2338.95
1028.09	2086.55
1031.82	2283.68
1035.55	2267.35
1039.28	2825.27
1043	5263.25
1046.73	8291.84
1050.45	5710.95
1054.17	2630.46
1057.89	750.41
1061.61	461.048
1065.33	1052.38
1069.04	1374.01
1072.75	1536.03
1076.46	1228.6
1080.17	491.683
1083.88	225.491
1087.59	459.803
1091.29	1205.02
1094.99	2201.62
1098.69	2609.38
1102.39	2268.54
1106.09	1479.06
1109.78	521.07
1113.47	205.27
1117.16	230.265
1120.85	898.014
1124.54	1448.39
1128.23	1201.9
1131.91	499.04
1135.59	200.501
1139.27	19.107
1142.95	288.065
1146.63	648.503
1150.3	1071.37
1153.98	1212.81
1157.65	1110.58
