Measurement: Raman, 514 nm, ccw, Raman Data Processed
Mineral: Scolecite
Rruff sample: R050083
Ideal chemistry: Ca(Si_3_Al_2_)O_10_3H_2_O
Locality: near Ahmednagar, Maharashtra, India
Source: Rock Currier
Description: Colorless acicular single crystals associated with fluorapophyllite
Measured chemistry: (Ca_.992_Na_.008_)[Al_2_Si_3_O_10_]Â·3H_2_O
Pin_id: M00476
Orientation: Laser parallel to a* (1 0 0). Fiducial mark perpendicular to laser is parallel to b [0 1 0]
Raman shift (cm-1)	intensity
112.22	0
116.406	139.392
120.589	949.197
124.77	593.45
128.949	444.358
133.126	510.199
137.301	448.316
141.473	562.879
145.644	194.89
149.812	491.342
153.979	1753.47
158.143	2780.93
162.305	2190.05
166.465	1265.01
170.623	421.104
174.778	214.396
178.932	975.399
183.083	1957.14
187.233	2053
191.38	1704.6
195.525	1252.98
199.669	761.576
203.81	658.748
207.949	1193.9
212.085	897.714
216.22	487.735
220.353	547.84
224.483	933.488
228.612	617.331
232.738	144.828
236.863	125.023
240.985	175.754
245.105	129.979
249.223	52.56
253.339	258.266
257.453	745.29
261.565	500.983
265.675	332.769
269.783	1077.61
273.888	1585.59
277.992	1028.03
282.093	1774.81
286.193	2525.17
290.29	1702.07
294.386	316.231
298.479	188.488
302.57	618.309
306.659	436.417
310.746	51.346
314.831	286.302
318.914	788.396
322.995	430.242
327.074	15.954
331.151	387.371
335.226	1302.91
339.299	1521.37
343.37	1364.96
347.438	1450.65
351.505	1728.29
355.57	1312.94
359.632	561.631
363.693	591.348
367.751	898.088
371.808	323.803
375.862	194.668
379.914	106.603
383.965	609.729
388.013	431.663
392.06	112.591
396.104	386.04
400.146	842.009
404.186	822.599
408.225	451.17
412.261	505.34
416.295	709.606
420.327	791.105
424.357	361.66
428.386	741.286
432.412	1872.03
436.436	2235.8
440.458	1087.89
444.478	498.737
448.496	917.197
452.513	1067.08
456.527	589.603
460.539	343.315
464.549	583.515
468.557	780.661
472.563	378.482
476.567	105.167
480.57	164.344
484.57	624.651
488.568	570.042
492.564	1.373
496.558	158.759
500.551	835.168
504.541	1087.64
508.529	854.156
512.515	905.697
516.5	1852.26
520.482	3138.91
524.462	4655.58
528.441	7942.31
532.417	15649
536.391	20995.3
540.364	14091.7
544.334	6836.95
548.303	3362.18
552.269	2318.85
556.234	2135.99
560.197	1377.37
564.157	603.103
568.116	647.257
572.073	1072.67
576.027	1027.19
579.98	404.723
583.931	88.274
587.88	365.847
591.827	938.446
595.772	670.093
599.715	56.65
603.656	66.789
607.595	466.696
611.532	659.166
615.468	308.397
619.401	53.574
623.332	57.433
627.262	596.157
631.189	755.521
635.115	267.461
639.039	160.548
642.96	151.104
646.88	657.489
650.798	870.509
654.714	508.766
658.628	114.206
662.54	497.215
666.45	1057.74
670.358	1117.69
674.264	716.989
678.169	288.476
682.071	606.756
685.972	1308.18
689.87	1388.13
693.767	684.069
697.662	584.883
701.555	1068.8
705.446	1607.44
709.335	1665.12
713.222	850.781
717.107	268.951
720.99	604.622
724.872	1204.05
728.751	1203.06
732.629	580.463
736.504	245.688
740.378	437.191
744.25	1042.2
748.12	1293.16
751.988	1000.06
755.854	611.55
759.719	629.739
763.581	1079.08
767.442	1279.45
771.3	769.553
775.157	150.742
779.012	41.492
782.865	367.11
786.716	782.75
790.565	908.603
794.413	264.164
798.258	136.446
802.102	15.573
805.943	769.299
809.783	1077.35
813.621	691.758
817.457	256.07
821.292	9.612
825.124	344.449
828.954	991.646
832.783	875.497
836.61	339.579
840.435	16.944
844.258	132.276
848.079	695.47
851.898	1038.46
855.715	931.329
859.531	364.099
863.345	103.192
867.157	279.243
870.967	931.595
874.775	1043.88
878.581	636.075
882.386	88.157
886.188	110.143
889.989	442.048
893.788	983.815
897.585	1015.45
901.38	706.921
905.174	148.249
908.965	60.425
912.755	590.779
916.543	1111.94
920.329	1113.06
924.113	884.207
927.895	258.437
931.676	265.002
935.454	775.928
939.231	1340.52
943.006	1091.48
946.78	841.203
950.551	462.346
954.32	161.089
958.088	214.552
961.854	943.798
965.618	1126.89
969.38	734.364
973.141	223.966
976.9	55.491
980.656	79.688
984.411	643.215
988.165	1129.49
991.916	968.154
995.665	339.428
999.413	394.269
1003.16	844.087
1006.9	1394.96
1010.65	1855.05
1014.39	1801.98
1018.12	1543.23
1021.86	775.258
1025.6	436.076
1029.33	706.726
1033.06	1515.7
1036.79	1806.89
1040.52	1853.3
1044.25	1614.25
1047.97	969.607
1051.69	445.217
1055.41	515.979
1059.13	876.911
1062.85	1388.02
1066.57	1439.33
1070.28	1141.09
1073.99	488.419
1077.7	20.228
1081.41	237.48
1085.12	1108.8
1088.82	1581.62
1092.52	1734.02
1096.22	1066.56
1099.92	799.351
1103.62	322.29
1107.32	365.438
1111.01	558.901
1114.7	913.045
1118.39	1197.96
1122.08	1213.36
1125.77	599.293
1129.45	43.874
1133.14	24.026
1136.82	673.698
1140.5	1094.58
1144.18	1326.95
1147.85	1158.86
1151.53	726.202
1155.2	232.279
1158.87	58.535
1162.54	228.99
1166.21	745.132
1169.88	1208.54
1173.54	1308.58
1177.2	1183.89
