Measurement: Raman, 514 nm, ccw, Raman Data Processed
Mineral: Scolecite
Rruff sample: R040111
Ideal chemistry: Ca(Si_3_Al_2_)O_10_3H_2_O
Locality: Bombay-Poona area, Mahahashtra Province, India
Source: National Museums of Canada
Description: Pale pink prismatic crystals in parallel or near parallel aggregates
Measured chemistry: Ca_0.98_(Si_3.05_Al_1.95_)O_10_Â·3H_2_O
Pin_id: M00424
Orientation: Laser parallel to -c* (0 0 -1). Fiducial mark perpendicular to laser is parallel to -a [-1 0 0]
Raman shift (cm-1)	intensity
80.823	0
85.009	35.72
89.193	402.634
93.375	1002.97
97.554	1128.55
101.732	2222.56
105.908	3919.28
110.082	7384.22
114.254	6436.2
118.424	2976.12
122.592	1811.24
126.758	2644.01
130.922	1086.92
135.083	1798.92
139.243	6158.06
143.401	8641.37
147.557	4177.15
151.711	4720.18
155.863	9559.38
160.013	10294.1
164.161	5505.25
168.308	3583.57
172.452	3081.9
176.594	3635.63
180.734	5964.4
184.872	8118.87
189.008	5960.45
193.143	2911.93
197.275	1585.05
201.405	1530.98
205.534	1799.02
209.66	1355.2
213.784	1306.18
217.907	2223.24
222.027	3235.19
226.146	1675.03
230.263	962.674
234.377	821.051
238.49	287.159
242.601	34.99
246.709	140.065
250.816	846.035
254.921	1237.28
259.024	380.619
263.125	65.062
267.224	156.603
271.321	159.708
275.416	16.603
279.51	248.74
283.601	785.243
287.69	1390.78
291.778	928.276
295.863	307.615
299.947	12.689
304.029	49.636
308.108	55.549
312.186	66.09
316.262	5.721
320.336	17.995
324.408	94.31
328.478	58.331
332.546	38.972
336.612	35.143
340.677	66.941
344.739	85.132
348.799	82.134
352.858	345.111
356.915	550.675
360.969	791.417
365.022	1140.58
369.073	1457.93
373.122	1403.54
377.169	1158.22
381.215	873.331
385.258	768.34
389.299	788.251
393.339	903.067
397.376	1279.79
401.412	2086.43
405.446	2518.07
409.478	1991.71
413.508	1297.19
417.536	1064.61
421.562	1006.89
425.586	1563.11
429.609	2496.01
433.629	3579.99
437.648	4188.12
441.665	4224.52
445.68	4704.73
449.693	5366.79
453.704	6779.57
457.713	8369.26
461.721	6931.23
465.726	4125.33
469.73	2438.74
473.731	1741.76
477.731	1687.25
481.729	1900.75
485.725	2161.56
489.72	2288.65
493.712	2368.86
497.703	2448.14
501.691	2660.58
505.678	2905.35
509.663	3461.89
513.646	4578.39
517.627	6240.02
521.607	9281.73
525.584	15697.5
529.56	29918.2
533.534	48800.1
537.506	42832.9
541.476	22068.8
545.444	11189.8
549.41	6676.88
553.375	4537
557.337	3471.19
561.298	2955.45
565.257	2544.78
569.214	2207.22
573.17	1819.72
577.123	1304.3
581.075	938.952
585.024	720.998
588.972	549.128
592.918	342.266
596.863	209.278
600.805	137.413
604.746	28.633
608.685	16.674
612.621	26.712
616.557	13.688
620.49	32.834
624.421	103.465
628.351	124.248
632.279	243.187
636.205	302.977
640.129	513.095
644.051	623.639
647.972	807.531
651.89	857.26
655.807	737.109
659.722	660.877
663.636	540.803
667.547	378.154
671.457	329.881
675.365	334.06
679.271	236.26
683.175	247.062
687.077	286.426
690.978	614.77
694.877	804.057
698.774	942.365
702.669	1194.69
706.562	1548.04
710.454	1178.39
714.344	813.767
718.232	467.149
722.118	309.54
726.002	304.937
729.885	231.336
733.766	69.738
737.645	34.139
741.522	6.528
745.397	25.896
749.271	21.236
753.143	206.547
757.013	215.831
760.881	162.086
764.748	62.087
768.613	91.178
772.476	41.634
776.337	7.917
780.196	15.181
784.054	13.535
787.91	13.914
791.764	12.027
795.616	33.297
799.467	5.87
803.316	23.653
807.163	36.205
811.008	18.181
814.851	23.13
818.693	65.117
822.533	14.894
826.371	18.544
830.208	28.669
834.042	69.711
837.875	75.631
841.706	100.443
845.536	107.162
849.363	69.243
853.189	93.32
857.013	84.785
860.836	141.193
864.656	160.522
868.475	145.781
872.292	136.982
876.108	97.093
879.922	99.113
883.733	70.042
887.544	188.884
891.352	149.645
895.159	123.023
898.964	187.695
902.767	248.259
906.568	310.333
910.368	337.764
914.166	541.112
917.962	783.382
921.757	1399.6
925.55	3035.76
929.341	5686.57
933.13	4207.52
936.918	1965.31
940.703	993.526
944.488	546.746
948.27	514.567
952.051	532.666
955.83	534.534
959.607	600.818
963.383	882.196
967.156	1622.65
970.928	3160.24
974.699	2394.95
978.468	1209.95
982.234	968.877
986	1095.62
989.763	1435.64
993.525	2275.61
997.285	2547.45
1001.04	1646.29
1004.8	1347.09
1008.55	1512.55
1012.31	2204.95
1016.06	3708.73
1019.81	6575.66
1023.56	10823.8
1027.31	7432.96
1031.05	3608.14
1034.79	2185.35
1038.53	1897.74
1042.27	1531.92
1046.01	1101.79
1049.75	1141.33
1053.48	1425.83
1057.22	1801.33
1060.95	2595.95
1064.68	3000.47
1068.4	2347.1
1072.13	1539.88
1075.86	1084.48
1079.58	835.04
1083.3	690.668
1087.02	793.639
1090.74	1031.58
1094.45	1493.69
1098.17	1993.03
1101.88	1918.51
1105.59	1390.97
1109.3	997.355
1113.01	608.374
1116.71	406.549
1120.42	293.325
1124.12	351.801
1127.82	107.478
1131.52	136.232
1135.22	124
1138.91	13.69
1142.61	12.899
1146.3	37.831
1149.99	4.346
1153.68	69.156
1157.37	41.831
1161.06	22.127
1164.74	102.925
1168.42	50.602
1172.1	17.193
1175.78	61.61
1179.46	48.882
1183.14	2.903
1186.81	38.479
1190.48	89.943
1194.15	87.452
1197.83	16.486
1201.49	36.124
1205.16	31.337
1208.82	45.512
1212.49	26.783
1216.15	110.879
1219.81	47.061
1223.46	60.944
1227.12	68.876
1230.78	77.808
1234.43	87.562
1238.08	142.18
1241.73	117.847
1245.38	45.555
1249.03	156.237
1252.67	6.668
1256.31	22.023
1259.95	73.688
1263.6	24.505
1267.23	54.447
1270.87	43.256
1274.51	57.61
1278.14	45.145
1281.77	43.31
1285.4	22.677
1289.03	77.541
1292.66	26.987
1296.28	26.71
1299.91	9.412
1303.53	61.332
1307.15	72.442
1310.77	5.002
1314.38	68.576
1318	47.842
1321.61	2.028
1325.23	111.942
1328.84	20.323
1332.45	14.292
1336.06	33.924
1339.66	47.782
1343.27	25.773
1346.87	85.889
1350.47	26.852
1354.07	173.691
1357.67	89.437
1361.26	82.227
1364.86	155.685
1368.45	72.419
1372.04	74.604
1375.63	94.762
1379.22	156.413
1382.81	176.619
1386.39	63.484
1389.98	73.945
1393.56	115.945
1397.14	208.123
1400.72	104.289
1404.3	137.116
1407.87	108.18
1411.45	190.003
1415.02	173.423
1418.59	211.668
1422.16	146.488
1425.73	158.771
1429.29	142.499
1432.86	147.064
1436.42	211.55
1439.98	169.793
1443.54	211.142
1447.1	245.033
1450.66	235.768
1454.21	346.407
1457.77	325.092
1461.32	215.632
1464.87	241.706
1468.42	89.791
1471.96	117.373
1475.51	111.746
1479.06	132.44
1482.6	172.743
1486.14	159.404
1489.68	132.177
1493.22	173.279
1496.75	146.477
1500.29	105.716
1503.82	125.315
1507.35	85.018
1510.88	34.357
1514.41	12
1517.94	110.742
1521.46	53.675
