Measurement: Raman, 514 nm, ccw, Raman Data Processed
Mineral: Scolecite
Rruff sample: R050083
Ideal chemistry: Ca(Si_3_Al_2_)O_10_3H_2_O
Locality: near Ahmednagar, Maharashtra, India
Source: Rock Currier
Description: Colorless acicular single crystals associated with fluorapophyllite
Measured chemistry: (Ca_.992_Na_.008_)[Al_2_Si_3_O_10_]Â·3H_2_O
Pin_id: M00346
Orientation: Laser parallel to b* (0 1 0). Fiducial mark perpendicular to laser is parallel to c [0 0 1]
Raman shift (cm-1)	intensity
89.863	0
94.059	34.664
98.254	410.31
102.446	818.056
106.637	1058.62
110.825	1308.35
115.011	1606.41
119.195	1484.59
123.377	1257.6
127.556	1246.03
131.734	951.182
135.909	499.482
140.083	826.794
144.254	1041.12
148.423	670.562
152.59	753.589
156.755	1573.38
160.918	1662.13
165.078	901.246
169.237	731.061
173.393	645.285
177.548	755.414
181.7	1040.89
185.85	1245.84
189.998	909.239
194.144	510.057
198.288	483.705
202.429	576.006
206.569	647.073
210.707	379.425
214.842	189.869
218.976	204.282
223.107	398.659
227.236	352.997
231.363	131.277
235.488	18.25
239.611	117.302
243.732	126.144
247.851	107.654
251.967	63.367
256.082	60.635
260.195	150.815
264.305	52.717
268.414	113.919
272.52	246.119
276.624	342.294
280.726	594.945
284.827	787.694
288.925	545.465
293.021	275.207
297.115	119.769
301.207	15.08
305.296	34.837
309.384	13.014
313.47	34.519
317.554	110.621
321.635	137.229
325.715	184.164
329.792	356.096
333.868	496.254
337.941	446.488
342.013	436.65
346.082	460.779
350.15	418.868
354.215	360.911
358.278	380.901
362.339	362.777
366.399	305.327
370.456	269.771
374.511	205.15
378.564	168.464
382.615	104.708
386.664	65.882
390.711	50.966
394.756	66.931
398.799	87.36
402.84	165.27
406.879	135.811
410.916	138.594
414.951	115.217
418.983	138.532
423.014	250.924
427.043	438.268
431.07	767.537
435.095	1111.72
439.118	1152.8
443.138	1119.79
447.157	1084.66
451.174	891.432
455.189	615.206
459.202	387.848
463.212	167.728
467.221	89.902
471.228	80.677
475.233	35.528
479.236	16.821
483.237	16.221
487.235	0.019
491.232	84.708
495.227	45.379
499.22	151.021
503.211	258.631
507.2	314.219
511.187	477.79
515.172	654.325
519.155	1055.81
523.136	1674.25
527.115	3037.64
531.092	5995
535.067	10065.3
539.04	9051.59
543.011	4861.78
546.98	2468.03
550.947	1414.06
554.913	959.631
558.876	713.676
562.837	514.156
566.797	401.628
570.754	315.392
574.709	263.389
578.663	233.419
582.614	156.421
586.564	195.399
590.511	177.355
594.457	155.277
598.401	112.163
602.343	55.017
606.282	20.837
610.22	21.625
614.156	8.38
618.09	10.855
622.022	20.72
625.952	46.149
629.88	70.656
633.807	30.931
637.731	52.817
641.653	45.325
645.574	58.495
649.492	50.717
653.409	30.31
657.323	74.916
661.236	62.385
665.147	111.235
669.056	138.258
672.963	108.942
676.868	73.504
680.771	94.084
684.672	84.112
688.571	178.562
692.468	243.885
696.364	267.1
700.257	339.286
704.149	464.664
708.038	502.816
711.926	440.998
715.812	355.192
719.696	316.505
723.578	252.645
727.458	276.299
731.336	307.454
735.213	279.595
739.087	243.887
742.96	206.773
746.83	175.636
750.699	241.452
754.566	308.231
758.431	322.95
762.294	263.622
766.155	186.256
770.014	160.668
773.872	116.796
777.727	33.29
781.581	32.566
785.433	32.883
789.282	21.558
793.13	16.562
796.977	12.314
800.821	41.269
804.663	44.139
808.504	16.868
812.342	14.481
816.179	22.929
820.014	18.504
823.847	19.84
827.678	23.114
831.507	9.338
835.334	83.513
839.16	4.637
842.983	53.706
846.805	63.745
850.625	78.747
854.443	4.708
858.259	68.624
862.074	110.501
865.886	79.594
869.697	76.135
873.506	90.892
877.313	69.607
881.118	24.274
884.921	57.897
888.722	77.482
892.522	79.035
896.319	78.536
900.115	58.988
903.909	35.41
907.701	92.801
911.492	59.162
915.28	63.493
919.067	58.798
922.852	104.081
926.635	98.301
930.416	118.584
934.195	161.044
937.973	117.413
941.748	145.864
945.522	139.664
949.294	210.992
953.064	197.62
956.832	105.036
960.599	73.083
964.364	49.989
968.127	28.674
971.888	60.205
975.647	111.795
979.404	180.698
983.16	144.617
986.914	302.98
990.666	330.256
994.416	310.332
998.164	242.781
1001.91	366.973
1005.65	453.009
1009.4	388.142
1013.14	318.35
1016.88	336.564
1020.62	335.783
1024.35	315.87
1028.09	411.097
1031.82	554.74
1035.55	684.017
1039.28	525.469
1043	731.702
1046.73	1011.99
1050.45	829.643
1054.17	471.116
1057.89	290.55
1061.61	213.97
1065.33	195.463
1069.04	111.412
1072.75	159.01
1076.46	131.78
1080.17	131.186
1083.88	146.16
1087.59	184.71
1091.29	211.424
1094.99	300.403
1098.69	287.244
1102.39	274.094
1106.09	229.231
1109.78	168.215
1113.47	138.133
1117.16	113.082
1120.85	74.078
1124.54	52.16
1128.23	8.18
1131.91	19.341
1135.59	16.559
1139.27	29.652
1142.95	23.793
1146.63	0.815
1150.3	3.582
1153.98	58.043
1157.65	68.038
1161.32	29.943
1164.99	57.051
1168.65	38.124
1172.32	22.073
1175.98	7.232
1179.64	1.194
1183.3	8.199
1186.96	39.427
1190.62	19.555
1194.27	2.078
1197.92	6.292
1201.57	30.513
1205.22	54.391
1208.87	38.172
1212.51	32.8
1216.16	68.544
1219.8	124.74
1223.44	68.824
1227.08	77.758
1230.72	38.167
1234.35	42.796
1237.98	4.664
1241.62	44.104
1245.25	50.523
1248.87	81.923
1252.5	100.3
1256.12	51.622
1259.75	73.966
1263.37	56.311
1266.99	45.688
1270.61	65.883
1274.22	36.343
1277.84	74.473
1281.45	52.322
1285.06	79.345
1288.67	54.364
1292.28	2.803
1295.88	13.553
1299.49	45.214
1303.09	10.78
1306.69	37.148
1310.29	49.431
1313.89	64.656
1317.48	27.79
1321.08	44.588
1324.67	60.788
1328.26	18.628
1331.85	33.127
1335.44	23.56
1339.02	19.065
1342.61	46.338
1346.19	66.748
1349.77	92.067
1353.35	102.367
1356.92	41.56
1360.5	99.3
1364.07	5.147
1367.64	5.731
1371.21	1.749
1374.78	32.016
1378.35	7.225
1381.91	130.654
1385.48	89.719
1389.04	94.778
1392.6	88.231
1396.16	2.318
1399.71	35.067
1403.27	44.734
1406.82	20.401
1410.38	55.929
1413.92	55.318
1417.47	75.834
1421.02	183.325
1424.57	119.206
1428.11	41.234
1431.65	57.003
1435.19	116.185
1438.73	41.318
1442.27	104.246
1445.8	153.583
1449.33	129.338
1452.87	114.027
1456.4	216.055
1459.92	204.746
1463.45	121.022
1466.98	153.39
1470.5	150.898
1474.02	90.71
1477.54	68.434
1481.06	47.449
1484.58	51.307
1488.09	41.309
1491.61	43.595
1495.12	90.47
1498.63	92.193
1502.14	74.956
1505.64	69.36
1509.15	62.655
1512.65	21.839
