Measurement: Raman, 514 nm, ccw, Raman Data Processed
Mineral: Scolecite
Rruff sample: R050083
Ideal chemistry: Ca(Si_3_Al_2_)O_10_3H_2_O
Locality: near Ahmednagar, Maharashtra, India
Source: Rock Currier
Description: Colorless acicular single crystals associated with fluorapophyllite
Measured chemistry: (Ca_.992_Na_.008_)[Al_2_Si_3_O_10_]Â·3H_2_O
Pin_id: M00267
Orientation: Laser parallel to -c* (0 0 -1). Fiducial mark perpendicular to laser is parallel to -a [-1 0 0]
Raman shift (cm-1)	intensity
49.184	0
53.401	26.664
57.617	2.512
61.83	234.118
66.041	309.912
70.25	108.942
74.456	438.434
78.661	517.66
82.863	378.928
87.064	254.132
91.262	52.314
95.458	239.026
99.652	675.879
103.843	630.603
108.033	1331.05
112.22	3669.92
116.406	2749.65
120.589	767.389
124.77	465.135
128.949	1108.04
133.126	725.356
137.301	141.9
141.473	90.202
145.644	146.454
149.812	345.518
153.979	1415.98
158.143	4218.09
162.305	5169.35
166.465	2995.55
170.623	1244.22
174.778	805.805
178.932	659.727
183.083	601.93
187.233	505.747
191.38	128.496
195.525	116.142
199.669	337.683
203.81	849.119
207.949	1023.4
212.085	490.586
216.22	556.042
220.353	1981.11
224.483	4529.88
228.612	3694.38
232.738	2410.12
236.863	1296.83
240.985	364.721
245.105	117.743
249.223	344.694
253.339	1309.57
257.453	2191.16
261.565	1042.26
265.675	163.746
269.783	118.881
273.888	108.89
277.992	114.66
282.093	726.031
286.193	781.269
290.29	530.329
294.386	185.276
298.479	12.119
302.57	1.66
306.659	106.671
310.746	284.894
314.831	550.89
318.914	731.204
322.995	735.504
327.074	485.364
331.151	387.671
335.226	299.931
339.299	400.129
343.37	506.134
347.438	779.07
351.505	978.973
355.57	836.441
359.632	739.579
363.693	664.883
367.751	432.669
371.808	279.429
375.862	120.165
379.914	28.851
383.965	5.356
388.013	95.39
392.06	52.514
396.104	125.075
400.146	397.576
404.186	786.021
408.225	1092.49
412.261	795.443
416.295	501.715
420.327	610.992
424.357	954.312
428.386	1807.39
432.412	3467.55
436.436	4677.4
440.458	4126.05
444.478	3235.16
448.496	2602.24
452.513	2326.3
456.527	2546.27
460.539	2608.08
464.549	1931.23
468.557	1164.37
472.563	673.871
476.567	443.147
480.57	324.003
484.57	272.86
488.568	299.983
492.564	289.325
496.558	330.51
500.551	368.755
504.541	437.045
508.529	612.388
512.515	834.792
516.5	1193.21
520.482	1918.65
524.462	3148.09
528.441	5605.53
532.417	10990
536.391	16815.3
540.364	12219.4
544.334	5862.39
548.303	2961.81
552.269	1607.83
556.234	1135.24
560.197	779.691
564.157	578.142
568.116	459.599
572.073	335.071
576.027	337.547
579.98	231.026
583.931	220.503
587.88	216.979
591.827	249.537
595.772	268.423
599.715	346.528
603.656	267.639
607.595	250.75
611.532	198.858
615.468	154.96
619.401	86.069
623.332	3.652
627.262	4.972
631.189	23.094
635.115	64.654
639.039	44.866
642.96	11.072
646.88	30.72
650.798	50.975
654.714	105.13
658.628	222.939
662.54	390.434
666.45	582.006
670.358	882.012
674.264	1247.32
678.169	1245.05
682.071	896.636
685.972	572.349
689.87	259.924
693.767	109.195
697.662	177.546
701.555	177.692
705.446	365.999
709.335	513.107
713.222	428.379
717.107	403.493
720.99	444.368
724.872	636.335
728.751	972.359
732.629	941.464
736.504	663.057
740.378	478.58
744.25	306.154
748.12	446.479
751.988	557.051
755.854	565.595
759.719	509.301
763.581	371.412
767.442	224.788
771.3	218.589
775.157	140.297
779.012	77.706
782.865	44.465
786.716	25.792
790.565	0.7
794.413	40.351
798.258	26.839
802.102	15.49
805.943	14.149
809.783	0.919
813.621	84.1
817.457	55.073
821.292	20.325
825.124	0.932
828.954	25.927
832.783	23.855
836.61	23.595
840.435	34.571
844.258	46.431
848.079	39.199
851.898	35.859
855.715	18.396
859.531	71.844
863.345	32.208
867.157	9.486
870.967	55.684
874.775	49.806
878.581	16.856
882.386	15.823
886.188	43.705
889.989	65.714
893.788	36.244
897.585	57.905
901.38	66.498
905.174	16.021
908.965	15.466
912.755	54.843
916.543	56.17
920.329	68.429
924.113	95.622
927.895	35.756
931.676	178.673
935.454	124.145
939.231	118.303
943.006	107.087
946.78	116.872
950.551	29.952
954.32	32.39
958.088	74.529
961.854	33.909
965.618	8.59
969.38	82.659
973.141	95.854
976.9	146.299
980.656	152.716
984.411	181.071
988.165	179.531
991.916	322.857
995.665	602.278
999.413	584.865
1003.16	399.354
1006.9	285.993
1010.65	447.772
1014.39	623.516
1018.12	1001.15
1021.86	2010.89
1025.6	2488.35
1029.33	1502.12
1033.06	938.922
1036.79	711.732
1040.52	811.999
1044.25	674.081
1047.97	559.209
1051.69	536.677
1055.41	496.469
1059.13	551.337
1062.85	707.648
1066.57	805.084
1070.28	638.873
1073.99	403.153
1077.7	292.459
1081.41	276.244
1085.12	267.008
1088.82	405.549
1092.52	592.093
1096.22	817.673
1099.92	906.54
1103.62	799.376
1107.32	543.009
1111.01	370.839
1114.7	289.646
1118.39	254.577
1122.08	211.374
1125.77	181.613
1129.45	195.369
1133.14	109.351
1136.82	98.958
1140.5	89.359
1144.18	56.522
1147.85	66.75
1151.53	39.311
1155.2	50.307
1158.87	22.187
1162.54	50.134
1166.21	24.345
1169.88	40.966
1173.54	74.673
1177.2	60.263
1180.86	15.962
1184.52	17.042
1188.18	38.544
1191.83	77.506
1195.49	5.539
1199.14	56.625
1202.79	41.918
1206.44	76.742
1210.08	24.626
1213.73	70.007
1217.37	125.531
1221.01	39.94
1224.65	5.823
1228.29	30.045
1231.93	103.48
1235.56	56.504
1239.19	46.21
1242.83	48.721
1246.46	43.285
1250.08	80.797
1253.71	39.308
1257.33	41.685
1260.96	60.032
1264.58	96.268
1268.19	65.458
1271.81	61.472
1275.43	81.563
1279.04	137.533
1282.65	27.085
1286.27	20.356
1289.87	84.943
1293.48	26.706
1297.09	74.298
1300.69	93.074
1304.29	93.607
1307.89	44.439
1311.49	3.55
1315.09	18.365
1318.68	7.871
1322.28	26.915
1325.87	23.489
1329.46	88.882
1333.05	35.089
1336.63	56.568
1340.22	59.229
1343.8	31.054
1347.38	22.278
1350.96	19.269
1354.54	8.851
1358.12	112.154
1361.69	43.353
1365.26	48.433
1368.83	7.036
1372.4	73.9
1375.97	86.793
1379.54	88.264
1383.1	0.593
1386.66	90.624
1390.23	118.611
1393.79	60.646
1397.34	111.337
1400.9	56.893
1404.45	86.144
1408.01	78.734
1411.56	137.425
1415.11	124.325
1418.66	20.816
1422.2	51.659
1425.75	11.577
1429.29	26.239
1432.83	2.943
1436.37	38.201
1439.91	67.512
1443.44	119.629
1446.98	159.576
1450.51	100.672
1454.04	144.04
1457.57	105.578
1461.1	131.688
1464.63	59.278
1468.15	106.382
1471.67	72.98
1475.19	11.371
1478.71	148.774
1482.23	120.428
1485.75	146.528
1489.26	180.576
1492.78	88.626
1496.29	120.556
1499.8	125.839
1503.31	104.526
1506.81	84.592
1510.32	19.178
1513.82	1.833
1517.32	0
