Measurement: Raman, 514 nm, ccw, Raman Data Processed
Mineral: Scolecite
Rruff sample: R040111
Ideal chemistry: Ca(Si_3_Al_2_)O_10_3H_2_O
Locality: Bombay-Poona area, Mahahashtra Province, India
Source: National Museums of Canada
Description: Pale pink prismatic crystals in parallel or near parallel aggregates
Measured chemistry: Ca_0.98_(Si_3.05_Al_1.95_)O_10_Â·3H_2_O
Pin_id: M00424
Orientation: Laser parallel to -c* (0 0 -1). Fiducial mark perpendicular to laser is parallel to -a [-1 0 0]
Raman shift (cm-1)	intensity
75.239	0
79.427	16.032
83.614	621.057
87.798	1897.69
91.981	4426.64
96.161	6486.76
100.34	5028.85
104.516	4721.83
108.691	8406.82
112.864	11239
117.034	4404.09
121.203	1828.09
125.369	3584.35
129.534	4315.28
133.696	836.716
137.857	120.927
142.016	232.379
146.172	594.966
150.327	2645.57
154.48	8786.45
158.63	16236.9
162.779	11465.9
166.926	5403.04
171.07	3070.11
175.213	2128.16
179.354	1054.79
183.493	569.415
187.63	148.859
191.765	140.776
195.898	791.755
200.029	2381.92
204.158	4077.26
208.285	2823.72
212.41	1868.17
216.533	4487.56
220.654	12206.8
224.773	14600.9
228.891	8897.89
233.006	5978.05
237.119	2293.99
241.231	712.965
245.34	652.479
249.448	2349.8
253.553	5838.62
257.657	5149.43
261.758	1617.31
265.858	18.345
269.956	308.111
274.052	62.698
278.146	1456.95
282.237	2724.83
286.327	1795.78
290.416	778.645
294.502	8.26
298.586	115.547
302.668	150.085
306.749	343.684
310.827	1098.04
314.903	1927.08
318.978	2222.91
323.051	2186.47
327.121	1360.66
331.19	1004.27
335.257	828.229
339.322	1176.57
343.385	2108.93
347.446	3025.66
351.505	3328.6
355.563	2647.23
359.618	2307.17
363.672	1780.47
367.723	1121.11
371.773	710.066
375.821	160.337
379.866	180.166
383.91	316.921
387.952	230.588
391.992	37.069
396.031	467.714
400.067	1449.82
404.101	2702.22
408.134	2824.27
412.165	1712.87
416.193	1422.94
420.22	2193.41
424.245	4387.24
428.268	8938.9
432.289	14931.6
436.309	15254.2
440.326	11541.2
444.342	8548.41
448.355	6850.86
452.367	7186.54
456.377	8509.2
460.385	8642.54
464.391	5341.12
468.395	2934.25
472.398	1783.67
476.398	1122.12
480.397	932.652
484.394	873.64
488.389	795.893
492.382	856.384
496.373	932.992
500.362	1180.78
504.349	1494.76
508.335	2090.95
512.319	2821.27
516.3	4368.74
520.28	6960.38
524.259	12142.2
528.235	23717
532.209	43202
536.182	49003
540.152	27500.8
544.121	12993.3
548.088	6804.95
552.053	4089.05
556.017	2741.69
559.978	1819.19
563.938	1441.82
567.895	1122.56
571.851	672.395
575.805	652.33
579.758	545.354
583.708	673.446
587.657	719.599
591.603	879.078
595.548	1035.06
599.491	1075.14
603.432	895.262
607.372	823.727
611.309	559.56
615.245	345.731
619.179	264.062
623.111	196.734
627.041	81.375
630.97	66.682
634.896	217.291
638.821	124.453
642.744	80.027
646.665	199.384
650.584	252.974
654.502	558.221
658.418	921.451
662.331	1297.75
666.244	2084.45
670.154	3083.13
674.062	3959.1
677.969	3718.97
681.874	2430.28
685.777	1294.47
689.678	677.392
693.577	556.016
697.475	397.196
701.371	685.086
705.265	1300.93
709.157	1306.92
713.047	1225.65
716.936	1242.46
720.823	1749
724.708	2484.63
728.591	3475.25
732.472	3022
736.352	2122.5
740.23	1418.07
744.106	1312.2
747.98	1373.29
751.853	1639.48
755.723	1794.08
759.592	1514.73
763.459	976.594
767.325	544.007
771.188	381.856
775.05	290.973
778.91	260.828
782.768	42.613
786.625	27.889
790.479	83.756
794.332	39.37
798.183	135.935
802.033	50.876
805.88	22.013
809.726	19.415
813.57	41.75
817.413	35.493
821.253	47.855
825.092	40.067
828.929	2.39
832.764	29.269
836.598	88.95
840.429	176.724
844.259	171.278
848.088	139.611
851.914	110.734
855.739	274.651
859.562	184.362
863.383	163.84
867.203	106.092
871.02	120.189
874.836	87.043
878.65	55.668
882.463	87.083
886.274	1.269
890.083	102.271
893.89	196.158
897.695	146.851
901.499	70.344
905.301	68.627
909.102	71.707
912.9	131.588
916.697	3.719
920.492	163.78
924.285	198.096
928.077	182.229
931.867	306.189
935.655	323.605
939.442	302.364
943.226	155.516
947.009	146.343
950.791	194.536
954.57	108.759
958.348	148.987
962.124	96.782
965.899	56.15
969.671	136.249
973.442	255.908
977.211	170.036
980.979	316.242
984.745	539.615
988.509	995.299
992.271	1317.57
996.032	2010.82
999.791	1976.07
1003.55	1301.75
1007.3	1043.31
1011.06	1309.46
1014.81	2050.5
1018.56	3795.21
1022.31	7372
1026.06	8219.41
1029.8	4467.19
1033.55	2801.67
1037.29	2442.09
1041.03	2162.14
1044.77	1542.6
1048.5	1355.82
1052.24	1393.06
1055.97	1626.14
1059.7	2078.76
1063.43	2490.4
1067.16	2362.15
1070.89	1552.95
1074.61	1187.22
1078.34	951.949
1082.06	834.104
1085.78	905.6
1089.5	1113.33
1093.21	1464.85
1096.93	2085.8
1100.64	2252.8
1104.35	1973.94
1108.06	1309.41
1111.77	954.991
1115.48	747.6
1119.18	438.271
1122.89	621.974
1126.59	453.381
1130.29	504.692
1133.99	122.029
1137.68	276.249
1141.38	108.035
1145.07	126.631
1148.76	68.428
1152.45	112.537
1156.14	93.882
1159.83	166.02
1163.51	94.677
1167.19	12.882
1170.88	78.065
1174.56	11.756
1178.23	50.307
1181.91	125.424
1185.59	64.972
1189.26	50.035
1192.93	56.752
1196.6	138.981
1200.27	83.305
1203.94	223.465
1207.6	58.774
1211.27	129.103
1214.93	208.465
1218.59	123.487
1222.25	93.446
1225.9	105.316
1229.56	127.905
1233.21	133.357
1236.86	113.702
1240.51	198
1244.16	41.121
1247.81	76.2
1251.45	95.319
1255.1	188.996
1258.74	149.515
1262.38	111.812
1266.02	159.271
1269.66	5.029
1273.29	14.407
1276.93	131.734
1280.56	169.452
1284.19	170.043
1287.82	33.272
1291.45	74.033
1295.07	191.617
1298.7	29.771
1302.32	33.153
1305.94	163.629
1309.56	81.526
1313.18	13.671
1316.8	25.172
1320.41	117.488
1324.02	120.207
1327.63	27.776
1331.24	118.901
1334.85	27.527
1338.46	80.973
1342.06	7.793
1345.67	18.641
1349.27	1.604
1352.87	147.845
1356.47	251.291
1360.07	183.801
1363.66	238.97
1367.25	208.025
1370.85	186.234
1374.44	327.258
1378.03	183.519
1381.61	87.668
1385.2	229.512
1388.78	189.8
1392.37	46.562
1395.95	326.993
1399.53	265.767
1403.1	125.094
1406.68	18.019
1410.26	176.858
1413.83	196.941
1417.4	212.495
1420.97	202.649
1424.54	273.298
1428.1	232.118
1431.67	230.228
1435.23	205.878
1438.8	264.624
1442.36	299.541
1445.91	301.994
1449.47	326.193
1453.03	428.479
1456.58	443.283
1460.13	384.222
1463.68	378.743
1467.23	106.827
1470.78	234.204
1474.33	187.383
1477.87	201.446
1481.42	84.124
1484.96	118.824
1488.5	194.934
1492.04	329.036
1495.57	218.396
1499.11	162.112
1502.64	2.445
1506.17	3.333
1509.71	92.701
1513.23	179.246
1516.76	0
