Measurement: Raman, 514 nm, ccw, Raman Data Processed
Mineral: Scolecite
Rruff sample: R040111
Ideal chemistry: Ca(Si_3_Al_2_)O_10_3H_2_O
Locality: Bombay-Poona area, Mahahashtra Province, India
Source: National Museums of Canada
Description: Pale pink prismatic crystals in parallel or near parallel aggregates
Measured chemistry: Ca_0.98_(Si_3.05_Al_1.95_)O_10_Â·3H_2_O
Pin_id: L00238
Orientation: Laser parallel to (-1 0 -1). Fiducial mark perpendicular to laser is parallel to b [0 1 0]
Raman shift (cm-1)	intensity
75.239	0
79.427	109.554
83.614	1121.83
87.798	3154.5
91.981	6554.26
96.161	9069.55
100.34	9521.89
104.516	14897.3
108.691	29108.7
112.864	23977.3
117.034	6743.62
121.203	1412.15
125.369	351.118
129.534	164.453
133.696	54.153
137.857	158.999
142.016	129.731
146.172	297.264
150.327	2168.02
154.48	7570.51
158.63	15473.7
162.779	13382.2
166.926	6686.28
171.07	3225.86
175.213	3430.24
179.354	5643.53
183.493	8933.86
187.63	6399.81
191.765	2331.52
195.898	936.315
200.029	1332.43
204.158	2217.86
208.285	2025.54
212.41	1378.45
216.533	3218.54
220.654	8331.77
224.773	10011.9
228.891	6270.91
233.006	4047.93
237.119	1568.21
241.231	551.668
245.34	1008.63
249.448	3575.59
253.553	7835.36
257.657	5568.58
261.758	1683.37
265.858	567.344
269.956	647.202
274.052	679.938
278.146	1864.85
282.237	3756.23
286.327	3068.92
290.416	1787.79
294.502	416.745
298.586	6.837
302.668	24.52
306.749	615.053
310.827	1543.89
314.903	2425.3
318.978	2442.7
323.051	1994.86
327.121	1256.58
331.19	1289.86
335.257	1517.69
339.322	2404.08
343.385	3333.01
347.446	3232.47
351.505	2185.45
355.563	1331.76
359.618	1601.57
363.672	777.877
367.723	210.358
371.773	472.62
375.821	390.362
379.866	197.43
383.91	4.371
387.952	397.779
391.992	1110.89
396.031	2017.64
400.067	3178.82
404.101	4267.46
408.134	3738.86
412.165	2059.93
416.193	1165.61
420.22	1259.83
424.245	2363.55
428.268	4631.75
432.289	7434.39
436.309	7673.46
440.326	7028.95
444.342	7105.83
448.355	7195.08
452.367	6513.69
456.377	4900.65
460.385	3356.66
464.391	2116.45
468.395	1446.81
472.398	1013.44
476.398	865.118
480.397	707.034
484.394	796.747
488.389	821.752
492.382	869.152
496.373	1019.93
500.362	1216.95
504.349	1598.24
508.335	2163.75
512.319	3152.48
516.3	4875.38
520.28	7756.45
524.259	13041.7
528.235	25092.3
532.209	45023.3
536.182	49940.4
540.152	27211.7
544.121	12632.7
548.088	6568.98
552.053	3924.92
556.017	2579.99
559.978	1782.19
563.938	1251.5
567.895	1003.92
571.851	754.431
575.805	670.02
579.758	640.676
583.708	490.387
587.657	591.145
591.603	629.938
595.548	548.755
599.491	511.435
603.432	492.419
607.372	295.249
611.309	304.063
615.245	94.854
619.179	37.433
623.111	168.373
627.041	19.648
630.97	84.701
634.896	143.879
638.821	16.979
642.744	300.752
646.665	474.117
650.584	666.438
654.502	975.65
658.418	1484.31
662.331	1987.35
666.244	3240.76
670.154	4441.87
674.062	4976.89
677.969	3892.57
681.874	2408.09
685.777	1330.53
689.678	728.331
693.577	722.503
697.475	538.331
701.371	1078.18
705.265	1823.07
709.157	1722.51
713.047	1242.81
716.936	1151.81
720.823	1201.62
724.708	1658.36
728.591	1863.66
732.472	1589.71
736.352	1285.39
740.23	1053.15
744.106	1231.35
747.98	1534.31
751.853	1866.88
755.723	2075.14
759.592	1714.35
763.459	1127.04
767.325	626.444
771.188	400.18
775.05	319.137
778.91	230.994
782.768	59.4
786.625	47.386
790.479	55.337
794.332	40.283
798.183	62.369
802.033	123.759
805.88	9.163
809.726	2.913
813.57	34.554
817.413	98.256
821.253	51.535
825.092	44.775
828.929	124.751
832.764	16.41
836.598	161.767
840.429	218.954
844.259	294.923
848.088	111.667
851.914	155.181
855.739	285.468
859.562	189.523
863.383	224.36
867.203	186.987
871.02	126.517
874.836	122.849
878.65	134.001
882.463	204.95
886.274	139.699
890.083	140.252
893.89	138.611
897.695	227.794
901.499	201.808
905.301	183.651
909.102	149.333
912.9	158.858
916.697	206.414
920.492	161.438
924.285	242.512
928.077	156.507
931.867	301.015
935.655	308.061
939.442	308.474
943.226	335.365
947.009	216.346
950.791	232.397
954.57	128.361
958.348	67.62
962.124	10.74
965.899	75.076
969.671	231.043
973.442	224.129
977.211	188.128
980.979	441.935
984.745	594.971
988.509	852.153
992.271	785.707
996.032	460.846
999.791	744.06
1003.55	611.956
1007.3	711.751
1011.06	1338.05
1014.81	2489.39
1018.56	3339.3
1022.31	3115.98
1026.06	3642.79
1029.8	3530.68
1033.55	1988.88
1037.29	1428.81
1041.03	1325.88
1044.77	1173.17
1048.5	958.657
1052.24	784.784
1055.97	640.311
1059.7	647.274
1063.43	785.813
1067.16	1043.28
1070.89	884.349
1074.61	834.746
1078.34	761.854
1082.06	663.126
1085.78	892.083
1089.5	1158.04
1093.21	1741.11
1096.93	2564.55
1100.64	2628.42
1104.35	2363.33
1108.06	1535.06
1111.77	918.408
1115.48	754.934
1119.18	561.423
1122.89	507.337
1126.59	385.021
1130.29	350.312
1133.99	79.79
1137.68	245.142
1141.38	173.803
1145.07	108.281
1148.76	42.346
1152.45	165.601
1156.14	132.38
1159.83	6.674
1163.51	150.258
1167.19	88.189
1170.88	3.185
1174.56	82.594
1178.23	58.788
1181.91	85.009
1185.59	61
1189.26	172.22
1192.93	5.179
1196.6	124.405
1200.27	84.604
1203.94	158.608
1207.6	27.089
1211.27	161.48
1214.93	28.751
1218.59	0.085
1222.25	59.321
1225.9	111.105
1229.56	220.784
1233.21	228.172
1236.86	177.841
1240.51	243.881
1244.16	43.735
1247.81	38.441
1251.45	162.938
1255.1	84.263
1258.74	152.341
1262.38	79.183
1266.02	112.79
1269.66	116.416
1273.29	13.413
1276.93	32.987
1280.56	134.284
1284.19	75.368
1287.82	133.45
1291.45	36.492
1295.07	128.126
1298.7	69.057
1302.32	20.808
1305.94	111.127
1309.56	148.178
1313.18	33.181
1316.8	131.941
1320.41	73.554
1324.02	70.113
1327.63	54.531
1331.24	17.649
1334.85	40.465
1338.46	69.717
1342.06	37.66
1345.67	38.075
1349.27	8.423
1352.87	193.714
1356.47	230.257
1360.07	177.663
1363.66	124.532
1367.25	166.093
1370.85	203.983
1374.44	281.607
1378.03	37.846
1381.61	142.61
1385.2	301.154
1388.78	277.244
1392.37	224.135
1395.95	341.021
1399.53	220.328
1403.1	218.316
1406.68	177.846
1410.26	68.217
1413.83	198.893
1417.4	215.046
1420.97	345.809
1424.54	302.618
1428.1	182.831
1431.67	342.977
1435.23	390.764
1438.8	229.102
1442.36	259.38
1445.91	416.539
1449.47	290.641
1453.03	381.441
1456.58	293.531
1460.13	592.82
1463.68	351.463
1467.23	153.676
1470.78	246.66
1474.33	340.92
1477.87	77.133
1481.42	169
1484.96	318.801
1488.5	232.775
1492.04	283.049
1495.57	198.984
1499.11	31.084
1502.64	15.385
1506.17	8.018
1509.71	9.396
1513.23	119.902
1516.76	60.447
1520.29	81.482
