Measurement: Raman, 514 nm, ccw, Raman Data Processed
Mineral: Scolecite
Rruff sample: R040111
Ideal chemistry: Ca(Si_3_Al_2_)O_10_3H_2_O
Locality: Bombay-Poona area, Mahahashtra Province, India
Source: National Museums of Canada
Description: Pale pink prismatic crystals in parallel or near parallel aggregates
Measured chemistry: Ca_0.98_(Si_3.05_Al_1.95_)O_10_Â·3H_2_O
Pin_id: L00238
Orientation: Laser parallel to (-1 0 -1). Fiducial mark perpendicular to laser is parallel to b [0 1 0]
Raman shift (cm-1)	intensity
79.427	0
83.614	21.984
87.798	281.722
91.981	1002.33
96.161	1350.13
100.34	2239.8
104.516	4244.76
108.691	7087.74
112.864	6287.27
117.034	2916.81
121.203	1740.67
125.369	1965.04
129.534	1341.92
133.696	1617.43
137.857	4926.96
142.016	9309.35
146.172	5729.81
150.327	4499.75
154.48	7808.98
158.63	11307.7
162.779	7281.15
166.926	4246.82
171.07	3405.51
175.213	3622.72
179.354	5253.04
183.493	7166
187.63	6204.18
191.765	3260.44
195.898	1777.39
200.029	1527.67
204.158	1826.06
208.285	1694.92
212.41	1448.9
216.533	1963.43
220.654	3120.68
224.773	2400.1
228.891	1130.58
233.006	963.047
237.119	508.484
241.231	149.892
245.34	165
249.448	643.416
253.553	1253.42
257.657	725.811
261.758	55.49
265.858	125.214
269.956	76.93
274.052	82.958
278.146	112.556
282.237	616.519
286.327	1305.79
290.416	1170.28
294.502	453.933
298.586	0.658
302.668	134.689
306.749	40.412
310.827	28.532
314.903	61.816
318.978	11.507
323.051	33.505
327.121	51.922
331.19	8.235
335.257	72.934
339.322	167.846
343.385	105.767
347.446	31.162
351.505	169.207
355.563	340.318
359.618	541.72
363.672	877.79
367.723	1174.3
371.773	1136.14
375.821	966.106
379.866	670.463
383.91	560.801
387.952	520.146
391.992	695.5
396.031	1046.86
400.067	1551.23
404.101	2194.62
408.134	2049.03
412.165	1306.59
416.193	967.236
420.22	915.908
424.245	1270.58
428.268	1767.23
432.289	2825.39
436.309	3594.9
440.326	4743.18
444.342	6461.69
448.355	7774.12
452.367	8123.07
456.377	6362.81
460.385	3949.81
464.391	2233.46
468.395	1339.21
472.398	943.416
476.398	850.365
480.397	968.98
484.394	1118.16
488.389	1456.42
492.382	1838.73
496.373	2237.05
500.362	2672.28
504.349	3205.74
508.335	3744.53
512.319	4457.7
516.3	5880.04
520.28	7896.44
524.259	12094.9
528.235	22144.4
532.209	39838
536.182	45286.6
540.152	25977.4
544.121	12810.2
548.088	7103.16
552.053	4653.17
556.017	3502.27
559.978	2674.46
563.938	2366.73
567.895	2087.09
571.851	1672.54
575.805	1337.07
579.758	1106.72
583.708	858.31
587.657	595.119
591.603	387.893
595.548	334.243
599.491	123.729
603.432	130.288
607.372	13.923
611.309	20.617
615.245	92.294
619.179	2.051
623.111	71.864
627.041	174.439
630.97	298.688
634.896	318.847
638.821	412.493
642.744	513.965
646.665	839.92
650.584	708.232
654.502	767.492
658.418	692.86
662.331	536.135
666.244	520.553
670.154	294.97
674.062	150.611
677.969	154.25
681.874	222.435
685.777	285.457
689.678	458.406
693.577	832.666
697.475	715.603
701.371	1040.53
705.265	1256.94
709.157	1282.35
713.047	735.236
716.936	469.105
720.823	427.997
724.708	320.823
728.591	336.627
732.472	173.405
736.352	8.848
740.23	41.807
744.106	65.603
747.98	123.767
751.853	123.071
755.723	167.332
759.592	216.546
763.459	168.715
767.325	149.238
771.188	56.845
775.05	38.675
778.91	21.333
782.768	31.003
786.625	42.883
790.479	10.211
794.332	59.956
798.183	121.096
802.033	108.643
805.88	114.398
809.726	50.794
813.57	57.739
817.413	30.057
821.253	64.184
825.092	15.192
828.929	28.059
832.764	58.812
836.598	112.455
840.429	162.082
844.259	169.619
848.088	75.064
851.914	153.473
855.739	316.84
859.562	310.122
863.383	389.325
867.203	243.459
871.02	190.521
874.836	174.515
878.65	218.45
882.463	118.357
886.274	190.197
890.083	192.578
893.89	236.753
897.695	162.095
901.499	233.455
905.301	364.034
909.102	306.551
912.9	433.021
916.697	451.435
920.492	823.803
924.285	1241.16
928.077	2209.92
931.867	4678.31
935.655	4157.61
939.442	1805.23
943.226	889.854
947.009	594.965
950.791	575.7
954.57	597.91
958.348	648.378
962.124	947.537
965.899	1733.97
969.671	3243.3
973.442	3401.16
977.211	1663.51
980.979	1178.35
984.745	1252.16
988.509	1628.35
992.271	1736.98
996.032	1755.45
999.791	1567.82
1003.55	1413.36
1007.3	1934.25
1011.06	3232.62
1014.81	5795.48
1018.56	7637.13
1022.31	5971.36
1026.06	5123.05
1029.8	4109.05
1033.55	2323
1037.29	1987.2
1041.03	2425.66
1044.77	2224.11
1048.5	1560.61
1052.24	1240.31
1055.97	1170.31
1059.7	946.828
1063.43	1323.22
1067.16	1621.65
1070.89	1943.37
1074.61	1746.8
1078.34	1348.21
1082.06	1106.71
1085.78	997.143
1089.5	921.818
1093.21	1229.12
1096.93	1679.3
1100.64	1816.88
1104.35	1623.16
1108.06	1008.11
1111.77	727.43
1115.48	479.714
1119.18	397.226
1122.89	380.53
1126.59	288.117
1130.29	216.666
1133.99	33.062
1137.68	160.308
1141.38	41.299
1145.07	49.548
1148.76	84.602
1152.45	68.508
1156.14	28.034
1159.83	113.638
1163.51	89.812
1167.19	113.049
1170.88	8.239
1174.56	104.526
1178.23	81.547
1181.91	128.098
1185.59	105.077
1189.26	192.104
1192.93	41.521
1196.6	173.402
1200.27	50
1203.94	157.095
1207.6	18.564
1211.27	65.265
1214.93	192.966
1218.59	214.724
1222.25	1.774
1225.9	30.701
1229.56	91.13
1233.21	125.138
1236.86	132.173
1240.51	245.055
1244.16	69.679
1247.81	16.161
1251.45	107.438
1255.1	140.564
1258.74	259.568
1262.38	153.248
1266.02	95.104
1269.66	69.318
1273.29	88.767
1276.93	16.118
1280.56	154.155
1284.19	96.887
1287.82	40.111
1291.45	98.394
1295.07	71.306
1298.7	51.843
1302.32	51.335
1305.94	31.103
1309.56	142.11
1313.18	10.134
1316.8	94.136
1320.41	119.972
1324.02	3.064
1327.63	53.033
1331.24	48.587
1334.85	84.729
1338.46	99.122
1342.06	106.645
1345.67	10.037
1349.27	67.424
1352.87	178.173
1356.47	227.65
1360.07	134.491
1363.66	252.427
1367.25	231.696
1370.85	222.238
1374.44	287.965
1378.03	102.121
1381.61	111.995
1385.2	247.828
1388.78	163.416
1392.37	221.976
1395.95	321.528
1399.53	121.288
1403.1	215.676
1406.68	47.448
1410.26	149.569
1413.83	234.069
1417.4	149.618
1420.97	268.697
1424.54	278.509
1428.1	184.137
1431.67	307.983
1435.23	326.519
1438.8	332.284
1442.36	351
1445.91	507.255
1449.47	269.003
1453.03	430.187
1456.58	467.326
1460.13	337.081
1463.68	520.075
1467.23	250.741
1470.78	364.736
1474.33	314.667
1477.87	403.907
1481.42	195.286
1484.96	196.77
1488.5	158.589
1492.04	344.035
1495.57	274.619
1499.11	68.168
1502.64	38.229
1506.17	161.963
1509.71	130.199
1513.23	91.873
1516.76	1.892
1520.29	0
