Measurement: Raman, 514 nm, ccw, Raman Data Processed
Mineral: Scolecite
Rruff sample: R040111
Ideal chemistry: Ca(Si_3_Al_2_)O_10_3H_2_O
Locality: Bombay-Poona area, Mahahashtra Province, India
Source: National Museums of Canada
Description: Pale pink prismatic crystals in parallel or near parallel aggregates
Measured chemistry: Ca_0.98_(Si_3.05_Al_1.95_)O_10_Â·3H_2_O
Pin_id: M00424
Orientation: Laser parallel to -c* (0 0 -1). Fiducial mark perpendicular to laser is parallel to -a [-1 0 0]
Raman shift (cm-1)	intensity
79.427	0
83.614	248.473
87.798	1992.93
91.981	5837.02
96.161	7227.62
100.34	4014.32
104.516	4141.51
108.691	7652.4
112.864	8777.77
117.034	3040.4
121.203	526.93
125.369	1566.2
129.534	1620.24
133.696	236.459
137.857	945.267
142.016	3452.12
146.172	2361.7
150.327	2596.22
154.48	7354.57
158.63	12777.4
162.779	8240.38
166.926	3980.36
171.07	2452.03
175.213	2412.78
179.354	2940.12
183.493	4010.11
187.63	3415.77
191.765	1973.16
195.898	1445.55
200.029	1667.86
204.158	2413.12
208.285	1753.09
212.41	1219.51
216.533	2797.11
220.654	6891.84
224.773	7250.63
228.891	3933.5
233.006	2493.46
237.119	593.526
241.231	242.302
245.34	159.054
249.448	945.973
253.553	2951.55
257.657	2025.7
261.758	147.639
265.858	501.881
269.956	495.506
274.052	256.093
278.146	692.879
282.237	1787.02
286.327	1670.19
290.416	984.146
294.502	158.657
298.586	143.322
302.668	1.024
306.749	272.447
310.827	943.512
314.903	1198.33
318.978	1282.95
323.051	1102.43
327.121	589.19
331.19	489.649
335.257	482.003
339.322	452.672
343.385	918.942
347.446	1311.18
351.505	1611.55
355.563	1402.03
359.618	1394.97
363.672	1338.07
367.723	1493.31
371.773	1646.69
375.821	1264.2
379.866	918.834
383.91	554.603
387.952	303.502
391.992	451.531
396.031	931.692
400.067	1579.98
404.101	2361.71
408.134	2246.84
412.165	1411.2
416.193	1297.14
420.22	1929.11
424.245	3304.06
428.268	5337.67
432.289	8041.7
436.309	8088.06
440.326	6563.97
444.342	5604.89
448.355	5154.82
452.367	5925.11
456.377	7398.28
460.385	7366.87
464.391	4565.17
468.395	2525.75
472.398	1702.06
476.398	1299.92
480.397	1395.61
484.394	1552.02
488.389	1722.42
492.382	1851.85
496.373	1878.07
500.362	1829.88
504.349	1903.1
508.335	2224.69
512.319	3119.45
516.3	4576.78
520.28	7011.32
524.259	12126.1
528.235	23212.3
532.209	41544.6
536.182	47455.2
540.152	26818
544.121	13318
548.088	7482.19
552.053	4938.56
556.017	3706.11
559.978	2950.85
563.938	2414.96
567.895	2051.05
571.851	1436.61
575.805	1209.32
579.758	811.192
583.708	574.208
587.657	432.395
591.603	338.192
595.548	265.888
599.491	209.046
603.432	68.321
607.372	23.292
611.309	31.187
615.245	66.776
619.179	94.75
623.111	16.548
627.041	32.514
630.97	12.567
634.896	221.172
638.821	53.91
642.744	69.458
646.665	330.546
650.584	442.161
654.502	557.207
658.418	750.875
662.331	809.71
666.244	1136.38
670.154	1609.84
674.062	1953.01
677.969	1739.9
681.874	1092.42
685.777	567.629
689.678	389.256
693.577	661.284
697.475	621.55
701.371	1090.85
705.265	1933.47
709.157	1985.71
713.047	1265.58
716.936	959.45
720.823	989.918
724.708	1323.83
728.591	1717.52
732.472	1384.98
736.352	969.917
740.23	568.561
744.106	612.823
747.98	773.631
751.853	871.135
755.723	1007.32
759.592	988.156
763.459	909.327
767.325	708.521
771.188	680.373
775.05	418.878
778.91	212.748
782.768	3.822
786.625	42.362
790.479	45.355
794.332	34.268
798.183	154.854
802.033	32.515
805.88	25.938
809.726	6.07
813.57	42.001
817.413	23.704
821.253	19.919
825.092	65.01
828.929	67.385
832.764	44.248
836.598	37.564
840.429	186.356
844.259	228.745
848.088	52.734
851.914	163.308
855.739	218.494
859.562	235.316
863.383	237.798
867.203	125.336
871.02	174.777
874.836	144.276
878.65	169.418
882.463	105.217
886.274	184.653
890.083	177.746
893.89	210.511
897.695	290.965
901.499	318.125
905.301	331.978
909.102	353.526
912.9	353.774
916.697	487.727
920.492	878.396
924.285	1689.77
928.077	3146.87
931.867	3416.41
935.655	2397.8
939.442	1447.55
943.226	783.558
947.009	631.861
950.791	578.974
954.57	505.441
958.348	448.938
962.124	514.682
965.899	953.162
969.671	1766.7
973.442	1777.62
977.211	909.952
980.979	806.597
984.745	976.901
988.509	1393.61
992.271	1904.74
996.032	2834.27
999.791	2404.97
1003.55	1732.96
1007.3	1610.39
1011.06	2133.57
1014.81	3254.53
1018.56	5340.74
1022.31	9688.97
1026.06	9894.26
1029.8	5228.11
1033.55	2981.52
1037.29	2511.5
1041.03	2247.6
1044.77	1723.85
1048.5	1879.55
1052.24	1821.94
1055.97	2243.53
1059.7	2820.6
1063.43	3647.88
1067.16	3605.27
1070.89	2313.48
1074.61	1476.6
1078.34	1175.88
1082.06	921.89
1085.78	1085.06
1089.5	1338.72
1093.21	1961.64
1096.93	2767.44
1100.64	3105.7
1104.35	2750.5
1108.06	2043.4
1111.77	1572.53
1115.48	1061.92
1119.18	826.038
1122.89	820.655
1126.59	573.439
1130.29	472.304
1133.99	173.277
1137.68	284.635
1141.38	135.956
1145.07	167.374
1148.76	39.298
1152.45	124.879
1156.14	20.813
1159.83	103.496
1163.51	63.321
1167.19	128.637
1170.88	72.841
1174.56	97.246
1178.23	72.203
1181.91	112.984
1185.59	55.685
1189.26	38.835
1192.93	5.061
1196.6	101.383
1200.27	53.511
1203.94	90.482
1207.6	54.021
1211.27	79.678
1214.93	58.679
1218.59	129.42
1222.25	63.146
1225.9	124.655
1229.56	156.061
1233.21	204.335
1236.86	193.482
1240.51	237.586
1244.16	64.52
1247.81	110.509
1251.45	116.197
1255.1	35.696
1258.74	135.973
1262.38	112.027
1266.02	5.936
1269.66	7.47
1273.29	114.558
1276.93	56.747
1280.56	0.518
1284.19	195.51
1287.82	98.245
1291.45	26.723
1295.07	15.887
1298.7	6.089
1302.32	61.543
1305.94	21.324
1309.56	161.31
1313.18	123.496
1316.8	161.066
1320.41	134.717
1324.02	93.349
1327.63	42.776
1331.24	149.931
1334.85	0.367
1338.46	29.09
1342.06	45.473
1345.67	63.566
1349.27	52.552
1352.87	222.601
1356.47	225.515
1360.07	299.646
1363.66	274.617
1367.25	207.163
1370.85	257.714
1374.44	178.538
1378.03	137.25
1381.61	125.396
1385.2	246.849
1388.78	277.809
1392.37	180.237
1395.95	301.462
1399.53	403.656
1403.1	289.17
1406.68	100.785
1410.26	225.179
1413.83	342.166
1417.4	218.301
1420.97	262.115
1424.54	273.457
1428.1	239.294
1431.67	239.022
1435.23	260.027
1438.8	384.634
1442.36	397.243
1445.91	463.225
1449.47	467.161
1453.03	476.933
1456.58	492.334
1460.13	549.74
1463.68	581.066
1467.23	260.771
1470.78	357.138
1474.33	281.912
1477.87	258.012
1481.42	237.646
1484.96	258.698
1488.5	169.988
1492.04	398.925
1495.57	363.049
1499.11	185.519
1502.64	23.362
1506.17	120.053
1509.71	181.439
1513.23	172.913
1516.76	90.786
1520.29	73.349
