Measurement: Raman, 514 nm, ccw, Raman Data Processed
Mineral: Scolecite
Rruff sample: R040111
Ideal chemistry: Ca(Si_3_Al_2_)O_10_3H_2_O
Locality: Bombay-Poona area, Mahahashtra Province, India
Source: National Museums of Canada
Description: Pale pink prismatic crystals in parallel or near parallel aggregates
Measured chemistry: Ca_0.98_(Si_3.05_Al_1.95_)O_10_Â·3H_2_O
Pin_id: M00095
Orientation: Laser parallel to -b* (0 -1 0). Fiducial mark perpendicular to laser is parallel to -c [0 0 -1]
Raman shift (cm-1)	intensity
80.823	0
85.009	364.797
89.193	2418.84
93.375	4909.27
97.554	6573.01
101.732	8703.67
105.908	16109.5
110.082	25828.5
114.254	14774
118.424	9027.84
122.592	2857.17
126.758	2798.83
130.922	989.244
135.083	140.725
139.243	195.178
143.401	37.698
147.557	587.075
151.711	3202.31
155.863	8412.38
160.013	10981.3
164.161	7991.4
168.308	4069.91
172.452	2796.98
176.594	4708.35
180.734	8681.17
184.872	7940.39
189.008	3247.84
193.143	1208.4
197.275	873.828
201.405	1502.91
205.534	1769.19
209.66	758.752
213.784	1159.59
217.907	4524.84
222.027	9233.29
226.146	7682.74
230.263	4695.17
234.377	2588.54
238.49	719.568
242.601	42.679
246.709	922.128
250.816	3505.33
254.921	6196.55
259.024	3220.42
263.125	741.244
267.224	401.719
271.321	843.47
275.416	1025.22
279.51	1936.23
283.601	2307.02
287.69	1495.32
291.778	468.918
295.863	224.359
299.947	503.128
304.029	328.314
308.108	189.309
312.186	1044.13
316.262	1907.61
320.336	2069.95
324.408	1953.31
328.478	1850.98
332.546	1368.73
336.612	1643.53
340.677	1999.33
344.739	1898.83
348.799	1582.7
352.858	1128.73
356.915	1135.33
360.969	1337.92
365.022	787.986
369.073	511.145
373.122	776.358
377.169	788.623
381.215	554.343
385.258	400.373
389.299	361.683
393.339	515.248
397.376	1403.06
401.412	3010.11
405.446	4126.49
409.478	2928.04
413.508	1405.22
417.536	601.858
421.562	833.928
425.586	2551.18
429.609	4914.67
433.629	7896.35
437.648	9065.2
441.665	8306.24
445.68	7933.43
449.693	6857.82
453.704	4862.33
457.713	3312.52
461.721	2130.7
465.726	1316.23
469.73	551.104
473.731	76.677
477.731	142.723
481.729	98.157
485.725	33.145
489.72	215.064
493.712	89.849
497.703	80.852
501.691	391.541
505.678	906.397
509.663	1549.36
513.646	2563.4
517.627	4374.48
521.607	7119.63
525.584	12738.9
529.56	25453.1
533.534	41164.5
537.506	36628.4
541.476	18309
545.444	8482.39
549.41	4372.36
553.375	2430.32
557.337	1588.62
561.298	1133.9
565.257	773.175
569.214	691.442
573.17	566.659
577.123	166.812
581.075	184.891
585.024	183.89
588.972	535.801
592.918	479.622
596.863	528.854
600.805	426.961
604.746	462.467
608.685	358.857
612.621	13.127
616.557	125.137
620.49	43.637
624.421	442.16
628.351	118.16
632.279	86.703
636.205	242.738
640.129	385.221
644.051	443.244
647.972	657.471
651.89	1060.33
655.807	1039.47
659.722	1588.18
663.636	2348.49
667.547	3037.31
671.457	3408.42
675.365	3010.77
679.271	1803.14
683.175	1001.65
687.077	340.139
690.978	215.855
694.877	9.895
698.774	477.902
702.669	568.451
706.562	969.754
710.454	797.812
714.344	1023.62
718.232	1101.16
722.118	1031.45
726.002	1169.55
729.885	1303.31
733.766	1142.72
737.645	895.955
741.522	817.922
745.397	920.627
749.271	1123.06
753.143	1488.24
757.013	1584.14
760.881	925.775
764.748	377.326
768.613	386.008
772.476	258.436
776.337	26.582
780.196	54.572
784.054	45.26
787.91	47.564
791.764	90.727
795.616	87.766
799.467	44.891
803.316	164.268
807.163	128.227
811.008	55.869
814.851	43.043
818.693	87.51
822.533	263.654
826.371	296.451
830.208	328.949
834.042	54.17
837.875	193.115
841.706	391.84
845.536	375.439
849.363	276.361
853.189	503.176
857.013	488.178
860.836	778.98
864.656	425.568
868.475	492.932
872.292	397.066
876.108	219.105
879.922	403.982
883.733	443.766
887.544	432.377
891.352	462.779
895.159	324.982
898.964	300
902.767	479.852
906.568	437.568
910.368	442.191
914.166	629.697
917.962	498.029
921.757	377.188
925.55	533.447
929.341	566.854
933.13	345.73
936.918	575.734
940.703	543.027
944.488	503.668
948.27	844.09
952.051	843.322
955.83	516.455
959.607	336.193
963.383	128.65
967.156	255.111
970.928	251.443
974.699	452.539
978.468	611.07
982.234	1883.56
986	2983.52
989.763	2193.34
993.525	1303.03
997.285	1142.73
1001.04	1609.19
1004.8	1840.48
1008.55	1632.71
1012.31	1331.28
1016.06	1293.17
1019.81	1522.56
1023.56	1687.29
1027.31	1260.88
1031.05	1587.68
1034.79	1919.16
1038.53	1852.65
1042.27	2321.72
1046.01	3535.78
1049.75	3624
1053.48	1989.44
1057.22	1319.56
1060.95	902.303
1064.68	612.719
1068.4	378.074
1072.13	339.797
1075.86	533.031
1079.58	849.717
1083.3	916.789
1087.02	1098.38
1090.74	1430.76
1094.45	2150.05
1098.17	2234.85
1101.88	2323.82
1105.59	1455.3
1109.3	908.775
1113.01	582.574
1116.71	509.797
1120.42	362.918
1124.12	387.16
1127.82	45.771
1131.52	153.229
1135.22	372.965
1138.91	103.354
1142.61	98.303
1146.3	51.637
1149.99	9.172
1153.68	40.008
1157.37	4.645
1161.06	58.682
1164.74	211.33
1168.42	123.061
1172.1	157.312
1175.78	266.16
1179.46	103.611
1183.14	229.342
1186.81	240.244
1190.48	202.541
1194.15	49.945
1197.83	23.34
1201.49	447.539
1205.16	105.738
1208.82	66.441
1212.49	131.51
1216.15	213.307
1219.81	155.682
1223.46	213.27
1227.12	33.58
1230.78	104.262
1234.43	200.568
1238.08	197.627
1241.73	254.312
1245.38	322.256
1249.03	406.598
1252.67	338.369
1256.31	44.867
1259.95	33.928
1263.6	342.346
1267.23	216.783
1270.87	338.674
1274.51	380.182
1278.14	322.119
1281.77	336.332
1285.4	276.08
1289.03	61.773
1292.66	271.564
1296.28	279.322
1299.91	179.752
1303.53	82.766
1307.15	446.986
1310.77	226.482
1314.38	505.055
1318	268.402
1321.61	132.557
1325.23	288.369
1328.84	199.076
1332.45	176.133
1336.06	65.57
1339.66	186.07
1343.27	85.719
1346.87	241.223
1350.47	329.885
1354.07	276.088
1357.67	318.727
1361.26	99.152
1364.86	176.316
1368.45	165.541
1372.04	28.295
1375.63	283.295
1379.22	327.719
1382.81	535.418
1386.39	100.66
1389.98	485.156
1393.56	546.428
1397.14	244.184
1400.72	465.295
1404.3	184.861
1407.87	224.109
1411.45	511.871
1415.02	492.238
1418.59	379.766
1422.16	247.379
1425.73	331.492
1429.29	415.406
1432.86	458.291
1436.42	818.873
1439.98	980.729
1443.54	1247.62
1447.1	1255.76
1450.66	1716.43
1454.21	1732.87
1457.77	1722.47
1461.32	1224.99
1464.87	1089.62
1468.42	1149.91
1471.96	787.516
1475.51	626.982
1479.06	551.592
1482.6	773.885
1486.14	688.553
1489.68	454.441
1493.22	422.1
1496.75	50.188
1500.29	96.438
1503.82	117.219
1507.35	123.092
1510.88	261.662
1514.41	67.545
1517.94	171.656
