Measurement: Raman, 514 nm, ccw, Raman Data Processed
Mineral: Scolecite
Rruff sample: R050083
Ideal chemistry: Ca(Si_3_Al_2_)O_10_3H_2_O
Locality: near Ahmednagar, Maharashtra, India
Source: Rock Currier
Description: Colorless acicular single crystals associated with fluorapophyllite
Measured chemistry: (Ca_.992_Na_.008_)[Al_2_Si_3_O_10_]Â·3H_2_O
Pin_id: M00106
Orientation: Laser parallel to (1 0 1). Fiducial mark perpendicular to laser is parallel to b [0 1 0]
Raman shift (cm-1)	intensity
49.184	0
53.401	123.506
57.617	371.593
61.83	484.645
66.041	547.29
70.25	549.602
74.456	299.848
78.661	84.402
82.863	12.601
87.064	53.518
91.262	121.074
95.458	548.916
99.652	1066.23
103.843	1993.7
108.033	4208.04
112.22	7356.62
116.406	4638.57
120.589	2686.76
124.77	2901.2
128.949	3044.11
133.126	2135.89
137.301	4235.8
141.473	10928.9
145.644	9860.48
149.812	5447.21
153.979	7770.33
158.143	13909.5
162.305	11224.3
166.465	6263.81
170.623	4877.35
174.778	4436.75
178.932	5541.11
183.083	8259.05
187.233	9092.71
191.38	5477.61
195.525	2968.53
199.669	2366.96
203.81	2510.75
207.949	2633.29
212.085	2066.78
216.22	2206.27
220.353	3481.86
224.483	3831.8
228.612	1834.62
232.738	1430.34
236.863	1147.12
240.985	523.783
245.105	358.574
249.223	628.298
253.339	1561.33
257.453	1566.18
261.565	546.211
265.675	88.782
269.783	14.353
273.888	116.885
277.992	260.392
282.093	565.89
286.193	1237.37
290.29	1835.79
294.386	966.114
298.479	268.359
302.57	58.551
306.659	48.65
310.746	83.639
314.831	89.55
318.914	70.409
322.995	10.782
327.074	92.167
331.151	64.845
335.226	76.707
339.299	99.752
343.37	156.153
347.438	71.006
351.505	194.962
355.57	375.324
359.632	523.781
363.693	827.26
367.751	1181.63
371.808	1322.86
375.862	1142.69
379.914	775.348
383.965	563.923
388.013	516.416
392.06	584.867
396.104	778.316
400.146	1294.82
404.186	2196.4
408.225	2482.11
412.261	1727.01
416.295	1030.18
420.327	840.759
424.357	1004.25
428.386	1581.46
432.412	2630.58
436.436	3854.58
440.458	4982.04
444.478	6407.12
448.496	8390.31
452.513	9364.6
456.527	8339.42
460.539	5332.23
464.549	2940.54
468.557	1782.86
472.563	1214.79
476.567	1046.28
480.57	1001.05
484.57	1195.85
488.568	1523.61
492.564	1969.37
496.558	2358.51
500.551	2851.66
504.541	3448.57
508.529	4093.85
512.515	4704.49
516.5	5869.59
520.482	7975.9
524.462	11644.4
528.441	19813.2
532.417	37582.2
536.391	55211.3
540.364	38040.7
544.334	18630.3
548.303	9710.05
552.269	5847
556.234	4353.15
560.197	3480.5
564.157	2967.03
568.116	2430.76
572.073	2076.67
576.027	1679.76
579.98	1433.03
583.931	1015.79
587.88	748.87
591.827	546.517
595.772	386.526
599.715	296.711
603.656	83.056
607.595	11.558
611.532	8.212
615.468	9.99
619.401	55.912
623.332	57.86
627.262	5.501
631.189	98.435
635.115	279.374
639.039	397.937
642.96	588.244
646.88	629.051
650.798	807.632
654.714	798.201
658.628	683.843
662.54	544.723
666.45	424.389
670.358	366.805
674.264	384.777
678.169	213.324
682.071	146.485
685.972	260.461
689.87	541.572
693.767	783.536
697.662	916.596
701.555	1017.56
705.446	1451.37
709.335	1530.16
713.222	1144.92
717.107	645.696
720.99	355.391
724.872	345.107
728.751	291.718
732.629	215.278
736.504	117.784
740.378	14.222
744.25	19.419
748.12	23.817
751.988	157.968
755.854	246.043
759.719	225.038
763.581	185.948
767.442	139.771
771.3	122.972
775.157	76.389
779.012	33.788
782.865	13.972
786.716	65.818
790.565	69.154
794.413	61.02
798.258	59.412
802.102	56.357
805.943	63.802
809.783	26.706
813.621	19.019
817.457	28.399
821.292	21.461
825.124	4.748
828.954	22.769
832.783	57.077
836.61	80.195
840.435	71.125
844.258	51.882
848.079	46.481
851.898	116.931
855.715	91.236
859.531	106.396
863.345	125.42
867.157	67.304
870.967	121.054
874.775	124.688
878.581	142.193
882.386	185.562
886.188	105.797
889.989	128.9
893.788	154.552
897.585	155.408
901.38	225.817
905.174	318.415
908.965	314.892
912.755	358.252
916.543	399.495
920.329	722.624
924.113	1290.65
927.895	2298.6
931.676	4414.2
935.454	5208.75
939.231	2439.45
943.006	1141.24
946.78	779.207
950.551	676.109
954.32	579.807
958.088	600.366
961.854	866.941
965.618	1539.07
969.38	3230.05
973.141	4188.07
976.9	2243.32
980.656	1358.85
984.411	1318.07
988.165	1551.19
991.916	1841.42
995.665	2032.61
999.413	1721.91
1003.16	1559.46
1006.9	1814.88
1010.65	3015.89
1014.39	5550.59
1018.12	8510.28
1021.86	7556.85
1025.6	5888.46
1029.33	5175.31
1033.06	2924.27
1036.79	2138.3
1040.52	2752.39
1044.25	2923.56
1047.97	1835.81
1051.69	1276.14
1055.41	1021.54
1059.13	1040
1062.85	1267.54
1066.57	1655.14
1070.28	2121.8
1073.99	2087.01
1077.7	1557.82
1081.41	1116.09
1085.12	879.078
1088.82	1038.28
1092.52	1400.25
1096.22	1971.99
1099.92	2293.03
1103.62	1967.36
1107.32	1345.04
1111.01	905.072
1114.7	577.049
1118.39	468.338
1122.08	330.242
1125.77	217.629
1129.45	170.981
1133.14	136.463
1136.82	2.565
1140.5	12.496
1144.18	0.503
1147.85	12.029
1151.53	38.688
1155.2	68.044
1158.87	15.869
1162.54	14.689
1166.21	31.998
1169.88	58.473
1173.54	19.464
1177.2	31.088
1180.86	27.731
1184.52	72.317
1188.18	32.308
1191.83	33.294
1195.49	10.656
1199.14	24.093
1202.79	43.342
1206.44	15.374
1210.08	114.669
1213.73	83.332
1217.37	15.488
1221.01	7.661
1224.65	32.836
1228.29	37.24
1231.93	28.83
1235.56	3.726
1239.19	92.295
1242.83	74.502
1246.46	62.662
1250.08	38.72
1253.71	28.774
1257.33	13.911
1260.96	6.959
1264.58	52.972
1268.19	51.101
1271.81	86.622
1275.43	82.065
1279.04	54.462
1282.65	18.582
1286.27	16.442
1289.87	11.668
1293.48	58.928
1297.09	6.137
1300.69	46.609
1304.29	37.419
1307.89	62.417
1311.49	52.549
1315.09	27.652
1318.68	11.861
1322.28	20.229
1325.87	28.542
1329.46	42.513
1333.05	82.42
1336.63	36.457
1340.22	104.132
1343.8	72.576
1347.38	61.89
1350.96	6.069
1354.54	18.112
1358.12	86.067
1361.69	21.879
1365.26	75.093
1368.83	95.28
1372.4	76.775
1375.97	131.189
1379.54	120.779
1383.1	114.659
1386.66	72.104
1390.23	71.049
1393.79	68.935
1397.34	42.12
1400.9	104.448
1404.45	151.849
1408.01	153.952
1411.56	102.865
1415.11	165.139
1418.66	129.413
1422.2	74.662
1425.75	58.577
1429.29	45.393
1432.83	28.517
1436.37	2.118
1439.91	60.793
1443.44	156.531
1446.98	179.96
1450.51	127.454
1454.04	136.691
1457.57	148.279
1461.1	144.657
1464.63	63.034
1468.15	75.717
1471.67	77.997
1475.19	4.347
1478.71	58.705
1482.23	42.15
1485.75	123.757
1489.26	134.096
1492.78	139.343
1496.29	156.94
1499.8	82.086
1503.31	101.95
1506.81	58.026
1510.32	26.568
1513.82	38.797
1517.32	1.754
1520.82	0
