Measurement: Raman, 514 nm, ccw, Raman Data Processed
Mineral: Scolecite
Rruff sample: R050083
Ideal chemistry: Ca(Si_3_Al_2_)O_10_3H_2_O
Locality: near Ahmednagar, Maharashtra, India
Source: Rock Currier
Description: Colorless acicular single crystals associated with fluorapophyllite
Measured chemistry: (Ca_.992_Na_.008_)[Al_2_Si_3_O_10_]Â·3H_2_O
Pin_id: M00346
Orientation: Laser parallel to b* (0 1 0). Fiducial mark perpendicular to laser is parallel to c [0 0 1]
Raman shift (cm-1)	intensity
89.863	0
94.059	112.643
98.254	745.865
102.446	1029.85
106.637	1835.44
110.825	4886.86
115.011	4085.53
119.195	990.756
123.377	256.572
127.556	511.172
131.734	287.323
135.909	103.228
140.083	411.03
144.254	1129.44
148.423	468.391
152.59	864.338
156.755	2909.9
160.918	3985.5
165.078	2504.48
169.237	1301.13
173.393	740.939
177.548	1020.29
181.7	2214.77
185.85	2482.8
189.998	1439.45
194.144	540.914
198.288	318.855
202.429	485.382
206.569	661.566
210.707	333.059
214.842	109.763
218.976	664.582
223.107	1922.45
227.236	1838.33
231.363	1189.18
235.488	749.97
239.611	83.714
243.732	157.491
247.851	40.837
251.967	469.986
256.082	1356.31
260.195	898.568
264.305	111.555
268.414	83.332
272.52	18.136
276.624	41.797
280.726	321.406
284.827	625.021
288.925	558.635
293.021	343.192
297.115	52.59
301.207	109.23
305.296	110.833
309.384	82.185
313.47	304.916
317.554	494.477
321.635	525.868
325.715	469.044
329.792	401.026
333.868	269.899
337.941	271.125
342.013	414.277
346.082	462.688
350.15	433.715
354.215	368.693
358.278	377.624
362.339	413.883
366.399	295.506
370.456	247.124
374.511	258.733
378.564	263.331
382.615	177.916
386.664	146.486
390.711	136.04
394.756	237.577
398.799	420.099
402.84	794.607
406.879	1316.12
410.916	1121.66
414.951	546.146
418.983	358.643
423.014	446.14
427.043	876.59
431.07	1591.09
435.095	2558.38
439.118	2778.47
443.138	2428.99
447.157	2140.08
451.174	1875.08
455.189	1629.01
459.202	1265.98
463.212	891.451
467.221	527.06
471.228	342.094
475.233	268.673
479.236	232.048
483.237	284.927
487.235	354.683
491.232	489.449
495.227	598.245
499.22	573.052
503.211	507.884
507.2	565.758
511.187	794.644
515.172	1086.55
519.155	1506.45
523.136	2442.36
527.115	4475.31
531.092	9251.26
535.067	15523.2
539.04	14695.2
543.011	7533.16
546.98	3709.14
550.947	2069.09
554.913	1229.01
558.876	823.992
562.837	640.972
566.797	457.121
570.754	372.699
574.709	321.376
578.663	257.049
582.614	223.717
586.564	224.38
590.511	155.225
594.457	149.318
598.401	211.485
602.343	130.671
606.282	102.845
610.22	112.005
614.156	58.153
618.09	13.709
622.022	26.334
625.952	35
629.88	50.797
633.807	46.124
637.731	17.238
641.653	17.867
645.574	70.356
649.492	115.476
653.409	208.828
657.323	246.595
661.236	383.794
665.147	541.581
669.056	712.92
672.963	788.438
676.868	749.021
680.771	512.962
684.672	276.241
688.571	191.128
692.468	170.874
696.364	205.76
700.257	270.456
704.149	408.811
708.038	516.333
711.926	539.572
715.812	481.974
719.696	384.145
723.578	351.077
727.458	317.214
731.336	387.211
735.213	365.15
739.087	281.177
742.96	218.894
746.83	258.327
750.699	277.671
754.566	403.923
758.431	469.082
762.294	380.146
766.155	287.114
770.014	162.987
773.872	96.287
777.727	73.431
781.581	70.515
785.433	20.298
789.282	36.05
793.13	5.838
796.977	10.516
800.821	10.143
804.663	31.514
808.504	29.595
812.342	17.451
816.179	6.712
820.014	19.84
823.847	13.744
827.678	0.476
831.507	1.675
835.334	36.701
839.16	21.593
842.983	76.382
846.805	12.076
850.625	5.671
854.443	53.169
858.259	32.583
862.074	27.906
865.886	6.144
869.697	48.3
873.506	49.373
877.313	34.368
881.118	30.282
884.921	35.114
888.722	7.88
892.522	18.012
896.319	52.169
900.115	64.71
903.909	49.187
907.701	45.598
911.492	64.946
915.28	107.23
919.067	128.454
922.852	162.62
926.635	353.731
930.416	538.603
934.195	710.905
937.973	458.108
941.748	250.243
945.522	229.982
949.294	289.716
953.064	273.429
956.832	186.073
960.599	75.334
964.364	63.995
968.127	80.463
971.888	128.477
975.647	145.713
979.404	283.852
983.16	461.169
986.914	877.258
990.666	620.543
994.416	433.381
998.164	427.951
1001.91	534.505
1005.65	719.636
1009.4	867.596
1013.14	649.416
1016.88	487.904
1020.62	459.975
1024.35	464.161
1028.09	515.373
1031.82	684.367
1035.55	783.442
1039.28	800.408
1043	1207.39
1046.73	1737.39
1050.45	1569.77
1054.17	867.222
1057.89	490.695
1061.61	325.204
1065.33	270.751
1069.04	203.319
1072.75	237.928
1076.46	261.539
1080.17	206.507
1083.88	258.202
1087.59	359.005
1091.29	433.808
1094.99	678.667
1098.69	851.761
1102.39	851.819
1106.09	652.055
1109.78	405.438
1113.47	280.731
1117.16	149.176
1120.85	124.691
1124.54	125.317
1128.23	147.823
1131.91	80.395
1135.59	71.157
1139.27	69.761
1142.95	68.878
1146.63	73.808
1150.3	24.919
1153.98	6.531
1157.65	23.307
1161.32	15.054
1164.99	59.859
1168.65	33.389
1172.32	41.029
1175.98	16.501
1179.64	22.452
1183.3	25.448
1186.96	44.575
1190.62	22.786
1194.27	18.563
1197.92	0.556
1201.57	24.515
1205.22	26.602
1208.87	20.211
1212.51	31.887
1216.16	81.551
1219.8	56.277
1223.44	78.095
1227.08	17.182
1230.72	6.829
1234.35	24.253
1237.98	63.081
1241.62	2.383
1245.25	54.043
1248.87	89.453
1252.5	37.855
1256.12	37.345
1259.75	9.903
1263.37	9.265
1266.99	8.725
1270.61	43.929
1274.22	43.071
1277.84	19.165
1281.45	53.241
1285.06	54.344
1288.67	58.313
1292.28	16.664
1295.88	3.995
1299.49	27.49
1303.09	21.102
1306.69	47.556
1310.29	32.569
1313.89	3.923
1317.48	0.993
1321.08	7.125
1324.67	6.147
1328.26	19.133
1331.85	23.017
1335.44	45.815
1339.02	24.143
1342.61	63.482
1346.19	96.201
1349.77	18.683
1353.35	65.082
1356.92	35.517
1360.5	52.6
1364.07	30.255
1367.64	25.959
1371.21	37.593
1374.78	0.426
1378.35	54.393
1381.91	63.627
1385.48	59.046
1389.04	49.272
1392.6	89.625
1396.16	24.785
1399.71	18.004
1403.27	47.964
1406.82	26.167
1410.38	92.845
1413.92	79.603
1417.47	83.182
1421.02	86.301
1424.57	77.638
1428.11	44.576
1431.65	89.58
1435.19	78.17
1438.73	23.371
1442.27	17.547
1445.8	40.063
1449.33	49.917
1452.87	51.509
1456.4	71.179
1459.92	74.242
1463.45	82.688
1466.98	60.03
1470.5	106.803
1474.02	56.033
1477.54	54.926
1481.06	63.745
1484.58	15.558
1488.09	63.692
1491.61	66.25
1495.12	93.419
1498.63	118.726
1502.14	115.382
1505.64	75.23
1509.15	39.066
1512.65	24.832
1516.15	36.231
1519.66	0.233
