Measurement: Raman, 514 nm, ccw, Raman Data Processed
Mineral: Scolecite
Rruff sample: R050083
Ideal chemistry: Ca(Si_3_Al_2_)O_10_3H_2_O
Locality: near Ahmednagar, Maharashtra, India
Source: Rock Currier
Description: Colorless acicular single crystals associated with fluorapophyllite
Measured chemistry: (Ca_.992_Na_.008_)[Al_2_Si_3_O_10_]Â·3H_2_O
Pin_id: M00346
Orientation: Laser parallel to b* (0 1 0). Fiducial mark perpendicular to laser is parallel to c [0 0 1]
Raman shift (cm-1)	intensity
91.262	0
95.458	189.637
99.652	488.513
103.843	666.051
108.033	1244.73
112.22	1991.58
116.406	1523.15
120.589	1025.33
124.77	940.911
128.949	932.801
133.126	373.494
137.301	260.203
141.473	876.368
145.644	698.889
149.812	306.092
153.979	771.924
158.143	1741.96
162.305	1415.09
166.465	796.587
170.623	702.247
174.778	755.039
178.932	1149.14
183.083	1672.52
187.233	1454.56
191.38	810.117
195.525	477.581
199.669	472.734
203.81	594.206
207.949	477.353
212.085	220.723
216.22	67.139
220.353	313.489
224.483	634.766
228.612	427.965
232.738	180.057
236.863	44.969
240.985	179.112
245.105	161.183
249.223	96.924
253.339	114.45
257.453	344.912
261.565	162.323
265.675	31.17
269.783	116.075
273.888	247.53
277.992	262.26
282.093	526.048
286.193	645.764
290.29	375.342
294.386	164.761
298.479	45.82
302.57	4.591
306.659	12.514
310.746	58.072
314.831	169.569
318.914	202.191
322.995	230.318
327.074	319.809
331.151	472.537
335.226	437.138
339.299	342.979
343.37	364.763
347.438	402.393
351.505	384.968
355.57	351.479
359.632	353.909
363.693	423.952
367.751	367.602
371.808	377.073
375.862	384.691
379.914	351.964
383.965	312.342
388.013	213.653
392.06	118.898
396.104	114.069
400.146	231.113
404.186	328.635
408.225	381.317
412.261	210.074
416.295	130.867
420.327	165.752
424.357	320.598
428.386	569.419
432.412	1068.94
436.436	1403.48
440.458	1330.9
444.478	1163.2
448.496	1146.38
452.513	954.756
456.527	674.747
460.539	440.396
464.549	239.312
468.557	99.338
472.563	23.858
476.567	3.69
480.57	13.331
484.57	48.106
488.568	68.478
492.564	118.615
496.558	149.702
500.551	142.772
504.541	263.838
508.529	315.908
512.515	418.996
516.5	649.067
520.482	1051.11
524.462	1742.13
528.441	3360.13
532.417	6715.1
536.391	9988.04
540.364	7087.97
544.334	3556.86
548.303	1782.74
552.269	1016.23
556.234	733.304
560.197	517.122
564.157	396.2
568.116	366.761
572.073	282.759
576.027	248.9
579.98	164.019
583.931	149.111
587.88	107.181
591.827	87.274
595.772	107.343
599.715	77.385
603.656	46.4
607.595	52.389
611.532	34.651
615.468	11.776
619.401	4.043
623.332	29.963
627.262	19.19
631.189	18.595
635.115	47.631
639.039	4.768
642.96	25.477
646.88	34.727
650.798	41.466
654.714	121.28
658.628	76.645
662.54	150.342
666.45	176.62
670.358	205.743
674.264	249.512
678.169	167.365
682.071	131.852
685.972	121.508
689.87	159.95
693.767	212.744
697.662	190.656
701.555	282.058
705.446	411.463
709.335	460.817
713.222	401.09
717.107	306.478
720.99	273.593
724.872	262.779
728.751	254.752
732.629	303.712
736.504	240.663
740.378	245.646
744.25	144.412
748.12	208.103
751.988	299.705
755.854	272.305
759.719	312.781
763.581	250.196
767.442	179.425
771.3	142.97
775.157	57.171
779.012	34.846
782.865	20.557
786.716	8.801
790.565	7.147
794.413	11.975
798.258	6.652
802.102	6.29
805.943	1.868
809.783	8.437
813.621	11.367
817.457	14.326
821.292	14.44
825.124	36.289
828.954	23.927
832.783	27.482
836.61	29.961
840.435	32.367
844.258	4.713
848.079	1.071
851.898	28.207
855.715	43.358
859.531	28.452
863.345	17.49
867.157	8.475
870.967	49.405
874.775	32.282
878.581	47.109
882.386	52.901
886.188	27.646
889.989	48.342
893.788	56.992
897.585	37.605
901.38	47.181
905.174	29.719
908.965	78.221
912.755	28.687
916.543	44.888
920.329	93.525
924.113	138.925
927.895	178.302
931.676	264.459
935.454	227.567
939.231	174.905
943.006	162.154
946.78	214.368
950.551	235.223
954.32	201.073
958.088	81.682
961.854	77.344
965.618	36.92
969.38	88.982
973.141	108.604
976.9	126.671
980.656	191.67
984.411	351.611
988.165	436.874
991.916	366.931
995.665	289.044
999.413	328.765
1003.16	438.691
1006.9	499.915
1010.65	477.067
1014.39	352.365
1018.12	390.587
1021.86	335.835
1025.6	348.256
1029.33	360.63
1033.06	602.089
1036.79	651.424
1040.52	674.789
1044.25	918.91
1047.97	1057.87
1051.69	810.505
1055.41	479.011
1059.13	326.238
1062.85	228.799
1066.57	186.95
1070.28	150.586
1073.99	188.294
1077.7	154.949
1081.41	123.354
1085.12	129.016
1088.82	222.738
1092.52	312.43
1096.22	434.164
1099.92	437.961
1103.62	366.817
1107.32	279.892
1111.01	204.666
1114.7	114.622
1118.39	129.638
1122.08	110.875
1125.77	94.274
1129.45	32.44
1133.14	65.686
1136.82	89.882
1140.5	53.226
1144.18	24.123
1147.85	10.413
1151.53	10.637
1155.2	14.914
1158.87	9.212
1162.54	24.663
1166.21	66.515
1169.88	13.847
1173.54	51.089
1177.2	56.891
1180.86	13.169
1184.52	24.479
1188.18	2.945
1191.83	87.356
1195.49	8.914
1199.14	65.268
1202.79	13.329
1206.44	67.614
1210.08	29.824
1213.73	15.339
1217.37	3.752
1221.01	19.734
1224.65	26.012
1228.29	31.819
1231.93	22.861
1235.56	46.564
1239.19	52.362
1242.83	55.069
1246.46	43
1250.08	30.842
1253.71	49.561
1257.33	53.294
1260.96	56.898
1264.58	41.473
1268.19	10.018
1271.81	43.466
1275.43	66.949
1279.04	36.298
1282.65	20.769
1286.27	3.842
1289.87	26.337
1293.48	34.403
1297.09	12.364
1300.69	37.254
1304.29	53.137
1307.89	9.727
1311.49	24.405
1315.09	38.019
1318.68	1.479
1322.28	15.865
1325.87	30.54
1329.46	10.64
1333.05	33.819
1336.63	25.347
1340.22	34.83
1343.8	14.862
1347.38	50.169
1350.96	6.121
1354.54	21.036
1358.12	14.696
1361.69	70.031
1365.26	84.799
1368.83	27.819
1372.4	57.857
1375.97	30.416
1379.54	24.314
1383.1	35.19
1386.66	30.958
1390.23	9.715
1393.79	96.109
1397.34	71.484
1400.9	44.803
1404.45	84.201
1408.01	50.337
1411.56	19.902
1415.11	124.58
1418.66	87.051
1422.2	6.984
1425.75	25.265
1429.29	24.962
1432.83	35.31
1436.37	48.401
1439.91	63.108
1443.44	101.966
1446.98	67.293
1450.51	66.757
1454.04	81.299
1457.57	42.307
1461.1	24.944
1464.63	54.584
1468.15	9.131
1471.67	22.13
1475.19	29.335
1478.71	43.361
1482.23	71.045
1485.75	58.211
1489.26	91.459
1492.78	94.723
1496.29	80.452
1499.8	31.568
1503.31	54.152
1506.81	29.53
1510.32	1.894
1513.82	0.742
