Measurement: Raman, 514 nm, ccw, Raman Data Processed
Mineral: Scolecite
Rruff sample: R040111
Ideal chemistry: Ca(Si_3_Al_2_)O_10_3H_2_O
Locality: Bombay-Poona area, Mahahashtra Province, India
Source: National Museums of Canada
Description: Pale pink prismatic crystals in parallel or near parallel aggregates
Measured chemistry: Ca_0.98_(Si_3.05_Al_1.95_)O_10_Â·3H_2_O
Pin_id: L00238
Orientation: Laser parallel to (-1 0 -1). Fiducial mark perpendicular to laser is parallel to b [0 1 0]
Raman shift (cm-1)	intensity
79.427	0
83.614	180.429
87.798	1335.69
91.981	3748.69
96.161	4609.06
100.34	4667.7
104.516	6148.61
108.691	10819.2
112.864	7782.06
117.034	2243.36
121.203	588.266
125.369	1013.08
129.534	942.437
133.696	776.677
137.857	3399.2
142.016	5830.96
146.172	3311.93
150.327	3042.78
154.48	6237.99
158.63	10261
162.779	7990.36
166.926	4643.36
171.07	3656.19
175.213	4510.84
179.354	6299.03
183.493	7487.71
187.63	5542.14
191.765	2528.06
195.898	1192.31
200.029	1019.82
204.158	1382.46
208.285	1316.01
212.41	1011.28
216.533	1619.08
220.654	3196.38
224.773	2871.17
228.891	1299.44
233.006	846.196
237.119	31.582
241.231	410.914
245.34	203.116
249.448	622.108
253.553	2077.43
257.657	1159.29
261.758	49.828
265.858	398.109
269.956	322.758
274.052	305.169
278.146	145.601
282.237	1012.93
286.327	1236.82
290.416	942.014
294.502	183.351
298.586	53.519
302.668	191.517
306.749	564.442
310.827	1052.45
314.903	1011.57
318.978	741.77
323.051	618.99
327.121	247.566
331.19	239.389
335.257	260.389
339.322	275.681
343.385	316.048
347.446	385.525
351.505	316.352
355.563	251.438
359.618	495.822
363.672	623.505
367.723	853.473
371.773	914.715
375.821	862.223
379.866	611.987
383.91	399.81
387.952	303.269
391.992	421.774
396.031	852.518
400.067	1203.05
404.101	1816.23
408.134	1750.19
412.165	933.572
416.193	550.798
420.22	615.276
424.245	1344.22
428.268	1996.03
432.289	2975.5
436.309	3192.34
440.326	3869.18
444.342	4939.51
448.355	5820.76
452.367	5896.83
456.377	4510.39
460.385	2674.93
464.391	1405.78
468.395	710.411
472.398	551.368
476.398	328.614
480.397	457.16
484.394	591.687
488.389	902.634
492.382	1226.98
496.373	1464.77
500.362	1678.82
504.349	2003.25
508.335	2584
512.319	3113.02
516.3	4455.31
520.28	6483.91
524.259	10539.8
528.235	19679.8
532.209	35640.1
536.182	41056.5
540.152	24024
544.121	11817.8
548.088	6629.69
552.053	4363.73
556.017	3236.9
559.978	2437.22
563.938	2048.01
567.895	1820.68
571.851	1287.66
575.805	1056.74
579.758	852.916
583.708	437.189
587.657	466.037
591.603	247.865
595.548	72.544
599.491	86.349
603.432	8.419
607.372	149.671
611.309	4.731
615.245	13.038
619.179	108.2
623.111	8.525
627.041	39.513
630.97	133.312
634.896	55.227
638.821	151.897
642.744	303.334
646.665	573.572
650.584	607.724
654.502	773.56
658.418	785.002
662.331	608.488
666.244	840.703
670.154	1132.25
674.062	1165.76
677.969	758.47
681.874	554.228
685.777	397.637
689.678	402.959
693.577	610.252
697.475	513.334
701.371	969.232
705.265	1619.96
709.157	1579.41
713.047	985.68
716.936	606.752
720.823	548.712
724.708	574.14
728.591	591.816
732.472	429.078
736.352	370.058
740.23	265.803
744.106	325.309
747.98	473.558
751.853	579.537
755.723	660.332
759.592	837.621
763.459	792.746
767.325	555.084
771.188	479.66
775.05	506.992
778.91	257.78
782.768	25.574
786.625	125.602
790.479	72.566
794.332	41.446
798.183	151.092
802.033	172.478
805.88	136.291
809.726	15.566
813.57	6.961
817.413	30.924
821.253	30.611
825.092	63.212
828.929	127.443
832.764	83.677
836.598	54.538
840.429	288.056
844.259	223.304
848.088	178.309
851.914	24.063
855.739	74.651
859.562	206.796
863.383	240.802
867.203	231.576
871.02	169.202
874.836	101.611
878.65	335.794
882.463	249.78
886.274	217.56
890.083	242.137
893.89	294.563
897.695	353.794
901.499	303.882
905.301	384.785
909.102	367.519
912.9	413.251
916.697	340.971
920.492	785.682
924.285	1132.3
928.077	1746.77
931.867	3675.1
935.655	3571.38
939.442	1829.86
943.226	755.844
947.009	683.59
950.791	500.613
954.57	577.471
958.348	637.972
962.124	808.836
965.899	1278.06
969.671	2470.17
973.442	2363.01
977.211	1285.15
980.979	979.376
984.745	1256.79
988.509	1564.06
992.271	1588.77
996.032	1559.32
999.791	1431.75
1003.55	1480.16
1007.3	1926.15
1011.06	3315.54
1014.81	5593.64
1018.56	6771.51
1022.31	5431.95
1026.06	4694.65
1029.8	4128.3
1033.55	2526.13
1037.29	2067.55
1041.03	2251.98
1044.77	2082.88
1048.5	1787.37
1052.24	1393.15
1055.97	1166.58
1059.7	1189.28
1063.43	1456.43
1067.16	1933.99
1070.89	1890.34
1074.61	1687.34
1078.34	1405.16
1082.06	1055.49
1085.78	1046.81
1089.5	1218.89
1093.21	1638.38
1096.93	2302.5
1100.64	2444.84
1104.35	2325.79
1108.06	1656.64
1111.77	1207.79
1115.48	935.577
1119.18	502.177
1122.89	585.452
1126.59	500.445
1130.29	331.393
1133.99	104.319
1137.68	299.16
1141.38	9.079
1145.07	147.502
1148.76	71.316
1152.45	37.345
1156.14	7.838
1159.83	134.189
1163.51	125.931
1167.19	191.497
1170.88	31.202
1174.56	17.82
1178.23	112.558
1181.91	110.617
1185.59	39.677
1189.26	18.972
1192.93	108.969
1196.6	160.576
1200.27	78.201
1203.94	233.775
1207.6	17.669
1211.27	109.707
1214.93	183.645
1218.59	44.055
1222.25	58.256
1225.9	161.403
1229.56	242.188
1233.21	238.825
1236.86	274.428
1240.51	128.756
1244.16	91.896
1247.81	85.651
1251.45	136.17
1255.1	140.419
1258.74	70.366
1262.38	110.117
1266.02	62.355
1269.66	77.252
1273.29	107.15
1276.93	3.189
1280.56	63.963
1284.19	52.414
1287.82	48.395
1291.45	32.422
1295.07	118.092
1298.7	88.039
1302.32	26.271
1305.94	8.67
1309.56	223.016
1313.18	87.369
1316.8	123.938
1320.41	36.559
1324.02	32.758
1327.63	41.766
1331.24	58.213
1334.85	1.775
1338.46	28.965
1342.06	71.609
1345.67	81.334
1349.27	45.498
1352.87	289.615
1356.47	182.459
1360.07	240.289
1363.66	327.674
1367.25	332.91
1370.85	243.834
1374.44	116.621
1378.03	92.354
1381.61	220.191
1385.2	400.609
1388.78	280.627
1392.37	235.814
1395.95	199.701
1399.53	245.143
1403.1	210.832
1406.68	150.254
1410.26	288.578
1413.83	298.375
1417.4	134.836
1420.97	241.145
1424.54	269.006
1428.1	229.297
1431.67	167.961
1435.23	242.182
1438.8	301.307
1442.36	334.842
1445.91	480.338
1449.47	247.699
1453.03	431.34
1456.58	569.576
1460.13	478.596
1463.68	497.396
1467.23	273.037
1470.78	355.889
1474.33	341.205
1477.87	289.973
1481.42	111.07
1484.96	196.998
1488.5	188.471
1492.04	268.418
1495.57	219.932
1499.11	36.326
1502.64	19.492
1506.17	102.02
1509.71	54.004
1513.23	289.699
