Measurement: Raman, 514 nm, ccw, Raman Data Processed
Mineral: Scolecite
Rruff sample: R050083
Ideal chemistry: Ca(Si_3_Al_2_)O_10_3H_2_O
Locality: near Ahmednagar, Maharashtra, India
Source: Rock Currier
Description: Colorless acicular single crystals associated with fluorapophyllite
Measured chemistry: (Ca_.992_Na_.008_)[Al_2_Si_3_O_10_]Â·3H_2_O
Pin_id: M00267
Orientation: Laser parallel to -c* (0 0 -1). Fiducial mark perpendicular to laser is parallel to -a [-1 0 0]
Raman shift (cm-1)	intensity
49.184	0
53.401	91.041
57.617	433.961
61.83	924.167
66.041	1184.19
70.25	1047.56
74.456	801.904
78.661	422.963
82.863	106.285
87.064	50.621
91.262	39.805
95.458	263.424
99.652	529.864
103.843	843.13
108.033	1541.16
112.22	2924.56
116.406	2684.35
120.589	1493.55
124.77	1339.38
128.949	1609.29
133.126	1105.98
137.301	1366.29
141.473	3163.19
145.644	3649.13
149.812	2073.71
153.979	2424.24
158.143	4247.02
162.305	4056.49
166.465	2369.39
170.623	1794.93
174.778	1677.55
178.932	1781.45
183.083	2674.59
187.233	3205.95
191.38	2136.4
195.525	1307.89
199.669	958.739
203.81	929.554
207.949	893.196
212.085	698.892
216.22	710.006
220.353	1076.5
224.483	1377.17
228.612	826.413
232.738	606.594
236.863	510.993
240.985	234.579
245.105	184.186
249.223	190.281
253.339	440.2
257.453	604.803
261.565	205.306
265.675	16.551
269.783	24.99
273.888	55.473
277.992	86.997
282.093	193.565
286.193	399.186
290.29	556.863
294.386	334.566
298.479	156.295
302.57	23.039
306.659	18.784
310.746	83.519
314.831	66.257
318.914	8.995
322.995	36.742
327.074	25.465
331.151	20.829
335.226	41.143
339.299	65.516
343.37	91.018
347.438	59.674
351.505	8.398
355.57	125.855
359.632	137.981
363.693	206.823
367.751	386.592
371.808	441.413
375.862	411.288
379.914	254.199
383.965	184.025
388.013	183.761
392.06	135.438
396.104	232.083
400.146	370.735
404.186	668.432
408.225	765.93
412.261	456.458
416.295	250.472
420.327	282.818
424.357	356.346
428.386	571.177
432.412	952.463
436.436	1317.86
440.458	1392.69
444.478	1358.38
448.496	1555.38
452.513	1871.18
456.527	2282.45
460.539	2650.23
464.549	1949.89
468.557	1110.05
472.563	669.165
476.567	520.759
480.57	514.303
484.57	615.822
488.568	773.363
492.564	772.504
496.558	819.331
500.551	836.135
504.541	870.72
508.529	995.576
512.515	1161.69
516.5	1598.79
520.482	2252.98
524.462	3520.29
528.441	6208.66
532.417	11629.1
536.391	17451.6
540.364	12874.2
544.334	6558.77
548.303	3430.44
552.269	2074.16
556.234	1493.93
560.197	1162.76
564.157	951.642
568.116	804.573
572.073	708.555
576.027	563.583
579.98	378.688
583.931	306.773
587.88	170.578
591.827	100.89
595.772	107.259
599.715	68.598
603.656	30.031
607.595	50.665
611.532	26.332
615.468	10.991
619.401	11.668
623.332	34.337
627.262	10.709
631.189	26.743
635.115	71.795
639.039	109.719
642.96	135.882
646.88	146.189
650.798	241.785
654.714	312.846
658.628	256.612
662.54	161.158
666.45	191.408
670.358	131.116
674.264	149.991
678.169	162.89
682.071	111.58
685.972	153.396
689.87	183.429
693.767	231.387
697.662	286.403
701.555	343.039
705.446	472.591
709.335	599.105
713.222	410.661
717.107	273.184
720.99	160.532
724.872	150.939
728.751	141.184
732.629	93.374
736.504	1.851
740.378	7.078
744.25	53.043
748.12	81.951
751.988	114.794
755.854	147.571
759.719	96.333
763.581	175.855
767.442	145.53
771.3	126.59
775.157	99.748
779.012	22.814
782.865	37.847
786.716	0.425
790.565	33.666
794.413	9.408
798.258	5.676
802.102	64.163
805.943	34.996
809.783	41.876
813.621	43.561
817.457	29.077
821.292	20.448
825.124	0.28
828.954	5.124
832.783	12.115
836.61	73.704
840.435	64.444
844.258	5.101
848.079	38.657
851.898	68.12
855.715	127.506
859.531	54.833
863.345	96.125
867.157	28.354
870.967	104.54
874.775	30.671
878.581	100.732
882.386	120.728
886.188	28.31
889.989	10.652
893.788	23.282
897.585	72.375
901.38	78.5
905.174	98.394
908.965	150.887
912.755	159.333
916.543	202.744
920.329	395.13
924.113	681.482
927.895	1276.78
931.676	1837.9
935.454	1116.91
939.231	572.117
943.006	293.488
946.78	276.585
950.551	212.138
954.32	219.631
958.088	159.341
961.854	297.925
965.618	351.756
969.38	781.881
973.141	989.408
976.9	487.804
980.656	412.497
984.411	424.468
988.165	457.819
991.916	654.803
995.665	789.59
999.413	745.343
1003.16	624.207
1006.9	494.324
1010.65	630.299
1014.39	977.726
1018.12	1537.32
1021.86	2842.3
1025.6	3518.44
1029.33	2090.75
1033.06	1080.29
1036.79	816.386
1040.52	795.488
1044.25	645.05
1047.97	586.506
1051.69	636.169
1055.41	583.924
1059.13	768.534
1062.85	979.093
1066.57	966.721
1070.28	742.47
1073.99	527.375
1077.7	398.043
1081.41	308.926
1085.12	294.167
1088.82	429.194
1092.52	611.145
1096.22	722.035
1099.92	820.162
1103.62	676.215
1107.32	507.595
1111.01	299.076
1114.7	228.503
1118.39	168.265
1122.08	188.865
1125.77	76.591
1129.45	83.365
1133.14	39.812
1136.82	41.114
1140.5	3.586
1144.18	6.295
1147.85	1.966
1151.53	92.401
1155.2	71.386
1158.87	36.638
1162.54	33.468
1166.21	59.665
1169.88	47.741
1173.54	29.356
1177.2	95.75
1180.86	124.341
1184.52	93.309
1188.18	46.108
1191.83	15.429
1195.49	1.421
1199.14	19.67
1202.79	62.34
1206.44	41.382
1210.08	62.113
1213.73	47.557
1217.37	1.543
1221.01	59.671
1224.65	15.76
1228.29	13.631
1231.93	100.062
1235.56	130.451
1239.19	102.463
1242.83	100.533
1246.46	74.569
1250.08	30.523
1253.71	34.492
1257.33	63.368
1260.96	22.139
1264.58	91.894
1268.19	105.321
1271.81	99.61
1275.43	149.974
1279.04	62.345
1282.65	5.489
1286.27	13.679
1289.87	8.212
1293.48	16.15
1297.09	8.801
1300.69	41.172
1304.29	81.894
1307.89	27.32
1311.49	35.271
1315.09	12.401
1318.68	59.612
1322.28	15.143
1325.87	66.545
1329.46	111.927
1333.05	75.849
1336.63	65.895
1340.22	90.456
1343.8	6.048
1347.38	3.612
1350.96	28.639
1354.54	51.189
1358.12	23.7
1361.69	30.407
1365.26	93.098
1368.83	119.445
1372.4	40.781
1375.97	83.909
1379.54	105.548
1383.1	75.991
1386.66	60.046
1390.23	67.833
1393.79	98.393
1397.34	47.189
1400.9	143.116
1404.45	57.804
1408.01	80.305
1411.56	134.348
1415.11	151.991
1418.66	95.222
1422.2	23.18
1425.75	33.979
1429.29	59.104
1432.83	31.957
1436.37	80.113
1439.91	80.662
1443.44	173.735
1446.98	161.433
1450.51	107.112
1454.04	155.9
1457.57	143.729
1461.1	116.828
1464.63	175.379
1468.15	51.986
1471.67	10.895
1475.19	52.404
1478.71	83.947
1482.23	140.995
1485.75	194.471
1489.26	158.821
1492.78	118.625
1496.29	128.981
1499.8	6.815
1503.31	78.725
1506.81	59.695
1510.32	16.832
1513.82	0
