Measurement: Raman, 514 nm, ccw, Raman Data Processed
Mineral: Scolecite
Rruff sample: R040111
Ideal chemistry: Ca(Si_3_Al_2_)O_10_3H_2_O
Locality: Bombay-Poona area, Mahahashtra Province, India
Source: National Museums of Canada
Description: Pale pink prismatic crystals in parallel or near parallel aggregates
Measured chemistry: Ca_0.98_(Si_3.05_Al_1.95_)O_10_Â·3H_2_O
Pin_id: M00095
Orientation: Laser parallel to -b* (0 -1 0). Fiducial mark perpendicular to laser is parallel to -c [0 0 -1]
Raman shift (cm-1)	intensity
73.842	0
78.031	15.726
82.218	724.638
86.404	1902.05
90.587	4398.77
94.768	7450.5
98.947	8722.85
103.124	9084.18
107.3	8348.3
111.473	9750.61
115.644	11475.2
119.813	11609
123.981	7990.28
128.146	6029.05
132.309	2630.07
136.47	2503.45
140.63	4572.34
144.787	3792.06
148.942	2603.65
153.096	5216.13
157.247	8972.44
161.396	6585.87
165.544	3487.51
169.689	2654.22
173.833	2793.85
177.974	3895.53
182.114	5876.22
186.251	5632.99
190.387	3374.22
194.52	2156.52
198.652	2555.77
202.782	3557.38
206.909	2724.63
211.035	1334.81
215.159	1030.85
219.281	2093.52
223.4	2785.76
227.518	1489.52
231.634	641.758
235.748	116.68
239.86	392.29
243.97	386.897
248.079	144.317
252.185	383.086
256.289	1031.54
260.391	905.025
264.492	624.816
268.59	1208.14
272.687	2177.45
276.781	2496.33
280.874	3998.48
284.964	3122.46
289.053	1258.05
293.14	442.223
297.225	203.188
301.308	498.965
305.389	233.479
309.468	10.979
313.545	448.16
317.62	682.089
321.693	847.143
325.765	1785.99
329.834	2712.61
333.902	2473.61
337.967	2295.92
342.031	2467.4
346.093	2176.05
350.153	1885.61
354.21	1534.24
358.267	1719.84
362.321	1865.54
366.373	1732.87
370.423	1602.11
374.471	1596.95
378.518	1067.8
382.563	698.64
386.605	574.471
390.646	191.272
394.685	246.959
398.722	366.66
402.757	787.542
406.79	685.341
410.821	475.283
414.851	256.336
418.878	687.81
422.904	1563.57
426.927	2941.79
430.949	4805.2
434.969	5953.5
438.987	5786.68
443.003	5671.7
447.018	5522.55
451.03	4145.81
455.041	2431.31
459.049	1223.18
463.056	415.604
467.061	123.492
471.064	91.548
475.065	147.275
479.064	135.65
483.062	87.171
487.057	75.471
491.051	23.732
495.043	295.838
499.032	484.913
503.02	742.019
507.007	1374.03
510.991	2264.96
514.973	3157.79
518.954	4958.51
522.933	8626.12
526.91	16220.6
530.885	31479
534.858	46037.2
538.829	32743.4
542.799	15727.3
546.766	8186.21
550.732	4930.38
554.696	3465.83
558.658	2627.04
562.618	2141.77
566.576	1650.14
570.533	1457.96
574.488	1057.1
578.44	806.006
582.391	806.301
586.341	843.671
590.288	836.883
594.233	629.938
598.177	556.834
602.119	438.572
606.059	226.152
609.997	79.553
613.933	100.718
617.868	323.877
621.801	747.572
625.731	905.104
629.66	543.106
633.588	249.182
637.513	324.604
641.437	503.6
645.358	595.846
649.278	627.489
653.196	746.471
657.113	507.349
661.027	363.975
664.94	253.902
668.851	560.045
672.76	455.494
676.667	353.616
680.572	194.588
684.476	412.407
688.378	691.078
692.278	598.598
696.176	942.971
700.072	1313.2
703.967	2007.28
707.86	1866.24
711.751	1517.16
715.64	950.984
719.527	909.684
723.413	936.233
727.297	963.622
731.179	1402.87
735.059	1120.96
738.937	1010.88
742.814	690.648
746.689	743.252
750.562	1043.69
754.433	1290.97
758.303	960.098
762.17	635.064
766.036	497.17
769.901	223.1
773.763	115.521
777.624	43.461
781.482	120.842
785.339	20.796
789.195	59.911
793.048	107.382
796.9	32.793
800.75	37.28
804.598	170.153
808.445	57.41
812.289	50.409
816.132	108.312
819.973	71.201
823.813	107.939
827.65	247.888
831.486	271.017
835.32	280.381
839.152	197.951
842.983	323.478
846.812	521.965
850.639	540.316
854.464	731.674
858.288	946.126
862.11	887.551
865.93	714.844
869.748	519.042
873.564	432.124
877.379	509.061
881.192	495.847
885.004	342.504
888.813	537.023
892.621	449.416
896.427	379.671
900.232	486.794
904.034	401.789
907.835	666.669
911.634	483.456
915.432	468.196
919.227	305.852
923.021	572.426
926.813	748.115
930.604	615.052
934.393	556.01
938.18	432.482
941.965	370.142
945.749	799.974
949.53	1116.26
953.311	870.585
957.089	569.915
960.866	261.063
964.641	358.858
968.414	268.218
972.185	161.237
975.955	298.857
979.723	443.484
983.49	843.684
987.254	1701.21
991.017	1538.89
994.779	1157.67
998.538	1188.17
1002.3	2375.6
1006.05	2152.71
1009.81	1731.04
1013.56	1464.19
1017.31	1902.73
1021.06	2302.91
1024.81	1776.23
1028.55	2139.09
1032.3	2646.26
1036.04	3006.81
1039.78	2738.82
1043.52	3306.34
1047.26	4756.68
1050.99	3823.17
1054.73	1872.2
1058.46	1107.37
1062.19	727.099
1065.92	391.221
1069.65	414.274
1073.37	536.368
1077.1	596.177
1080.82	836.104
1084.54	873.387
1088.26	807.691
1091.97	994.848
1095.69	1257.12
1099.4	1499.4
1103.12	1070.72
1106.83	822.137
1110.54	630.553
1114.24	398.176
1117.95	194.566
1121.65	249.875
1125.35	135.098
1129.06	136.16
1132.75	22.984
1136.45	73.344
1140.15	60.871
1143.84	21.799
1147.53	6.393
1151.22	138.27
1154.91	22.545
1158.6	26.855
1162.28	34.193
1165.97	78.223
1169.65	107.021
1173.33	212.064
1177.01	54.93
1180.69	3.395
1184.36	87.053
1188.04	0.438
1191.71	170.59
1195.38	22.465
1199.05	152.516
1202.71	11.109
1206.38	195.133
1210.04	12.537
1213.71	83.01
1217.37	318.627
1221.03	189.514
1224.68	302.984
1228.34	178.328
1231.99	183.773
1235.65	223.457
1239.3	432.705
1242.95	421.777
1246.59	300.68
1250.24	377.406
1253.88	358.949
1257.53	373.309
1261.17	322.273
1264.81	346.865
1268.45	457.41
1272.08	492.281
1275.72	480.5
1279.35	538.758
1282.98	309.068
1286.61	306.883
1290.24	375.223
1293.87	502.48
1297.49	366.918
1301.11	125.131
1304.73	96.219
1308.36	268.674
1311.97	457.15
1315.59	374.617
1319.2	459.486
1322.82	430.557
1326.43	377.768
1330.04	363.205
1333.65	46.014
1337.26	43.193
1340.86	76.26
1344.47	55.398
1348.07	128.902
1351.67	151.846
1355.27	126.561
1358.87	23.496
1362.46	138.117
1366.06	61.689
1369.65	80.277
1373.24	325.695
1376.83	260.826
1380.42	309.533
1384	476.836
1387.59	319.693
1391.17	177.277
1394.75	157.363
1398.33	209.338
1401.91	311.09
1405.49	341.584
1409.06	339.557
1412.64	33.742
1416.21	292.652
1419.78	281.797
1423.35	356.053
1426.91	564.346
1430.48	503.307
1434.05	684.314
1437.61	879.803
1441.17	1340.98
1444.73	1492.65
1448.29	1777.18
1451.84	2040.33
1455.4	2080.54
1458.95	2019.57
1462.5	1775.43
1466.05	1893.68
1469.6	1416.51
1473.15	1236.92
1476.69	982.16
1480.24	1074.65
1483.78	876.141
1487.32	728.57
1490.86	590.414
1494.39	483.129
1497.93	533.736
1501.46	98.521
1505	76.789
1508.53	272.117
1512.06	347.318
1515.59	57.635
1519.11	116.619
1522.64	0
