Measurement: Raman, 514 nm, ccw, Raman Data Processed
Mineral: Senegalite
Rruff sample: R050239
Ideal chemistry: Al_2_PO_4_(OH)_3_H_2_O
Locality: Kourondicko iron ore (magnetite) deposit, Faleme River Basin, Senegal
Source: Marcus Origlieri
Description: Colorless prismatic crystals
Measured chemistry: Al_2.00_P_1.00_O_4_(OH)_3_Â·H_2_O
Pin_id: M00389
Orientation: Laser parallel to -b* (0 -1 0). Fiducial mark perpendicular to laser is parallel to -c [0 0 -1]
Raman shift (cm-1)	intensity
123.058	0
127.979	102.016
132.898	633.126
137.814	386.374
142.728	470.001
147.639	463.665
152.549	55.9523
157.455	193.846
162.359	124.62
167.261	217.717
172.161	160.221
177.058	266.181
181.952	252.552
186.845	474.753
191.734	973.659
196.622	939.406
201.507	1128.57
206.389	590.175
211.269	80.3744
216.147	143.188
221.022	180.575
225.895	530.486
230.765	1380.87
235.633	1149.61
240.498	857.574
245.361	313.779
250.222	103.428
255.08	18.4989
259.936	35.6956
264.789	86.5452
269.64	474.715
274.488	928.378
279.334	568.2
284.178	700.507
289.019	1085.75
293.857	1402.58
298.693	758.794
303.527	668.211
308.358	448.625
313.187	402.984
318.013	505.246
322.837	929.381
327.659	1060.36
332.478	888.084
337.294	152.665
342.108	340.889
346.92	187.243
351.729	95.2313
356.535	153.175
361.34	728.347
366.141	1243.66
370.94	1077.44
375.737	729.955
380.531	119.9
385.323	85.1813
390.113	41.1613
394.9	127.129
399.684	48.3691
404.466	22.6425
409.245	138.722
414.022	91.332
418.797	322.932
423.569	472.248
428.338	552.274
433.105	1038.98
437.87	1532.37
442.632	1744.44
447.391	1580.12
452.149	1101.45
456.903	1012.57
461.655	1017.24
466.405	1565.5
471.152	2413.4
475.897	3528.87
480.639	2872.39
485.378	1198.68
490.116	487.734
494.85	473.356
499.582	285.624
504.312	89.5644
509.039	212.073
513.764	15.4875
518.486	116.954
523.206	254.079
527.923	5.58228
532.638	23.1905
537.35	522.42
542.059	352.292
546.766	773.854
551.471	369.325
556.173	542.834
560.873	562.625
565.57	231.157
570.264	553.253
574.957	211.14
579.646	245.762
584.333	273.266
589.018	89.2076
593.7	300.123
598.379	206.431
603.056	521.047
607.73	746.3
612.402	1021.98
617.072	1435.63
621.739	1505.24
626.403	1051.14
631.065	805.45
635.724	547.359
640.381	617.801
645.035	430.548
649.687	438.488
654.336	272.448
658.983	119.599
663.627	83.2274
668.268	186.044
672.907	333.607
677.544	236.481
682.178	256.975
686.809	157.283
691.438	358.552
696.065	342.953
700.688	480.907
705.31	538.669
709.929	272.264
714.545	60.9445
719.158	4.94982
723.77	147.546
728.378	129.207
732.984	221.65
737.588	37.3763
742.189	10.7808
746.787	0.178341
751.383	204.294
755.976	0.950005
760.567	78.6886
765.155	68.5088
769.741	23.3
774.324	163.438
778.904	35.1663
783.482	15.7864
788.058	10.8032
792.631	19.9032
797.201	14.3107
801.769	152.756
806.334	181.184
810.897	342.1
815.457	402.935
820.014	275.892
824.569	252.724
829.122	265.623
833.671	127.992
838.219	186.269
842.763	593.428
847.306	342.533
851.845	261.598
856.382	102.273
860.917	580.764
865.448	495.505
869.978	261.738
874.505	228.835
879.029	359.407
883.55	395.693
888.069	50.6565
892.586	162.178
897.1	254.88
901.611	26.7018
906.12	226.647
910.626	56.2566
915.129	52.8894
919.63	170.811
924.129	10.3665
928.625	71.2602
933.118	68.9726
937.609	276.746
942.097	108.769
946.582	49.5829
951.065	270.802
955.546	192.894
960.023	16.3842
964.499	48.6469
968.971	17.4822
973.441	7.53986
977.909	9.75806
982.374	26.7168
986.836	569.39
991.295	464.713
995.753	742.883
1000.21	683.76
1004.66	996.435
1009.11	1110.69
1013.55	1909.35
1018	2538.2
1022.44	3329.09
1026.88	4110.17
1031.32	4067.31
1035.75	2610.43
1040.18	1766.24
1044.61	1067.01
1049.04	317.596
1053.46	703.106
1057.88	630.694
1062.3	1020.2
1066.71	962.482
1071.13	767.79
1075.54	703.841
1079.94	861.728
1084.35	805.979
1088.75	366.099
1093.15	16.128
1097.55	151.88
1101.94	195.306
1106.34	18.5624
1110.73	166.302
1115.11	154.636
1119.5	199.639
1123.88	37.5364
1128.26	256.688
1132.63	298.359
1137.01	193.205
1141.38	414.903
1145.75	308.456
1150.12	394.861
1154.48	759.965
1158.84	298.447
1163.2	21.2627
1167.55	119.135
1171.91	138.692
1176.26	1.89447
1180.61	73.4677
1184.95	23.1288
1189.29	275.33
1193.63	235.741
1197.97	104.161
1202.31	219.007
1206.64	192.619
1210.97	13.7938
1215.29	10.1102
1219.62	140.055
1223.94	177.646
1228.26	245.574
1232.57	142.077
1236.89	313.771
1241.2	45.8038
1245.51	68.8564
1249.81	43.6872
1254.12	264.739
1258.42	342.334
1262.72	269.782
1267.01	31.6246
1271.3	294.564
1275.59	281.586
1279.88	45.2557
1284.17	328.903
1288.45	367.179
1292.73	242.881
1297.01	342.429
1301.28	316.028
1305.55	195.049
1309.82	234.615
1314.09	567.308
1318.35	108.807
1322.61	268.142
1326.87	195.151
1331.13	203.529
1335.38	323.305
1339.63	391.895
1343.88	315.337
1348.12	408.237
1352.37	449.979
1356.61	346.887
1360.85	60.0536
1365.08	334.471
1369.31	242.053
1373.54	558.153
1377.77	221.972
1381.99	330.682
1386.22	219.745
1390.43	286.826
1394.65	14.1466
1398.87	123.831
1403.08	158.78
1407.29	246.321
1411.49	220.099
1415.69	124.516
1419.89	130.814
1424.09	238.618
1428.29	55.4631
1432.48	45.5886
1436.67	237.394
1440.86	242.386
1445.04	194.398
1449.23	246.087
1453.4	296.577
1457.58	284.757
1461.76	472.811
1465.93	4.81462
1470.1	103.534
1474.26	116.877
1478.43	17.21
1482.59	49.1573
1486.75	105.946
1490.9	37.2083
1495.06	349.828
1499.21	206.418
1503.35	213.396
1507.5	60.3068
1511.64	205.925
1515.78	239.215
1519.92	25.4988
1524.05	325.85
1528.18	9.05004
1532.31	196.899
1536.44	59.9937
1540.56	50.1781
1544.69	177.041
1548.8	98.0259
1552.92	279.867
1557.03	149.535
1561.14	91.6257
1565.25	58.2167
1569.36	147.068
