Measurement: Raman, 514 nm, ccw, Raman Data Processed
Mineral: Senegalite
Rruff sample: R050239
Ideal chemistry: Al_2_PO_4_(OH)_3_H_2_O
Locality: Kourondicko iron ore (magnetite) deposit, Faleme River Basin, Senegal
Source: Marcus Origlieri
Description: Colorless prismatic crystals
Measured chemistry: Al_2.00_P_1.00_O_4_(OH)_3_Â·H_2_O
Pin_id: M00172
Orientation: Laser parallel to -a* (-1 0 0). Fiducial mark perpendicular to laser is parallel to b [0 1 0]
Raman shift (cm-1)	intensity
98.416	0
103.349	817.451
108.28	70.8428
113.208	67.7168
118.134	248.102
123.058	961.118
127.979	2069.36
132.898	4501.42
137.814	2338.02
142.728	1003.3
147.639	498.569
152.549	432.922
157.455	253.094
162.359	996.18
167.261	1427.5
172.161	666.779
177.058	674.602
181.952	924.498
186.845	1089.42
191.734	1068.41
196.622	1527.68
201.507	1920.28
206.389	2504.23
211.269	809.488
216.147	323.008
221.022	267.728
225.895	814.586
230.765	1549.53
235.633	2174.75
240.498	1899.33
245.361	979.6
250.222	315.018
255.08	2.88281
259.936	412.902
264.789	386.246
269.64	526.652
274.488	1437.34
279.334	1554.93
284.178	1387.13
289.019	3093.71
293.857	4833.48
298.693	3637.6
303.527	2861.09
308.358	1462.73
313.187	1323.14
318.013	1707.23
322.837	2548.93
327.659	3628.17
332.478	3259.91
337.294	1877.14
342.108	1588.84
346.92	765.996
351.729	188.586
356.535	202.602
361.34	797.025
366.141	443.838
370.94	25.0137
375.737	125.631
380.531	86.5
385.323	350.848
390.113	3.98633
394.9	128.934
399.684	245.35
404.466	2.26562
409.245	144.432
414.022	744.578
418.797	968.269
423.569	939.404
428.338	992.869
433.105	2011.63
437.87	3425.66
442.632	5288.95
447.391	5207.51
452.149	3523.3
456.903	2860.31
461.655	3367.55
466.405	5193.04
471.152	7818.86
475.897	9275.89
480.639	9037.11
485.378	5707.53
490.116	2758.45
494.85	1709.37
499.582	1034.55
504.312	682.394
509.039	481.832
513.764	446.344
518.486	287.238
523.206	14.1328
527.923	121.91
532.638	193.965
537.35	191.266
542.059	51.1426
546.766	48.4863
551.471	416.572
556.173	364.545
560.873	208.69
565.57	242.754
570.264	240.426
574.957	1013.06
579.646	1216.65
584.333	1855.44
589.018	2583.47
593.7	2176.04
598.379	2090.77
603.056	2029.08
607.73	2166.65
612.402	2468.19
617.072	2852.39
621.739	3010.74
626.403	3100.63
631.065	2911.91
635.724	2563.11
640.381	2128.56
645.035	1702.98
649.687	1079.53
654.336	771.981
658.983	252.383
663.627	272.522
668.268	239.754
672.907	293.518
677.544	451.754
682.178	324.205
686.809	304.182
691.438	123.291
696.065	28.793
700.688	266.443
705.31	297.496
709.929	382.014
714.545	332.998
719.158	365.441
723.77	402.291
728.378	197.508
732.984	214.344
737.588	168.353
742.189	130.877
746.787	29.3906
751.383	102.988
755.976	66.457
760.567	181.805
765.155	77.4922
769.741	178.658
774.324	48.4375
778.904	179.889
783.482	89.2656
788.058	139.053
792.631	192.094
797.201	110.723
801.769	68.9785
806.334	400.217
810.897	229.074
815.457	295.762
820.014	327.447
824.569	549.816
829.122	636.268
833.671	910.816
838.219	898.215
842.763	484.207
847.306	498.977
851.845	463.156
856.382	551.758
860.917	496.516
865.448	386.328
869.978	374.055
874.505	362.691
879.029	239.965
883.55	288.816
888.069	160.359
892.586	361.473
897.1	86.75
901.611	57.9727
906.12	119.219
910.626	41.1523
915.129	366.93
919.63	3.60547
924.129	232.488
928.625	40.8125
933.118	6.46094
937.609	71.7812
942.097	77.8438
946.582	34.0273
951.065	169.348
955.546	32.4141
960.023	90.6406
964.499	164.254
968.971	20.7109
973.441	169.246
977.909	240.668
982.374	405.992
986.836	232.391
991.295	577.902
995.753	842.422
1000.21	1096.93
1004.66	1304.17
1009.11	1859.6
1013.55	2595
1018	2915.44
1022.44	3697.87
1026.88	5216.49
1031.32	7290.65
1035.75	8368.32
1040.18	7004.48
1044.61	4400.06
1049.04	2676.96
1053.46	2438.41
1057.88	2303.94
1062.3	3539.77
1066.71	4122.66
1071.13	2956.59
1075.54	1466.52
1079.94	650.356
1084.35	575.055
1088.75	148.981
1093.15	175.527
1097.55	188.637
1101.94	227.16
1106.34	139.519
1110.73	547.125
1115.11	315.785
1119.5	281.394
1123.88	236.352
1128.26	291.519
1132.63	522.387
1137.01	695.406
1141.38	1033.36
1145.75	1543.57
1150.12	2960.62
1154.48	3712.73
1158.84	2891.88
1163.2	1550.09
1167.55	983.426
1171.91	497.824
1176.26	503.363
1180.61	493.902
1184.95	314.43
1189.29	450.031
1193.63	89.332
1197.97	340.203
1202.31	195.606
1206.64	319.934
1210.97	252.231
1215.29	309.453
1219.62	207.68
1223.94	207.371
1228.26	8.88281
1232.57	6.53906
1236.89	193.883
1241.2	180.195
1245.51	192.519
1249.81	12.7109
1254.12	321.746
1258.42	167.09
1262.72	60.3711
1267.01	176.602
1271.3	281.781
1275.59	491.914
1279.88	428.004
1284.17	144.863
1288.45	608.68
1292.73	405.394
1297.01	433.168
1301.28	489.496
1305.55	291.137
1309.82	764.723
1314.09	331.254
1318.35	468.731
1322.61	286.09
1326.87	257.184
1331.13	577.93
1335.38	306.277
1339.63	367.402
1343.88	479.547
1348.12	410.789
1352.37	500.766
1356.61	466.082
1360.85	170.332
1365.08	441.465
1369.31	366.672
1373.54	289.836
1377.77	389.141
1381.99	307.394
1386.22	179.199
1390.43	229.289
1394.65	453.551
1398.87	175.234
1403.08	358.426
1407.29	235.414
1411.49	352.82
1415.69	184.602
1419.89	337.203
1424.09	190.582
1428.29	177.234
1432.48	197.156
1436.67	253.684
1440.86	346.582
1445.04	357.543
1449.23	313.387
1453.4	11.8555
1457.58	224.922
1461.76	478.18
1465.93	77.5781
1470.1	150.383
1474.26	208.234
1478.43	213.019
1482.59	381.594
1486.75	226.356
1490.9	194.867
1495.06	152.785
1499.21	397.769
1503.35	29.2891
1507.5	220.234
1511.64	373.383
1515.78	490.012
1519.92	303.812
1524.05	432.746
1528.18	292.231
1532.31	214.141
1536.44	497.699
1540.56	285.262
1544.69	182.703
1548.8	292.629
1552.92	343.324
1557.03	592.141
1561.14	223.394
1565.25	0.789063
1569.36	360.676
