Measurement: Raman, 514 nm, ccw, Raman Data Processed
Mineral: Senegalite
Rruff sample: R050239
Ideal chemistry: Al_2_PO_4_(OH)_3_H_2_O
Locality: Kourondicko iron ore (magnetite) deposit, Faleme River Basin, Senegal
Source: Marcus Origlieri
Description: Colorless prismatic crystals
Measured chemistry: Al_2.00_P_1.00_O_4_(OH)_3_Â·H_2_O
Pin_id: M00152
Orientation: Laser parallel to c* (0 0 1). Fiducial mark perpendicular to laser is parallel to a [1 0 0]
Raman shift (cm-1)	intensity
92.246	0
97.182	519.244
102.116	1134.97
107.047	495.742
111.976	237.678
116.903	814.307
121.827	2685.59
126.749	6321.07
131.668	10278.3
136.585	9228.07
141.5	2784.03
146.412	992.564
151.321	614.971
156.229	728.285
161.134	1104.85
166.036	1356.67
170.936	917.463
175.834	239.248
180.729	353.428
185.622	422.82
190.512	718.992
195.4	1358.71
200.286	1381
205.169	1240.8
210.049	569.019
214.928	287.555
219.803	628.443
224.677	1720.39
229.548	3369.28
234.416	5132.04
239.282	5624.22
244.146	4068.13
249.007	1382.62
253.866	524.787
258.722	441.467
263.576	31.3105
268.427	126.58
273.276	290.547
278.123	225.135
282.967	554.006
287.809	1572.9
292.648	3580.7
297.485	5392.48
302.319	6857.93
307.151	4166.87
311.98	2136.3
316.807	1105.97
321.631	684.725
326.454	290.531
331.273	111.369
336.09	26.209
340.905	101.986
345.717	1.5918
350.527	10.2012
355.334	32.6855
360.139	179.303
364.941	67.5527
369.741	172.037
374.538	21.9199
379.333	230.754
384.126	90.7383
388.916	74.6914
393.703	49.2695
398.488	431.844
403.271	509.94
408.051	812.701
412.828	1656.56
417.603	1855.2
422.376	1689.58
427.146	2218.88
431.914	3694.68
436.679	5524.59
441.442	6051.84
446.202	5499.98
450.96	4755.23
455.715	3769.84
460.467	4056.46
465.218	4825.56
469.965	7405.1
474.711	10966.4
479.454	11708.1
484.194	7080.54
488.932	3615.13
493.667	3216.71
498.4	3679.46
503.13	3264.34
507.858	2230.76
512.583	1701.48
517.306	1122.25
522.026	570.752
526.744	592.746
531.459	357.123
536.172	264.387
540.882	463.203
545.59	652.99
550.295	337.016
554.998	494.262
559.698	354.715
564.396	135.346
569.091	264.141
573.784	94.0488
578.474	81.1406
583.162	12
587.847	134.047
592.529	53.4688
597.209	334.035
601.887	385.414
606.562	385.059
611.235	708.406
615.905	1059.54
620.572	1561.79
625.237	2678.89
629.9	3387.6
634.56	3535.45
639.217	2532.51
643.872	1703.68
648.524	1006.73
653.174	919.777
657.821	497.641
662.466	614.473
667.108	238.629
671.748	466.129
676.385	589.375
681.02	609.562
685.652	401.512
690.281	847.402
694.908	808.164
699.533	1218.79
704.155	1231.07
708.774	751.019
713.391	678.152
718.005	26.8281
722.617	385.43
727.226	277.285
731.833	336.789
736.437	81.9883
741.039	3.66797
745.638	317.262
750.234	103.293
754.828	178.273
759.419	37.6328
764.008	44.8672
768.595	11.1719
773.178	277.988
777.759	112.469
782.338	166.973
786.914	232.953
791.488	81.2578
796.059	19.832
800.627	379.922
805.193	310.934
809.756	471.953
814.317	481.875
818.875	542.688
823.431	736.211
827.984	732.781
832.534	673.789
837.082	484.867
841.627	588.672
846.17	441.328
850.71	557.328
855.248	564.644
859.783	423.941
864.316	531.41
868.846	246.828
873.373	266.379
877.898	689.633
882.42	907.547
886.94	917.644
891.457	758.812
895.971	688.652
900.483	420.324
904.993	611.57
909.5	411.039
914.004	194.078
918.505	513.941
923.004	269.93
927.501	227.25
931.995	89.4688
936.486	57.2148
940.975	82.6719
945.461	306.594
949.945	134.973
954.426	57.8164
958.904	135.953
963.38	50.707
967.853	141.797
972.324	64.5977
976.792	383.168
981.258	290.508
985.72	451.227
990.181	248.68
994.639	602.879
999.094	578.82
1003.55	641.062
1008	991.266
1012.44	1393.26
1016.89	1688.21
1021.33	2990.89
1025.77	4111.5
1030.21	3930.79
1034.64	2388.96
1039.07	1258.57
1043.5	1244.86
1047.93	904.254
1052.35	1656.15
1056.78	2140.05
1061.19	2807.98
1065.61	3483.27
1070.02	4043.77
1074.43	5838.13
1078.84	6831.87
1083.25	3719.5
1087.65	1760.14
1092.05	674.875
1096.45	444.914
1100.85	478.738
1105.24	206.852
1109.63	47.0742
1114.02	235.309
1118.4	157.941
1122.78	68.6016
1127.16	213.457
1131.54	421.945
1135.92	457.262
1140.29	651.418
1144.66	2008.43
1149.02	3101.27
1153.39	2951.97
1157.75	1627.53
1162.11	977.949
1166.46	973.258
1170.82	1387.44
1175.17	1575.52
1179.52	1501.51
1183.86	819.422
1188.21	486.273
1192.55	226.172
1196.89	265.07
1201.22	306.281
1205.55	26.5273
1209.88	272.148
1214.21	67.6797
1218.54	279.121
1222.86	103.668
1227.18	152.363
1231.5	218.125
1235.81	62.9805
1240.12	308.941
1244.43	66.8125
1248.74	45.7383
1253.04	133.527
1257.34	118.574
1261.64	239.797
1265.94	165.109
1270.23	172.527
1274.52	424.047
1278.81	193.684
1283.1	312.461
1287.38	140.434
1291.66	727.18
1295.94	458.461
1300.21	146.066
1304.48	248.684
1308.75	570.477
1313.02	422.441
1317.29	450.613
1321.55	149.812
1325.81	578.043
1330.06	582.883
1334.32	406.777
1338.57	420.019
1342.82	142.586
1347.06	585.043
1351.31	292.731
1355.55	572.981
1359.79	682.164
1364.02	521.609
1368.26	638.289
1372.49	649.445
1376.71	540.199
1380.94	426.152
1385.16	312.531
1389.38	377.398
1393.6	334.379
1397.81	33.6328
1402.02	175.231
1406.23	380.648
1410.44	79.3867
1414.64	40.1602
1418.85	211.25
1423.04	235.637
1427.24	176.664
1431.43	299.731
1435.62	217.887
1439.81	305.777
1444	229.168
1448.18	506.441
1452.36	156.316
1456.54	338.273
1460.71	96.75
1464.89	175.465
1469.06	166.793
1473.22	392.68
1477.39	99.1562
1481.55	524.176
1485.71	266.707
1489.86	321.758
1494.02	360.207
1498.17	103.969
1502.32	347.914
1506.46	128.637
1510.61	76.7539
1514.75	162.93
1518.88	252.688
1523.02	518.227
1527.15	168.555
1531.28	555.285
1535.41	479.277
1539.53	113.496
1543.66	322.902
1547.78	122.504
1551.89	142.531
1556.01	122.809
1560.12	369.168
1564.23	282.496
1568.33	171.801
