Measurement: Raman, 514 nm, ccw, Raman Data Processed
Mineral: Senegalite
Rruff sample: R050239
Ideal chemistry: Al_2_PO_4_(OH)_3_H_2_O
Locality: Kourondicko iron ore (magnetite) deposit, Faleme River Basin, Senegal
Source: Marcus Origlieri
Description: Colorless prismatic crystals
Measured chemistry: Al_2.00_P_1.00_O_4_(OH)_3_Â·H_2_O
Pin_id: M00389
Orientation: Laser parallel to -b* (0 -1 0). Fiducial mark perpendicular to laser is parallel to -c [0 0 -1]
Raman shift (cm-1)	intensity
114.44	0
119.365	54.1016
124.288	486.748
129.209	1236.79
134.127	2078.75
139.043	921.106
143.956	868.582
148.867	487.06
153.775	51.0781
158.681	156.478
163.585	453.506
168.486	471.295
173.385	368.305
178.282	523.482
183.176	870.104
188.067	1083.79
192.956	1989.58
197.843	1701.22
202.727	1324.12
207.609	367.545
212.489	56.6348
217.366	253.424
222.24	604.93
227.112	1579.13
231.982	3081.01
236.849	2765.35
241.714	1510.27
246.577	704.088
251.437	146.598
256.294	54.3965
261.149	267.43
266.002	162.113
270.852	487.144
275.7	1289.91
280.545	607.539
285.388	727.543
290.229	1153.59
295.067	2230.46
299.902	2310.95
304.735	1854.93
309.566	1192.29
314.394	1618.95
319.22	1155.86
324.043	1135.95
328.864	1241.16
333.682	766.33
338.498	452.49
343.311	422.684
348.122	65.0996
352.931	181.082
357.737	808.254
362.54	1185.42
367.341	1968.56
372.14	1680.16
376.936	1237.07
381.73	554.918
386.521	291.285
391.31	49.041
396.096	11.9961
400.88	236.527
405.661	47.6367
410.44	222.723
415.216	349.84
419.99	598.01
424.761	1040.2
429.53	1221.38
434.297	2016.52
439.061	3107.58
443.822	2970.55
448.581	2967.39
453.337	2015.09
458.091	1799.63
462.843	1673.01
467.592	2336.21
472.338	4134.23
477.082	5997.22
481.824	5555.1
486.563	2315.92
491.3	1186.04
496.034	668.582
500.765	472.76
505.494	366.859
510.221	292.607
514.945	20.0293
519.666	19.9805
524.385	139.93
529.102	126.631
533.816	487.172
538.527	850.086
543.236	1304.54
547.943	1152.85
552.647	1209.81
557.348	1218.8
562.047	967.277
566.744	858.223
571.438	375.598
576.129	503.373
580.818	213.953
585.504	397.018
590.188	322.836
594.87	594.939
599.549	747.775
604.225	717.133
608.899	782.438
613.57	1217.98
618.239	1391.62
622.905	1576.46
627.569	1470.52
632.23	1185.63
636.889	1338.33
641.545	1039.21
646.198	792.143
650.849	562.566
655.498	472.348
660.144	264.072
664.787	303.414
669.428	464.748
674.067	795.957
678.703	659.619
683.336	238.803
687.967	63.4727
692.595	290.977
697.221	619.861
701.844	1326.26
706.465	1228.49
711.083	700.344
715.698	556.922
720.311	296.387
724.922	181.438
729.53	254.18
734.135	205.68
738.738	192.816
743.338	218.457
747.936	173.269
752.531	105.863
757.124	129.59
761.714	10.5195
766.302	46.8984
770.887	128.477
775.469	7.59766
780.049	36.3516
784.626	187.555
789.201	62.625
793.773	154.719
798.343	217.602
802.91	46.4414
807.475	434.812
812.037	105.031
816.596	36.4414
821.153	419.473
825.707	243.566
830.259	348.84
834.808	343.996
839.355	414.312
843.899	376.519
848.441	436.859
852.98	300.359
857.516	300.953
862.05	431.652
866.581	541.461
871.11	615.391
875.636	339.059
880.159	451.555
884.68	692.441
889.199	452.031
893.714	92.4062
898.228	260.473
902.738	411.312
907.246	169.543
911.752	140.191
916.255	170.125
920.755	52.7227
925.253	374.887
929.748	333.824
934.241	8.90234
938.731	117.191
943.218	352.039
947.703	288.996
952.186	233.68
956.665	269.59
961.142	315.18
965.617	282.004
970.089	33.2188
974.558	58.8164
979.025	304.508
983.489	564.32
987.951	405.414
992.41	574.156
996.866	897.785
1001.32	1166.21
1005.77	1642.93
1010.22	1785.84
1014.67	2657.85
1019.11	3264.34
1023.55	4834
1027.99	5850.02
1032.42	5870.73
1036.86	4175.32
1041.29	2772.41
1045.72	1833.31
1050.14	1292.94
1054.56	1570.77
1058.98	1913.34
1063.4	2844.7
1067.82	2589.89
1072.23	1655.41
1076.64	1066.88
1081.05	844.199
1085.45	821.484
1089.85	436.707
1094.25	195.785
1098.65	333.449
1103.04	193.754
1107.43	17.1133
1111.82	113.652
1116.21	78.4609
1120.59	259.406
1124.97	392.141
1129.35	255.273
1133.73	211.891
1138.1	424.117
1142.47	473.207
1146.84	833.289
1151.21	1296.51
1155.57	1201.44
1159.93	834.543
1164.29	540.68
1168.64	234.84
1172.99	201.019
1177.34	323.238
1181.69	70.5742
1186.04	191.031
1190.38	29.9609
1194.72	58.0781
1199.05	317.953
1203.39	219.09
1207.72	44.4062
1212.05	456.668
1216.37	378.059
1220.7	434.637
1225.02	392.301
1229.34	127.996
1233.65	85.6289
1237.97	632.344
1242.28	298.859
1246.59	45.4805
1250.89	259.746
1255.19	172.922
1259.49	305.164
1263.79	372.394
1268.09	284.109
1272.38	318.629
1276.67	267.352
1280.95	163.273
1285.24	294.113
1289.52	369.422
1293.8	497.93
1298.08	693.648
1302.35	181.578
1306.62	79.4297
1310.89	497.82
1315.15	250.527
1319.42	293.535
1323.68	325.566
1327.94	423.082
1332.19	221.684
1336.44	426.496
1340.69	404.93
1344.94	263.199
1349.19	482.699
1353.43	312.449
1357.67	419.465
1361.9	372.422
1366.14	197.863
1370.37	256.973
1374.6	492.309
1378.83	522.668
1383.05	369.449
1387.27	389.137
1391.49	367.231
1395.7	51.6406
1399.92	160.883
1404.13	111.102
1408.34	361.367
1412.54	166.891
1416.74	59.8438
1420.94	30.2461
1425.14	591.102
1429.34	91.793
1433.53	263.492
1437.72	503.801
1441.9	460.008
1446.09	324.106
1450.27	109.758
1454.45	318.906
1458.63	190.672
1462.8	409.977
1466.97	431.789
1471.14	385.066
1475.31	245.871
1479.47	369.629
1483.63	210.269
1487.79	151.062
1491.94	375.586
1496.09	124.734
1500.24	100.453
1504.39	343.625
1508.54	238.133
1512.68	318.973
1516.82	118.859
1520.95	341.828
1525.09	245.977
1529.22	148.352
1533.35	516.617
1537.47	99.6367
1541.6	227.43
1545.72	296.281
1549.83	374.941
1553.95	153.188
1558.06	336.191
1562.17	282.57
1566.28	260.234
1570.38	58.7891
