Measurement: Raman, 514 nm, ccw, Raman Data Processed
Mineral: Senegalite
Rruff sample: R050239
Ideal chemistry: Al_2_PO_4_(OH)_3_H_2_O
Locality: Kourondicko iron ore (magnetite) deposit, Faleme River Basin, Senegal
Source: Marcus Origlieri
Description: Colorless prismatic crystals
Measured chemistry: Al_2.00_P_1.00_O_4_(OH)_3_Â·H_2_O
Pin_id: M00152
Orientation: Laser parallel to c* (0 0 1). Fiducial mark perpendicular to laser is parallel to a [1 0 0]
Raman shift (cm-1)	intensity
92.246	0
97.182	1291.84
102.116	2987.8
107.047	1228.57
111.976	59.5488
116.903	220.758
121.827	737.182
126.749	2217.83
131.668	3608.36
136.585	3086.67
141.5	845.682
146.412	470.906
151.321	59.168
156.229	2.37695
161.134	241.627
166.036	655.609
170.936	1031.35
175.834	1215.97
180.729	1371.37
185.622	1385.41
190.512	1935.03
195.4	2389.31
200.286	1045.27
205.169	597.887
210.049	192.137
214.928	462.941
219.803	1114.25
224.677	2227.01
229.548	3447.2
234.416	4397.77
239.282	2997.05
244.146	1451.97
249.007	682.051
253.866	165.346
258.722	20.7109
263.576	68.2383
268.427	86.8672
273.276	138.121
278.123	240.295
282.967	761.158
287.809	1300.5
292.648	2444.19
297.485	3316.13
302.319	4216.18
307.151	3271.43
311.98	2780.72
316.807	2726.97
321.631	1948.1
326.454	1586.87
331.273	863.356
336.09	379.66
340.905	69.7617
345.717	220.643
350.527	641.293
355.334	1262.7
360.139	1822.85
364.941	2350.73
369.741	2095.34
374.538	1394.65
379.333	771.258
384.126	40.959
388.916	214.69
393.703	131.018
398.488	109.812
403.271	184.525
408.051	805.482
412.828	1500.97
417.603	1986.47
422.376	1254.79
427.146	1669.91
431.914	2383.81
436.679	2953.48
441.442	3503.9
446.202	3203.97
450.96	3015.89
455.715	3304.6
460.467	3560.87
465.218	3340.85
469.965	4745.5
474.711	6995.82
479.454	7829.84
484.194	5013.56
488.932	2374.13
493.667	1882.71
498.4	1629.44
503.13	1092.07
507.858	751.393
512.583	314.865
517.306	19.7266
522.026	360.609
526.744	147.035
531.459	527.131
536.172	1084.12
540.882	1471.37
545.59	2072.45
550.295	1789.96
554.998	1529.19
559.698	1492
564.396	955.385
569.091	911.309
573.784	521.732
578.474	502.705
583.162	177.133
587.847	49.0703
592.529	92.9473
597.209	163.315
601.887	258.576
606.562	412.764
611.235	409.309
615.905	527.84
620.572	801.494
625.237	1307.92
629.9	1847.68
634.56	1567.03
639.217	873.119
643.872	311.588
648.524	352.623
653.174	232.498
657.821	95.9551
662.466	384.777
667.108	804.377
671.748	1269.81
676.385	981.752
681.02	918.305
685.652	774.098
690.281	1027.45
694.908	1451.94
699.533	2080.43
704.155	1989.27
708.774	1170.8
713.391	556.879
718.005	398.606
722.617	239.123
727.226	278.4
731.833	298.828
736.437	308.473
741.039	251.195
745.638	285.918
750.234	208.941
754.828	98.2539
759.419	270.738
764.008	8.38672
768.595	96.6484
773.178	26.3281
777.759	77.7969
782.338	73.6367
786.914	88.6016
791.488	153.121
796.059	118.109
800.627	16.4297
805.193	14.4023
809.756	111.797
814.317	595.754
818.875	378.328
823.431	294.977
827.984	358.512
832.534	228.32
837.082	232.695
841.627	235.738
846.17	225.215
850.71	218.547
855.248	241.094
859.783	276.695
864.316	567.309
868.846	503.953
873.373	617.594
877.898	613.652
882.42	759.09
886.94	1101.46
891.457	674.469
895.971	853.879
900.483	888.019
904.993	442.07
909.5	531.316
914.004	149.348
918.505	405.027
923.004	199.445
927.501	73.1133
931.995	349.91
936.486	380.059
940.975	1.80469
945.461	249.031
949.945	178.519
954.426	128.285
958.904	149.152
963.38	121.727
967.853	89.3789
972.324	296.227
976.792	253.879
981.258	611.082
985.72	349.594
990.181	512.691
994.639	736.453
999.094	765.059
1003.55	1355.5
1008	1809.34
1012.44	2263.17
1016.89	3273.79
1021.33	4675.91
1025.77	6576.53
1030.21	6592.74
1034.64	4185.52
1039.07	2266.18
1043.5	1817.57
1047.93	1531.79
1052.35	2077.2
1056.78	3109.2
1061.19	3770.78
1065.61	3641.39
1070.02	2677.88
1074.43	3020.62
1078.84	2855.64
1083.25	1819.7
1087.65	602.305
1092.05	495.586
1096.45	268.262
1100.85	60.5078
1105.24	307.941
1109.63	39.4336
1114.02	216.102
1118.4	17.8711
1122.78	183.715
1127.16	489.297
1131.54	449.816
1135.92	490.769
1140.29	577.418
1144.66	1106.77
1149.02	2016.81
1153.39	1845.56
1157.75	1237.03
1162.11	843.211
1166.46	813.125
1170.82	582.766
1175.17	1052.13
1179.52	733.242
1183.86	384.113
1188.21	119.731
1192.55	238.039
1196.89	51.9609
1201.22	307.727
1205.55	24.2773
1209.88	155.656
1214.21	170.492
1218.54	142.379
1222.86	3.67188
1227.18	424.852
1231.5	87.8945
1235.81	57.6094
1240.12	192.594
1244.43	413.66
1248.74	71.8555
1253.04	401.66
1257.34	170.633
1261.64	237.469
1265.94	140.188
1270.23	358.805
1274.52	565.305
1278.81	416.691
1283.1	521.988
1287.38	469.195
1291.66	512.32
1295.94	504.383
1300.21	410.418
1304.48	552.445
1308.75	557.414
1313.02	586.336
1317.29	505.93
1321.55	453.055
1325.81	587.398
1330.06	495.289
1334.32	400.117
1338.57	624.488
1342.82	458.148
1347.06	505.394
1351.31	483.691
1355.55	516.68
1359.79	561.18
1364.02	844.996
1368.26	742.016
1372.49	472.699
1376.71	604.805
1380.94	364.637
1385.16	370.812
1389.38	534.676
1393.6	424.328
1397.81	337.578
1402.02	354.117
1406.23	303.172
1410.44	254.266
1414.64	51.5312
1418.85	571.449
1423.04	395.082
1427.24	146.934
1431.43	348.648
1435.62	359.555
1439.81	367.863
1444	655.848
1448.18	463.348
1452.36	240.957
1456.54	365.008
1460.71	154.918
1464.89	53.8633
1469.06	100.191
1473.22	329.094
1477.39	277.414
1481.55	383.934
1485.71	425.801
1489.86	486.086
1494.02	127.82
1498.17	113.019
1502.32	566.449
1506.46	75.6094
1510.61	401.996
1514.75	290.758
1518.88	308.633
1523.02	107.289
1527.15	163.879
1531.28	176.777
1535.41	380.926
1539.53	109.445
1543.66	205.449
1547.78	12.8086
1551.89	559.113
1556.01	530.57
1560.12	329.793
1564.23	433.414
1568.33	110.504
