Measurement: Raman, 514 nm, ccw, Raman Data Processed
Mineral: Senegalite
Rruff sample: R050239
Ideal chemistry: Al_2_PO_4_(OH)_3_H_2_O
Locality: Kourondicko iron ore (magnetite) deposit, Faleme River Basin, Senegal
Source: Marcus Origlieri
Description: Colorless prismatic crystals
Measured chemistry: Al_2.00_P_1.00_O_4_(OH)_3_Â·H_2_O
Pin_id: M00172
Orientation: Laser parallel to -a* (-1 0 0). Fiducial mark perpendicular to laser is parallel to b [0 1 0]
Raman shift (cm-1)	intensity
102.116	0
107.047	356.881
111.976	14.9258
116.903	4.04883
121.827	189.258
126.749	761.57
131.668	1562.98
136.585	1565.56
141.5	823.971
146.412	765.699
151.321	724.285
156.229	537.234
161.134	963.586
166.036	1793.66
170.936	1239.94
175.834	531.564
180.729	664.625
185.622	716.514
190.512	997.42
195.4	1511.72
200.286	2207.61
205.169	3773.16
210.049	2221.39
214.928	790.32
219.803	641.896
224.677	585.096
229.548	855.885
234.416	912.234
239.282	799.104
244.146	580.721
249.007	513.594
253.866	340.738
258.722	563.457
263.576	494.973
268.427	673.809
273.276	1481.34
278.123	2658.25
282.967	2300.54
287.809	3611.04
292.648	6134.48
297.485	4588.4
302.319	1682.7
307.151	1066.28
311.98	884.061
316.807	1530.98
321.631	2874.97
326.454	5006.93
331.273	5869.87
336.09	3275.77
340.905	1321.63
345.717	596.42
350.527	234.133
355.334	222.752
360.139	342.252
364.941	307.617
369.741	268.834
374.538	113.875
379.333	49.3359
384.126	84
388.916	276.389
393.703	136.621
398.488	113.049
403.271	168.147
408.051	31.7969
412.828	215.725
417.603	655.629
422.376	542.529
427.146	619.363
431.914	1509.12
436.679	2892.75
441.442	4463.22
446.202	4343.51
450.96	3415.62
455.715	2381.64
460.467	2719.67
465.218	4879.81
469.965	8261.99
474.711	10459.4
479.454	8667.61
484.194	6305.56
488.932	3189.23
493.667	1522.71
498.4	656.984
503.13	411.908
507.858	184.478
512.583	371.643
517.306	339.414
522.026	219.057
526.744	165.74
531.459	59.1309
536.172	13.3848
540.882	65.8711
545.59	118.834
550.295	422.342
554.998	248.08
559.698	289.096
564.396	691.154
569.091	789.572
573.784	1411.21
578.474	2355.82
583.162	3347.85
587.847	3798.36
592.529	2886.49
597.209	2628.74
601.887	2290.3
606.562	2112.54
611.235	2509.75
615.905	3234.35
620.572	3426.32
625.237	3629.38
629.9	3209.17
634.56	2659.05
639.217	2407.01
643.872	2004.56
648.524	1002.49
653.174	988.902
657.821	496.023
662.466	491.957
667.108	251.348
671.748	478.141
676.385	581.691
681.02	622.879
685.652	486.957
690.281	198.363
694.908	200.606
699.533	152.57
704.155	8.82031
708.774	83.4219
713.391	175.262
718.005	43.7695
722.617	200.902
727.226	143.781
731.833	46.293
736.437	131.305
741.039	75.6016
745.638	94.2031
750.234	95.5664
754.828	32.5312
759.419	226.527
764.008	55.5469
768.595	185.441
773.178	106.508
777.759	147.051
782.338	307.137
786.914	189.609
791.488	383.84
796.059	134.156
800.627	294.918
805.193	539.613
809.756	618.012
814.317	673.418
818.875	561.473
823.431	1035.72
827.984	1107.62
832.534	998.934
837.082	1122.27
841.627	928.133
846.17	633.117
850.71	739.414
855.248	716.231
859.783	836.871
864.316	325.418
868.846	421.598
873.373	298.481
877.898	401.168
882.42	207.973
886.94	314.613
891.457	434.066
895.971	94.2031
900.483	65.3008
904.993	212.93
909.5	137.539
914.004	168.938
918.505	33.3867
923.004	17.2852
927.501	14.6367
931.995	167.418
936.486	125.672
940.975	20.1445
945.461	40.4531
949.945	105.367
954.426	195.231
958.904	114.777
963.38	12.0859
967.853	217.086
972.324	357.852
976.792	520.262
981.258	463.629
985.72	291.812
990.181	294.746
994.639	812.465
999.094	714.539
1003.55	1382.19
1008	1861.34
1012.44	2552.74
1016.89	2722.34
1021.33	3597.09
1025.77	4659.1
1030.21	6774.2
1034.64	8977.23
1039.07	9007.77
1043.5	6119.58
1047.93	3507.5
1052.35	2475.89
1056.78	1972.45
1061.19	1850.88
1065.61	2224.95
1070.02	1731.56
1074.43	1028.58
1078.84	560.387
1083.25	209.664
1087.65	414.441
1092.05	432.566
1096.45	293.82
1100.85	202.832
1105.24	58.8125
1109.63	214.879
1114.02	88.6953
1118.4	156.531
1122.78	255.348
1127.16	402.164
1131.54	39.1758
1135.92	61.5625
1140.29	816.961
1144.66	460.367
1149.02	726.828
1153.39	1457.32
1157.75	1343.82
1162.11	514.391
1166.46	555.059
1170.82	187.652
1175.17	235.34
1179.52	129.051
1183.86	293.652
1188.21	73.2852
1192.55	261.019
1196.89	57.9062
1201.22	213.805
1205.55	30.0039
1209.88	9.76562
1214.21	174.434
1218.54	398.219
1222.86	108.934
1227.18	63.7109
1231.5	352.438
1235.81	81.7266
1240.12	425.223
1244.43	151.121
1248.74	396.129
1253.04	319.266
1257.34	32.4727
1261.64	184.211
1265.94	571.699
1270.23	321.344
1274.52	291.949
1278.81	418.918
1283.1	192.07
1287.38	181.68
1291.66	191.254
1295.94	449.648
1300.21	498.219
1304.48	367.062
1308.75	195.711
1313.02	141.879
1317.29	486.812
1321.55	389.988
1325.81	224.312
1330.06	388.738
1334.32	238.652
1338.57	367.695
1342.82	178.078
1347.06	198.164
1351.31	503.117
1355.55	387.703
1359.79	377.769
1364.02	216.965
1368.26	601.398
1372.49	236.5
1376.71	366.711
1380.94	276.504
1385.16	186.742
1389.38	133.941
1393.6	273.5
1397.81	11.3867
1402.02	165.621
1406.23	281.215
1410.44	266
1414.64	178.367
1418.85	380.508
1423.04	349.543
1427.24	150.434
1431.43	75.5742
1435.62	92.3867
1439.81	74.8359
1444	359.769
1448.18	320.973
1452.36	284
1456.54	354.551
1460.71	169.035
1464.89	472.422
1469.06	333.496
1473.22	193.246
1477.39	142.527
1481.55	212.394
1485.71	382.852
1489.86	218.676
1494.02	50.6875
1498.17	587.481
1502.32	419.711
1506.46	277.34
1510.61	436.856
1514.75	404.316
1518.88	56.7773
1523.02	200.18
1527.15	277.535
1531.28	175.945
1535.41	218.531
1539.53	43.4844
1543.66	269.812
1547.78	191.383
1551.89	222.68
1556.01	401.488
1560.12	313.582
1564.23	354.629
1568.33	202.019
