Measurement: Raman, 514 nm, ccw, Raman Data Processed
Mineral: Senegalite
Rruff sample: R050239
Ideal chemistry: Al_2_PO_4_(OH)_3_H_2_O
Locality: Kourondicko iron ore (magnetite) deposit, Faleme River Basin, Senegal
Source: Marcus Origlieri
Description: Colorless prismatic crystals
Measured chemistry: Al_2.00_P_1.00_O_4_(OH)_3_Â·H_2_O
Pin_id: M00152
Orientation: Laser parallel to c* (0 0 1). Fiducial mark perpendicular to laser is parallel to a [1 0 0]
Raman shift (cm-1)	intensity
95.948	0
100.883	2267.48
105.815	3601.77
110.744	289.982
115.671	31.4844
120.596	4.72461
125.519	185.215
130.439	752.426
135.356	1837.91
140.271	761.906
145.184	398.205
150.094	233.49
155.002	366.316
159.908	205.66
164.811	454.744
169.711	495.912
174.61	409.568
179.505	416.068
184.399	645.035
189.29	1610.84
194.178	3870.58
199.064	2212.47
203.948	753.551
208.829	346.787
213.708	367.143
218.585	290.557
223.459	639.977
228.33	1517.33
233.199	4115.69
238.066	3915.22
242.93	1199.58
247.792	437.773
252.651	74.7441
257.508	91.1172
262.363	158.037
267.215	158.065
272.064	37.4395
276.912	135.361
281.756	251.951
286.598	674.506
291.438	1167.97
296.276	1813.17
301.111	2967
305.943	3197.33
310.773	2274.09
315.601	1793.17
320.426	1069.55
325.248	740.189
330.068	901.932
334.886	469.793
339.701	240.748
344.514	325.773
349.324	656.854
354.132	918.955
358.938	1909.06
363.741	3259.03
368.541	3227.83
373.339	2933.76
378.135	2252.93
382.928	879.723
387.718	165.438
392.506	107.611
397.292	81.9688
402.075	322.365
406.856	136.162
411.634	193.039
416.41	210.484
421.183	560.008
425.954	1054.58
430.722	1705.17
435.488	2220.76
440.251	2620.33
445.012	2169.86
449.77	1943.32
454.526	1195.71
459.28	999.012
464.03	1007.2
468.779	1551.27
473.525	3341.2
478.268	6426.03
483.009	5844.82
487.747	2639.59
492.483	1487.25
497.217	878.965
501.948	601.633
506.676	53.1484
511.402	79.2266
516.125	0.71875
520.846	153.969
525.565	365.773
530.281	589.422
534.994	1168.92
539.705	2071.7
544.413	2813.09
549.119	2728.12
553.822	2685.82
558.523	2377.79
563.222	1921.56
567.917	1757.21
572.611	1461.63
577.302	1052.74
581.99	665.5
586.676	779.848
591.359	130.742
596.04	161.176
600.718	60.1133
605.394	59.5234
610.067	297.387
614.737	665.672
619.406	580.981
624.071	777.84
628.734	679.477
633.395	913.023
638.053	956.812
642.708	359.047
647.361	182.191
652.012	101.402
656.66	181.195
661.305	461.031
665.948	385.195
670.588	1436.46
675.226	1714.83
679.861	1003.13
684.494	799.102
689.124	870.176
693.752	964.188
698.377	1781.28
702.999	2386.48
707.619	1671.35
712.237	728.18
716.852	398.004
721.464	580.715
726.074	420.598
730.681	646.269
735.286	407.465
739.888	833.543
744.488	537.227
749.085	466.492
753.68	7.6875
758.272	77.457
762.861	55.9844
767.448	90.668
772.033	25.3711
776.614	87.4258
781.194	82.0234
785.77	13.3984
790.345	200.836
794.916	202.047
799.485	31.1211
804.052	51.4453
808.616	262.117
813.177	209.168
817.736	127.043
822.292	171.617
826.846	16.4727
831.397	349.551
835.945	48.1602
840.491	331.176
845.035	237.383
849.576	333.481
854.114	444.727
858.65	394.258
863.183	449.133
867.713	275.309
872.241	715.699
876.767	566.449
881.29	533.461
885.81	671.723
890.328	984.91
894.843	624.672
899.356	595.781
903.866	551.25
908.373	610.453
912.878	358.508
917.38	485.184
921.88	397.676
926.377	442.766
930.872	229.043
935.364	320.84
939.853	148.59
944.34	254.5
948.824	219.059
953.306	240.109
957.785	211.941
962.261	229.281
966.735	213.926
971.207	287.738
975.675	427.637
980.141	530.758
984.605	248.738
989.066	386.078
993.524	484.582
997.98	582.352
1002.43	897.93
1006.88	1199.5
1011.33	1483.24
1015.78	1936.57
1020.22	3004.53
1024.66	5388.14
1029.1	6454.47
1033.53	5122.6
1037.97	2694.51
1042.4	1780.41
1046.82	1333.23
1051.25	1270.61
1055.67	1460.74
1060.09	2067.21
1064.51	2809.72
1068.92	2380.41
1073.33	1367.76
1077.74	768.211
1082.15	353.477
1086.55	437.164
1090.95	281.695
1095.35	359.633
1099.75	54.6758
1104.14	321.961
1108.53	119.984
1112.92	147.562
1117.31	135.117
1121.69	342.949
1126.07	68.168
1130.45	374.129
1134.82	418.289
1139.19	242.227
1143.57	368.82
1147.93	686.254
1152.3	759.356
1156.66	372.695
1161.02	427.711
1165.38	370.602
1169.73	296.367
1174.08	457.016
1178.43	100.457
1182.78	168.66
1187.12	141.531
1191.46	243.34
1195.8	104.91
1200.14	183.324
1204.47	128.809
1208.8	178.551
1213.13	2.50781
1217.46	250.262
1221.78	289.961
1226.1	179.906
1230.42	108.375
1234.73	550.488
1239.04	13.1523
1243.35	486.715
1247.66	181.16
1251.97	212.441
1256.27	26.207
1260.57	383.977
1264.86	360.594
1269.16	229.465
1273.45	390.328
1277.74	475.207
1282.03	474.254
1286.31	378.34
1290.59	367.531
1294.87	555.875
1299.14	513.328
1303.42	273.742
1307.69	424.828
1311.95	75.8125
1316.22	548.762
1320.48	554.461
1324.74	562.34
1329	530.633
1333.26	414.914
1337.51	154.883
1341.76	561.922
1346	517.074
1350.25	227.672
1354.49	521.32
1358.73	486.129
1362.96	549.199
1367.2	431.809
1371.43	254.832
1375.66	502.141
1379.88	640.273
1384.11	255.445
1388.33	244.965
1392.54	338.797
1396.76	387.023
1400.97	289.551
1405.18	353.215
1409.39	482.234
1413.59	144.613
1417.8	510.84
1421.99	309.133
1426.19	483.742
1430.38	455.871
1434.58	272.625
1438.77	48.4805
1442.95	68.2656
1447.13	501.356
1451.32	203.152
1455.49	259.559
1459.67	515.141
1463.84	357.879
1468.01	139.254
1472.18	305.176
1476.35	498.644
1480.51	593.703
1484.67	298.328
1488.83	82.5039
1492.98	263.25
1497.13	149.449
1501.28	627.144
1505.43	82.332
1509.57	259
1513.71	534.129
1517.85	130.227
1521.99	383.394
1526.12	119.75
1530.25	329.414
1534.38	72.5547
1538.5	417.25
1542.62	53.8086
1546.74	183.269
1550.86	257.754
1554.98	313.777
1559.09	1.05859
1563.2	369.887
1567.31	117.723
1571.41	0
