Measurement: Raman, 514 nm, ccw, Raman Data Processed
Mineral: Senegalite
Rruff sample: R050239
Ideal chemistry: Al_2_PO_4_(OH)_3_H_2_O
Locality: Kourondicko iron ore (magnetite) deposit, Faleme River Basin, Senegal
Source: Marcus Origlieri
Description: Colorless prismatic crystals
Measured chemistry: Al_2.00_P_1.00_O_4_(OH)_3_Â·H_2_O
Pin_id: M00389
Orientation: Laser parallel to -b* (0 -1 0). Fiducial mark perpendicular to laser is parallel to -c [0 0 -1]
Raman shift (cm-1)	intensity
114.44	0
119.365	5.33008
124.288	66.7656
129.209	595.941
134.127	1015.11
139.043	501.988
143.956	348.312
148.867	475.992
153.775	371.289
158.681	556.508
163.585	820.312
168.486	772.981
173.385	680.037
178.282	310.297
183.176	456.504
188.067	759.516
192.956	877.82
197.843	1311.67
202.727	1820.08
207.609	1016.55
212.489	463.887
217.366	429.572
222.24	446.606
227.112	410.981
231.982	526.668
236.849	829.023
241.714	508.182
246.577	226.719
251.437	269.857
256.294	236.846
261.149	438.312
266.002	748.32
270.852	1110.72
275.7	861.559
280.545	770.154
285.388	1185.55
290.229	2205.07
295.067	1986.01
299.902	761.232
304.735	574.633
309.566	430.783
314.394	408.643
319.22	706.137
324.043	1649.55
328.864	2002.85
333.682	1247.96
338.498	607.865
343.311	448.559
348.122	128.033
352.931	65.2793
357.737	105.272
362.54	304.984
367.341	302.422
372.14	156.66
376.936	79.5176
381.73	80.5078
386.521	1.67383
391.31	43.041
396.096	168.713
400.88	42.6426
405.661	111.291
410.44	69.7051
415.216	170.955
419.99	210.961
424.761	389.695
429.53	597.127
434.297	1404.26
439.061	1481.35
443.822	1578.24
448.581	1122.88
453.337	1152.55
458.091	1098.17
462.843	2026.69
467.592	2969.76
472.338	4067.38
477.082	4459.69
481.824	3189.58
486.563	1179.99
491.3	767.021
496.034	611.609
500.765	309.684
505.494	385.244
510.221	365.441
514.945	316.072
519.666	12.1289
524.385	35.4531
529.102	78.6289
533.816	165.383
538.527	237.748
543.236	157.07
547.943	289.541
552.647	478.486
557.348	383.24
562.047	401.881
566.744	385.781
571.438	519.945
576.129	541.492
580.818	673.1
585.504	712.477
590.188	770.26
594.87	828.621
599.549	1018.18
604.225	1017.49
608.899	1656.35
613.57	2030.14
618.239	2307.6
622.905	2277.34
627.569	1516.99
632.23	1249.08
636.889	657.309
641.545	637.533
646.198	618.881
650.849	325.049
655.498	283.59
660.144	325.586
664.787	455.315
669.428	173.014
674.067	194.633
678.703	146.922
683.336	236.469
687.967	313.639
692.595	181.578
697.221	555.975
701.844	544.375
706.465	248.32
711.083	104.582
715.698	89.9746
720.311	89.7949
724.922	84.4258
729.53	11.1641
734.135	98.1133
738.738	112.301
743.338	109.07
747.936	227.742
752.531	16.8281
757.124	221.742
761.714	168.367
766.302	14.082
770.887	214.406
775.469	245.656
780.049	74.8242
784.626	184.059
789.201	151.016
793.773	204.402
798.343	217.449
802.91	314.445
807.475	277.934
812.037	521.867
816.596	484.359
821.153	561.219
825.707	452.148
830.259	235.746
834.808	382.188
839.355	354.598
843.899	525.09
848.441	285.59
852.98	320.156
857.516	126.359
862.05	202.242
866.581	157.199
871.11	394.773
875.636	50.4062
880.159	85.2578
884.68	357.887
889.199	290.551
893.714	218.098
898.228	58.2578
902.738	316.68
907.246	203.926
911.752	98.5156
916.255	212.141
920.755	85.4609
925.253	229.238
929.748	324.547
934.241	179.848
938.731	240.719
943.218	41.0391
947.703	12.5781
952.186	275.832
956.665	139.453
961.142	281.246
965.617	515.957
970.089	49.5
974.558	79.4727
979.025	637.629
983.489	526.445
987.951	265.031
992.41	254.156
996.866	728.539
1001.32	748.777
1005.77	1018.62
1010.22	943.019
1014.67	1416.89
1019.11	2271.73
1023.55	3616.38
1027.99	4545.67
1032.42	4044.99
1036.86	2441.18
1041.29	1465.48
1045.72	981.039
1050.14	472.285
1054.56	719.894
1058.98	262.941
1063.4	634.359
1067.82	464.07
1072.23	974.644
1076.64	1425.86
1081.05	1084.69
1085.45	562.012
1089.85	340.418
1094.25	314.656
1098.65	7.25
1103.04	7.26953
1107.43	58.125
1111.82	414.637
1116.21	72.1367
1120.59	15.5391
1124.97	105.773
1129.35	66.7656
1133.73	17.3945
1138.1	283.738
1142.47	119.973
1146.84	306.176
1151.21	587.316
1155.57	543.394
1159.93	552.406
1164.29	331.359
1168.64	47.7305
1172.99	41.9414
1177.34	173.402
1181.69	223.695
1186.04	86.9531
1190.38	161.227
1194.72	277.797
1199.05	54.3438
1203.39	283.078
1207.72	72.3008
1212.05	228.191
1216.37	24.668
1220.7	37.0664
1225.02	403.027
1229.34	127.84
1233.65	116.578
1237.97	186.172
1242.28	131.34
1246.59	89.3867
1250.89	10.9961
1255.19	179.414
1259.49	435.738
1263.79	554.856
1268.09	304.434
1272.38	225.262
1276.67	415.121
1280.95	310.09
1285.24	450.188
1289.52	321.391
1293.8	508.516
1298.08	617.75
1302.35	472.871
1306.62	495.336
1310.89	452.715
1315.15	471.816
1319.42	628.102
1323.68	634.5
1327.94	452.016
1332.19	452.668
1336.44	539.449
1340.69	408.383
1344.94	675.547
1349.19	536.074
1353.43	374.574
1357.67	398.832
1361.9	548.746
1366.14	534.34
1370.37	394.988
1374.6	265.496
1378.83	413.109
1383.05	247.738
1387.27	718.918
1391.49	459.281
1395.7	298.418
1399.92	166.207
1404.13	202.098
1408.34	332.117
1412.54	371.441
1416.74	171.406
1420.94	343.777
1425.14	214.019
1429.34	148.922
1433.53	486.953
1437.72	91.5156
1441.9	218.656
1446.09	308.883
1450.27	193.41
1454.45	555.762
1458.63	81.1602
1462.8	267.879
1466.97	373.168
1471.14	145.066
1475.31	100.387
1479.47	243.836
1483.63	231.766
1487.79	281.082
1491.94	262.805
1496.09	108.949
1500.24	66.4844
1504.39	12.082
1508.54	69.1172
1512.68	89.9531
1516.82	271.894
1520.95	223.352
1525.09	100.113
1529.22	524.16
1533.35	113.262
1537.47	319.711
1541.6	461.234
1545.72	12.3164
1549.83	230.328
1553.95	599.379
1558.06	381.949
1562.17	16.4453
1566.28	261.078
1570.38	0.222656
