Measurement: Raman, 514 nm, ccw, Raman Data Processed
Mineral: Senegalite
Rruff sample: R050239
Ideal chemistry: Al_2_PO_4_(OH)_3_H_2_O
Locality: Kourondicko iron ore (magnetite) deposit, Faleme River Basin, Senegal
Source: Marcus Origlieri
Description: Colorless prismatic crystals
Measured chemistry: Al_2.00_P_1.00_O_4_(OH)_3_Â·H_2_O
Pin_id: M00172
Orientation: Laser parallel to -a* (-1 0 0). Fiducial mark perpendicular to laser is parallel to b [0 1 0]
Raman shift (cm-1)	intensity
94.714	0
99.649	1708.15
104.582	1630.53
109.512	300.975
114.44	215.383
119.365	1570.28
124.288	6303.25
129.209	13019.4
134.127	14473.7
139.043	4735.52
143.956	1429.82
148.867	583.99
153.775	312.394
158.681	963.936
163.585	2268.07
168.486	1741.78
173.385	1057.51
178.282	1165.84
183.176	873.291
188.067	1320.7
192.956	2195.94
197.843	1901.47
202.727	2069.85
207.609	1165.35
212.489	439.469
217.366	784.959
222.24	1772.64
227.112	4371.52
231.982	7919.28
236.849	8377.97
241.714	6308.7
246.577	2421.14
251.437	960.719
256.294	353.977
261.149	107.045
266.002	75.3613
270.852	62.0938
275.7	445.644
280.545	615.572
285.388	1419.54
290.229	3430.56
295.067	7315.64
299.902	11396.3
304.735	7967.41
309.566	4845.57
314.394	4313.61
319.22	3209.76
324.043	1505.14
328.864	830.551
333.682	105.654
338.498	192.518
343.311	91.3047
348.122	114.797
352.931	38.2344
357.737	69.6699
362.54	148.152
367.341	75.7871
372.14	187.41
376.936	78.0644
381.73	112.561
386.521	96.3477
391.31	164.272
396.096	37.8145
400.88	96.7598
405.661	1055.17
410.44	2219.91
415.216	3629.88
419.99	3872.2
424.761	2802.35
429.53	3282.44
434.297	5264.05
439.061	8299.01
443.822	10004.9
448.581	8558.24
453.337	7077.9
458.091	6787.3
462.843	6931.02
467.592	9042.1
472.338	13398.5
477.082	17578.3
481.824	16884.8
486.563	10117.7
491.3	5476.24
496.034	4003.76
500.765	2745.03
505.494	1739.12
510.221	1692.14
514.945	1635.72
519.666	1119.84
524.385	759.109
529.102	681.301
533.816	1011.77
538.527	1022.88
543.236	1210
547.943	1090.71
552.647	1143.12
557.348	996.898
562.047	600.953
566.744	54.2422
571.438	167.359
576.129	158.375
580.818	91.4766
585.504	133.324
590.188	10.0938
594.87	402.945
599.549	557.949
604.225	991.055
608.899	978.262
613.57	1624.54
618.239	2206.03
622.905	3203.57
627.569	3914.34
632.23	4673.03
636.889	4187.78
641.545	2660.69
646.198	1880.81
650.849	1237.11
655.498	837.211
660.144	643.434
664.787	708.316
669.428	658.082
674.067	1061.99
678.703	1071.64
683.336	705.586
687.967	539.754
692.595	535.496
697.221	902.269
701.844	779.629
706.465	1260.83
711.083	1082.66
715.698	1306.65
720.311	1246.08
724.922	1004.11
729.53	934.848
734.135	761.535
738.738	497.742
743.338	632.5
747.936	588.797
752.531	226.621
757.124	293.949
761.714	200.766
766.302	242.891
770.887	216.367
775.469	89.1055
780.049	537.57
784.626	109.109
789.201	16.25
793.773	145.969
798.343	165.613
802.91	4.44531
807.475	304.574
812.037	431.25
816.596	165.441
821.153	396.949
825.707	119.367
830.259	477.09
834.808	378.582
839.355	444.402
843.899	570.562
848.441	309.207
852.98	409.684
857.516	557.906
862.05	549.727
866.581	481.019
871.11	337.672
875.636	549.711
880.159	694.18
884.68	749.082
889.199	757.305
893.714	450.109
898.228	708.07
902.738	737.113
907.246	765.891
911.752	324.18
916.255	388.106
920.755	359.801
925.253	92.7422
929.748	468.16
934.241	55.8984
938.731	146.191
943.218	91.043
947.703	104.828
952.186	91.6484
956.665	99.9375
961.142	153.469
965.617	3.51172
970.089	270.481
974.558	320.688
979.025	231.176
983.489	548.199
987.951	329.246
992.41	505.715
996.866	916.137
1001.32	1250.57
1005.77	1363.89
1010.22	1579.32
1014.67	2079.84
1019.11	2837.38
1023.55	3681.95
1027.99	5628.58
1032.42	7598.31
1036.86	7576.3
1041.29	4970.44
1045.72	3480.04
1050.14	2825.41
1054.56	4110.1
1058.98	6495.8
1063.4	9867.9
1067.82	9998.22
1072.23	5794.68
1076.64	2782.12
1081.05	1521.34
1085.45	776.973
1089.85	403.402
1094.25	10.6055
1098.65	380.406
1103.04	230.035
1107.43	182.996
1111.82	476.719
1116.21	152.234
1120.59	229.156
1124.97	571.805
1129.35	479.844
1133.73	507.047
1138.1	1188.23
1142.47	2019.81
1146.84	3197.99
1151.21	5019.47
1155.57	5875.23
1159.93	3404.32
1164.29	1295.77
1168.64	738.379
1172.99	878.414
1177.34	971.738
1181.69	1208.34
1186.04	944.211
1190.38	823.18
1194.72	46.625
1199.05	638.453
1203.39	612.684
1207.72	177.152
1212.05	203.941
1216.37	170.102
1220.7	114.508
1225.02	46.1953
1229.34	27.5664
1233.65	167.457
1237.97	139.484
1242.28	98.4609
1246.59	20.6445
1250.89	245.152
1255.19	47.043
1259.49	62.0234
1263.79	53.1562
1268.09	362.398
1272.38	56.4961
1276.67	182.926
1280.95	477.496
1285.24	426.215
1289.52	387.898
1293.8	78.1016
1298.08	52.3008
1302.35	277.504
1306.62	289.852
1310.89	328.371
1315.15	432.066
1319.42	337.902
1323.68	485.785
1327.94	411.758
1332.19	162.648
1336.44	461.699
1340.69	525.918
1344.94	110.93
1349.19	370.969
1353.43	355.648
1357.67	547.035
1361.9	422.754
1366.14	257.527
1370.37	231.523
1374.6	450.805
1378.83	443.062
1383.05	325.973
1387.27	186.219
1391.49	307.488
1395.7	65.2852
1399.92	75.2812
1404.13	267.312
1408.34	63.1016
1412.54	23.9219
1416.74	73.0391
1420.94	9.84766
1425.14	205.785
1429.34	294.734
1433.53	288.191
1437.72	217.566
1441.9	195.574
1446.09	284.055
1450.27	353.961
1454.45	177.641
1458.63	608.602
1462.8	122.254
1466.97	3.125
1471.14	305.84
1475.31	380.074
1479.47	4.40234
1483.63	39.7656
1487.79	1.46875
