Measurement: Raman, 514 nm, ccw, Raman Data Processed
Mineral: Serandite
Rruff sample: R050261
Ideal chemistry: NaMn^2+^_2_Si_3_O_8_(OH)
Locality: Mont Saint-Hilaire, Rouville County, Quebec, Canada
Source: Marcus Origlieri
Description: Orange tabular single crystal associated with aegirine and microcline
Measured chemistry: Na_0.96_(Mn_0.92_Ca_0.06_Fe_0.01_)_2_Si_3.03_O_8_(OH)
Pin_id: L00791
Orientation: Laser parallel to -c* (0 0 -1). Fiducial mark perpendicular to laser is parallel to -a [-1 0 0]
Raman shift (cm-1)	intensity
93.48	0
98.416	4.37256
103.349	714.703
108.28	3701.06
113.208	2970.39
118.134	2645.21
123.058	1726.77
127.979	288.908
132.898	1073.35
137.814	2636.09
142.728	1267.28
147.639	38.5815
152.549	2.79224
157.455	341.271
162.359	1361.31
167.261	1591.12
172.161	689.766
177.058	140.54
181.952	120.819
186.845	5.37744
191.734	395.05
196.622	1266.9
201.507	1986.08
206.389	1440.97
211.269	1217.53
216.147	1478.72
221.022	2037.48
225.895	2733.77
230.765	1889.55
235.633	972.771
240.498	223.207
245.361	111.204
250.222	464.92
255.08	873.714
259.936	1536.07
264.789	2313.49
269.64	1759.48
274.488	1588.92
279.334	1635.32
284.178	2339.5
289.019	2757.31
293.857	2339.51
298.693	1600.78
303.527	1075.06
308.358	491.703
313.187	276.647
318.013	145.833
322.837	230.201
327.659	595.721
332.478	893.285
337.294	881.063
342.108	641.946
346.92	577.923
351.729	528.589
356.535	816.097
361.34	1403.26
366.141	2123.46
370.94	1752.67
375.737	628.892
380.531	42.103
385.323	96.7512
390.113	58.2251
394.9	41.2334
399.684	79.1018
404.466	400.023
409.245	1010.25
414.022	2067.94
418.797	2649.22
423.569	2082.66
428.338	1294.57
433.105	684.462
437.87	434.573
442.632	338.234
447.391	381.621
452.149	322.653
456.903	513.167
461.655	802.522
466.405	622.822
471.152	283.833
475.897	216.544
480.639	302.949
485.378	348.093
490.116	432.986
494.85	473.654
499.582	394.149
504.312	412.507
509.039	571.622
513.764	732.568
518.486	603.288
523.206	661.799
527.923	517.954
532.638	251.031
537.35	97.1107
542.059	37.4834
546.766	9.01904
551.471	42.3606
556.173	35.2815
560.873	26.9728
565.57	34.8884
570.264	31.071
574.957	34.6029
579.646	31.4999
584.333	61.8268
589.018	73.6215
593.7	124.889
598.379	157.69
603.056	266.029
607.73	242.927
612.402	341.391
617.072	419.467
621.739	567.312
626.403	679.333
631.065	912.972
635.724	1235.45
640.381	1779.77
645.035	2514.93
649.687	3848.45
654.336	6524.34
658.983	12400.1
663.627	26785.1
668.268	48846.6
672.907	36745.2
677.544	15170.2
682.178	7344.26
686.809	4412.11
691.438	3205.97
696.065	3074.96
700.688	4154.04
705.31	5104.44
709.929	3409.86
714.545	1956.01
719.158	1380.31
723.77	1050.43
728.378	578.954
732.984	386.633
737.588	368.975
742.189	257.047
746.787	150.514
751.383	103.779
755.976	82.853
760.567	33.2544
765.155	11.6897
769.741	24.4316
774.324	32.5649
778.904	57.1948
783.482	18.6477
788.058	30.8369
792.631	66.7896
797.201	75.114
801.769	64.8076
806.334	35.6912
810.897	29.6526
815.457	15.363
820.014	78.4446
824.569	77.7019
829.122	83.2937
833.671	150.262
838.219	197.583
842.763	147.228
847.306	175.125
851.845	266.287
856.382	191.703
860.917	276.353
865.448	332.239
869.978	277.368
874.505	293.743
879.029	308.373
883.55	483.245
888.069	773.375
892.586	1536.81
897.1	3090.35
901.611	4014.23
906.12	2777.32
910.626	1856.81
915.129	1497.44
919.63	1319.54
924.129	1220.92
928.625	1062.79
933.118	1105.62
937.609	1101.52
942.097	1054.88
946.582	1253.36
951.065	1525.76
955.546	2160.15
960.023	3033.98
964.499	4392.24
968.971	6095.93
973.441	7674.04
977.909	8233.55
982.374	7411.46
986.836	5949.77
991.295	5098.69
995.753	5331.57
1000.21	5997.04
1004.66	6088.56
1009.11	6680.1
1013.55	10069.1
1018	17471.1
1022.44	21744.9
1026.88	14986
1031.32	8162.43
1035.75	4785.32
1040.18	3118.97
1044.61	2283.39
1049.04	1802.88
1053.46	1553.33
1057.88	1301.74
1062.3	1098.26
1066.71	1041.86
1071.13	942.841
1075.54	851.457
1079.94	817.898
1084.35	769.083
1088.75	584.17
1093.15	513.141
1097.55	469.661
1101.94	335.883
1106.34	364.277
1110.73	275.999
1115.11	208.773
1119.5	480.67
1123.88	543.434
1128.26	427.3
1132.63	77.1633
1137.01	33.6941
1141.38	8.24634
1145.75	60.0259
1150.12	4.29639
1154.48	35.1675
1158.84	3.53076
1163.2	1.82178
1167.55	5.56885
1171.91	8.25244
1176.26	8.66797
1180.61	60.6658
1184.95	0.698486
1189.29	1.26465
1193.63	28.4153
1197.97	31.8623
1202.31	15.6641
1206.64	2.10962
1210.97	31.4639
1215.29	37.894
1219.62	94.416
1223.94	66.3272
1228.26	70.0544
1232.57	50.3098
1236.89	142.115
1241.2	82.9514
1245.51	99.404
1249.81	120.863
1254.12	66.8542
1258.42	88.3762
1262.72	66.4387
1267.01	88.3545
1271.3	185.975
1275.59	152.356
1279.88	150.357
1284.17	175.98
1288.45	198.372
1292.73	165.885
1297.01	172.493
1301.28	145.213
1305.55	234.556
1309.82	214.655
1314.09	163.008
1318.35	196.759
1322.61	238.434
1326.87	193.355
1331.13	259.461
1335.38	230.854
1339.63	334.605
1343.88	320.093
1348.12	400.83
1352.37	559.875
1356.61	671.302
1360.85	829.521
1365.08	1053.17
1369.31	1249.43
1373.54	1362.71
1377.77	1367.65
1381.99	1309.3
1386.22	1173.79
1390.43	955.558
1394.65	795.83
1398.87	558.41
1403.08	461.076
1407.29	330.285
1411.49	255.223
1415.69	184.165
1419.89	159.098
1424.09	136.443
1428.29	100.317
1432.48	122.109
1436.67	51.1084
1440.86	96.1892
1445.04	12.0725
1449.23	82.9585
1453.4	29.4561
1457.58	24.2307
1461.76	82.0601
1465.93	127.891
1470.1	47.7559
1474.26	99.6719
1478.43	73.7048
1482.59	78.8967
1486.75	190.31
1490.9	110.852
1495.06	121.494
1499.21	87.292
1503.35	34.8105
1507.5	68.4263
1511.64	31.2932
1515.78	80.2285
1519.92	52.0523
1524.05	91.5891
1528.18	31.3408
1532.31	4.29639
1536.44	15.395
1540.56	48.9663
1544.69	22.9526
1548.8	56.8994
1552.92	216.661
1557.03	63.1895
1561.14	72.1416
1565.25	2.99219
1569.36	121.875
