Measurement: Raman, 514 nm, ccw, Raman Data Processed
Mineral: Serandite
Rruff sample: R050261
Ideal chemistry: NaMn^2+^_2_Si_3_O_8_(OH)
Locality: Mont Saint-Hilaire, Rouville County, Quebec, Canada
Source: Marcus Origlieri
Description: Orange tabular single crystal associated with aegirine and microcline
Measured chemistry: Na_0.96_(Mn_0.92_Ca_0.06_Fe_0.01_)_2_Si_3.03_O_8_(OH)
Pin_id: L01217
Orientation: Laser parallel to (0 -1 -1). Fiducial mark perpendicular to laser is parallel to -a [-1 0 0]
Raman shift (cm-1)	intensity
93.48	0
98.416	155.79
103.349	353.774
108.28	1602.75
113.208	1482.33
118.134	2028.03
123.058	2109.43
127.979	1008.93
132.898	1962.76
137.814	3497.55
142.728	1903.5
147.639	116.079
152.549	48.9463
157.455	101.329
162.359	726.913
167.261	1098.59
172.161	648.843
177.058	115.302
181.952	92.0073
186.845	322.019
191.734	822.381
196.622	1613.92
201.507	2618.46
206.389	2297.3
211.269	1528.32
216.147	1420.75
221.022	1701.19
225.895	2331.86
230.765	1426.38
235.633	772.673
240.498	220.106
245.361	126.654
250.222	52.1665
255.08	467.101
259.936	1556.69
264.789	1611.72
269.64	1576.78
274.488	1795.67
279.334	1795.78
284.178	2219.98
289.019	2798.96
293.857	2631.76
298.693	2421.32
303.527	1977.62
308.358	1019.49
313.187	520.898
318.013	408.482
322.837	415.343
327.659	685.648
332.478	774.395
337.294	864.587
342.108	759.98
346.92	864.705
351.729	1368.01
356.535	1870.4
361.34	2399.04
366.141	2944.89
370.94	2196.91
375.737	910.08
380.531	505.383
385.323	206.814
390.113	173.782
394.9	63.9829
399.684	264.098
404.466	611.821
409.245	1498.5
414.022	2736.89
418.797	3519.24
423.569	2623.21
428.338	1373.33
433.105	609.688
437.87	306.417
442.632	249.667
447.391	250.745
452.149	299.3
456.903	715.186
461.655	1414.12
466.405	942.36
471.152	130.31
475.897	69.0347
480.639	3.8667
485.378	49.9048
490.116	31.8008
494.85	419.294
499.582	308.635
504.312	367.688
509.039	729.525
513.764	492.209
518.486	266.612
523.206	247.739
527.923	212.435
532.638	57.6475
537.35	112.51
542.059	29.29
546.766	22.8379
551.471	25.856
556.173	11.4678
560.873	46.9824
565.57	52.2441
570.264	54.3682
574.957	84.644
579.646	5.99219
584.333	127.301
589.018	220.843
593.7	208.654
598.379	94.7485
603.056	287.087
607.73	295.738
612.402	458.815
617.072	531.759
621.739	662.826
626.403	1225.87
631.065	1092.61
635.724	1373.23
640.381	1895.36
645.035	2661.18
649.687	4140.52
654.336	6819.01
658.983	13469
663.627	27622
668.268	47864.9
672.907	38082.1
677.544	15881.5
682.178	7573.68
686.809	4748.28
691.438	3394.5
696.065	3709.37
700.688	5089.52
705.31	6284.89
709.929	4210.49
714.545	2728.92
719.158	2459.05
723.77	2138.16
728.378	1017.15
732.984	513.481
737.588	389.893
742.189	233.967
746.787	182.819
751.383	77.3682
755.976	56.5772
760.567	69.3477
765.155	18.3379
769.741	66.3555
774.324	61.8779
778.904	29.9326
783.482	83.6504
788.058	141.889
792.631	31.8701
797.201	142.259
801.769	38.8506
806.334	73.8545
810.897	120.828
815.457	53.7725
820.014	137.838
824.569	274.177
829.122	366.862
833.671	180.035
838.219	294.549
842.763	328.513
847.306	381.783
851.845	553.322
856.382	568.201
860.917	717.416
865.448	618.906
869.978	634.777
874.505	678.95
879.029	701.583
883.55	802.693
888.069	1093.01
892.586	1836.85
897.1	3429.6
901.611	4274.65
906.12	2831.55
910.626	1805.18
915.129	1432.86
919.63	1198.16
924.129	1125.74
928.625	1238.54
933.118	979.158
937.609	881.015
942.097	1084.99
946.582	1285.48
951.065	1721.61
955.546	2236.05
960.023	3392.97
964.499	4730.49
968.971	6828.44
973.441	8311.82
977.909	8775.61
982.374	8042.77
986.836	6230.59
991.295	5303.61
995.753	5661.44
1000.21	6882.73
1004.66	6764.23
1009.11	7422.46
1013.55	11307.2
1018	19224.3
1022.44	23260
1026.88	15710.3
1031.32	8659.77
1035.75	5051.62
1040.18	3372.56
1044.61	2404.76
1049.04	1783.8
1053.46	1456.05
1057.88	1199.83
1062.3	1003.37
1066.71	938.973
1071.13	764.487
1075.54	639.984
1079.94	620.874
1084.35	614.279
1088.75	358.139
1093.15	436.389
1097.55	242.773
1101.94	302.29
1106.34	128.716
1110.73	107.256
1115.11	90.8213
1119.5	20.6074
1123.88	109.613
1128.26	198.06
1132.63	19.5918
1137.01	71.9375
1141.38	33.2588
1145.75	16.9014
1150.12	80.4473
1154.48	136.462
1158.84	89.7295
1163.2	0.550781
1167.55	10.9893
1171.91	32.1543
1176.26	67.8525
1180.61	82.3154
1184.95	3.00098
1189.29	103.63
1193.63	133.414
1197.97	210.423
1202.31	64.3936
1206.64	70.04
1210.97	76.9365
1215.29	53.2773
1219.62	29.9385
1223.94	63.0137
1228.26	83.3438
1232.57	225.126
1236.89	196.377
1241.2	312.116
1245.51	115.353
1249.81	145.721
1254.12	89.9131
1258.42	230.175
1262.72	379.873
1267.01	326.274
1271.3	401.679
1275.59	332.542
1279.88	265.236
1284.17	276.023
1288.45	256.879
1292.73	241.427
1297.01	366.675
1301.28	211.898
1305.55	360.434
1309.82	297.899
1314.09	472.167
1318.35	392.254
1322.61	283.005
1326.87	348.736
1331.13	198.488
1335.38	396.887
1339.63	305.533
1343.88	331.12
1348.12	414.262
1352.37	615.858
1356.61	740.135
1360.85	994.42
1365.08	919.773
1369.31	1575.95
1373.54	1446.27
1377.77	1723.6
1381.99	1569.26
1386.22	1185.27
1390.43	1075.38
1394.65	817.768
1398.87	602.115
1403.08	555.807
1407.29	304.551
1411.49	287.631
1415.69	264.279
1419.89	51.1738
1424.09	128.328
1428.29	125.574
1432.48	115.596
1436.67	93.4609
1440.86	243.647
1445.04	390.068
1449.23	720.82
1453.4	449.684
1457.58	524.791
1461.76	372.19
1465.93	277.107
1470.1	424.283
1474.26	163.699
1478.43	259.35
1482.59	218.945
1486.75	139.498
1490.9	121.289
1495.06	76.2754
1499.21	166.588
1503.35	32.2148
1507.5	25.123
1511.64	182.705
1515.78	53.1934
1519.92	100.361
1524.05	23.3496
1528.18	117.818
1532.31	214.889
1536.44	125.438
1540.56	305.711
1544.69	8.87109
1548.8	259.322
1552.92	138.295
1557.03	8.45117
1561.14	221.59
1565.25	139.594
1569.36	3.64648
