Measurement: Raman, 514 nm, ccw, Raman Data Processed
Mineral: Serandite
Rruff sample: R050261
Ideal chemistry: NaMn^2+^_2_Si_3_O_8_(OH)
Locality: Mont Saint-Hilaire, Rouville County, Quebec, Canada
Source: Marcus Origlieri
Description: Orange tabular single crystal associated with aegirine and microcline
Measured chemistry: Na_0.96_(Mn_0.92_Ca_0.06_Fe_0.01_)_2_Si_3.03_O_8_(OH)
Pin_id: L01217
Orientation: Laser parallel to (0 -1 -1). Fiducial mark perpendicular to laser is parallel to -a [-1 0 0]
Raman shift (cm-1)	intensity
93.48	0
98.416	12.7212
103.349	249.398
108.28	1528.3
113.208	1743.53
118.134	2992.5
123.058	3489.77
127.979	619.917
132.898	909.312
137.814	2437.15
142.728	2506.16
147.639	314.256
152.549	51.1694
157.455	30.3648
162.359	682.511
167.261	1763.3
172.161	2532.38
177.058	1343.14
181.952	854.14
186.845	395.055
191.734	201.965
196.622	232.944
201.507	290.536
206.389	19.6118
211.269	110.64
216.147	225.594
221.022	181.837
225.895	506.97
230.765	834.549
235.633	1187.97
240.498	1210.84
245.361	862.217
250.222	716.986
255.08	855.91
259.936	1456.81
264.789	1188.6
269.64	996.383
274.488	881.23
279.334	1139.49
284.178	1653.06
289.019	2024.83
293.857	1871.06
298.693	1548.73
303.527	1216.93
308.358	766.895
313.187	362.682
318.013	166.582
322.837	178.323
327.659	224.884
332.478	215.259
337.294	107.444
342.108	87.4365
346.92	9.2251
351.729	76.7769
356.535	151.099
361.34	294.198
366.141	340.071
370.94	326.701
375.737	101.111
380.531	8.74023
385.323	131.3
390.113	16.0552
394.9	93.5786
399.684	8.39453
404.466	50.3355
409.245	130.792
414.022	358.062
418.797	416.144
423.569	497.035
428.338	307.726
433.105	76.2119
437.87	89.479
442.632	5.45215
447.391	6.9624
452.149	120.806
456.903	145.284
461.655	459.534
466.405	450.565
471.152	387.406
475.897	253.981
480.639	380.391
485.378	538.644
490.116	912.39
494.85	1345.92
499.582	989.803
504.312	660.717
509.039	605.574
513.764	533.386
518.486	523.194
523.206	646.737
527.923	838.038
532.638	842.31
537.35	814.044
542.059	794.545
546.766	787.349
551.471	669.869
556.173	493.54
560.873	498.299
565.57	310.042
570.264	298.712
574.957	129.29
579.646	298.469
584.333	181.452
589.018	118.7
593.7	187.684
598.379	168.131
603.056	196.312
607.73	121.44
612.402	283.516
617.072	379.665
621.739	588.134
626.403	703.682
631.065	811.802
635.724	1297.13
640.381	1689.75
645.035	2647.49
649.687	3847.5
654.336	6468.46
658.983	13089.9
663.627	27485.1
668.268	47598.6
672.907	37167.7
677.544	15585.6
682.178	7557.5
686.809	4676.7
691.438	3594.75
696.065	4019.61
700.688	5611.48
705.31	6525.78
709.929	4158.99
714.545	2295.66
719.158	1674.13
723.77	1015.38
728.378	734.945
732.984	443.362
737.588	319.655
742.189	180.772
746.787	228.712
751.383	101.479
755.976	96.0732
760.567	40.4224
765.155	16.4722
769.741	44.3794
774.324	51.3565
778.904	28.9966
783.482	15.5464
788.058	59.456
792.631	70.9858
797.201	6.99707
801.769	64.4082
806.334	68.3491
810.897	92.3018
815.457	76.7822
820.014	88.0254
824.569	11.5317
829.122	34.8296
833.671	87.0908
838.219	64.4644
842.763	104.835
847.306	41.0581
851.845	38.1543
856.382	168.14
860.917	215.022
865.448	241.805
869.978	116.491
874.505	144.127
879.029	279.712
883.55	324.558
888.069	683.015
892.586	1406.73
897.1	2387.9
901.611	2638.32
906.12	1644.73
910.626	1022.12
915.129	783.093
919.63	855.325
924.129	791.684
928.625	761.059
933.118	833.273
937.609	816.113
942.097	968.356
946.582	1376.65
951.065	1806.74
955.546	2523.32
960.023	3678.48
964.499	5152.23
968.971	6753.87
973.441	7928.87
977.909	8126.22
982.374	7549.71
986.836	6951.76
991.295	6626.66
995.753	6867.44
1000.21	7531.04
1004.66	8273.8
1009.11	10504.6
1013.55	16676.3
1018	26853.2
1022.44	30742.9
1026.88	19656.4
1031.32	10355.6
1035.75	6118.13
1040.18	3923.22
1044.61	2854.09
1049.04	2178.1
1053.46	1666.07
1057.88	1326.39
1062.3	1261.06
1066.71	995.67
1071.13	850.896
1075.54	812.349
1079.94	677.824
1084.35	560.9
1088.75	424.349
1093.15	400.17
1097.55	352.765
1101.94	261.688
1106.34	275.852
1110.73	67.7666
1115.11	70.4522
1119.5	282.799
1123.88	233.738
1128.26	271.33
1132.63	142.635
1137.01	28.5811
1141.38	112.841
1145.75	41.8135
1150.12	42.6846
1154.48	125.895
1158.84	39.4531
1163.2	27.7715
1167.55	30.04
1171.91	19.0303
1176.26	11.8145
1180.61	3.53809
1184.95	14.1074
1189.29	16.5225
1193.63	43.2207
1197.97	55.8662
1202.31	190.619
1206.64	7.18457
1210.97	69.5019
1215.29	142.412
1219.62	13.8633
1223.94	92.4375
1228.26	101.502
1232.57	47.376
1236.89	70.0117
1241.2	25.4131
1245.51	120.513
1249.81	249.341
1254.12	181.938
1258.42	35.3525
1262.72	146.718
1267.01	119.525
1271.3	193.436
1275.59	218.615
1279.88	220.461
1284.17	177.052
1288.45	253.858
1292.73	224.088
1297.01	218.153
1301.28	269.302
1305.55	169.994
1309.82	153.467
1314.09	204.645
1318.35	254.288
1322.61	68.3213
1326.87	157.436
1331.13	161.568
1335.38	146.848
1339.63	270.38
1343.88	163.872
1348.12	115.793
1352.37	261.965
1356.61	186.249
1360.85	197.315
1365.08	262.494
1369.31	388.305
1373.54	309.593
1377.77	399.697
1381.99	355.954
1386.22	232.191
1390.43	259.149
1394.65	149.057
1398.87	247.201
1403.08	7.61523
1407.29	21.4287
1411.49	4.31445
1415.69	57.4248
1419.89	178.236
1424.09	68.0439
1428.29	18.2891
1432.48	69.1826
1436.67	178.581
1440.86	228.961
1445.04	357.135
1449.23	217.557
1453.4	359.175
1457.58	300.923
1461.76	339.874
1465.93	367.022
1470.1	240.208
1474.26	127.594
1478.43	38.1152
1482.59	156.65
1486.75	206.308
1490.9	71.6885
1495.06	51.9492
1499.21	8.53711
1503.35	167.379
1507.5	59.25
1511.64	115.399
1515.78	102.45
1519.92	64.2891
1524.05	33.7139
1528.18	257.3
1532.31	16.6221
1536.44	131.653
1540.56	168.403
1544.69	93.4092
1548.8	163.197
1552.92	305.318
1557.03	168.757
1561.14	165.343
1565.25	157.828
1569.36	2.33691
