Measurement: Raman, 514 nm, ccw, Raman Data Processed
Mineral: Serandite
Rruff sample: R050261
Ideal chemistry: NaMn^2+^_2_Si_3_O_8_(OH)
Locality: Mont Saint-Hilaire, Rouville County, Quebec, Canada
Source: Marcus Origlieri
Description: Orange tabular single crystal associated with aegirine and microcline
Measured chemistry: Na_0.96_(Mn_0.92_Ca_0.06_Fe_0.01_)_2_Si_3.03_O_8_(OH)
Pin_id: L01713
Orientation: Laser parallel to -a* (-1 0 0). Fiducial mark perpendicular to laser is parallel to b [0 1 0]
Raman shift (cm-1)	intensity
93.48	0
98.416	139.345
103.349	1210.87
108.28	2136.77
113.208	2076.78
118.134	1957.37
123.058	696.556
127.979	1161.86
132.898	3501.22
137.814	4442.4
142.728	1702.73
147.639	97.8784
152.549	527.457
157.455	1741.64
162.359	2572.39
167.261	2488.86
172.161	1117.34
177.058	335.679
181.952	63.7092
186.845	273.502
191.734	901.99
196.622	1148.09
201.507	1004.51
206.389	559.871
211.269	365.224
216.147	454.611
221.022	586.965
225.895	549.138
230.765	19.0789
235.633	194.267
240.498	240.925
245.361	12.0706
250.222	447.205
255.08	1098.3
259.936	1791.86
264.789	2126.19
269.64	2217.88
274.488	2228.67
279.334	2926.33
284.178	4174.62
289.019	4748.66
293.857	4498.55
298.693	3820.2
303.527	2601.9
308.358	1477.28
313.187	898.554
318.013	880.888
322.837	1270.76
327.659	1601.11
332.478	1482.55
337.294	1114.39
342.108	1109.88
346.92	1356.67
351.729	1895.7
356.535	2918.96
361.34	4614.4
366.141	5130.01
370.94	3473.77
375.737	1654.67
380.531	641.482
385.323	183.56
390.113	14.8872
394.9	24.9702
399.684	426.082
404.466	1167.38
409.245	2784.84
414.022	4959.42
418.797	5446.42
423.569	3977.26
428.338	1960.7
433.105	895.963
437.87	254.363
442.632	28.3023
447.391	82.4941
452.149	118.202
456.903	296.591
461.655	661.649
466.405	369.933
471.152	145.78
475.897	40.251
480.639	152.17
485.378	530.492
490.116	1407.74
494.85	1197.86
499.582	429.823
504.312	314.702
509.039	537.437
513.764	204.047
518.486	315.608
523.206	614.193
527.923	883.116
532.638	864.557
537.35	794.539
542.059	685.164
546.766	581.366
551.471	361.234
556.173	251.644
560.873	66.5454
565.57	21.8413
570.264	61.3643
574.957	32.1743
579.646	41.9795
584.333	41.1274
589.018	10.356
593.7	74.5498
598.379	137.015
603.056	102.985
607.73	179.369
612.402	198.185
617.072	345.854
621.739	537.321
626.403	613.828
631.065	1121.76
635.724	1503.07
640.381	2128.77
645.035	3453.46
649.687	5594.25
654.336	10432.2
658.983	22952.9
663.627	44327.6
668.268	45766.1
672.907	22397
677.544	10039.3
682.178	5743.4
686.809	3755.77
691.438	2912.85
696.065	3088.18
700.688	3629.89
705.31	2970.56
709.929	2253.1
714.545	2297.82
719.158	2592.23
723.77	1468.38
728.378	805.787
732.984	458.756
737.588	332.724
742.189	224
746.787	174.584
751.383	124.413
755.976	141.299
760.567	26.5762
765.155	116.486
769.741	80.5244
774.324	8.38574
778.904	3.67529
783.482	84.3149
788.058	8.38281
792.631	43.477
797.201	6.04394
801.769	31.5181
806.334	81.0478
810.897	89.769
815.457	51.7002
820.014	42.9136
824.569	32.543
829.122	19.208
833.671	111.372
838.219	77.001
842.763	66.1831
847.306	97.0415
851.845	111.77
856.382	101.376
860.917	215.753
865.448	111.955
869.978	306.009
874.505	361.868
879.029	448.858
883.55	683.269
888.069	1403.44
892.586	2818.43
897.1	4448.72
901.611	3995.62
906.12	2205.95
910.626	1355.57
915.129	886.469
919.63	830.332
924.129	797.599
928.625	814.113
933.118	760.779
937.609	766.115
942.097	801.86
946.582	1098.15
951.065	1549.13
955.546	2433.49
960.023	3596.39
964.499	5565.15
968.971	7635.91
973.441	10400.8
977.909	12557.5
982.374	10518.8
986.836	7403.73
991.295	6077.41
995.753	6258.7
1000.21	6662.43
1004.66	7135.77
1009.11	9978.55
1013.55	16661.1
1018	25375.3
1022.44	24445.4
1026.88	14960.4
1031.32	8270.33
1035.75	4842.48
1040.18	3205.04
1044.61	2285.41
1049.04	1595.91
1053.46	1446.4
1057.88	994.642
1062.3	869.105
1066.71	826.913
1071.13	731.767
1075.54	593.695
1079.94	548.387
1084.35	435.324
1088.75	359.074
1093.15	324.858
1097.55	271.923
1101.94	246.179
1106.34	83.8164
1110.73	168.681
1115.11	117.613
1119.5	336.008
1123.88	414.748
1128.26	238.517
1132.63	181.45
1137.01	14.6758
1141.38	38.3203
1145.75	23.0947
1150.12	8.70703
1154.48	71.0469
1158.84	36.5586
1163.2	112.128
1167.55	87.6943
1171.91	94.9336
1176.26	25.9629
1180.61	80.1982
1184.95	48.0234
1189.29	21.4561
1193.63	61.5195
1197.97	216.307
1202.31	64.167
1206.64	40.6621
1210.97	51.0996
1215.29	91.9062
1219.62	152.418
1223.94	323.156
1228.26	145.726
1232.57	232.619
1236.89	157.331
1241.2	20.6934
1245.51	130.767
1249.81	202.57
1254.12	225.494
1258.42	159.934
1262.72	158.168
1267.01	206.009
1271.3	162.718
1275.59	122.691
1279.88	167.869
1284.17	156.467
1288.45	178.469
1292.73	243.496
1297.01	221.29
1301.28	112.72
1305.55	143.767
1309.82	110.558
1314.09	252.342
1318.35	264.777
1322.61	236.861
1326.87	117.267
1331.13	190.397
1335.38	188.624
1339.63	312.554
1343.88	303.875
1348.12	209.116
1352.37	276.148
1356.61	476.344
1360.85	507.007
1365.08	550.265
1369.31	644.356
1373.54	760.29
1377.77	673.387
1381.99	612.295
1386.22	525.801
1390.43	553.188
1394.65	398.135
1398.87	53.9922
1403.08	276.975
1407.29	143.68
1411.49	128.947
1415.69	110.943
1419.89	93.0234
1424.09	52.9434
1428.29	67.709
1432.48	90.3262
1436.67	113.484
1440.86	18.8145
1445.04	6.2207
1449.23	143.727
1453.4	67.8242
1457.58	5.95117
1461.76	321.129
1465.93	136.719
1470.1	159.658
1474.26	77.7344
1478.43	130.078
1482.59	102.357
1486.75	253.617
1490.9	320.299
1495.06	172.404
1499.21	240.592
1503.35	109.633
1507.5	71.0664
1511.64	292.818
1515.78	166.887
1519.92	221.082
1524.05	115.391
1528.18	269.19
1532.31	274.353
1536.44	153.117
1540.56	168.445
1544.69	277.445
1548.8	200.711
1552.92	183.879
1557.03	330.045
1561.14	151.057
1565.25	31.8633
1569.36	0.427734
