Measurement: Raman, 514 nm, ccw, Raman Data Processed
Mineral: Serandite
Rruff sample: R050261
Ideal chemistry: NaMn^2+^_2_Si_3_O_8_(OH)
Locality: Mont Saint-Hilaire, Rouville County, Quebec, Canada
Source: Marcus Origlieri
Description: Orange tabular single crystal associated with aegirine and microcline
Measured chemistry: Na_0.96_(Mn_0.92_Ca_0.06_Fe_0.01_)_2_Si_3.03_O_8_(OH)
Pin_id: L01881
Orientation: Laser parallel to (1 1 0). Fiducial mark perpendicular to laser is parallel to -c [0 0 -1]
Raman shift (cm-1)	intensity
93.48	0
98.416	53.1868
103.349	289.911
108.28	1411.25
113.208	1496.72
118.134	2929.59
123.058	2266.88
127.979	497.01
132.898	1587.85
137.814	3618.67
142.728	3236.12
147.639	557.895
152.549	33.8774
157.455	437.721
162.359	1747.17
167.261	2645.68
172.161	2621.57
177.058	1066.66
181.952	737.546
186.845	960.381
191.734	1816.2
196.622	1924.99
201.507	1136.06
206.389	375.491
211.269	56.7043
216.147	88.3147
221.022	89.5925
225.895	97.843
230.765	273.648
235.633	476.399
240.498	436.963
245.361	244.903
250.222	575.123
255.08	1391.59
259.936	2309.82
264.789	1939.2
269.64	1323.76
274.488	1204.26
279.334	1457.48
284.178	2133.37
289.019	2837.88
293.857	3397.02
298.693	3565.78
303.527	3135.58
308.358	2100.55
313.187	1551.24
318.013	1585.22
322.837	2058.71
327.659	2671.63
332.478	2482.92
337.294	1356.58
342.108	587.575
346.92	440.898
351.729	629.521
356.535	1472.43
361.34	3005.74
366.141	4359.35
370.94	3190.12
375.737	1263.07
380.531	361.283
385.323	35.2437
390.113	177.761
394.9	79.7959
399.684	234.097
404.466	800.42
409.245	1957.84
414.022	3906.64
418.797	5200.71
423.569	4332.03
428.338	2349.58
433.105	984.645
437.87	428.688
442.632	117.368
447.391	63.2529
452.149	6.54199
456.903	217.167
461.655	503.845
466.405	789.455
471.152	812.854
475.897	1338.35
480.639	1526.95
485.378	2459.63
490.116	3893.46
494.85	4536.51
499.582	3174.71
504.312	2054.09
509.039	1585.9
513.764	1389.14
518.486	1407.63
523.206	1955.33
527.923	2074.25
532.638	1340.71
537.35	847.28
542.059	592.43
546.766	548.69
551.471	478.245
556.173	267.42
560.873	106.879
565.57	121.318
570.264	81.8872
574.957	43.3489
579.646	5.43457
584.333	3.41992
589.018	0.484619
593.7	33.0156
598.379	90.6016
603.056	96.0039
607.73	49.1404
612.402	189.059
617.072	187.297
621.739	407.047
626.403	660.365
631.065	997.718
635.724	1258.27
640.381	1929.55
645.035	2813.61
649.687	4594.13
654.336	8354.66
658.983	17308.1
663.627	36329
668.268	53055.4
672.907	35116.9
677.544	14996.5
682.178	7492.68
686.809	4965.78
691.438	4011.38
696.065	4734.98
700.688	6740.37
705.31	7234.1
709.929	4671.82
714.545	2798.01
719.158	2439.51
723.77	1717.87
728.378	942.772
732.984	610.011
737.588	551.616
742.189	354.002
746.787	210.135
751.383	193.148
755.976	165.714
760.567	98.8335
765.155	39.479
769.741	40.4736
774.324	15.7295
778.904	17.3667
783.482	22.3457
788.058	6.43701
792.631	37.9927
797.201	25.5337
801.769	12.3076
806.334	74.5801
810.897	61.7017
815.457	45.3901
820.014	11.5542
824.569	10.7607
829.122	30.665
833.671	47.8467
838.219	13.1162
842.763	78.5845
847.306	98.2847
851.845	36.9062
856.382	154.361
860.917	117.712
865.448	203.924
869.978	267.123
874.505	397.3
879.029	510.382
883.55	645.365
888.069	1155.21
892.586	2172.43
897.1	3393.58
901.611	3361.51
906.12	1953.88
910.626	1274.14
915.129	1038.11
919.63	1012.19
924.129	947.036
928.625	964.999
933.118	1089.02
937.609	1190.82
942.097	1579.94
946.582	2173.04
951.065	3286.55
955.546	5004.24
960.023	7657.42
964.499	11575.5
968.971	15920.6
973.441	20671.9
977.909	23576.5
982.374	21592.4
986.836	15574.6
991.295	11959.3
995.753	11379.4
1000.21	10453.8
1004.66	9384.11
1009.11	10374.7
1013.55	14370.4
1018	20978.2
1022.44	22767.3
1026.88	14562.5
1031.32	8005.77
1035.75	4885.64
1040.18	3562.25
1044.61	2602.15
1049.04	2208.98
1053.46	1852.66
1057.88	1691.78
1062.3	1549.76
1066.71	1209.12
1071.13	1213.9
1075.54	966.699
1079.94	880.526
1084.35	622.263
1088.75	539.154
1093.15	492.852
1097.55	331.603
1101.94	252.983
1106.34	183.239
1110.73	75.1211
1115.11	83.5283
1119.5	199.434
1123.88	295.429
1128.26	181.727
1132.63	45.4878
1137.01	65.6724
1141.38	12.5386
1145.75	87.7246
1150.12	54.2754
1154.48	29.2539
1158.84	43.9741
1163.2	51.0288
1167.55	44.123
1171.91	8.91016
1176.26	29.7642
1180.61	56.7041
1184.95	86.5195
1189.29	16.29
1193.63	1.78906
1197.97	5.13379
1202.31	15.3755
1206.64	63.7266
1210.97	11.376
1215.29	53.9785
1219.62	8.75049
1223.94	44.0957
1228.26	106.731
1232.57	96.105
1236.89	59.209
1241.2	38.96
1245.51	2.40625
1249.81	104.484
1254.12	72.2515
1258.42	65.562
1262.72	33.5527
1267.01	23.6509
1271.3	31.9155
1275.59	34.477
1279.88	29.5889
1284.17	128.862
1288.45	150.709
1292.73	195.487
1297.01	179
1301.28	90.8198
1305.55	174.08
1309.82	106.054
1314.09	94.1738
1318.35	182.467
1322.61	113.452
1326.87	199.471
1331.13	199.604
1335.38	204.342
1339.63	223.214
1343.88	230.956
1348.12	209.745
1352.37	196.903
1356.61	151.997
1360.85	253.028
1365.08	256.216
1369.31	369.712
1373.54	291.924
1377.77	259.259
1381.99	301.444
1386.22	238.263
1390.43	206.394
1394.65	127.155
1398.87	176.09
1403.08	34.999
1407.29	73.3603
1411.49	102.974
1415.69	71.9326
1419.89	114.743
1424.09	92.1812
1428.29	84.9209
1432.48	55.9644
1436.67	35.0107
1440.86	87.646
1445.04	122.228
1449.23	173.058
1453.4	124.522
1457.58	84.8154
1461.76	95.4951
1465.93	107.035
1470.1	162.341
1474.26	9.76807
1478.43	164.844
1482.59	135.156
1486.75	5.93018
1490.9	122.784
1495.06	51.8823
1499.21	168.734
1503.35	186.258
1507.5	202.144
1511.64	34.813
1515.78	181.027
1519.92	157.538
1524.05	69.8218
1528.18	73.7207
1532.31	132.35
1536.44	145.628
1540.56	71.0811
1544.69	154.165
1548.8	166.611
1552.92	241.565
1557.03	181.148
1561.14	123.555
1565.25	93.6768
1569.36	14.5127
