Measurement: Raman, 514 nm, ccw, Raman Data Processed
Mineral: Serandite
Rruff sample: R050261
Ideal chemistry: NaMn^2+^_2_Si_3_O_8_(OH)
Locality: Mont Saint-Hilaire, Rouville County, Quebec, Canada
Source: Marcus Origlieri
Description: Orange tabular single crystal associated with aegirine and microcline
Measured chemistry: Na_0.96_(Mn_0.92_Ca_0.06_Fe_0.01_)_2_Si_3.03_O_8_(OH)
Pin_id: L01880
Orientation: Laser parallel to (1 0 1). Fiducial mark perpendicular to laser is parallel to b [0 1 0]
Raman shift (cm-1)	intensity
93.48	0
98.416	145.153
103.349	1013.68
108.28	2649.54
113.208	3577.7
118.134	4774.52
123.058	1566.84
127.979	846.303
132.898	2152.68
137.814	2534.78
142.728	705.726
147.639	151.957
152.549	162.758
157.455	1104.28
162.359	2256.19
167.261	2277.62
172.161	1576.42
177.058	844.134
181.952	287.025
186.845	425.091
191.734	725.432
196.622	671.619
201.507	391.512
206.389	69.4853
211.269	11.7417
216.147	58.2302
221.022	349.918
225.895	798.746
230.765	1331.68
235.633	1455.72
240.498	1153.98
245.361	847.769
250.222	1174.01
255.08	1761.43
259.936	2333.51
264.789	1794.59
269.64	1326.48
274.488	1316.57
279.334	1851.41
284.178	2502.85
289.019	2636.77
293.857	2390.67
298.693	1973.35
303.527	1293.01
308.358	794.278
313.187	551.139
318.013	744.321
322.837	984.479
327.659	1248.59
332.478	933.659
337.294	545.665
342.108	297.606
346.92	228.478
351.729	510.254
356.535	1053.76
361.34	1803.31
366.141	1929.75
370.94	986.067
375.737	267.263
380.531	35.6774
385.323	135.398
390.113	142.597
394.9	76.2399
399.684	168.328
404.466	585.599
409.245	1404.89
414.022	2180.1
418.797	2177.24
423.569	1433.29
428.338	780.243
433.105	327.085
437.87	113.852
442.632	10.7395
447.391	12.792
452.149	3.90515
456.903	134.516
461.655	342.894
466.405	427.872
471.152	579.83
475.897	937.639
480.639	1304.31
485.378	2013.85
490.116	2906.28
494.85	2865.58
499.582	2168.9
504.312	1804.22
509.039	1545.55
513.764	1276.95
518.486	1099.43
523.206	1352.01
527.923	1126.31
532.638	753.612
537.35	549.44
542.059	565.947
546.766	488.809
551.471	381.76
556.173	247.782
560.873	193.842
565.57	109.887
570.264	116.925
574.957	71.9327
579.646	76.8885
584.333	98.3315
589.018	68.8602
593.7	81.9334
598.379	75.4619
603.056	167.294
607.73	247.934
612.402	340.527
617.072	430.257
621.739	588.308
626.403	789.97
631.065	1117.37
635.724	1703.95
640.381	2478.2
645.035	3742.49
649.687	6097.3
654.336	11532.1
658.983	25652.2
663.627	48679.3
668.268	54463.3
672.907	28948.6
677.544	12759.3
682.178	7043.21
686.809	5069.59
691.438	4991.9
696.065	7264.98
700.688	9932.95
705.31	8434.34
709.929	4799.89
714.545	2800.47
719.158	1857.2
723.77	1183.72
728.378	851.189
732.984	522.638
737.588	394.965
742.189	268.049
746.787	201.888
751.383	137.481
755.976	84.825
760.567	40.9019
765.155	66.6781
769.741	24.1409
774.324	30.2712
778.904	41.846
783.482	44.0742
788.058	18.6138
792.631	30.843
797.201	25.7302
801.769	34.1386
806.334	38.298
810.897	1.29736
815.457	46.8362
820.014	0.593262
824.569	69.7456
829.122	28.4314
833.671	7.56885
838.219	22.0553
842.763	7.8457
847.306	16.0786
851.845	44.7616
856.382	79.437
860.917	122.551
865.448	151.68
869.978	260.638
874.505	296.442
879.029	441.096
883.55	719.609
888.069	1391
892.586	2566.09
897.1	3608.52
901.611	2690.57
906.12	1629.51
910.626	1314.46
915.129	1162.65
919.63	1096.28
924.129	910.95
928.625	1067.48
933.118	1079.76
937.609	1266.14
942.097	1603.32
946.582	2271.72
951.065	3320.9
955.546	4989.05
960.023	7391.39
964.499	10575.7
968.971	13447
973.441	15611.1
977.909	15903.5
982.374	14258.4
986.836	12223.7
991.295	10966.8
995.753	10923
1000.21	10977.4
1004.66	11522.1
1009.11	15116.7
1013.55	23857.8
1018	33450.8
1022.44	28588.5
1026.88	16007.4
1031.32	8744.88
1035.75	5434.58
1040.18	3771.49
1044.61	2896.97
1049.04	2308.16
1053.46	1885.98
1057.88	1574.33
1062.3	1394.77
1066.71	1195.59
1071.13	1038.6
1075.54	863.465
1079.94	734.64
1084.35	571.559
1088.75	524.54
1093.15	389.455
1097.55	304.79
1101.94	250.03
1106.34	187.112
1110.73	120.099
1115.11	154.542
1119.5	143.972
1123.88	190.337
1128.26	128.773
1132.63	67.6069
1137.01	23.9812
1141.38	12.866
1145.75	9.91235
1150.12	22.552
1154.48	27.4351
1158.84	5.84375
1163.2	35.4023
1167.55	37.1831
1171.91	10.4665
1176.26	2.13281
1180.61	1.61426
1184.95	27.4395
1189.29	69.2375
1193.63	4.08838
1197.97	12.2192
1202.31	20.2759
1206.64	20.1287
1210.97	52.4419
1215.29	70.5142
1219.62	2.33569
1223.94	11.0151
1228.26	5.18213
1232.57	5.0083
1236.89	55.3865
1241.2	5.33032
1245.51	45.978
1249.81	64.2144
1254.12	87.113
1258.42	36.634
1262.72	6.03101
1267.01	0.278564
1271.3	13.4053
1275.59	17.7539
1279.88	56.8103
1284.17	81.6096
1288.45	152.771
1292.73	58.0425
1297.01	106.072
1301.28	89.0747
1305.55	133.987
1309.82	80.1231
1314.09	169.391
1318.35	23.8169
1322.61	157.884
1326.87	102.614
1331.13	69.4265
1335.38	97.4356
1339.63	134.395
1343.88	183.761
1348.12	102.227
1352.37	118.27
1356.61	200.295
1360.85	209.614
1365.08	215.73
1369.31	260.791
1373.54	253.699
1377.77	259.572
1381.99	166.188
1386.22	159.785
1390.43	190.441
1394.65	119.968
1398.87	104.677
1403.08	28.02
1407.29	68.7046
1411.49	89.0854
1415.69	63.3613
1419.89	28.4099
1424.09	64.2644
1428.29	36.5774
1432.48	75.8245
1436.67	31.8328
1440.86	42.7283
1445.04	70.9004
1449.23	96.1863
1453.4	83.8452
1457.58	25.97
1461.76	104.074
1465.93	47.0581
1470.1	87.0688
1474.26	140.133
1478.43	118.097
1482.59	16.6987
1486.75	192.285
1490.9	146.675
1495.06	66.4873
1499.21	82.4497
1503.35	102.569
1507.5	57.7988
1511.64	23.4336
1515.78	95.9346
1519.92	45.4033
1524.05	79.3513
1528.18	97.9451
1532.31	39.7188
1536.44	157.552
1540.56	113.356
1544.69	84.2969
1548.8	44.9307
1552.92	61.0469
1557.03	136.832
1561.14	87.0303
1565.25	44.5527
1569.36	0.776367
