Measurement: Raman, 514 nm, ccw, Raman Data Processed
Mineral: Serandite
Rruff sample: R050261
Ideal chemistry: NaMn^2+^_2_Si_3_O_8_(OH)
Locality: Mont Saint-Hilaire, Rouville County, Quebec, Canada
Source: Marcus Origlieri
Description: Orange tabular single crystal associated with aegirine and microcline
Measured chemistry: Na_0.96_(Mn_0.92_Ca_0.06_Fe_0.01_)_2_Si_3.03_O_8_(OH)
Pin_id: L01850
Orientation: Laser parallel to -b* (0 -1 0). Fiducial mark perpendicular to laser is parallel to c [0 0 1]
Raman shift (cm-1)	intensity
93.48	0
98.416	546.129
103.349	2047.81
108.28	2659.48
113.208	2045.94
118.134	1604.03
123.058	667.563
127.979	1125.19
132.898	2352.69
137.814	2105.11
142.728	706.277
147.639	64.0078
152.549	502.498
157.455	1157.65
162.359	1041.29
167.261	514.997
172.161	33.8066
177.058	131.359
181.952	270.022
186.845	390.72
191.734	1056.69
196.622	1743.49
201.507	1766.2
206.389	1291.89
211.269	1258.08
216.147	1810.68
221.022	2012.29
225.895	1615.81
230.765	861.173
235.633	373.304
240.498	293.353
245.361	482.193
250.222	1006.78
255.08	1752.68
259.936	2405.54
264.789	2302.48
269.64	2562.65
274.488	2395.4
279.334	2897.12
284.178	3416.41
289.019	3428.85
293.857	2822.13
298.693	1962.99
303.527	1248.6
308.358	594.718
313.187	242.301
318.013	224.244
322.837	726.335
327.659	972.062
332.478	989.646
337.294	860.489
342.108	609.494
346.92	776.639
351.729	1110.9
356.535	1822.27
361.34	2412.76
366.141	2324.83
370.94	1197.03
375.737	264.768
380.531	38.5415
385.323	147.775
390.113	51.3213
394.9	49.0176
399.684	260.537
404.466	982.757
409.245	1951.12
414.022	2602.61
418.797	2720.41
423.569	1749.52
428.338	976.622
433.105	541.812
437.87	396.483
442.632	294.194
447.391	177.992
452.149	278.702
456.903	362.194
461.655	590.36
466.405	406.13
471.152	286.149
475.897	185.176
480.639	434.92
485.378	437.414
490.116	612.519
494.85	561.359
499.582	566.255
504.312	742.949
509.039	929.304
513.764	732.246
518.486	687.731
523.206	742.675
527.923	454.019
532.638	279.473
537.35	85.0361
542.059	12.752
546.766	102.446
551.471	86.2144
556.173	1.82812
560.873	129.986
565.57	29.5879
570.264	11.7827
574.957	141.078
579.646	113.703
584.333	163.611
589.018	133.819
593.7	115.515
598.379	220.562
603.056	336.063
607.73	405.256
612.402	515.332
617.072	559.654
621.739	602.301
626.403	905.31
631.065	1250.89
635.724	1758.38
640.381	2371.45
645.035	3680.26
649.687	5774.71
654.336	10541.7
658.983	23814.3
663.627	42558.7
668.268	42942
672.907	23625.1
677.544	10350.4
682.178	5559.5
686.809	3746.12
691.438	3279.76
696.065	3881.24
700.688	4857.42
705.31	4076.01
709.929	2655.19
714.545	1950.93
719.158	1676.55
723.77	1122.45
728.378	598.869
732.984	306.792
737.588	312.313
742.189	150.866
746.787	89.3555
751.383	80.5488
755.976	60.5371
760.567	79.834
765.155	65.8096
769.741	8.47461
774.324	109.439
778.904	44.5127
783.482	5.875
788.058	32.8115
792.631	18.8496
797.201	60.3955
801.769	90.9814
806.334	36.1221
810.897	32.9805
815.457	129.606
820.014	46.208
824.569	14.9902
829.122	132
833.671	2.51562
838.219	194.924
842.763	99.0977
847.306	150.638
851.845	358.905
856.382	197.6
860.917	365.927
865.448	396.465
869.978	307.231
874.505	442.258
879.029	467.631
883.55	771.053
888.069	1425.5
892.586	2956.19
897.1	4276.78
901.611	3640.61
906.12	2219.35
910.626	1562.25
915.129	1227.94
919.63	1202.7
924.129	1039.8
928.625	1023.29
933.118	843.925
937.609	1019.22
942.097	1288.3
946.582	1281.36
951.065	1815.93
955.546	2861.39
960.023	4070.07
964.499	5494.2
968.971	7544.75
973.441	9011.77
977.909	8930.21
982.374	7237.15
986.836	5825.53
991.295	5285.3
995.753	5748.44
1000.21	6241.97
1004.66	6391.74
1009.11	8794.66
1013.55	15097.6
1018	21777.5
1022.44	19125.9
1026.88	11308.4
1031.32	6061.1
1035.75	3921.16
1040.18	2691.11
1044.61	2003.86
1049.04	1487.68
1053.46	1202.66
1057.88	1299.6
1062.3	1159.96
1066.71	987.512
1071.13	894.494
1075.54	744.399
1079.94	733.937
1084.35	523.888
1088.75	581.274
1093.15	429.301
1097.55	393.032
1101.94	447.793
1106.34	185.712
1110.73	274.375
1115.11	291.977
1119.5	431.723
1123.88	488.274
1128.26	265.175
1132.63	23.7031
1137.01	70.1992
1141.38	65.9346
1145.75	69.2754
1150.12	10.6602
1154.48	68.5381
1158.84	180.987
1163.2	61.332
1167.55	53.4795
1171.91	101.956
1176.26	36.2217
1180.61	164.031
1184.95	37.7412
1189.29	97.7949
1193.63	72.0234
1197.97	19.2881
1202.31	55.8096
1206.64	198.644
1210.97	250.981
1215.29	107.801
1219.62	7.18457
1223.94	94.082
1228.26	116.547
1232.57	217.539
1236.89	106.062
1241.2	218.079
1245.51	155.472
1249.81	202.388
1254.12	195.88
1258.42	63.9424
1262.72	165.965
1267.01	298.192
1271.3	141.481
1275.59	80.8301
1279.88	145.727
1284.17	202.468
1288.45	209.991
1292.73	205.007
1297.01	426.223
1301.28	321.409
1305.55	237.901
1309.82	169.341
1314.09	418.685
1318.35	258.216
1322.61	161.496
1326.87	238.317
1331.13	422.554
1335.38	257.082
1339.63	386.532
1343.88	458.288
1348.12	453.865
1352.37	484.31
1356.61	794.057
1360.85	724.739
1365.08	1003.49
1369.31	1172.93
1373.54	1296.8
1377.77	1413.47
1381.99	1307.91
1386.22	1018.16
1390.43	908.467
1394.65	535.038
1398.87	370.361
1403.08	480.776
1407.29	293.272
1411.49	270.818
1415.69	154.106
1419.89	65.1592
1424.09	247.035
1428.29	2.77148
1432.48	34.8897
1436.67	69.832
1440.86	277.409
1445.04	10.0879
1449.23	255.513
1453.4	33.9609
1457.58	170.665
1461.76	148.47
1465.93	221.719
1470.1	86.3828
1474.26	209.932
1478.43	161.427
1482.59	142.861
1486.75	310.301
1490.9	187.929
1495.06	132.56
1499.21	121.577
1503.35	123.131
1507.5	118.027
1511.64	17.0586
1515.78	97.0215
1519.92	214.283
1524.05	202.197
1528.18	166.043
1532.31	190.397
1536.44	73.8965
1540.56	232.367
1544.69	296.631
1548.8	100.658
1552.92	341.611
1557.03	111.287
1561.14	220.779
1565.25	29.9238
1569.36	0.474609
