Measurement: Raman, 514 nm, ccw, Raman Data Processed
Mineral: Serandite
Rruff sample: R050261
Ideal chemistry: NaMn^2+^_2_Si_3_O_8_(OH)
Locality: Mont Saint-Hilaire, Rouville County, Quebec, Canada
Source: Marcus Origlieri
Description: Orange tabular single crystal associated with aegirine and microcline
Measured chemistry: Na_0.96_(Mn_0.92_Ca_0.06_Fe_0.01_)_2_Si_3.03_O_8_(OH)
Pin_id: L00791
Orientation: Laser parallel to -c* (0 0 -1). Fiducial mark perpendicular to laser is parallel to -a [-1 0 0]
Raman shift (cm-1)	intensity
93.48	0
98.416	38.5935
103.349	598.771
108.28	3384.6
113.208	2551.72
118.134	1986.33
123.058	1284.44
127.979	249.043
132.898	1049.61
137.814	2604.62
142.728	1409.85
147.639	115.112
152.549	6.04272
157.455	297.139
162.359	1189.01
167.261	1442.46
172.161	529.313
177.058	39.9148
181.952	81.219
186.845	69.292
191.734	462.221
196.622	1311.95
201.507	2128.43
206.389	1781.71
211.269	1427.59
216.147	1648.18
221.022	2265.47
225.895	3008.39
230.765	2136.89
235.633	929.933
240.498	187.697
245.361	59.8306
250.222	278.977
255.08	548.269
259.936	1084.22
264.789	1271.08
269.64	1147.66
274.488	987.675
279.334	1031.65
284.178	1397.44
289.019	1767.88
293.857	1446.92
298.693	978.567
303.527	580.588
308.358	244.996
313.187	40.7327
318.013	48.3496
322.837	107.733
327.659	413.849
332.478	781.163
337.294	812.893
342.108	614.798
346.92	534.86
351.729	516.032
356.535	846.256
361.34	1398.59
366.141	2274.01
370.94	1811.5
375.737	626.055
380.531	64.6533
385.323	90.7258
390.113	69.9768
394.9	22.7744
399.684	88.229
404.466	456.96
409.245	1039.63
414.022	2181.7
418.797	2899.08
423.569	2227.25
428.338	1439.67
433.105	781.71
437.87	539.483
442.632	344.899
447.391	321.106
452.149	343.057
456.903	436.153
461.655	725.054
466.405	469.467
471.152	239.61
475.897	130.469
480.639	166.031
485.378	153.328
490.116	206.408
494.85	250.226
499.582	204.843
504.312	237.247
509.039	334.492
513.764	435.556
518.486	480.432
523.206	610.088
527.923	536.744
532.638	194.833
537.35	114.881
542.059	51.9491
546.766	14.6703
551.471	57.0046
556.173	15.8594
560.873	9.19604
565.57	1.33581
570.264	41.6196
574.957	57.1947
579.646	50.0558
584.333	131.253
589.018	136.859
593.7	198.905
598.379	204.446
603.056	272.537
607.73	320.19
612.402	365.365
617.072	489.063
621.739	612.287
626.403	791.66
631.065	917.872
635.724	1301.25
640.381	1821.07
645.035	2475.91
649.687	3696.86
654.336	6109.98
658.983	11783.8
663.627	25707.4
668.268	48742.6
672.907	37263.8
677.544	15168.9
682.178	7218.42
686.809	4258.31
691.438	3065.04
696.065	2879.75
700.688	3742.67
705.31	4613.42
709.929	3072.58
714.545	1807.43
719.158	1273.49
723.77	961.986
728.378	578.991
732.984	402.036
737.588	290.185
742.189	201.238
746.787	120.103
751.383	73.7736
755.976	40.2643
760.567	9.40771
765.155	12.386
769.741	14.6636
774.324	11.2573
778.904	45.2031
783.482	92.52
788.058	51.3662
792.631	54.9832
797.201	62.2451
801.769	7.21094
806.334	37.6604
810.897	37.523
815.457	4.45142
820.014	54.5015
824.569	101.787
829.122	143.531
833.671	130.61
838.219	166.634
842.763	186.788
847.306	248.294
851.845	302.117
856.382	315.267
860.917	276.724
865.448	295.47
869.978	357.498
874.505	370.807
879.029	432.395
883.55	509.293
888.069	760.542
892.586	1541.17
897.1	3217.76
901.611	4157.66
906.12	2938.77
910.626	1898.11
915.129	1467.88
919.63	1211.85
924.129	1105.38
928.625	1020.99
933.118	1007.77
937.609	979.847
942.097	1055.99
946.582	1140.23
951.065	1359.96
955.546	1901.21
960.023	2630.97
964.499	3837.23
968.971	5345.95
973.441	6762.13
977.909	7601.75
982.374	6764.81
986.836	5066.28
991.295	4467.16
995.753	4514.44
1000.21	5586.11
1004.66	5566.68
1009.11	6078.11
1013.55	9140.63
1018	16249.9
1022.44	20995.5
1026.88	14419.5
1031.32	7814.42
1035.75	4585.85
1040.18	3115.53
1044.61	2232.96
1049.04	1761.67
1053.46	1465.43
1057.88	1291.8
1062.3	1113.56
1066.71	1024.87
1071.13	920.522
1075.54	841.849
1079.94	763.126
1084.35	708.917
1088.75	534.869
1093.15	564.423
1097.55	346.722
1101.94	330.104
1106.34	234.605
1110.73	242.019
1115.11	194.148
1119.5	485.276
1123.88	528.97
1128.26	379.36
1132.63	78.7468
1137.01	22.136
1141.38	1.27368
1145.75	9.80664
1150.12	32.1423
1154.48	26.9692
1158.84	25.0342
1163.2	31.6487
1167.55	12.6575
1171.91	62.3511
1176.26	0.187988
1180.61	37.0442
1184.95	5.95117
1189.29	3.71069
1193.63	3.03003
1197.97	43.1682
1202.31	59.8408
1206.64	11.1804
1210.97	90.011
1215.29	76.3709
1219.62	3.72315
1223.94	116.617
1228.26	49.4619
1232.57	52.9102
1236.89	111.68
1241.2	75.0559
1245.51	57.9646
1249.81	201.401
1254.12	141.385
1258.42	107.912
1262.72	126.987
1267.01	47.0855
1271.3	163.2
1275.59	62.8792
1279.88	145.777
1284.17	190.981
1288.45	161.674
1292.73	219.223
1297.01	201.896
1301.28	154.96
1305.55	221.362
1309.82	190.241
1314.09	200.16
1318.35	207.98
1322.61	234.836
1326.87	211.185
1331.13	275.04
1335.38	305.102
1339.63	318.034
1343.88	436.972
1348.12	456.396
1352.37	657.742
1356.61	782.952
1360.85	1023.49
1365.08	1156.02
1369.31	1345.85
1373.54	1483.71
1377.77	1600.07
1381.99	1505.98
1386.22	1354.34
1390.43	1030.25
1394.65	842.146
1398.87	646.552
1403.08	468.433
1407.29	457.759
1411.49	298.368
1415.69	274.203
1419.89	118.882
1424.09	115.645
1428.29	103.532
1432.48	66.554
1436.67	39.7114
1440.86	87.1521
1445.04	99.314
1449.23	63.1668
1453.4	5.27344
1457.58	22.5918
1461.76	107.959
1465.93	45.4927
1470.1	141.159
1474.26	83.9597
1478.43	103.894
1482.59	81.9756
1486.75	74.3147
1490.9	88.9304
1495.06	61.7334
1499.21	48.7363
1503.35	114.952
1507.5	1.07105
1511.64	71.6382
1515.78	46.3254
1519.92	79.7634
1524.05	103.273
1528.18	34.23
1532.31	42.6355
1536.44	5.46655
1540.56	76.231
1544.69	37.2056
1548.8	131.153
1552.92	109.482
1557.03	76.7317
1561.14	109.695
1565.25	131.594
1569.36	2.42725
