Measurement: Raman, 514 nm, ccw, Raman Data Processed
Mineral: Serandite
Rruff sample: R050261
Ideal chemistry: NaMn^2+^_2_Si_3_O_8_(OH)
Locality: Mont Saint-Hilaire, Rouville County, Quebec, Canada
Source: Marcus Origlieri
Description: Orange tabular single crystal associated with aegirine and microcline
Measured chemistry: Na_0.96_(Mn_0.92_Ca_0.06_Fe_0.01_)_2_Si_3.03_O_8_(OH)
Pin_id: L01881
Orientation: Laser parallel to (1 1 0). Fiducial mark perpendicular to laser is parallel to -c [0 0 -1]
Raman shift (cm-1)	intensity
93.48	0
98.416	66.095
103.349	168.997
108.28	1289.26
113.208	1683.82
118.134	3438.13
123.058	3279.35
127.979	1291.4
132.898	2439.24
137.814	4700.17
142.728	4837.85
147.639	1431.25
152.549	474.904
157.455	642.651
162.359	1543.3
167.261	2407.53
172.161	2556.04
177.058	1179.8
181.952	713.436
186.845	297.221
191.734	427.579
196.622	590.043
201.507	288.104
206.389	51.3843
211.269	157.273
216.147	11.7524
221.022	86.8472
225.895	156.243
230.765	624.865
235.633	1006.51
240.498	893.938
245.361	449.24
250.222	408.42
255.08	447.367
259.936	1238.58
264.789	1056.24
269.64	664.989
274.488	454.493
279.334	446.555
284.178	602.113
289.019	911.112
293.857	963.502
298.693	924.007
303.527	701.789
308.358	414.901
313.187	273.928
318.013	73.4009
322.837	366.299
327.659	626.369
332.478	628.591
337.294	430.946
342.108	154.414
346.92	87.9736
351.729	463.317
356.535	1001.14
361.34	1959.04
366.141	2873.19
370.94	2320.75
375.737	1006.45
380.531	285.182
385.323	6.07617
390.113	58.5474
394.9	16.7456
399.684	109.722
404.466	636.24
409.245	1467.82
414.022	2631.43
418.797	3520.74
423.569	2994.7
428.338	1664.33
433.105	808.942
437.87	248.53
442.632	31.0727
447.391	74.4922
452.149	55.5381
456.903	11.7315
461.655	354.617
466.405	415.795
471.152	255.904
475.897	436.938
480.639	587.902
485.378	1124.9
490.116	1746.83
494.85	2321.72
499.582	1876.81
504.312	1387.17
509.039	1150.72
513.764	1093.64
518.486	1137.65
523.206	1616.75
527.923	2119.67
532.638	1788.33
537.35	1296.69
542.059	1125.85
546.766	887.075
551.471	637.29
556.173	454.556
560.873	365.733
565.57	281.84
570.264	157.922
574.957	166.862
579.646	112.68
584.333	48.4824
589.018	3.85449
593.7	109.245
598.379	63.4961
603.056	142.148
607.73	187.657
612.402	229.023
617.072	353.459
621.739	578.622
626.403	626.686
631.065	868.871
635.724	1391.49
640.381	1925.25
645.035	2828.26
649.687	4436.92
654.336	7994.73
658.983	16534.2
663.627	32887.4
668.268	50389.8
672.907	36746.5
677.544	15611.5
682.178	7669.9
686.809	4961.92
691.438	3976.02
696.065	4601.31
700.688	6864.95
705.31	8074.84
709.929	5280.18
714.545	2990.33
719.158	2180.71
723.77	1622.78
728.378	975.09
732.984	620.254
737.588	557.457
742.189	344.727
746.787	205.988
751.383	307.181
755.976	119.368
760.567	2.87012
765.155	147.315
769.741	55.1265
774.324	45.5488
778.904	60.0605
783.482	56.8813
788.058	117.564
792.631	65.6025
797.201	65.8296
801.769	36.8227
806.334	68.7593
810.897	61.6909
815.457	52.7793
820.014	71.4502
824.569	14.3066
829.122	74.3628
833.671	107.34
838.219	41.7353
842.763	53.6645
847.306	47.1768
851.845	31.5752
856.382	0.35498
860.917	290.036
865.448	241.552
869.978	300.05
874.505	421.572
879.029	369.995
883.55	922.352
888.069	1485.73
892.586	2861.54
897.1	4584.54
901.611	4549.73
906.12	2437.98
910.626	1486.78
915.129	1212.87
919.63	775.189
924.129	834.815
928.625	787.582
933.118	795.354
937.609	1084.69
942.097	1225.77
946.582	1594.07
951.065	2207.02
955.546	3458.19
960.023	4873.18
964.499	7174.32
968.971	9769.07
973.441	12498.7
977.909	14134.1
982.374	13957.9
986.836	11688.1
991.295	9752.56
995.753	9331.21
1000.21	9735.01
1004.66	10235.7
1009.11	12424.8
1013.55	18679.7
1018	29241.8
1022.44	32064.5
1026.88	20929
1031.32	11021.5
1035.75	6475.07
1040.18	4103.38
1044.61	3093.95
1049.04	2456.56
1053.46	1865.47
1057.88	1656.23
1062.3	1478.83
1066.71	1189.39
1071.13	1189.46
1075.54	971.951
1079.94	850.188
1084.35	737.887
1088.75	573.617
1093.15	391.275
1097.55	354.704
1101.94	295.269
1106.34	132.387
1110.73	145.766
1115.11	116.243
1119.5	237.36
1123.88	265.862
1128.26	349.931
1132.63	96.8428
1137.01	77.7588
1141.38	19.2715
1145.75	9.37695
1150.12	9.10059
1154.48	100.714
1158.84	83.0088
1163.2	82.0498
1167.55	61.3994
1171.91	70.3379
1176.26	124.632
1180.61	149.296
1184.95	49.1797
1189.29	1.01562
1193.63	80.8301
1197.97	12.4619
1202.31	25.293
1206.64	103.596
1210.97	45.2998
1215.29	7.63965
1219.62	123.507
1223.94	223.539
1228.26	68.2539
1232.57	90.8018
1236.89	150.134
1241.2	176.224
1245.51	186.031
1249.81	112.622
1254.12	24.9941
1258.42	228.209
1262.72	337.866
1267.01	123.661
1271.3	186.144
1275.59	382.409
1279.88	82.8027
1284.17	319.844
1288.45	299.262
1292.73	253.741
1297.01	333.873
1301.28	427.525
1305.55	377.316
1309.82	337.029
1314.09	581.52
1318.35	367.815
1322.61	245.855
1326.87	409.597
1331.13	491.161
1335.38	252.616
1339.63	505.813
1343.88	505.379
1348.12	260.626
1352.37	411.217
1356.61	592.331
1360.85	400.242
1365.08	516.609
1369.31	585.693
1373.54	361.504
1377.77	474.339
1381.99	601.409
1386.22	352.789
1390.43	452.664
1394.65	346.277
1398.87	212.054
1403.08	250.684
1407.29	346.14
1411.49	165.393
1415.69	9.78516
1419.89	238.403
1424.09	323.159
1428.29	46.6738
1432.48	126.995
1436.67	223.929
1440.86	28.7246
1445.04	191.176
1449.23	230.952
1453.4	33.0957
1457.58	104.412
1461.76	394.933
1465.93	143.305
1470.1	15.3711
1474.26	173.084
1478.43	1.53613
1482.59	175.797
1486.75	230.086
1490.9	203.463
1495.06	11.6318
1499.21	167.145
1503.35	241.684
1507.5	115.101
1511.64	112.191
1515.78	233.596
1519.92	103.32
1524.05	320.28
1528.18	208.376
1532.31	235.705
1536.44	109.948
1540.56	392.663
1544.69	232.062
1548.8	132.422
1552.92	288.702
1557.03	251.392
1561.14	131.649
1565.25	128.761
1569.36	23.7715
