Measurement: Raman, 514 nm, ccw, Raman Data Processed
Mineral: Serandite
Rruff sample: R050261
Ideal chemistry: NaMn^2+^_2_Si_3_O_8_(OH)
Locality: Mont Saint-Hilaire, Rouville County, Quebec, Canada
Source: Marcus Origlieri
Description: Orange tabular single crystal associated with aegirine and microcline
Measured chemistry: Na_0.96_(Mn_0.92_Ca_0.06_Fe_0.01_)_2_Si_3.03_O_8_(OH)
Pin_id: L01850
Orientation: Laser parallel to -b* (0 -1 0). Fiducial mark perpendicular to laser is parallel to c [0 0 1]
Raman shift (cm-1)	intensity
93.48	0
98.416	46.6457
103.349	565.273
108.28	1998.52
113.208	3099.18
118.134	3784.72
123.058	1564.58
127.979	547.783
132.898	1037.25
137.814	1338.71
142.728	530.282
147.639	102.515
152.549	187.362
157.455	594.246
162.359	1342.63
167.261	2111.83
172.161	1726.92
177.058	814.519
181.952	490.41
186.845	876.497
191.734	1400.95
196.622	1255.8
201.507	833.12
206.389	354.935
211.269	141.216
216.147	150.925
221.022	457.028
225.895	828.49
230.765	1361.28
235.633	1192.37
240.498	1069.05
245.361	1154.04
250.222	2116.14
255.08	3361.71
259.936	4079.7
264.789	3356.55
269.64	2712.58
274.488	2422.63
279.334	2481.56
284.178	3101.21
289.019	3516.46
293.857	3930.64
298.693	3684.11
303.527	2837.8
308.358	2087.76
313.187	1780.99
318.013	1987.4
322.837	2553.92
327.659	2867.51
332.478	2175.16
337.294	1126.19
342.108	569.661
346.92	326.483
351.729	263.339
356.535	379.223
361.34	432.125
366.141	457.036
370.94	317.953
375.737	97.8701
380.531	90.2607
385.323	38.166
390.113	88.1934
394.9	140.387
399.684	35.3438
404.466	287.775
409.245	494.303
414.022	713.906
418.797	717.565
423.569	575.262
428.338	349.982
433.105	127.314
437.87	100.453
442.632	73.1973
447.391	177.692
452.149	412.845
456.903	530.803
461.655	841.393
466.405	1102.93
471.152	1381.42
475.897	1764.87
480.639	2423.28
485.378	3524.72
490.116	4636.18
494.85	4639.71
499.582	3831.28
504.312	2863.83
509.039	2175.52
513.764	1802.36
518.486	1861.38
523.206	1904.57
527.923	1248.42
532.638	546.874
537.35	147.056
542.059	121.988
546.766	157.728
551.471	209.644
556.173	239.631
560.873	318.69
565.57	95.7666
570.264	129.842
574.957	81.9087
579.646	123.984
584.333	37.4702
589.018	35.6504
593.7	94.0478
598.379	88.6875
603.056	167.274
607.73	188.81
612.402	221.92
617.072	317.652
621.739	535.877
626.403	654.528
631.065	1046.72
635.724	1402.48
640.381	2027
645.035	3291.41
649.687	5187.58
654.336	9626.3
658.983	21773.3
663.627	39991
668.268	42365.5
672.907	24328.5
677.544	10936.9
682.178	6109.16
686.809	4521.98
691.438	4791.06
696.065	7578.51
700.688	10297.2
705.31	8574.01
709.929	5014.63
714.545	3036.61
719.158	2243.05
723.77	1522.84
728.378	881.129
732.984	496.318
737.588	513.951
742.189	296.629
746.787	272.028
751.383	100.144
755.976	89.9482
760.567	29.5737
765.155	30.3965
769.741	1.54004
774.324	0.076172
778.904	86.4453
783.482	3.41846
788.058	24.9194
792.631	12.4038
797.201	38.4839
801.769	0.355957
806.334	18.377
810.897	71.479
815.457	25.9477
820.014	18.8003
824.569	2.72607
829.122	22.6714
833.671	37.9644
838.219	2.61377
842.763	84.4873
847.306	179.378
851.845	10.9526
856.382	58.4853
860.917	155.758
865.448	163.977
869.978	143.104
874.505	327.122
879.029	381.022
883.55	401.858
888.069	661.109
892.586	916.579
897.1	1014.85
901.611	842.29
906.12	670.016
910.626	730.109
915.129	897.018
919.63	893.607
924.129	776.491
928.625	993.952
933.118	1084.71
937.609	1415.88
942.097	1851.48
946.582	2857.9
951.065	4178.87
955.546	6309.73
960.023	9742.7
964.499	14048.7
968.971	18273.7
973.441	20893.4
977.909	19685.1
982.374	16074.6
986.836	13247.4
991.295	11410.6
995.753	10449.1
1000.21	9421.95
1004.66	8750.27
1009.11	8738.77
1013.55	11546.5
1018	13915.9
1022.44	11642.3
1026.88	7108.47
1031.32	4482.86
1035.75	3224.08
1040.18	2558.34
1044.61	2156.45
1049.04	1867.35
1053.46	1758.33
1057.88	1533.96
1062.3	1417.97
1066.71	1295.01
1071.13	1041.34
1075.54	1168.52
1079.94	875.573
1084.35	743.709
1088.75	475.411
1093.15	448.146
1097.55	359.164
1101.94	193.322
1106.34	185.935
1110.73	254.088
1115.11	92.8936
1119.5	330.33
1123.88	746.31
1128.26	171.008
1132.63	26.8955
1137.01	152.921
1141.38	57.752
1145.75	111.452
1150.12	17.832
1154.48	61.2178
1158.84	47.5752
1163.2	19.7998
1167.55	37.1728
1171.91	0.344727
1176.26	52.4414
1180.61	0.97168
1184.95	121.918
1189.29	118.192
1193.63	43.7539
1197.97	4.52441
1202.31	86.8369
1206.64	102.128
1210.97	87.6582
1215.29	82.8789
1219.62	107.894
1223.94	16.3262
1228.26	15.1426
1232.57	30.3945
1236.89	18.3447
1241.2	110.05
1245.51	141.508
1249.81	58.6924
1254.12	54.4297
1258.42	26.0537
1262.72	140.574
1267.01	115.817
1271.3	65.3799
1275.59	132.916
1279.88	88.7656
1284.17	159.568
1288.45	195.86
1292.73	117.712
1297.01	194.847
1301.28	62.666
1305.55	217.092
1309.82	7.9834
1314.09	83.7129
1318.35	102.338
1322.61	129.473
1326.87	12.6113
1331.13	21.7812
1335.38	248.24
1339.63	214.061
1343.88	96.4219
1348.12	208.471
1352.37	207.939
1356.61	102.033
1360.85	231.785
1365.08	175.195
1369.31	227.049
1373.54	324.136
1377.77	265.191
1381.99	330.782
1386.22	282.848
1390.43	295.521
1394.65	224.335
1398.87	170.905
1403.08	162.43
1407.29	115.607
1411.49	142.717
1415.69	112.755
1419.89	43.1182
1424.09	237.925
1428.29	53.208
1432.48	159.735
1436.67	91.333
1440.86	22.2041
1445.04	192.93
1449.23	145.511
1453.4	123.798
1457.58	286.415
1461.76	66.2832
1465.93	5.73731
1470.1	119.272
1474.26	172.203
1478.43	102.565
1482.59	238.385
1486.75	209.39
1490.9	155.908
1495.06	101.211
1499.21	109.783
1503.35	140.377
1507.5	24.333
1511.64	234.918
1515.78	72.8906
1519.92	21.7666
1524.05	190.664
1528.18	332.788
1532.31	265.769
1536.44	156.012
1540.56	224.449
1544.69	143.073
1548.8	86.666
1552.92	200.606
1557.03	270.407
1561.14	6.38867
1565.25	174.688
1569.36	0.355469
