Measurement: Raman, 514 nm, ccw, Raman Data Processed
Mineral: Serandite
Rruff sample: R050261
Ideal chemistry: NaMn^2+^_2_Si_3_O_8_(OH)
Locality: Mont Saint-Hilaire, Rouville County, Quebec, Canada
Source: Marcus Origlieri
Description: Orange tabular single crystal associated with aegirine and microcline
Measured chemistry: Na_0.96_(Mn_0.92_Ca_0.06_Fe_0.01_)_2_Si_3.03_O_8_(OH)
Pin_id: L01880
Orientation: Laser parallel to (1 0 1). Fiducial mark perpendicular to laser is parallel to b [0 1 0]
Raman shift (cm-1)	intensity
93.48	0
98.416	68.0574
103.349	568.105
108.28	2128.47
113.208	4028.32
118.134	6474.53
123.058	1839.12
127.979	641.396
132.898	1170.53
137.814	1126.35
142.728	328.486
147.639	88.0544
152.549	53.0957
157.455	494.097
162.359	1695.29
167.261	2885.79
172.161	2358.99
177.058	1264.69
181.952	601.057
186.845	119.165
191.734	10.0956
196.622	168.67
201.507	345.017
206.389	431.294
211.269	593.474
216.147	642.636
221.022	952.573
225.895	1683.1
230.765	2464.32
235.633	2584.75
240.498	2000.11
245.361	1434.19
250.222	1543.58
255.08	2217.05
259.936	2299.19
264.789	1356.83
269.64	680.357
274.488	423.929
279.334	362.773
284.178	443.533
289.019	397.899
293.857	384.759
298.693	266.942
303.527	184.591
308.358	134.639
313.187	35.569
318.013	173.332
322.837	290.903
327.659	220.284
332.478	180.478
337.294	26.486
342.108	27.7203
346.92	38.3159
351.729	8.33862
356.535	56.3407
361.34	139.827
366.141	104.892
370.94	41.3835
375.737	22.3274
380.531	83.3904
385.323	99.4158
390.113	38.3481
394.9	20.9615
399.684	69.0608
404.466	176.969
409.245	333.762
414.022	462.44
418.797	386.139
423.569	244.467
428.338	181.812
433.105	47.0474
437.87	11.1974
442.632	44.3453
447.391	30.3727
452.149	38.2848
456.903	101.1
461.655	215.824
466.405	313.46
471.152	456.015
475.897	644.494
480.639	907.816
485.378	1363.37
490.116	2069.69
494.85	2083.23
499.582	1503.58
504.312	1154.93
509.039	753.384
513.764	435.991
518.486	301.502
523.206	300.945
527.923	462.464
532.638	478.275
537.35	574.51
542.059	668.587
546.766	657.354
551.471	587.258
556.173	434.814
560.873	386.555
565.57	267.962
570.264	262.091
574.957	240.802
579.646	184.225
584.333	170.983
589.018	180.704
593.7	196.041
598.379	264.478
603.056	348.017
607.73	355.657
612.402	427.396
617.072	547.235
621.739	706.173
626.403	938.284
631.065	1279.78
635.724	1773
640.381	2615.25
645.035	3787.02
649.687	6107.1
654.336	11632
658.983	25511.8
663.627	50055.4
668.268	56697.7
672.907	29718.3
677.544	12960.4
682.178	7167.82
686.809	5455.98
691.438	5542.24
696.065	8285.2
700.688	11639
705.31	9625.21
709.929	5285.21
714.545	2920.96
719.158	1908.89
723.77	1193.45
728.378	834.787
732.984	568.997
737.588	393.112
742.189	324.127
746.787	213.038
751.383	122.841
755.976	117.534
760.567	74.1128
765.155	26.573
769.741	18.0928
774.324	23.0369
778.904	26.0542
783.482	19.5008
788.058	21.3425
792.631	69.6112
797.201	30.2971
801.769	23.4585
806.334	2.93481
810.897	23.0697
815.457	35.4392
820.014	14.8833
824.569	18.97
829.122	14.7999
833.671	19.327
838.219	17.4233
842.763	30.5284
847.306	15.0557
851.845	38.09
856.382	3.94299
860.917	19.814
865.448	30.4153
869.978	66.8873
874.505	104.236
879.029	192.466
883.55	276.594
888.069	576.629
892.586	1218.59
897.1	1852.45
901.611	1610.24
906.12	905.69
910.626	736.2
915.129	676.721
919.63	738.99
924.129	774.518
928.625	828.368
933.118	993.955
937.609	1240.13
942.097	1637.28
946.582	2168.23
951.065	3141.86
955.546	4725.82
960.023	6848.45
964.499	9585
968.971	11924.9
973.441	12905.5
977.909	12619.5
982.374	12003.6
986.836	11422.3
991.295	10820.1
995.753	10911.3
1000.21	11279.4
1004.66	11612.7
1009.11	15104.1
1013.55	24068.7
1018	34613.3
1022.44	29643.6
1026.88	16420
1031.32	8811.48
1035.75	5456.27
1040.18	3716.52
1044.61	2878.58
1049.04	2229.94
1053.46	1842.88
1057.88	1576.66
1062.3	1329.8
1066.71	1205.26
1071.13	993.739
1075.54	862.468
1079.94	771.15
1084.35	614.977
1088.75	476.729
1093.15	378.972
1097.55	329.216
1101.94	270.704
1106.34	181.923
1110.73	192.19
1115.11	157.951
1119.5	141.214
1123.88	137.905
1128.26	148.279
1132.63	90.2227
1137.01	36.3257
1141.38	49.7711
1145.75	15.7327
1150.12	10.8242
1154.48	34.0292
1158.84	50.6411
1163.2	0.527344
1167.55	12.375
1171.91	15.0565
1176.26	32.1095
1180.61	22.3409
1184.95	0.251831
1189.29	2.6919
1193.63	1.73584
1197.97	5.26782
1202.31	2.13501
1206.64	8.1853
1210.97	40.938
1215.29	11.5415
1219.62	15.1082
1223.94	40.2521
1228.26	33.1457
1232.57	51.8442
1236.89	27.2683
1241.2	52.408
1245.51	11.3201
1249.81	32.9717
1254.12	15.6768
1258.42	17.2991
1262.72	52.9919
1267.01	35.4302
1271.3	60.2284
1275.59	15.4622
1279.88	74.913
1284.17	63.8871
1288.45	79.1
1292.73	91.7568
1297.01	38.3921
1301.28	118.451
1305.55	50.1011
1309.82	81.9187
1314.09	43.7745
1318.35	138.966
1322.61	96.6301
1326.87	86.1201
1331.13	64.3339
1335.38	73.8848
1339.63	84.3685
1343.88	125.558
1348.12	72.6331
1352.37	151.13
1356.61	170.292
1360.85	197.787
1365.08	192.583
1369.31	156.862
1373.54	224.973
1377.77	203.336
1381.99	147.651
1386.22	101.853
1390.43	88.1074
1394.65	130.172
1398.87	49.1489
1403.08	56.0898
1407.29	84.7031
1411.49	83.4736
1415.69	61.1182
1419.89	49.2866
1424.09	56.2668
1428.29	29.8643
1432.48	7.61646
1436.67	22.3728
1440.86	40.9314
1445.04	41.8025
1449.23	10.4123
1453.4	79.0288
1457.58	71.8823
1461.76	17.2654
1465.93	15.8926
1470.1	85.4424
1474.26	37.918
1478.43	69.459
1482.59	61.1392
1486.75	76.103
1490.9	51.927
1495.06	31.8201
1499.21	69.876
1503.35	86.8711
1507.5	68.4685
1511.64	80.0737
1515.78	15.1445
1519.92	70.4216
1524.05	51.4749
1528.18	53.2798
1532.31	45.2625
1536.44	48.9878
1540.56	61.667
1544.69	1.27148
1548.8	40.8528
1552.92	92.2175
1557.03	134.604
1561.14	21.3123
1565.25	106.86
1569.36	23.4304
