Measurement: Raman, 514 nm, ccw, Raman Data Processed
Mineral: Serandite
Rruff sample: R050261
Ideal chemistry: NaMn^2+^_2_Si_3_O_8_(OH)
Locality: Mont Saint-Hilaire, Rouville County, Quebec, Canada
Source: Marcus Origlieri
Description: Orange tabular single crystal associated with aegirine and microcline
Measured chemistry: Na_0.96_(Mn_0.92_Ca_0.06_Fe_0.01_)_2_Si_3.03_O_8_(OH)
Pin_id: L01713
Orientation: Laser parallel to -a* (-1 0 0). Fiducial mark perpendicular to laser is parallel to b [0 1 0]
Raman shift (cm-1)	intensity
93.48	0
98.416	166.549
103.349	865.372
108.28	1761.35
113.208	2040.82
118.134	3037.17
123.058	1566.65
127.979	2339.97
132.898	4018.42
137.814	2717.29
142.728	656.226
147.639	95.469
152.549	466.635
157.455	1290.73
162.359	1447.48
167.261	588.649
172.161	66.8408
177.058	204.763
181.952	28.9123
186.845	450.687
191.734	1400.83
196.622	2669.3
201.507	3268.39
206.389	2794.53
211.269	2606.07
216.147	2966.14
221.022	3516.7
225.895	2946.48
230.765	1776.34
235.633	844.182
240.498	412.626
245.361	450.008
250.222	1137.29
255.08	2231.04
259.936	2635.65
264.789	2415.53
269.64	2420.4
274.488	1747.3
279.334	1327.14
284.178	1175.49
289.019	930.887
293.857	651.035
298.693	419.127
303.527	135.923
308.358	19.3494
313.187	4.67822
318.013	304.4
322.837	680.123
327.659	984.514
332.478	1178.77
337.294	980.173
342.108	1053.92
346.92	1294.91
351.729	1643.12
356.535	2095.62
361.34	2361.41
366.141	2036.46
370.94	1245.74
375.737	593.215
380.531	270.961
385.323	83.0452
390.113	24.4153
394.9	238.23
399.684	503.683
404.466	1149.59
409.245	2229.84
414.022	3246.61
418.797	2993.44
423.569	1861.24
428.338	1051.41
433.105	487.651
437.87	362.285
442.632	284.083
447.391	212.74
452.149	220.842
456.903	250.634
461.655	170.35
466.405	34.1165
471.152	20.0137
475.897	51.6182
480.639	51.8157
485.378	14.5327
490.116	205.859
494.85	382.076
499.582	504.913
504.312	934.5
509.039	1205.85
513.764	653.81
518.486	304.411
523.206	169.737
527.923	156.477
532.638	94.5586
537.35	3.1311
542.059	87.9944
546.766	101.562
551.471	67.9475
556.173	76.0842
560.873	5.87402
565.57	69.8794
570.264	135.547
574.957	116.306
579.646	139.099
584.333	232.229
589.018	202.487
593.7	300.98
598.379	328.76
603.056	440.811
607.73	572.062
612.402	737.463
617.072	740.616
621.739	1033.33
626.403	1269.62
631.065	1674.56
635.724	2141.29
640.381	3158.91
645.035	4509.11
649.687	7283.37
654.336	13504.5
658.983	29077.7
663.627	53135.5
668.268	51334.9
672.907	25131.6
677.544	11479
682.178	6549.66
686.809	4819.75
691.438	4598.86
696.065	6198.22
700.688	8104.82
705.31	6782.49
709.929	4229.23
714.545	3544.94
719.158	3364.17
723.77	1836.93
728.378	1015.46
732.984	629.186
737.588	413.85
742.189	291.499
746.787	123.806
751.383	163.791
755.976	26.4727
760.567	63.8623
765.155	4.05225
769.741	64.6455
774.324	18.9858
778.904	27.769
783.482	11.1895
788.058	19.2324
792.631	7.64258
797.201	62.9219
801.769	26.5503
806.334	22.5298
810.897	117.094
815.457	95.771
820.014	227.837
824.569	182.499
829.122	281.812
833.671	277.738
838.219	355.234
842.763	314.202
847.306	363.487
851.845	413.029
856.382	438.829
860.917	536.872
865.448	481.148
869.978	478.765
874.505	447.714
879.029	471.125
883.55	654.892
888.069	1020.1
892.586	2250.91
897.1	3581.64
901.611	3365.21
906.12	1941.29
910.626	1257.91
915.129	1177.24
919.63	1172.53
924.129	1150.21
928.625	1180.58
933.118	1140.28
937.609	1249.41
942.097	1384.01
946.582	1623.16
951.065	2242.74
955.546	3330.74
960.023	4966.11
964.499	6954.85
968.971	8967.95
973.441	10222.5
977.909	9969.64
982.374	8153.39
986.836	6636.65
991.295	6498.34
995.753	7352.41
1000.21	7951.78
1004.66	7216.29
1009.11	8879.15
1013.55	14432.4
1018	21423.6
1022.44	20080.2
1026.88	12398.9
1031.32	7100.65
1035.75	4259.91
1040.18	2892
1044.61	1953.33
1049.04	1663.33
1053.46	1332.76
1057.88	996.329
1062.3	912.37
1066.71	786.936
1071.13	721.548
1075.54	624.694
1079.94	507.568
1084.35	406.568
1088.75	310.179
1093.15	335.806
1097.55	209.121
1101.94	104.392
1106.34	211.006
1110.73	56.9565
1115.11	54.9541
1119.5	259.184
1123.88	309.912
1128.26	99.4873
1132.63	83.6899
1137.01	31.3457
1141.38	60.023
1145.75	37.5
1150.12	49.831
1154.48	8.67383
1158.84	43.3223
1163.2	69.8564
1167.55	58.1773
1171.91	32.2168
1176.26	46.0244
1180.61	0.539551
1184.95	55.8652
1189.29	96.4346
1193.63	53.8931
1197.97	30.0352
1202.31	130.561
1206.64	158.982
1210.97	156.019
1215.29	153.9
1219.62	178.704
1223.94	172.398
1228.26	111.952
1232.57	226.343
1236.89	204.5
1241.2	156.947
1245.51	126.162
1249.81	196.368
1254.12	170.956
1258.42	153.991
1262.72	159.188
1267.01	335.729
1271.3	176.841
1275.59	235.446
1279.88	189.897
1284.17	239.786
1288.45	163.178
1292.73	229.035
1297.01	173.525
1301.28	223.31
1305.55	175.709
1309.82	207.157
1314.09	176.976
1318.35	169.845
1322.61	264.216
1326.87	302.462
1331.13	246.523
1335.38	415.182
1339.63	387.911
1343.88	278.072
1348.12	456.37
1352.37	636.953
1356.61	799.205
1360.85	945.53
1365.08	1099.9
1369.31	1431.75
1373.54	1374.41
1377.77	1396.07
1381.99	1393.47
1386.22	1052.19
1390.43	778.475
1394.65	680.731
1398.87	446.305
1403.08	320.774
1407.29	381.736
1411.49	300.003
1415.69	142.323
1419.89	94.4131
1424.09	76.3828
1428.29	32.9678
1432.48	79.6436
1436.67	16.2852
1440.86	29.5908
1445.04	44.7031
1449.23	88.8867
1453.4	173.568
1457.58	45.5166
1461.76	131.892
1465.93	37.831
1470.1	86.4189
1474.26	211.713
1478.43	234.757
1482.59	70.6885
1486.75	22.5713
1490.9	381.651
1495.06	98.3779
1499.21	202.51
1503.35	101.399
1507.5	162.585
1511.64	192.081
1515.78	149.895
1519.92	151.176
1524.05	7.69141
1528.18	232.769
1532.31	79.3672
1536.44	240.495
1540.56	87.6045
1544.69	165.432
1548.8	267.177
1552.92	106.894
1557.03	232.571
1561.14	16.3457
1565.25	225.75
1569.36	78.0576
