Measurement: Raman, 514 nm, ccw, Raman Data Processed
Mineral: Serandite
Rruff sample: R050261
Ideal chemistry: NaMn^2+^_2_Si_3_O_8_(OH)
Locality: Mont Saint-Hilaire, Rouville County, Quebec, Canada
Source: Marcus Origlieri
Description: Orange tabular single crystal associated with aegirine and microcline
Measured chemistry: Na_0.96_(Mn_0.92_Ca_0.06_Fe_0.01_)_2_Si_3.03_O_8_(OH)
Pin_id: L01850
Orientation: Laser parallel to -b* (0 -1 0). Fiducial mark perpendicular to laser is parallel to c [0 0 1]
Raman shift (cm-1)	intensity
93.48	0
98.416	13.1367
103.349	518.11
108.28	1898.82
113.208	2225.93
118.134	4554.24
123.058	1315.08
127.979	565.032
132.898	1273.21
137.814	1959.27
142.728	823.447
147.639	82.6924
152.549	103.918
157.455	574.644
162.359	1027
167.261	1969.9
172.161	1973.26
177.058	877.193
181.952	503.778
186.845	1010.71
191.734	2293.14
196.622	2280.02
201.507	1657.44
206.389	513.515
211.269	218.209
216.147	193.482
221.022	325.291
225.895	612.598
230.765	790.363
235.633	914.551
240.498	911.688
245.361	828.11
250.222	1477.93
255.08	2853.18
259.936	4509.4
264.789	3784.73
269.64	3354.98
274.488	2544.09
279.334	2372.15
284.178	2872
289.019	3402.52
293.857	3751.83
298.693	3746.81
303.527	2798.16
308.358	1920.82
313.187	1555.9
318.013	1704.29
322.837	2315.87
327.659	2989.59
332.478	2392.46
337.294	1386.44
342.108	728.551
346.92	458.763
351.729	534.067
356.535	769.451
361.34	1086.9
366.141	1189.42
370.94	849.994
375.737	266.613
380.531	14.7236
385.323	139.358
390.113	148.01
394.9	53.7734
399.684	49.3892
404.466	297.571
409.245	523.644
414.022	1132.81
418.797	1231.06
423.569	1017.36
428.338	615.704
433.105	279.067
437.87	69.4268
442.632	126.837
447.391	208.846
452.149	236.071
456.903	335.548
461.655	691.753
466.405	788.847
471.152	1135.85
475.897	1166.77
480.639	1779.62
485.378	2457.48
490.116	3788.3
494.85	4293.11
499.582	3243.05
504.312	2526.18
509.039	2341.42
513.764	1677.86
518.486	1551.52
523.206	1945.72
527.923	1414.33
532.638	562.489
537.35	137.585
542.059	115.91
546.766	221.005
551.471	241.465
556.173	202.835
560.873	116.108
565.57	179.247
570.264	85.2437
574.957	122.088
579.646	150.718
584.333	47.8828
589.018	34.0562
593.7	17.5024
598.379	33.7144
603.056	111.66
607.73	206.392
612.402	203.536
617.072	558.997
621.739	429.45
626.403	586.115
631.065	884.24
635.724	1118.5
640.381	1741.84
645.035	2556.9
649.687	4075.79
654.336	7188.24
658.983	15432.4
663.627	33455.7
668.268	45948.4
672.907	25320.4
677.544	10909.9
682.178	5755.01
686.809	3980.43
691.438	3687.19
696.065	4966.03
700.688	7659.57
705.31	7631.92
709.929	4388.78
714.545	2873.13
719.158	2634.68
723.77	1690.39
728.378	950.629
732.984	597.906
737.588	340.109
742.189	230.903
746.787	204.29
751.383	232.274
755.976	179.831
760.567	78.9023
765.155	39.3379
769.741	15.7363
774.324	20.6982
778.904	81.25
783.482	73.1055
788.058	83.4297
792.631	27.0811
797.201	27.2197
801.769	2.2207
806.334	34.2412
810.897	134.997
815.457	143.816
820.014	46.2861
824.569	1.55078
829.122	21.2822
833.671	139.787
838.219	63.9941
842.763	76.9502
847.306	75.6709
851.845	103.174
856.382	199.456
860.917	123.586
865.448	291.667
869.978	240.726
874.505	237.706
879.029	344.607
883.55	346.421
888.069	732.623
892.586	888.4
897.1	1434.24
901.611	1192.95
906.12	959.075
910.626	808.024
915.129	911.238
919.63	833.17
924.129	816.354
928.625	773.344
933.118	907.495
937.609	1143.97
942.097	1495.17
946.582	2128.6
951.065	3103.75
955.546	4838.52
960.023	7494.91
964.499	11273.3
968.971	15263.5
973.441	18436.6
977.909	18844.8
982.374	14903.3
986.836	11585.2
991.295	9617.75
995.753	8816.36
1000.21	8226.4
1004.66	7332.88
1009.11	7389.07
1013.55	9730.01
1018	13533.3
1022.44	12416.4
1026.88	7332.46
1031.32	4425.02
1035.75	3190.61
1040.18	2444.21
1044.61	2061.35
1049.04	1697.11
1053.46	1676.48
1057.88	1534.58
1062.3	1395.13
1066.71	1164.69
1071.13	1249.36
1075.54	941.559
1079.94	778.01
1084.35	658.395
1088.75	465.277
1093.15	513.21
1097.55	463.244
1101.94	384.907
1106.34	181.819
1110.73	152.935
1115.11	163.254
1119.5	636.94
1123.88	999.872
1128.26	592.945
1132.63	80.8203
1137.01	111.717
1141.38	28.6836
1145.75	5.85938
1150.12	112.711
1154.48	111.978
1158.84	62.6748
1163.2	19.4648
1167.55	56.4678
1171.91	35.3779
1176.26	22.5908
1180.61	7.40332
1184.95	70.0791
1189.29	33.1133
1193.63	6.99902
1197.97	138.351
1202.31	69.9297
1206.64	131.714
1210.97	74.5
1215.29	60.9414
1219.62	10.9854
1223.94	39.1484
1228.26	24.8545
1232.57	55.2998
1236.89	16.5088
1241.2	118.442
1245.51	80.1289
1249.81	80.6045
1254.12	89.8633
1258.42	1.35644
1262.72	13.2373
1267.01	48.085
1271.3	198.828
1275.59	128.45
1279.88	15.4893
1284.17	119.195
1288.45	174.175
1292.73	68.2168
1297.01	83.2812
1301.28	71.5273
1305.55	84.9082
1309.82	156.978
1314.09	203.055
1318.35	220.413
1322.61	13.5146
1326.87	111.238
1331.13	166.513
1335.38	69.96
1339.63	186.733
1343.88	285.849
1348.12	388.323
1352.37	262.737
1356.61	371.663
1360.85	339.043
1365.08	405.298
1369.31	516.688
1373.54	508.444
1377.77	459.024
1381.99	560.454
1386.22	417.452
1390.43	325.547
1394.65	277.517
1398.87	231.959
1403.08	163.616
1407.29	203.876
1411.49	217.649
1415.69	188.837
1419.89	32.9043
1424.09	212.061
1428.29	85.6201
1432.48	87.6865
1436.67	104.011
1440.86	95.6728
1445.04	23.0732
1449.23	72.8516
1453.4	185.962
1457.58	115.964
1461.76	139.703
1465.93	78.4424
1470.1	91.9951
1474.26	114.319
1478.43	126.234
1482.59	199.432
1486.75	40.1748
1490.9	97.3477
1495.06	63.5244
1499.21	49.3203
1503.35	32.1982
1507.5	236.751
1511.64	313.816
1515.78	99.6562
1519.92	149.638
1524.05	92.6699
1528.18	253.365
1532.31	197.956
1536.44	183.093
1540.56	186.305
1544.69	133.047
1548.8	153.651
1552.92	210.266
1557.03	232.81
1561.14	241.427
1565.25	110.322
1569.36	21.2832
