Measurement: Raman, 514 nm, ccw, Raman Data Processed
Mineral: Serandite
Rruff sample: R050261
Ideal chemistry: NaMn^2+^_2_Si_3_O_8_(OH)
Locality: Mont Saint-Hilaire, Rouville County, Quebec, Canada
Source: Marcus Origlieri
Description: Orange tabular single crystal associated with aegirine and microcline
Measured chemistry: Na_0.96_(Mn_0.92_Ca_0.06_Fe_0.01_)_2_Si_3.03_O_8_(OH)
Pin_id: L01713
Orientation: Laser parallel to -a* (-1 0 0). Fiducial mark perpendicular to laser is parallel to b [0 1 0]
Raman shift (cm-1)	intensity
93.48	0
98.416	13.7805
103.349	162.044
108.28	582.704
113.208	426.211
118.134	499.83
123.058	333.894
127.979	795.016
132.898	2367.44
137.814	4347.88
142.728	2925.22
147.639	806.843
152.549	628.946
157.455	1339.87
162.359	2855.49
167.261	4234.57
172.161	3190.93
177.058	1416.97
181.952	1087.12
186.845	1303.3
191.734	2062.39
196.622	1964.29
201.507	1214.93
206.389	651.255
211.269	287.044
216.147	189.315
221.022	10.0748
225.895	89.6705
230.765	86.9296
235.633	129.175
240.498	78.335
245.361	33.4734
250.222	166.079
255.08	699.016
259.936	1121.8
264.789	906.111
269.64	691.795
274.488	710.771
279.334	895.797
284.178	1209.79
289.019	1543.84
293.857	1776.03
298.693	1862.46
303.527	1548.22
308.358	1028.09
313.187	818.992
318.013	914.055
322.837	1479.6
327.659	1937.55
332.478	1855.87
337.294	1292.56
342.108	970.606
346.92	1161.99
351.729	1709.72
356.535	3149.77
361.34	5872.15
366.141	8147.41
370.94	6372.38
375.737	3124.15
380.531	1323.96
385.323	722.434
390.113	471.062
394.9	506.82
399.684	848.906
404.466	1797.3
409.245	3660
414.022	6911.99
418.797	8982.27
423.569	7427.83
428.338	4185.68
433.105	1966.93
437.87	909.36
442.632	353.408
447.391	20.677
452.149	52.9839
456.903	140.959
461.655	476.174
466.405	458.894
471.152	188.078
475.897	237.519
480.639	375.318
485.378	1021.45
490.116	2522.87
494.85	3052.58
499.582	1196.56
504.312	313.86
509.039	113.489
513.764	20.5056
518.486	49.0049
523.206	323.13
527.923	561.912
532.638	768.127
537.35	936.507
542.059	983.193
546.766	802.996
551.471	572.45
556.173	404.341
560.873	279.303
565.57	115.399
570.264	77.5237
574.957	10.7012
579.646	6.18506
584.333	20.2935
589.018	29.7705
593.7	60.3938
598.379	30.968
603.056	14.2629
607.73	127.212
612.402	136.014
617.072	294.908
621.739	415.961
626.403	598.889
631.065	916.33
635.724	1390.67
640.381	2086.5
645.035	3137.92
649.687	5054.5
654.336	9400.37
658.983	19742.6
663.627	40639.9
668.268	52582.1
672.907	28988
677.544	12140.9
682.178	6269.54
686.809	3842.32
691.438	2671.66
696.065	2070.05
700.688	1677.53
705.31	1474.38
709.929	1124.68
714.545	1235.2
719.158	1868.56
723.77	1202.87
728.378	625.532
732.984	418.885
737.588	288.884
742.189	226.836
746.787	118.565
751.383	124.008
755.976	20.7976
760.567	79.6785
765.155	71.7864
769.741	6.86743
774.324	5.67773
778.904	19.4507
783.482	31.3186
788.058	19.7127
792.631	2.59985
797.201	3.64453
801.769	13.0625
806.334	13.6692
810.897	55.5098
815.457	43.6611
820.014	48.0947
824.569	4.19873
829.122	46.8201
833.671	3.1167
838.219	7.28247
842.763	33.564
847.306	14.2036
851.845	8.66089
856.382	15.3259
860.917	54.8616
865.448	107.045
869.978	121.956
874.505	177.698
879.029	291.151
883.55	544.914
888.069	998.715
892.586	2007.6
897.1	3384.32
901.611	3126.41
906.12	1871.43
910.626	1179.93
915.129	736.741
919.63	556.942
924.129	531.423
928.625	567.728
933.118	444.653
937.609	571.676
942.097	858.841
946.582	1197.08
951.065	1831.28
955.546	2645.3
960.023	4291.8
964.499	6319.61
968.971	9116.77
973.441	13067.3
977.909	17380.6
982.374	16221.9
986.836	10007.1
991.295	7003.39
995.753	6129.49
1000.21	5911.76
1004.66	6572.83
1009.11	8517.56
1013.55	13639.5
1018	20896.9
1022.44	21671.1
1026.88	13603.5
1031.32	7285.67
1035.75	4231.58
1040.18	2724.49
1044.61	2037.33
1049.04	1583.73
1053.46	1122.73
1057.88	948.234
1062.3	812.212
1066.71	735.125
1071.13	574.055
1075.54	394.677
1079.94	447.798
1084.35	281.683
1088.75	260.292
1093.15	295.046
1097.55	99.3662
1101.94	34.292
1106.34	137.106
1110.73	43.8545
1115.11	93.3628
1119.5	98.5811
1123.88	378.75
1128.26	172.971
1132.63	29.3916
1137.01	93.7451
1141.38	29.6323
1145.75	10.3838
1150.12	5.01123
1154.48	36.5737
1158.84	133.732
1163.2	101.722
1167.55	40.6016
1171.91	74.188
1176.26	62.1865
1180.61	116.27
1184.95	35.5815
1189.29	9.43457
1193.63	0.259277
1197.97	52.7627
1202.31	38.7109
1206.64	22.0591
1210.97	37.4228
1215.29	16.4204
1219.62	107.798
1223.94	21.2803
1228.26	107.766
1232.57	35.581
1236.89	116.042
1241.2	92.4214
1245.51	83.5176
1249.81	67.188
1254.12	24.4439
1258.42	50.0444
1262.72	123.142
1267.01	117.46
1271.3	33.8794
1275.59	191.48
1279.88	69.8047
1284.17	198.343
1288.45	132.465
1292.73	128.582
1297.01	211.275
1301.28	164.833
1305.55	165.698
1309.82	183.898
1314.09	194.816
1318.35	271.708
1322.61	99.5205
1326.87	98.6582
1331.13	182.605
1335.38	151.648
1339.63	161.059
1343.88	126.243
1348.12	89.4277
1352.37	109.534
1356.61	152.413
1360.85	92.2764
1365.08	223.387
1369.31	152.472
1373.54	116.6
1377.77	207.476
1381.99	145.174
1386.22	168.263
1390.43	78.0918
1394.65	242.295
1398.87	51.8935
1403.08	72.6416
1407.29	90.8731
1411.49	83.5908
1415.69	45.4453
1419.89	6.91406
1424.09	232.883
1428.29	3.2793
1432.48	11.8379
1436.67	5.65234
1440.86	88.2529
1445.04	19.1309
1449.23	9.26758
1453.4	43.8232
1457.58	165.566
1461.76	127.67
1465.93	82.5693
1470.1	259.63
1474.26	30.7676
1478.43	213.266
1482.59	209.032
1486.75	53.957
1490.9	302.652
1495.06	191.301
1499.21	137.733
1503.35	140.305
1507.5	70.7393
1511.64	207.237
1515.78	222.489
1519.92	101.53
1524.05	102.786
1528.18	23.3105
1532.31	217.607
1536.44	77.6445
1540.56	74.6338
1544.69	148.4
1548.8	83.2666
1552.92	157.667
1557.03	234.249
1561.14	46.1367
1565.25	129.317
1569.36	118.704
