Measurement: Raman, 514 nm, ccw, Raman Data Processed
Mineral: Serandite
Rruff sample: R050261
Ideal chemistry: NaMn^2+^_2_Si_3_O_8_(OH)
Locality: Mont Saint-Hilaire, Rouville County, Quebec, Canada
Source: Marcus Origlieri
Description: Orange tabular single crystal associated with aegirine and microcline
Measured chemistry: Na_0.96_(Mn_0.92_Ca_0.06_Fe_0.01_)_2_Si_3.03_O_8_(OH)
Pin_id: L01880
Orientation: Laser parallel to (1 0 1). Fiducial mark perpendicular to laser is parallel to b [0 1 0]
Raman shift (cm-1)	intensity
93.48	0
98.416	224.476
103.349	1752.51
108.28	2883.14
113.208	2908.08
118.134	3016.38
123.058	593.46
127.979	446.353
132.898	2645.72
137.814	3630.53
142.728	1129.98
147.639	97.5518
152.549	321.604
157.455	1439.93
162.359	2300.66
167.261	2045.27
172.161	1207.57
177.058	786.134
181.952	623.466
186.845	1105.63
191.734	2223.65
196.622	1666.33
201.507	885.34
206.389	170.824
211.269	98.0635
216.147	149.548
221.022	138.344
225.895	311.508
230.765	535.195
235.633	561.037
240.498	475.882
245.361	559.522
250.222	994.785
255.08	1611.99
259.936	2450.38
264.789	2335.11
269.64	1892.51
274.488	1795.48
279.334	2440.1
284.178	3492.28
289.019	4119.97
293.857	4058.62
298.693	3597.62
303.527	2528.72
308.358	1470
313.187	967.177
318.013	1017.94
322.837	1474.7
327.659	1827.6
332.478	1695.62
337.294	1194.74
342.108	772.954
346.92	820.236
351.729	1268.54
356.535	2418.6
361.34	3982.09
366.141	4393.48
370.94	2422.78
375.737	783.073
380.531	142.367
385.323	118.435
390.113	69.97
394.9	10.0703
399.684	325.804
404.466	984.39
409.245	2248.35
414.022	3866.64
418.797	4113.92
423.569	3034.19
428.338	1670.41
433.105	717.237
437.87	287.339
442.632	60.1738
447.391	48.7941
452.149	59.4106
456.903	52.6766
461.655	221.399
466.405	283.005
471.152	347.504
475.897	615.894
480.639	1060.2
485.378	1982.48
490.116	3195.7
494.85	2868.95
499.582	1856.3
504.312	1508
509.039	1504.95
513.764	1203.02
518.486	1088.18
523.206	1290.36
527.923	1207.28
532.638	826.227
537.35	485.174
542.059	384.386
546.766	331.445
551.471	267.415
556.173	233.264
560.873	125.97
565.57	81.5306
570.264	38.9481
574.957	55.1876
579.646	76.1993
584.333	23.576
589.018	84.7259
593.7	36.1679
598.379	111.206
603.056	151.73
607.73	198.627
612.402	267.371
617.072	441.686
621.739	625.908
626.403	855.667
631.065	1184.48
635.724	1683.83
640.381	2503.59
645.035	3886.11
649.687	6210.89
654.336	11353.6
658.983	24834.5
663.627	50554.7
668.268	59229.7
672.907	31534.6
677.544	13447
682.178	7337.55
686.809	4983.55
691.438	4127.32
696.065	5021.25
700.688	6894.94
705.31	5978.78
709.929	3397.65
714.545	2070.41
719.158	1566.19
723.77	1064.59
728.378	681.045
732.984	381.081
737.588	322.469
742.189	294.601
746.787	184.399
751.383	129.866
755.976	26.9933
760.567	44.683
765.155	33.8779
769.741	28.4197
774.324	24.3822
778.904	49.0375
783.482	26.4712
788.058	19.6525
792.631	3.68384
797.201	3.5481
801.769	9.85083
806.334	25.8267
810.897	60.3751
815.457	24.4675
820.014	13.0463
824.569	14.0885
829.122	22.8888
833.671	26.4193
838.219	2.70837
842.763	5.81104
847.306	1.88513
851.845	83.1738
856.382	78.6404
860.917	133.956
865.448	188.136
869.978	254.177
874.505	416.126
879.029	522.979
883.55	796.726
888.069	1654.48
892.586	3054.76
897.1	4770.77
901.611	3809.68
906.12	2273.66
910.626	1679.99
915.129	1423.96
919.63	1262.97
924.129	987.595
928.625	998.726
933.118	1071
937.609	1224.51
942.097	1535.01
946.582	1997.92
951.065	2928.81
955.546	4436.54
960.023	6640.34
964.499	9750.45
968.971	13262.3
973.441	16438.1
977.909	17733.8
982.374	15055.2
986.836	11428.3
991.295	9623.75
995.753	9111.46
1000.21	9440.47
1004.66	10008.9
1009.11	13285.3
1013.55	21607.2
1018	31988.9
1022.44	28531.3
1026.88	16064.6
1031.32	8703.92
1035.75	5338
1040.18	3708.37
1044.61	2689.38
1049.04	2095.09
1053.46	1677.72
1057.88	1368.41
1062.3	1236.19
1066.71	1013.94
1071.13	946.929
1075.54	763.804
1079.94	583.51
1084.35	444.527
1088.75	350.195
1093.15	374.002
1097.55	266.865
1101.94	228.69
1106.34	138.275
1110.73	89.6936
1115.11	64.9597
1119.5	127.326
1123.88	183.696
1128.26	195.991
1132.63	23.5579
1137.01	4.65674
1141.38	2.4314
1145.75	15.7835
1150.12	8.19263
1154.48	6.55859
1158.84	5.82983
1163.2	39.1536
1167.55	7.28467
1171.91	14.9463
1176.26	6.10767
1180.61	34.1345
1184.95	2.92725
1189.29	3.73877
1193.63	25.9206
1197.97	66.6074
1202.31	10.4929
1206.64	47.8567
1210.97	25.0186
1215.29	24.8037
1219.62	59.375
1223.94	0.295166
1228.26	18.4829
1232.57	79.9309
1236.89	54.0232
1241.2	56.6919
1245.51	29.9314
1249.81	84.7446
1254.12	15.8447
1258.42	15.019
1262.72	21.4177
1267.01	32.5935
1271.3	34.375
1275.59	66.5312
1279.88	39.4849
1284.17	90.6462
1288.45	64.9705
1292.73	82.1218
1297.01	96.3525
1301.28	124.767
1305.55	64.5603
1309.82	151.892
1314.09	123.889
1318.35	150.637
1322.61	146.352
1326.87	96.3848
1331.13	144.528
1335.38	155.256
1339.63	144.236
1343.88	149.101
1348.12	182.757
1352.37	206.473
1356.61	241.878
1360.85	225.099
1365.08	248.775
1369.31	249.533
1373.54	306.748
1377.77	280.381
1381.99	273.749
1386.22	223.985
1390.43	144.614
1394.65	93.5229
1398.87	104.531
1403.08	116.359
1407.29	156.788
1411.49	115.306
1415.69	61.7129
1419.89	99.5147
1424.09	3.43335
1428.29	86.5481
1432.48	46.9414
1436.67	68.3506
1440.86	57.3066
1445.04	10.3059
1449.23	75.2703
1453.4	65.2744
1457.58	34.4241
1461.76	14.1416
1465.93	112.707
1470.1	78.0828
1474.26	96.3823
1478.43	40.6506
1482.59	111.021
1486.75	103.046
1490.9	85.8132
1495.06	103.972
1499.21	91.5835
1503.35	37.8415
1507.5	70.6348
1511.64	161.374
1515.78	2.66382
1519.92	73.3926
1524.05	18.8852
1528.18	35.0264
1532.31	10.3696
1536.44	39.0679
1540.56	35.5933
1544.69	4.69287
1548.8	124.325
1552.92	139.061
1557.03	2.9043
1561.14	5.10742
1565.25	121.112
1569.36	0.217285
