Measurement: Raman, 514 nm, ccw, Raman Data Processed
Mineral: Serandite
Rruff sample: R050261
Ideal chemistry: NaMn^2+^_2_Si_3_O_8_(OH)
Locality: Mont Saint-Hilaire, Rouville County, Quebec, Canada
Source: Marcus Origlieri
Description: Orange tabular single crystal associated with aegirine and microcline
Measured chemistry: Na_0.96_(Mn_0.92_Ca_0.06_Fe_0.01_)_2_Si_3.03_O_8_(OH)
Pin_id: L00791
Orientation: Laser parallel to -c* (0 0 -1). Fiducial mark perpendicular to laser is parallel to -a [-1 0 0]
Raman shift (cm-1)	intensity
93.48	0
98.416	63.5643
103.349	354.022
108.28	1879.31
113.208	3047.37
118.134	6921.25
123.058	6953.65
127.979	1009.33
132.898	656.548
137.814	963.987
142.728	310.621
147.639	21.4496
152.549	14.2028
157.455	245.19
162.359	835.224
167.261	2053.77
172.161	3306.01
177.058	1672.32
181.952	1091.59
186.845	510.642
191.734	349.552
196.622	417.296
201.507	604.924
206.389	364.555
211.269	555.163
216.147	703.733
221.022	793.256
225.895	1260.72
230.765	2066.12
235.633	2940.38
240.498	2714.88
245.361	1870.07
250.222	1575.11
255.08	2057.85
259.936	3307.13
264.789	2791.83
269.64	1772.3
274.488	1370.52
279.334	1343.06
284.178	1577.86
289.019	1872.3
293.857	1649.08
298.693	1412.95
303.527	1081.36
308.358	720.686
313.187	482.997
318.013	395.263
322.837	502.432
327.659	764.491
332.478	746.442
337.294	401.287
342.108	158.026
346.92	72.6608
351.729	82.1896
356.535	88.6119
361.34	180.928
366.141	274.408
370.94	197.247
375.737	6.25561
380.531	56.8991
385.323	128.836
390.113	109.823
394.9	85.7454
399.684	28.4186
404.466	157.615
409.245	366.594
414.022	612.518
418.797	680.399
423.569	389.234
428.338	116.021
433.105	14.752
437.87	61.5935
442.632	19.9984
447.391	11.4836
452.149	115.88
456.903	187.513
461.655	460.529
466.405	601.786
471.152	680.444
475.897	823.18
480.639	1099.32
485.378	1487.43
490.116	2129.52
494.85	2960.57
499.582	2629.64
504.312	1994.73
509.039	1555.89
513.764	1047.15
518.486	612.698
523.206	341.306
527.923	189.732
532.638	93.8534
537.35	151.539
542.059	315.939
546.766	416.567
551.471	432.447
556.173	350.459
560.873	372.661
565.57	318.019
570.264	258.523
574.957	223.661
579.646	158.702
584.333	131.493
589.018	109.919
593.7	118
598.379	163.165
603.056	222.412
607.73	316.739
612.402	307.144
617.072	398.625
621.739	597.179
626.403	736.803
631.065	1015.5
635.724	1380.05
640.381	1949.3
645.035	2940.46
649.687	4412.89
654.336	7483.1
658.983	15229.4
663.627	33040.8
668.268	58059
672.907	42013.1
677.544	17271.2
682.178	8816.13
686.809	5858.28
691.438	5255.66
696.065	6772.98
700.688	10959.3
705.31	13675.5
709.929	8414.39
714.545	4380.66
719.158	2713.15
723.77	1780.42
728.378	1134.62
732.984	741.354
737.588	510.123
742.189	430.752
746.787	323.239
751.383	200.58
755.976	155.772
760.567	70.8113
765.155	56.6962
769.741	79.4242
774.324	41.974
778.904	14.6936
783.482	15.3567
788.058	21.929
792.631	31.65
797.201	24.0032
801.769	24.9627
806.334	17.3988
810.897	18.6638
815.457	40.7006
820.014	23.5508
824.569	11.8964
829.122	15.5405
833.671	21.474
838.219	11.2152
842.763	9.38391
847.306	1.7478
851.845	14.9927
856.382	42.1775
860.917	21.5776
865.448	60.8302
869.978	67.9497
874.505	97.9441
879.029	118.82
883.55	166.584
888.069	230.244
892.586	463.808
897.1	686.294
901.611	916.711
906.12	735.066
910.626	729.593
915.129	784.005
919.63	917.424
924.129	917.314
928.625	918.746
933.118	1014.24
937.609	1224.36
942.097	1593.67
946.582	2102.93
951.065	3011.93
955.546	4471.19
960.023	6666.83
964.499	9569
968.971	12655.2
973.441	14921.5
977.909	15092.3
982.374	14083.2
986.836	13414.9
991.295	12475.9
995.753	11866
1000.21	12093.8
1004.66	11713.3
1009.11	12239.2
1013.55	16665.4
1018	25212.8
1022.44	28399.3
1026.88	18029.6
1031.32	9679.39
1035.75	5805.74
1040.18	4070.51
1044.61	3017.95
1049.04	2459.97
1053.46	2094.14
1057.88	1830.38
1062.3	1680.23
1066.71	1404.99
1071.13	1187.06
1075.54	1132.12
1079.94	882.754
1084.35	733.569
1088.75	622.706
1093.15	514.606
1097.55	460.41
1101.94	404.382
1106.34	275.785
1110.73	154.593
1115.11	165.845
1119.5	377.543
1123.88	409.564
1128.26	345.707
1132.63	107.096
1137.01	29.6326
1141.38	31.8821
1145.75	11.7466
1150.12	28.4812
1154.48	4.94604
1158.84	2.21631
1163.2	12.6096
1167.55	1.44556
1171.91	34.813
1176.26	16.001
1180.61	23.0608
1184.95	2.81519
1189.29	1.39136
1193.63	14.9292
1197.97	15.6704
1202.31	26.3098
1206.64	35.5303
1210.97	70.2649
1215.29	15.6318
1219.62	1.84424
1223.94	44.846
1228.26	73.5859
1232.57	11.8923
1236.89	6.37817
1241.2	2.59228
1245.51	61.1728
1249.81	36.6904
1254.12	26.1035
1258.42	34.7105
1262.72	27.2312
1267.01	27.3774
1271.3	40.23
1275.59	100.965
1279.88	24.0469
1284.17	81.2647
1288.45	85.0198
1292.73	86.1938
1297.01	132.685
1301.28	94.7012
1305.55	146.812
1309.82	103.303
1314.09	136.591
1318.35	122.963
1322.61	49.9148
1326.87	130.759
1331.13	93.7524
1335.38	109.292
1339.63	159.829
1343.88	197.365
1348.12	146.213
1352.37	130.103
1356.61	147.627
1360.85	220.075
1365.08	254.829
1369.31	223.448
1373.54	211.456
1377.77	269.699
1381.99	219.804
1386.22	162.217
1390.43	152.417
1394.65	71.2498
1398.87	54.4644
1403.08	89.0911
1407.29	66.908
1411.49	14.0862
1415.69	89.4792
1419.89	28.4036
1424.09	92.1497
1428.29	17.9963
1432.48	53.2888
1436.67	42.5093
1440.86	25.5479
1445.04	74.6204
1449.23	79.2312
1453.4	123.74
1457.58	72.021
1461.76	56.2908
1465.93	52.4727
1470.1	32.2046
1474.26	38.6296
1478.43	77.769
1482.59	114.102
1486.75	89.3586
1490.9	69.4077
1495.06	101.739
1499.21	27.561
1503.35	26.0059
1507.5	72.9661
1511.64	27.1194
1515.78	95.3557
1519.92	85.0491
1524.05	63.5139
1528.18	88.5425
1532.31	42.8462
1536.44	117.875
1540.56	21.2512
1544.69	63.6509
1548.8	114.252
1552.92	167.832
1557.03	61.7353
1561.14	20.9746
1565.25	71.8965
1569.36	63.8171
