Measurement: Raman, 514 nm, ccw, Raman Data Processed
Mineral: Serandite
Rruff sample: R050261
Ideal chemistry: NaMn^2+^_2_Si_3_O_8_(OH)
Locality: Mont Saint-Hilaire, Rouville County, Quebec, Canada
Source: Marcus Origlieri
Description: Orange tabular single crystal associated with aegirine and microcline
Measured chemistry: Na_0.96_(Mn_0.92_Ca_0.06_Fe_0.01_)_2_Si_3.03_O_8_(OH)
Pin_id: L01881
Orientation: Laser parallel to (1 1 0). Fiducial mark perpendicular to laser is parallel to -c [0 0 -1]
Raman shift (cm-1)	intensity
93.48	0
98.416	37.8214
103.349	458.103
108.28	1587.98
113.208	2383.61
118.134	4238.85
123.058	2973.93
127.979	596.315
132.898	1128.43
137.814	2208.39
142.728	1557.01
147.639	241.226
152.549	67.3911
157.455	109.754
162.359	760.56
167.261	1762.02
172.161	2415.36
177.058	1280.49
181.952	852.582
186.845	285.572
191.734	1.4563
196.622	28.5564
201.507	105.047
206.389	55.7676
211.269	209.535
216.147	304.223
221.022	464.651
225.895	795.825
230.765	1335.95
235.633	1841.93
240.498	1553.14
245.361	959.045
250.222	785.431
255.08	935.856
259.936	1462.74
264.789	1276.77
269.64	876.344
274.488	591.244
279.334	604.495
284.178	698.996
289.019	757.665
293.857	594.444
298.693	278.33
303.527	207.144
308.358	49.4363
313.187	10.1567
318.013	67.833
322.837	221.348
327.659	255.701
332.478	283.889
337.294	184.892
342.108	10.7407
346.92	0.611572
351.729	7.79346
356.535	156.959
361.34	260.677
366.141	349.678
370.94	208.161
375.737	95.4482
380.531	64.5288
385.323	55.4302
390.113	74.1555
394.9	70.7488
399.684	22.135
404.466	64.1387
409.245	336.276
414.022	509.283
418.797	646.152
423.569	484.88
428.338	224.459
433.105	95.8906
437.87	24.1729
442.632	14.2654
447.391	16.0102
452.149	11.6834
456.903	133.321
461.655	317.516
466.405	322.23
471.152	360.806
475.897	555.246
480.639	715.555
485.378	972.649
490.116	1368.41
494.85	1832.75
499.582	1515.63
504.312	1167.49
509.039	885.36
513.764	674.155
518.486	541.088
523.206	735.72
527.923	820.596
532.638	744.523
537.35	764.674
542.059	761.358
546.766	777.257
551.471	660.176
556.173	571.933
560.873	451.841
565.57	316.775
570.264	320.832
574.957	231.012
579.646	176.941
584.333	192.775
589.018	166.464
593.7	203.527
598.379	207.993
603.056	263.396
607.73	300.84
612.402	391.32
617.072	477.835
621.739	564.385
626.403	765.215
631.065	1051.25
635.724	1405.6
640.381	2000.44
645.035	2942.92
649.687	4544.27
654.336	7736.28
658.983	16200.3
663.627	34572
668.268	53443.8
672.907	35747.5
677.544	14865.4
682.178	7528.87
686.809	4970.48
691.438	4228.14
696.065	5373.42
700.688	8104.95
705.31	9042.56
709.929	5539.86
714.545	3000.43
719.158	1864.46
723.77	1194.98
728.378	846.895
732.984	584.319
737.588	416.914
742.189	368.381
746.787	249.715
751.383	147.916
755.976	83.9822
760.567	54.9128
765.155	23.7019
769.741	16.6616
774.324	30.7681
778.904	16.9873
783.482	1.89868
788.058	18.4736
792.631	87.1873
797.201	1.48633
801.769	61.3652
806.334	41.0908
810.897	40.8738
815.457	4.31226
820.014	19.0818
824.569	17.7429
829.122	10.2207
833.671	3.49463
838.219	40.5486
842.763	6.61231
847.306	10.1428
851.845	39.9861
856.382	54.9536
860.917	59.7717
865.448	66.4165
869.978	114.944
874.505	119.359
879.029	139.664
883.55	333.88
888.069	776.049
892.586	1462.22
897.1	2394.33
901.611	2482.09
906.12	1559.35
910.626	994.253
915.129	812.611
919.63	868.037
924.129	870.859
928.625	815.756
933.118	907.226
937.609	982.811
942.097	1237.14
946.582	1612.31
951.065	2243.35
955.546	3164.87
960.023	4635.95
964.499	6576.3
968.971	8704
973.441	10111.8
977.909	10564.5
982.374	9868.15
986.836	9495.68
991.295	8670.99
995.753	8921.87
1000.21	9520.79
1004.66	9757.85
1009.11	12028
1013.55	18352.4
1018	28930.1
1022.44	31429.5
1026.88	19780.3
1031.32	10461.6
1035.75	6208.08
1040.18	4128.79
1044.61	2882.04
1049.04	2245.67
1053.46	1979.39
1057.88	1576.59
1062.3	1361.22
1066.71	1219.95
1071.13	962.099
1075.54	943.072
1079.94	773.475
1084.35	611.165
1088.75	506.157
1093.15	402.455
1097.55	246.568
1101.94	289.781
1106.34	208.279
1110.73	94.5271
1115.11	148.287
1119.5	222.395
1123.88	165.054
1128.26	225.24
1132.63	49.4844
1137.01	47.8935
1141.38	21.2227
1145.75	6.1394
1150.12	12.5142
1154.48	24.28
1158.84	76.0518
1163.2	97.9404
1167.55	48.331
1171.91	13.7229
1176.26	23.8621
1180.61	27.2402
1184.95	34.217
1189.29	44.7849
1193.63	16.4685
1197.97	20.5979
1202.31	81.1929
1206.64	41.8066
1210.97	15.905
1215.29	55.2715
1219.62	19.4912
1223.94	103.495
1228.26	35.3032
1232.57	12.9304
1236.89	67.3581
1241.2	60.5942
1245.51	38.3599
1249.81	53.1445
1254.12	24.3501
1258.42	25.333
1262.72	68.0781
1267.01	58.624
1271.3	151.942
1275.59	73.3005
1279.88	179.853
1284.17	39.1011
1288.45	95.6216
1292.73	192.769
1297.01	176.062
1301.28	109.497
1305.55	254.602
1309.82	108.676
1314.09	151.367
1318.35	169.082
1322.61	173.617
1326.87	105.48
1331.13	198.663
1335.38	159.024
1339.63	106.537
1343.88	159.365
1348.12	157.976
1352.37	187.693
1356.61	259.203
1360.85	252.309
1365.08	263.252
1369.31	200.801
1373.54	251.051
1377.77	262.531
1381.99	257.038
1386.22	287.191
1390.43	124.562
1394.65	128.551
1398.87	111.503
1403.08	72.917
1407.29	19.2764
1411.49	46.5903
1415.69	188.062
1419.89	18.3867
1424.09	132.556
1428.29	37.3887
1432.48	94.4336
1436.67	134.29
1440.86	17.8315
1445.04	53.4658
1449.23	101.581
1453.4	128.147
1457.58	124.904
1461.76	12.6724
1465.93	59.4136
1470.1	52.1084
1474.26	139.896
1478.43	73.4434
1482.59	62.3389
1486.75	58.5513
1490.9	128.329
1495.06	38.3897
1499.21	38.1001
1503.35	78.2769
1507.5	27.4653
1511.64	88.4243
1515.78	65.5894
1519.92	128.284
1524.05	96.4644
1528.18	51.2935
1532.31	59.1714
1536.44	118.576
1540.56	11.3506
1544.69	173.219
1548.8	160.751
1552.92	119.55
1557.03	138.055
1561.14	48.7852
1565.25	118.355
1569.36	115.681
