Measurement: Raman, 514 nm, ccw, Raman Data Processed
Mineral: Serandite
Rruff sample: R050261
Ideal chemistry: NaMn^2+^_2_Si_3_O_8_(OH)
Locality: Mont Saint-Hilaire, Rouville County, Quebec, Canada
Source: Marcus Origlieri
Description: Orange tabular single crystal associated with aegirine and microcline
Measured chemistry: Na_0.96_(Mn_0.92_Ca_0.06_Fe_0.01_)_2_Si_3.03_O_8_(OH)
Pin_id: L01217
Orientation: Laser parallel to (0 -1 -1). Fiducial mark perpendicular to laser is parallel to -a [-1 0 0]
Raman shift (cm-1)	intensity
93.48	0
98.416	13.957
103.349	212.965
108.28	1280.07
113.208	1442.47
118.134	2657.16
123.058	3586.29
127.979	638.927
132.898	691.314
137.814	1919.31
142.728	2027.93
147.639	298.262
152.549	57.8472
157.455	65.2505
162.359	649.758
167.261	1495.57
172.161	2398.09
177.058	1442.22
181.952	912.412
186.845	338.592
191.734	26.8418
196.622	245.333
201.507	236.603
206.389	106.397
211.269	143.183
216.147	325.916
221.022	328.709
225.895	471.047
230.765	808.128
235.633	1343.09
240.498	1336.59
245.361	888.063
250.222	545.546
255.08	876.431
259.936	1452.87
264.789	1159.91
269.64	776.245
274.488	644.076
279.334	665.281
284.178	822.761
289.019	1122.44
293.857	943.197
298.693	759.305
303.527	601.046
308.358	308.265
313.187	241.035
318.013	115.828
322.837	93.5063
327.659	165.041
332.478	99.4204
337.294	167.643
342.108	2.69922
346.92	37.563
351.729	130.155
356.535	79.4624
361.34	139.568
366.141	316.457
370.94	202.991
375.737	87.3071
380.531	1.58984
385.323	99.0283
390.113	45.1201
394.9	54.6108
399.684	120.749
404.466	32.6597
409.245	51.9443
414.022	111.387
418.797	360.67
423.569	353.786
428.338	358.728
433.105	151.49
437.87	25.0596
442.632	24.2686
447.391	38.002
452.149	21.7124
456.903	91.147
461.655	269.776
466.405	332.216
471.152	309.47
475.897	276.539
480.639	335.426
485.378	521.089
490.116	820.814
494.85	1204.12
499.582	951.457
504.312	660.721
509.039	542.951
513.764	474.198
518.486	358.871
523.206	549.693
527.923	693.589
532.638	670.04
537.35	787.518
542.059	776.88
546.766	722.165
551.471	566.596
556.173	527.188
560.873	366.731
565.57	322.225
570.264	255.703
574.957	101.145
579.646	162.225
584.333	174.342
589.018	208.06
593.7	167.427
598.379	134.045
603.056	268.668
607.73	257.787
612.402	240.864
617.072	434.9
621.739	509.329
626.403	751.507
631.065	899.214
635.724	1134.8
640.381	1482.85
645.035	2357.11
649.687	3555.6
654.336	5849.67
658.983	11574.6
663.627	24074.3
668.268	43596.9
672.907	35181.4
677.544	14770.8
682.178	7116.02
686.809	4308.09
691.438	3394.26
696.065	3600.98
700.688	5326.79
705.31	6163.33
709.929	4291.42
714.545	2442.88
719.158	1521.43
723.77	1015.87
728.378	839.278
732.984	458.661
737.588	330.957
742.189	253.092
746.787	196.057
751.383	147.851
755.976	46.4766
760.567	83.9253
765.155	54.1968
769.741	2.72022
774.324	35.02
778.904	87.4438
783.482	38.4526
788.058	22.1768
792.631	36.6929
797.201	31.9898
801.769	57.8765
806.334	35.4111
810.897	48.4395
815.457	61.0034
820.014	46.7974
824.569	74.0435
829.122	28.5117
833.671	138.552
838.219	62.4365
842.763	23.8486
847.306	74.585
851.845	64.8564
856.382	282.923
860.917	188.858
865.448	204.685
869.978	178.292
874.505	121.042
879.029	148.601
883.55	223.135
888.069	434.703
892.586	976.113
897.1	1909.31
901.611	2134.51
906.12	1283.2
910.626	737.137
915.129	686.629
919.63	731.489
924.129	748.776
928.625	798.327
933.118	739.032
937.609	828.729
942.097	911.55
946.582	1254.31
951.065	1603.95
955.546	2279.54
960.023	3188.15
964.499	4726.99
968.971	6290.72
973.441	7285.62
977.909	7704.58
982.374	6962.86
986.836	6529.57
991.295	6398.18
995.753	6616.01
1000.21	7196.99
1004.66	7621.14
1009.11	9425.14
1013.55	14751.3
1018	24110.5
1022.44	28013.6
1026.88	18377.5
1031.32	9615.63
1035.75	5519.72
1040.18	3460.14
1044.61	2407.37
1049.04	2012.02
1053.46	1520.69
1057.88	1338.18
1062.3	1128.82
1066.71	945.241
1071.13	910.391
1075.54	634.408
1079.94	532.796
1084.35	590.308
1088.75	455.758
1093.15	366.438
1097.55	275.402
1101.94	155.765
1106.34	81.25
1110.73	310.425
1115.11	102.017
1119.5	288.656
1123.88	156.017
1128.26	275.725
1132.63	58.4424
1137.01	14.6045
1141.38	44.1162
1145.75	41.4795
1150.12	3.66016
1154.48	110.631
1158.84	151.6
1163.2	47.4522
1167.55	64.2832
1171.91	61.0967
1176.26	34.0947
1180.61	90.5078
1184.95	32.8018
1189.29	3.26562
1193.63	69.5
1197.97	72.0703
1202.31	49.6719
1206.64	174.349
1210.97	41.7715
1215.29	55.8984
1219.62	24.8105
1223.94	35.2315
1228.26	49.1299
1232.57	105.849
1236.89	93.9531
1241.2	117.35
1245.51	43.5947
1249.81	101.677
1254.12	92.6025
1258.42	104.359
1262.72	43.9473
1267.01	158.319
1271.3	213.828
1275.59	115.263
1279.88	262.013
1284.17	231.373
1288.45	135.151
1292.73	231.294
1297.01	239.263
1301.28	251.033
1305.55	303.366
1309.82	231.65
1314.09	354.542
1318.35	166.927
1322.61	139.958
1326.87	227.454
1331.13	187.355
1335.38	91.7383
1339.63	144.083
1343.88	95.7939
1348.12	171.005
1352.37	232.866
1356.61	267.768
1360.85	7.41602
1365.08	240.783
1369.31	264.733
1373.54	355.193
1377.77	314.934
1381.99	194.445
1386.22	179.118
1390.43	265.062
1394.65	168.091
1398.87	173.428
1403.08	30.6992
1407.29	130.277
1411.49	69.5342
1415.69	163.357
1419.89	68.4356
1424.09	100.586
1428.29	51.9043
1432.48	2.28809
1436.67	64.2227
1440.86	118.198
1445.04	222.176
1449.23	281.106
1453.4	290.43
1457.58	417.486
1461.76	270.791
1465.93	117.334
1470.1	110.192
1474.26	252.648
1478.43	139.056
1482.59	202.486
1486.75	147.88
1490.9	268.716
1495.06	79.4297
1499.21	12.1953
1503.35	149.806
1507.5	51.3105
1511.64	105.402
1515.78	243.963
1519.92	58.9512
1524.05	310.456
1528.18	63.2949
1532.31	233.587
1536.44	193.609
1540.56	284.469
1544.69	209.935
1548.8	214.94
1552.92	167.307
1557.03	179.06
1561.14	13.623
1565.25	117.907
1569.36	52.5049
