Measurement: Raman, 514 nm, ccw, Raman Data Processed
Mineral: Shortite
Rruff sample: R040184
Ideal chemistry: Na_2_Ca_2_(CO_3_)_3_
Locality: Green River, Wyoming, USA
Source: University of Arizona Mineral Museum
Description: Colorless single crystal fragments
Measured chemistry: (Na_1.47_Ca_0.27_[box]_0.26_)_Î£=2_Ca_2.00_(CO_3_)_3_
Pin_id: L00385
Orientation: Laser parallel to -b* (0 -1 0). Fiducial mark perpendicular to laser is parallel to -c [0 0 -1]
Raman shift (cm-1)	intensity
111.932	0
116.123	89.022
120.311	161.369
124.497	117.91
128.681	96.162
132.862	366.314
137.042	618.308
141.219	401.863
145.394	191.183
149.567	281.686
153.738	183.998
157.907	140.811
162.073	295.804
166.237	366.758
170.4	302.737
174.559	228.539
178.717	264.003
182.873	187.009
187.026	104.631
191.178	271.977
195.327	465.683
199.474	489.398
203.618	485.214
207.761	445.313
211.902	306.589
216.04	131.082
220.176	86.002
224.31	144.138
228.442	136.456
232.572	42.928
236.7	244.522
240.825	210.385
244.948	130.416
249.07	154.608
253.189	244.041
257.306	319.638
261.42	238.396
265.533	241.117
269.643	293.498
273.752	150.462
277.858	57.935
281.962	140.535
286.064	161.044
290.164	59.735
294.262	45.972
298.358	47.86
302.451	133.919
306.543	54.331
310.632	10
314.719	97.896
318.804	141.988
322.887	75.254
326.968	37.319
331.047	215.241
335.124	224.736
339.198	40.303
343.271	9.555
347.341	191.609
351.409	206.719
355.475	58.904
359.539	25.844
363.601	116.464
367.661	206.82
371.719	24.233
375.775	39.703
379.828	223.222
383.88	140.784
387.929	13.584
391.977	71.111
396.022	161.171
400.065	256.302
404.106	9.945
408.146	21.4
412.182	176.083
416.217	264.73
420.25	38.454
424.281	48.189
428.31	241.082
432.336	266.825
436.361	130.535
440.383	13.166
444.404	190.166
448.422	180.629
452.438	168.866
456.453	70.21
460.465	89.512
464.475	304.808
468.483	140.618
472.489	111.577
476.493	32.385
480.495	198.265
484.495	254.435
488.493	18.473
492.489	36.446
496.482	97.107
500.474	305.476
504.464	158.221
508.451	31.293
512.437	156.86
516.421	249.343
520.402	293.98
524.382	102.422
528.359	75.626
532.335	266.793
536.308	312.918
540.279	195.993
544.249	0.276
548.216	56.393
552.181	321.256
556.145	308.023
560.106	66.716
564.065	5.288
568.023	181.432
571.978	272.297
575.931	104.079
579.882	32.149
583.831	91.862
587.779	326.606
591.724	267.741
595.667	190.891
599.608	11.988
603.547	124.343
607.485	381.385
611.42	275.049
615.353	86.624
619.284	35.193
623.213	162.783
627.141	373.182
631.066	288.208
634.989	77.348
638.91	134.25
642.829	149.955
646.747	354.802
650.662	272.314
654.575	25.467
658.486	71.955
662.396	216.587
666.303	317.44
670.209	183.643
674.112	114.647
678.013	60.814
681.913	324.509
685.81	329.019
689.706	283.449
693.599	329.22
697.491	194.573
701.38	377.771
705.268	481.184
709.154	1380.38
713.037	336.438
716.919	217.834
720.799	315.024
724.677	488.03
728.553	328.157
732.427	83.134
736.299	41.55
740.169	323.885
744.037	430.79
747.903	270.502
751.767	76.372
755.629	35.003
759.49	151.937
763.348	449.799
767.204	418.461
771.059	247.244
774.911	172.083
778.762	77.643
782.611	275.934
786.457	503.84
790.302	171.581
794.145	73.566
797.986	100.681
801.825	257.951
805.662	385.284
809.497	348.279
813.33	175.204
817.162	135.615
820.991	52.661
824.818	239.711
828.644	431.533
832.468	309.059
836.289	178.834
840.109	14.117
843.927	174.484
847.743	491.229
851.557	368.285
855.369	144.415
859.179	0.39
862.988	16.498
866.794	273.479
870.599	449.366
874.401	495.272
878.202	170.826
882.001	103.13
885.798	222.22
889.593	457.476
893.386	542.843
897.177	425.681
900.966	241.061
904.754	126.046
908.539	127.699
912.323	262.915
916.105	526.014
919.885	300.884
923.663	65.455
927.439	90.496
931.213	215.367
934.985	581.913
938.756	546.52
942.525	450.851
946.291	255.021
950.056	209.534
953.819	97.699
957.58	482.163
961.339	547.173
965.097	491.603
968.852	316.186
972.606	40.092
976.358	75.939
980.108	148.2
983.856	312.541
987.602	532.059
991.346	204.948
995.089	48.28
998.829	168.03
1002.57	107.35
1006.3	380.357
1010.04	512.808
1013.77	555.694
1017.5	299.617
1021.23	122.592
1024.96	195.432
1028.69	404.716
1032.41	599.671
1036.13	682.819
1039.85	511.331
1043.57	276.631
1047.29	249.434
1051	281.12
1054.72	473.998
1058.43	667.003
1062.14	998.997
1065.84	881.164
1069.55	1123.25
1073.25	335.003
1076.95	427.002
1080.66	1159.05
1084.35	2840.78
1088.05	39522.7
1091.74	5545.43
1095.44	863.409
1099.13	205.875
1102.82	217.914
1106.51	559.922
1110.19	561.812
1113.87	653.541
1117.56	531.725
1121.24	293.022
1124.91	69.519
1128.59	10.59
1132.27	194.465
1135.94	524.19
1139.61	898.434
1143.28	837.678
1146.95	547.595
1150.61	279.281
1154.28	40.554
1157.94	110.957
1161.6	383.762
1165.26	844.39
1168.91	834.896
1172.57	795.287
1176.22	275.668
1179.87	94.727
1183.52	86.291
1187.17	16.317
1190.81	176.266
1194.46	554.66
1198.1	773.386
1201.74	851.194
1205.38	568.922
1209.02	262.897
1212.65	194.529
1216.29	456.145
1219.92	577.733
1223.55	989.312
1227.17	1130.94
1230.8	1092.54
1234.42	662.837
1238.05	174.472
1241.67	134.592
1245.29	186.763
1248.91	526.056
1252.52	944.537
1256.13	1104.63
1259.75	1264.71
1263.36	914.887
1266.97	524.932
1270.57	213.789
1274.18	48.016
1277.78	10.768
1281.38	469.086
1284.98	908.525
1288.58	916.695
1292.18	955.678
1295.77	861.467
1299.36	387.799
1302.95	14.523
1306.54	32.688
1310.13	219.215
1313.72	503.545
1317.3	684.803
1320.88	960.285
1324.46	1105.39
1328.04	993.816
1331.62	781.158
1335.19	294.143
1338.77	113.301
1342.34	69.014
1345.91	236.094
1349.48	463.826
