Measurement: Raman, 514 nm, ccw, Raman Data Processed
Mineral: Shortite
Rruff sample: R050248
Ideal chemistry: Na_2_Ca_2_(CO_3_)_3_
Locality: Stauffer mine, Green River, Wyoming, USA
Source: Marcus Origlieri
Description: Colorless wedge-shaped single crystal
Measured chemistry: Na_2.00_Ca_2.00_(CO_3_)_3_ ; CO2 not measured but estimated by difference and stoichiometry.
Pin_id: L01144
Orientation: Laser parallel to a* (1 0 0). Fiducial mark perpendicular to laser is parallel to -b [0 -1 0]
Raman shift (cm-1)	intensity
102.92	0
107.875	7.69336
112.827	44.3105
117.777	33.4893
122.723	109.926
127.667	330.283
132.608	690.566
137.547	1001.54
142.482	656.758
147.415	561.868
152.345	536.062
157.272	573.992
162.197	700.395
167.118	713.987
172.037	701.526
176.954	456.777
181.867	536.467
186.778	320.556
191.685	579.394
196.591	787.334
201.493	742.427
206.393	479.161
211.289	362.651
216.184	283.323
221.075	404.894
225.964	338.106
230.849	435.916
235.732	471.291
240.613	528.412
245.49	313.79
250.365	383.425
255.237	575.273
260.107	671.873
264.973	679.405
269.837	498.398
274.698	263.224
279.557	227.381
284.412	181.404
289.265	258.357
294.116	125.732
298.963	92.6894
303.808	240.361
308.65	29.0361
313.489	157.157
318.325	69.5264
323.159	75.9834
327.99	69.8564
332.819	234.215
337.644	275.796
342.467	307.56
347.287	332.736
352.105	124.201
356.92	131.078
361.732	175.999
366.541	153.118
371.348	11.4287
376.152	9.07031
380.953	85.5928
385.751	154.516
390.547	412.606
395.34	359.519
400.13	177.112
404.918	215.016
409.703	226.804
414.485	162.192
419.265	69.1103
424.041	14.8164
428.816	55.5723
433.587	18.9619
438.356	83.7627
443.122	154.458
447.885	134.23
452.646	71.5762
457.404	30.4854
462.159	211.085
466.911	154.486
471.661	133.733
476.409	103.621
481.153	2.88672
485.895	93.1357
490.634	82.6602
495.37	357.897
500.104	171.108
504.835	93.3086
509.564	108.483
514.289	252.634
519.013	319.734
523.733	397.106
528.451	144.027
533.166	268.611
537.878	169.356
542.588	276.621
547.295	132.094
551.999	132.908
556.701	33.5176
561.4	170.213
566.096	355.506
570.79	38.3672
575.481	111.336
580.169	4.15625
584.855	123.856
589.538	106.443
594.219	219.996
598.896	117.674
603.571	139.732
608.244	377.889
612.914	50.3672
617.581	285.912
622.245	164.242
626.907	162.51
631.566	372.363
636.223	259.928
640.877	228.344
645.528	168.037
650.177	151.978
654.823	84.4199
659.466	263.609
664.107	196.705
668.745	42.4258
673.38	356.199
678.013	202.016
682.643	250.627
687.271	97.4512
691.896	448.109
696.518	501.555
701.138	457.193
705.755	619.326
710.369	1118.23
714.981	757.857
719.59	127.775
724.197	16.7383
728.801	205.898
733.402	166.295
738.001	302.582
742.597	191.103
747.19	158.545
751.781	0.732422
756.369	128.803
760.955	377.086
765.538	228.453
770.118	303.664
774.696	156.19
779.271	189.232
783.844	145.826
788.414	144.576
792.981	302.514
797.546	70.6465
802.108	73.4531
806.667	241.971
811.224	72.2441
815.779	303.232
820.33	270.738
824.88	97.5332
829.426	244.664
833.97	40.4922
838.512	276.625
843.05	198.721
847.587	114.518
852.12	106.199
856.651	192.09
861.18	169.107
865.706	139.326
870.229	43.6426
874.75	347.969
879.268	117.988
883.783	153.219
888.296	154.678
892.807	277.949
897.314	1.44336
901.82	237.623
906.322	99.0273
910.822	68.8965
915.32	84.5332
919.815	397.043
924.307	322.156
928.797	326.309
933.284	193.193
937.769	341.012
942.251	196.83
946.731	281.115
951.208	144.793
955.682	57.2617
960.154	187.512
964.623	27.6621
969.09	363.967
973.554	131.435
978.016	145.697
982.475	159.764
986.931	377.342
991.385	85.0176
995.837	44.1113
1000.29	79.8418
1004.73	81.0195
1009.18	237.988
1013.62	191.533
1018.06	207.381
1022.49	200.141
1026.93	262.656
1031.36	167.606
1035.79	110.457
1040.21	152.201
1044.63	227.334
1049.06	259.078
1053.47	344.502
1057.89	128.727
1062.3	480.719
1066.71	816.248
1071.12	1599.9
1075.53	861.162
1079.93	1011.26
1084.33	6062.41
1088.73	34713.5
1093.13	9541.55
1097.52	1118.31
1101.91	371.166
1106.3	67.3633
1110.68	330.353
1115.07	169.352
1119.45	353.438
1123.83	389.883
1128.2	160.531
1132.57	95.3438
1136.94	296.541
1141.31	325.305
1145.68	24.7617
1150.04	412.447
1154.4	224.471
1158.76	276.408
1163.11	518.031
1167.47	145.106
1171.82	322.826
1176.16	146.443
1180.51	114.402
1184.85	357.211
1189.19	226.977
1193.53	321.246
1197.87	59.2754
1202.2	5.10156
1206.53	40.7207
1210.86	228.947
1215.18	422.615
1219.51	189.5
1223.83	111.154
1228.15	152.559
1232.46	228.793
1236.77	385.365
1241.09	254.217
1245.39	86.9844
1249.7	505.898
1254	202.203
1258.3	154.715
1262.6	121.121
1266.9	199.773
1271.19	388.426
1275.48	109.078
1279.77	36.332
1284.05	296.738
1288.34	233.613
1292.62	256.934
1296.9	201.957
1301.17	380.641
1305.44	235.992
1309.72	459.902
1313.98	200.586
1318.25	157.719
1322.51	219.082
1326.78	157.953
1331.03	244.82
1335.29	146.629
1339.54	156.809
1343.8	413.809
1348.04	335.391
1352.29	272.816
1356.53	616.75
1360.78	318.332
1365.02	295.918
1369.25	234.441
1373.49	5.95703
1377.72	99.9453
1381.95	11.582
1386.17	92.8672
1390.4	90.1562
1394.62	176.828
1398.84	227.766
1403.06	426.941
1407.27	447.566
1411.48	255.684
1415.69	307.086
1419.9	598.555
1424.1	323.188
1428.31	8.92188
1432.51	408.812
1436.7	401.973
1440.9	382.129
1445.09	440.203
1449.28	116.469
1453.47	265.566
1457.65	162.691
1461.84	274.219
1466.02	327.57
1470.2	272.758
1474.37	348.871
1478.55	401.129
1482.72	337.848
1486.88	181.023
1491.05	291.019
1495.21	71.707
1499.38	124.727
1503.54	215.945
1507.69	47.3867
1511.85	505.223
1516	401.242
1520.15	100.555
1524.29	123.098
1528.44	457.602
1532.58	270.617
1536.72	150.852
1540.86	4.09766
1544.99	207.856
1549.12	98.4648
1553.25	200.363
1557.38	240.434
1561.51	228.727
1565.63	196.816
1569.75	0.066406
