Measurement: Raman, 514 nm, ccw, Raman Data Processed
Mineral: Shortite
Rruff sample: R040184
Ideal chemistry: Na_2_Ca_2_(CO_3_)_3_
Locality: Green River, Wyoming, USA
Source: University of Arizona Mineral Museum
Description: Colorless single crystal fragments
Measured chemistry: (Na_1.47_Ca_0.27_[box]_0.26_)_Î£=2_Ca_2.00_(CO_3_)_3_
Pin_id: L00385
Orientation: Laser parallel to -b* (0 -1 0). Fiducial mark perpendicular to laser is parallel to -c [0 0 -1]
Raman shift (cm-1)	intensity
113.329	0
117.519	174.477
121.706	285.369
125.892	506.211
130.075	1131.18
134.256	3560.84
138.435	7112.04
142.611	2384.68
146.786	632.784
150.958	370.977
155.128	353.27
159.296	188.79
163.462	276.814
167.625	569.404
171.786	435.134
175.946	506.631
180.103	924.419
184.258	863.676
188.41	864.075
192.561	1510.48
196.709	3806.74
200.856	3969.9
205	3263.2
209.142	1741.94
213.281	821.01
217.419	546.715
221.554	270.169
225.688	64.376
229.819	203.847
233.948	238.804
238.075	101.821
242.2	215.547
246.322	356.631
250.443	603.923
254.561	886.074
258.677	1719.3
262.791	3887.24
266.903	6347.26
271.013	3730.94
275.121	1449.13
279.226	752.395
283.33	405.117
287.431	219.824
291.53	141.255
295.627	203.371
299.722	40.328
303.815	14.71
307.906	64.702
311.995	130.212
316.081	89.756
320.166	15.908
324.248	32.277
328.328	118.264
332.406	12.263
336.482	156.445
340.556	70.285
344.628	13.257
348.697	25.252
352.765	96.706
356.83	72.178
360.894	343.086
364.955	144.24
369.014	4.199
373.071	14.854
377.126	103.07
381.179	93.094
385.23	64.983
389.279	150.565
393.325	47.147
397.37	37.396
401.413	22.677
405.453	20.287
409.491	180.387
413.528	70.205
417.562	70.005
421.594	49.845
425.624	120.424
429.652	119.694
433.678	48.976
437.702	8.415
441.724	237.904
445.743	157.493
449.761	1.821
453.777	68.699
457.79	47.926
461.802	260.147
465.811	89.232
469.819	40.059
473.824	129.42
477.827	173.408
481.829	240.867
485.828	0.987
489.825	36.334
493.82	134.833
497.813	214.438
501.804	34.487
505.793	11.641
509.78	238.312
513.765	252.639
517.748	221.555
521.729	41.018
525.708	5.578
529.685	272.319
533.659	238.803
537.632	163.951
541.603	48.307
545.571	241.847
549.538	386.543
553.503	61.596
557.465	86.549
561.426	9.385
565.385	133.921
569.341	293.938
573.296	147.921
577.248	112.422
581.199	65.049
585.147	196.674
589.094	170.687
593.038	64.052
596.981	107.676
600.922	271.312
604.86	204.093
608.797	213.923
612.731	97.155
616.664	64.224
620.594	305.239
624.523	267.414
628.449	109.289
632.374	39.26
636.296	130.54
640.217	281.68
644.135	300.921
648.052	76.258
651.967	16.291
655.879	361.248
659.79	289.285
663.698	297.743
667.605	61.444
671.51	10.79
675.413	339.574
679.313	353.472
683.212	278.063
687.109	132.958
691.004	261.888
694.897	750.238
698.788	504.629
702.677	221.219
706.564	143.466
710.449	623.571
714.332	140.066
718.213	515.01
722.092	451.015
725.969	18.805
729.844	16.72
733.718	162.928
737.589	218.279
741.458	213.401
745.326	288.852
749.191	34.052
753.055	258.437
756.916	333.012
760.776	496.873
764.634	259.621
768.489	112.34
772.343	116.543
776.195	307.118
780.045	510.533
783.893	331.336
787.739	69.3
791.583	79.053
795.425	121.594
799.266	243.379
803.104	352.237
806.94	282.821
810.775	104.41
814.608	154.045
818.438	399.225
822.267	459.738
826.094	390.02
829.919	190.791
833.742	81.289
837.563	139.541
841.382	580.07
845.199	387.016
849.014	291.234
852.828	61.146
856.639	129.732
860.449	699.232
864.257	1678.61
868.062	687.984
871.866	377.805
875.668	13.67
879.468	91.969
883.267	275.035
887.063	472.775
890.857	538.592
894.65	285.83
898.44	32.445
902.229	288.531
906.016	455.252
909.801	561.139
913.584	447.506
917.365	262.529
921.144	27.225
924.922	262.67
928.697	408.27
932.471	663.205
936.242	408.033
940.012	332.285
943.78	36.799
947.546	221.273
951.311	345.801
955.073	545.141
958.834	429.119
962.592	402.98
966.349	62.244
970.104	128.203
973.857	190.908
977.608	484.979
981.357	449.854
985.105	583.203
988.85	76.711
992.594	101.664
996.336	120.906
1000.08	403.529
1003.81	630.932
1007.55	513.27
1011.28	285.512
1015.02	47.459
1018.75	95.785
1022.48	480.559
1026.2	709.91
1029.93	774.812
1033.65	531.234
1037.37	296.541
1041.09	496.658
1044.81	458.953
1048.53	979.104
1052.24	1249.46
1055.95	1000.54
1059.66	1001.39
1063.37	1362.18
1067.08	8252.04
1070.79	19299
1074.49	2327.34
1078.19	1925.8
1081.89	2153.47
1085.59	6361.51
1089.28	41438.9
1092.98	2486.6
1096.67	585.188
1100.36	893.059
1104.05	959.354
1107.73	885.945
1111.42	373
1115.1	164.672
1118.78	212.684
1122.46	137.516
1126.14	253.045
1129.82	893.266
1133.49	899.393
1137.16	826.174
1140.83	347.801
1144.5	26.021
1148.17	193.916
1151.83	356.311
1155.5	744.211
1159.16	702.295
1162.82	1061.9
1166.47	626.484
1170.13	419.312
1173.79	121.922
1177.44	135.123
1181.09	328.578
1184.74	680.402
1188.38	832.592
1192.03	834.559
1195.67	555.926
1199.31	287.555
1202.95	6.605
1206.59	15.018
1210.23	183.572
1213.86	831.289
1217.5	968.014
1221.13	994.047
1224.76	649.5
1228.38	271.266
1232.01	407.674
1235.63	90.02
1239.26	317.156
1242.88	611.133
1246.49	1114.81
1250.11	1295.95
1253.73	968.457
1257.34	618.596
1260.95	569.096
1264.56	131.123
1268.17	246.805
1271.78	495.766
1275.38	1086.66
1278.98	1458.46
1282.58	1056.56
1286.18	756.84
1289.78	679.51
1293.38	58.545
1296.97	24.662
1300.56	52.467
1304.15	449.926
1307.74	476.641
1311.33	1132.02
1314.91	1225.42
1318.5	1192.19
1322.08	955.273
1325.66	536.984
1329.23	258.846
1332.81	169.658
1336.39	475.756
1339.96	817.949
1343.53	1335.2
1347.1	1308.95
1350.67	1283.25
1354.23	904.723
1357.8	902.064
1361.36	361.746
1364.92	384.572
1368.48	55.648
1372.04	105.66
1375.59	872.754
1379.15	987.619
