Measurement: Raman, 514 nm, ccw, Raman Data Processed
Mineral: Shortite
Rruff sample: R040184
Ideal chemistry: Na_2_Ca_2_(CO_3_)_3_
Locality: Green River, Wyoming, USA
Source: University of Arizona Mineral Museum
Description: Colorless single crystal fragments
Measured chemistry: (Na_1.47_Ca_0.27_[box]_0.26_)_Î£=2_Ca_2.00_(CO_3_)_3_
Pin_id: L00189
Orientation: Laser parallel to -a* (-1 0 0). Fiducial mark perpendicular to laser is parallel to b [0 1 0]
Raman shift (cm-1)	intensity
117.519	0
121.706	91.999
125.892	1206.68
130.075	2954.72
134.256	3069.65
138.435	3714.53
142.611	1398.27
146.786	435.247
150.958	675.709
155.128	879.343
159.296	293.579
163.462	16.288
167.625	18.773
171.786	33.177
175.946	39.519
180.103	526.314
184.258	746.292
188.41	645.219
192.561	851.352
196.709	1719.96
200.856	1872.46
205	1793.62
209.142	1338.64
213.281	674.639
217.419	311.609
221.554	147.568
225.688	122.984
229.819	102.168
233.948	158
238.075	113.976
242.2	245.372
246.322	533.758
250.443	859.874
254.561	1191.1
258.677	1763.97
262.791	4036.38
266.903	6275.94
271.013	3860.39
275.121	1557.39
279.226	741.061
283.33	366.632
287.431	206.759
291.53	224.78
295.627	195.499
299.722	149.632
303.815	154.835
307.906	118.059
311.995	97.07
316.081	157.251
320.166	20.545
324.248	17.893
328.328	65.041
332.406	67.309
336.482	46.898
340.556	14.611
344.628	18.916
348.697	15.481
352.765	78.875
356.83	48.157
360.894	3.347
364.955	47.576
369.014	17.649
373.071	14.155
377.126	89.842
381.179	14.414
385.23	10.747
389.279	91.976
393.325	47.82
397.37	6.204
401.413	34.032
405.453	12.724
409.491	37.954
413.528	51.054
417.562	4.11
421.594	28.731
425.624	55.624
429.652	89.208
433.678	23.748
437.702	72.346
441.724	142.213
445.743	128.228
449.761	120.937
453.777	118.89
457.79	57.797
461.802	163.097
465.811	153.852
469.819	176.885
473.824	180.237
477.827	105.058
481.829	206.08
485.828	59.507
489.825	142.045
493.82	148.293
497.813	180.556
501.804	216.41
505.793	142.59
509.78	280.683
513.765	227.994
517.748	281.089
521.729	131.561
525.708	203.991
529.685	199
533.659	181.065
537.632	211.342
541.603	165.981
545.571	209.361
549.538	217.972
553.503	113.436
557.465	106.289
561.426	52.103
565.385	102.752
569.341	160.399
573.296	94.206
577.248	112.227
581.199	78.128
585.147	45.704
589.094	24.622
593.038	1.061
596.981	128.06
600.922	72.963
604.86	84.71
608.797	18.516
612.731	22.846
616.664	108.273
620.594	88.563
624.523	16.764
628.449	20.234
632.374	12.83
636.296	28.574
640.217	59.137
644.135	19.615
648.052	59.014
651.967	53.914
655.879	38.024
659.79	69.121
663.698	44.234
667.605	7.881
671.51	1.134
675.413	78.57
679.313	94.364
683.212	125.059
687.109	113.85
691.004	382.594
694.897	1397.79
698.788	416.064
702.677	141.464
706.564	275.333
710.449	738.073
714.332	198.688
718.213	258.416
722.092	282.137
725.969	485.883
729.844	3657.8
733.718	687.688
737.589	319.307
741.458	241.657
745.326	148.132
749.191	81.474
753.055	253.684
756.916	194.561
760.776	203.67
764.634	156.849
768.489	156.95
772.343	166.952
776.195	195.884
780.045	279.368
783.893	152.279
787.739	70.491
791.583	187.656
795.425	87.88
799.266	144.413
803.104	117.867
806.94	106.783
810.775	111.302
814.608	78.193
818.438	156.023
822.267	135.82
826.094	136.897
829.919	53.783
833.742	84.212
837.563	12.453
841.382	174.207
845.199	156.149
849.014	101.588
852.828	26.304
856.639	37.108
860.449	219.788
864.257	587.289
868.062	113.68
871.866	116.006
875.668	100.757
879.468	12.778
883.267	91.053
887.063	107.781
890.857	14.588
894.65	52.243
898.44	11.264
902.229	129.126
906.016	41.337
909.801	85.685
913.584	154.932
917.365	16.961
921.144	33.79
924.922	127.756
928.697	124.624
932.471	164.354
936.242	124.062
940.012	97.335
943.78	38.914
947.546	75.357
951.311	193.794
955.073	261.81
958.834	94.126
962.592	216.394
966.349	27.391
970.104	93.101
973.857	101.523
977.608	163.08
981.357	165.964
985.105	167.683
988.85	17.862
992.594	99.595
996.336	50.851
1000.08	223.345
1003.81	317.692
1007.55	128.917
1011.28	120.245
1015.02	182.587
1018.75	264.346
1022.48	268.115
1026.2	322.045
1029.93	272.619
1033.65	354.2
1037.37	122.186
1041.09	383.633
1044.81	354.829
1048.53	585.411
1052.24	717.639
1055.95	538.699
1059.66	880.476
1063.37	1760.82
1067.08	11359.4
1070.79	24688.4
1074.49	2886.54
1078.19	1415.96
1081.89	1645.51
1085.59	6583.8
1089.28	42393.5
1092.98	3164.3
1096.67	663.697
1100.36	423.342
1104.05	532.607
1107.73	371.76
1111.42	270.528
1115.1	97.688
1118.78	170.538
1122.46	206.934
1126.14	155.054
1129.82	352.119
1133.49	329.836
1137.16	336.476
1140.83	143.877
1144.5	16.341
1148.17	69.293
1151.83	184.536
1155.5	253.087
1159.16	154.091
1162.82	276.297
1166.47	116.453
1170.13	73.579
1173.79	29.521
1177.44	35.913
1181.09	191.635
1184.74	176.172
1188.38	260.456
1192.03	168.217
1195.67	1.734
1199.31	91.881
1202.95	14.85
1206.59	107.923
1210.23	151.201
1213.86	294.05
1217.5	365.822
1221.13	298.396
1224.76	185.591
1228.38	252.733
1232.01	255.042
1235.63	50.694
1239.26	290.156
1242.88	719.823
1246.49	360.109
1250.11	438.828
1253.73	277.091
1257.34	245.031
1260.95	262.011
1264.56	207.515
1268.17	366.356
1271.78	256.787
1275.38	193.279
1278.98	319.598
1282.58	242.801
1286.18	233.004
1289.78	216.206
1293.38	63.315
1296.97	92.8
1300.56	4.286
1304.15	258.646
1307.74	171.74
1311.33	273.115
1314.91	330.859
1318.5	219.565
1322.08	228.414
1325.66	263.651
1329.23	135.311
1332.81	7.347
1336.39	179.332
1339.96	343.061
1343.53	379.067
1347.1	396.041
1350.67	321.878
1354.23	121.379
1357.8	268.619
1361.36	43.989
1364.92	31.211
1368.48	117.884
1372.04	104.952
1375.59	297.139
1379.15	358.104
1382.7	426.569
1386.25	516.771
1389.8	446.474
1393.35	225.853
1396.89	525.071
1400.43	983.41
1403.98	381.329
1407.52	65.363
1411.06	311.059
1414.59	323.309
1418.13	541.168
1421.66	343.794
1425.19	477.344
1428.72	395.935
1432.25	279.371
1435.78	12.212
1439.3	202.556
1442.83	183.543
1446.35	224.277
1449.87	141.113
1453.38	439.182
1456.9	434.088
1460.41	651.51
1463.93	517.834
1467.44	1457.44
1470.95	608.73
1474.46	924.496
1477.96	674.201
1481.47	116.818
1484.97	139.129
1488.47	68.984
1491.97	182.814
1495.47	316.604
1498.96	502.545
1502.46	653.686
1505.95	865.289
1509.44	2999.81
1512.93	2156.76
1516.42	527.207
1519.9	0
