Measurement: Raman, 514 nm, ccw, Raman Data Processed
Mineral: Shortite
Rruff sample: R050248
Ideal chemistry: Na_2_Ca_2_(CO_3_)_3_
Locality: Stauffer mine, Green River, Wyoming, USA
Source: Marcus Origlieri
Description: Colorless wedge-shaped single crystal
Measured chemistry: Na_2.00_Ca_2.00_(CO_3_)_3_ ; CO2 not measured but estimated by difference and stoichiometry.
Pin_id: L01144
Orientation: Laser parallel to a* (1 0 0). Fiducial mark perpendicular to laser is parallel to -b [0 -1 0]
Raman shift (cm-1)	intensity
102.92	0
107.875	168.545
112.827	190.13
117.777	326.916
122.723	255.37
127.667	756.576
132.608	1363.6
137.547	1951.61
142.482	1810.18
147.415	1948
152.345	2378.73
157.272	2021.65
162.197	1022.7
167.118	636.02
172.037	637.512
176.954	449.714
181.867	438.294
186.778	419.315
191.685	561.701
196.591	610.49
201.493	932.854
206.393	762.626
211.289	533.447
216.184	237.6
221.075	428.636
225.964	317.975
230.849	563.034
235.732	673.78
240.613	681.762
245.49	905.448
250.365	1266.59
255.237	3082.59
260.107	5919.82
264.973	7062.13
269.837	4224.72
274.698	1632.51
279.557	930.965
284.412	531.596
289.265	392.057
294.116	322.393
298.963	272.272
303.808	285.334
308.65	81.7519
313.489	232.705
318.325	115.76
323.159	133.719
327.99	149.678
332.819	97.3027
337.644	244.557
342.467	52.4551
347.287	115.762
352.105	205.809
356.92	100.109
361.732	48.5762
366.541	36.7949
371.348	64.9844
376.152	121.885
380.953	68.9356
385.751	267.022
390.547	399.225
395.34	212.617
400.13	416.406
404.918	319.576
409.703	299.053
414.485	121.588
419.265	235.94
424.041	185.709
428.816	18.3555
433.587	90.4473
438.356	22.1797
443.122	11.0371
447.885	74.1699
452.646	233.525
457.404	137.33
462.159	16.0059
466.911	100.057
471.661	285.691
476.409	223.451
481.153	39.623
485.895	56.8906
490.634	218.15
495.37	270.377
500.104	117.555
504.835	307.826
509.564	293.914
514.289	403.897
519.013	340.688
523.733	344.102
528.451	402.26
533.166	454.848
537.878	228.613
542.588	216.529
547.295	39.0312
551.999	98.3398
556.701	255.01
561.4	8.92969
566.096	197.982
570.79	169.383
575.481	91.8809
580.169	150.625
584.855	21.0645
589.538	87.8223
594.219	290.141
598.896	2.46094
603.571	46.6367
608.244	204.883
612.914	60.918
617.581	33.1465
622.245	160.94
626.907	223.809
631.566	257.953
636.223	139.324
640.877	206.363
645.528	241.385
650.177	380.922
654.823	252.449
659.466	50.75
664.107	318.647
668.745	258.637
673.38	221.144
678.013	306.518
682.643	438.482
687.271	550.557
691.896	1116.45
696.518	1014.28
701.138	316.596
705.755	273.244
710.369	817.928
714.981	466.664
719.59	515.07
724.197	308.096
728.801	692.471
733.402	312.254
738.001	149.82
742.597	235.377
747.19	106.853
751.781	128.025
756.369	401.553
760.955	273.182
765.538	108.186
770.118	36.3105
774.696	107.418
779.271	82.9512
783.844	178.447
788.414	26.3281
792.981	168.068
797.546	285.383
802.108	232.65
806.667	282.486
811.224	122.178
815.779	149.238
820.33	242.959
824.88	197.703
829.426	437.539
833.97	84.5117
838.512	133.234
843.05	395.098
847.587	155.486
852.12	312.934
856.651	389.158
861.18	183.176
865.706	177.291
870.229	150.469
874.75	236.098
879.268	257.111
883.783	301.402
888.296	84.457
892.807	86.2246
897.314	186.92
901.82	34.9922
906.322	98.334
910.822	213.545
915.32	242.344
919.815	141.463
924.307	293.09
928.797	224.178
933.284	157.342
937.769	395.873
942.251	316.391
946.731	281.223
951.208	268.832
955.682	234.238
960.154	257.59
964.623	47.0625
969.09	164.644
973.554	201.633
978.016	312.453
982.475	305.668
986.931	493.676
991.385	119.754
995.837	363.555
1000.29	262.137
1004.73	243.062
1009.18	82.4375
1013.62	320.031
1018.06	92.9102
1022.49	59.6641
1026.93	355.609
1031.36	213.117
1035.79	115.797
1040.21	293.414
1044.63	444.367
1049.06	160.684
1053.47	885.578
1057.89	985.707
1062.3	1555.61
1066.71	12599.9
1071.12	27204.3
1075.53	6149.29
1079.93	1400.66
1084.33	6931.47
1088.73	26838.1
1093.13	10287.4
1097.52	705.773
1101.91	456.316
1106.3	422.93
1110.68	170.055
1115.07	75.957
1119.45	274.812
1123.83	453.371
1128.2	484.793
1132.57	200.156
1136.94	93.043
1141.31	362.453
1145.68	270.969
1150.04	24.9297
1154.4	100.199
1158.76	31.1797
1163.11	14.1328
1167.47	21.0391
1171.82	166.172
1176.16	82.7695
1180.51	219.137
1184.85	183.418
1189.19	10.9922
1193.53	169.234
1197.87	191.137
1202.2	129.711
1206.53	206.289
1210.86	340.762
1215.18	29.4141
1219.51	22.0508
1223.83	22.6016
1228.15	168.449
1232.46	209.309
1236.77	254.031
1241.09	136.168
1245.39	305.023
1249.7	365.934
1254	237.074
1258.3	285.352
1262.6	317.547
1266.9	198.25
1271.19	290.844
1275.48	257.148
1279.77	194.93
1284.05	328.539
1288.34	342.086
1292.62	106.508
1296.9	398.867
1301.17	146.758
1305.44	266.672
1309.72	71.2852
1313.98	88.0898
1318.25	403.109
1322.51	423.762
1326.78	25.8906
1331.03	530.672
1335.29	34.1641
1339.54	44.3125
1343.8	179.676
1348.04	41.2891
1352.29	161.121
1356.53	153
1360.78	361.988
1365.02	83.7227
1369.25	241.066
1373.49	184.102
1377.72	163.445
1381.95	415.613
1386.17	91.5938
1390.4	235.996
1394.62	105.981
1398.84	108.555
1403.06	152.137
1407.27	123.125
1411.48	368.356
1415.69	1091.91
1419.9	1915.89
1424.1	811.836
1428.31	375.195
1432.51	591.375
1436.7	274.109
1440.9	271.914
1445.09	229.348
1449.28	322.996
1453.47	20.207
1457.65	243.269
1461.84	247.676
1466.02	178.461
1470.2	444.394
1474.37	203.723
1478.55	388.328
1482.72	505.023
1486.88	97.7109
1491.05	188.617
1495.21	238.539
1499.38	215.031
1503.54	716.547
1507.69	336.34
1511.85	1074.56
1516	414.379
1520.15	733.019
1524.29	526.379
1528.44	264.637
1532.58	338.586
1536.72	275.727
1540.86	141.613
1544.99	83.9141
1549.12	43.2969
1553.25	324.492
1557.38	589.734
1561.51	193.215
1565.63	384.559
1569.75	0.804688
