Measurement: Raman, 514 nm, ccw, Raman Data Processed
Mineral: Shortite
Rruff sample: R040184
Ideal chemistry: Na_2_Ca_2_(CO_3_)_3_
Locality: Green River, Wyoming, USA
Source: University of Arizona Mineral Museum
Description: Colorless single crystal fragments
Measured chemistry: (Na_1.47_Ca_0.27_[box]_0.26_)_Î£=2_Ca_2.00_(CO_3_)_3_
Pin_id: L00189
Orientation: Laser parallel to -a* (-1 0 0). Fiducial mark perpendicular to laser is parallel to b [0 1 0]
Raman shift (cm-1)	intensity
114.726	0
118.915	18.854
123.102	92.778
127.286	167.09
131.469	575.103
135.649	1568.76
139.827	2059.41
144.003	854.378
148.177	1049.63
152.348	2156.54
156.517	2191.63
160.685	745.457
164.85	317.603
169.012	117.869
173.173	85.132
177.332	64.262
181.488	146.344
185.642	57.247
189.794	51.07
193.944	97.485
198.092	209.309
202.237	190.083
206.38	130.864
210.522	92.784
214.661	52.901
218.798	6.294
222.932	25.651
227.065	53.534
231.196	45.68
235.324	103.083
239.45	217.676
243.574	291.5
247.696	321.536
251.816	697.776
255.933	1288.41
260.049	2934.45
264.162	7000.32
268.274	8697.27
272.383	3983.8
276.49	1464.67
280.595	792.79
284.697	450.772
288.798	271.058
292.896	214.312
296.993	133.299
301.087	106.716
305.179	147.354
309.269	108.759
313.357	31.49
317.443	11.191
321.527	28.12
325.608	18.234
329.688	34.526
333.765	9.527
337.84	23.37
341.913	62.064
345.984	112.949
350.053	61.837
354.12	37.116
358.185	53.158
362.248	44.475
366.308	13.078
370.367	30.731
374.423	45.5
378.478	16.784
382.53	13.077
386.58	10.434
390.628	45.813
394.674	21.835
398.718	7.682
402.76	46.532
406.799	22.406
410.837	30.955
414.873	29.389
418.906	33.511
422.938	60.172
426.967	59.625
430.994	69.84
435.02	69.098
439.043	84.675
443.064	34.873
447.083	30.136
451.1	54.504
455.115	52.888
459.128	105.513
463.139	35.953
467.147	62.402
471.154	119.855
475.159	4.698
479.161	51.976
483.162	73.377
487.161	115.845
491.157	80.98
495.151	25.821
499.144	46.091
503.134	66.688
507.123	61.529
511.109	145.743
515.093	40.499
519.075	21.638
523.055	121.734
527.034	63.778
531.01	52.629
534.984	61.616
538.956	13.5
542.926	71.389
546.894	62.5
550.86	31.351
554.824	16.412
558.786	15.617
562.746	100.125
566.704	57.108
570.66	50.856
574.614	105.224
578.565	71.296
582.515	20.912
586.463	73.174
590.409	62.396
594.353	15.567
598.295	44.38
602.235	103.41
606.172	32.381
610.108	108.162
614.042	28.067
617.974	48.708
621.904	56.269
625.832	65.765
629.758	76.225
633.681	26.343
637.603	66.687
641.523	66.056
645.441	8.387
649.357	33.675
653.271	172.823
657.183	96.661
661.093	48.462
665.001	94.783
668.907	99.46
672.811	208.929
676.713	60.353
680.613	101.078
684.511	134.29
688.407	189.062
692.302	939.875
696.194	1820.26
700.084	228.586
703.972	215.072
707.859	664.709
711.743	613.305
715.626	236.933
719.506	141.421
723.384	74.019
727.261	240.271
731.136	524.839
735.008	241.783
738.879	68.887
742.748	99.51
746.614	50.997
750.479	140.051
754.342	99.525
758.203	134.921
762.062	71.448
765.919	35.283
769.774	50.846
773.627	92.983
777.479	181.161
781.328	43.111
785.175	89.125
789.021	191.018
792.864	39.013
796.706	81.752
800.545	8.29
804.383	2.289
808.219	65.927
812.053	104.473
815.885	60.109
819.715	80.403
823.543	44.68
827.369	51.493
831.193	117.727
835.016	185.027
838.836	98.203
842.654	62.646
846.471	41.53
850.286	10.109
854.099	31.675
857.909	65.826
861.718	172.627
865.525	150.311
869.331	108.027
873.134	68.86
876.935	146.558
880.735	251.227
884.532	76.741
888.328	74.177
892.122	122.611
895.913	10.029
899.703	106.199
903.491	76.573
907.278	106.956
911.062	43.181
914.844	67.382
918.625	130.511
922.404	206.729
926.18	199.996
929.955	142.255
933.728	25.373
937.499	0.376
941.269	135.798
945.036	85.802
948.801	89.913
952.565	180.588
956.327	55.049
960.087	70.171
963.845	39.128
967.601	129.237
971.355	191.659
975.107	152.625
978.858	102.65
982.607	30.622
986.353	92.403
990.098	5.672
993.841	59.269
997.583	148.16
1001.32	171.135
1005.06	53.888
1008.79	24.403
1012.53	86.996
1016.26	119.47
1019.99	301.229
1023.72	210.375
1027.45	118.568
1031.17	130.672
1034.89	71.482
1038.61	339.139
1042.33	208.975
1046.05	365.222
1049.77	485.974
1053.48	475.715
1057.19	584.703
1060.9	1017.03
1064.61	3059.4
1068.32	32891.8
1072.02	14073.7
1075.72	2176.09
1079.42	1218.08
1083.12	1640.45
1086.82	19322.8
1090.51	18425.4
1094.21	1517.61
1097.9	596.565
1101.59	419.308
1105.28	255.432
1108.96	103.669
1112.65	223.858
1116.33	148.615
1120.01	221.888
1123.69	263.781
1127.37	245.671
1131.04	90.841
1134.71	65.345
1138.39	23.955
1142.06	144.638
1145.72	255.901
1149.39	267.54
1153.05	298.235
1156.72	190.964
1160.38	178.116
1164.04	74.105
1167.69	9.39
1171.35	9.43
1175	255.093
1178.65	159.582
1182.31	245.51
1185.95	58.615
1189.6	124.245
1193.24	95.999
1196.89	126.675
1200.53	97.209
1204.17	266.661
1207.81	385.174
1211.44	363.862
1215.07	232.396
1218.71	101.244
1222.34	199.463
1225.97	177.601
1229.59	108.861
1233.22	301.778
1236.84	429.269
1240.46	425.912
1244.08	312.514
1247.7	270.298
1251.32	116.476
1254.93	152.493
1258.54	128.321
1262.15	123.951
1265.76	369.395
1269.37	434.667
1272.98	289.838
1276.58	18.256
1280.18	122.257
1283.78	45.888
1287.38	25.374
1290.98	78.134
1294.57	158.92
1298.17	191.322
1301.76	351.238
1305.35	302.864
1308.94	339.252
1312.52	159.164
1316.11	49.072
1319.69	31.286
1323.27	51.922
1326.85	127.336
1330.43	165.688
1334	324.081
1337.58	221.49
1341.15	338.869
1344.72	185.844
1348.29	192.727
1351.86	115.998
1355.42	142.422
1358.99	88.751
1362.55	234.81
1366.11	330.842
1369.67	225.935
1373.22	320.171
1376.78	244.876
1380.33	289.77
1383.88	240.232
1387.43	20.026
1390.98	210.213
1394.53	409.922
1398.07	949.458
1401.62	1343.13
1405.16	627.478
1408.7	456.76
1412.23	610.455
1415.77	253.247
1419.31	146.961
1422.84	88.16
1426.37	71.543
1429.9	81.279
1433.43	11.161
1436.95	324.16
1440.48	327.11
1444	429.776
1447.52	466.031
1451.04	375.696
1454.56	373.867
1458.07	314.192
1461.59	363.546
1465.1	742.251
1468.61	1359.35
1472.12	526.617
1475.62	806.142
1479.13	490.184
1482.63	335.802
1486.14	512.901
1489.64	441.173
1493.14	469.206
1496.63	298.062
1500.13	151.069
1503.62	107.856
1507.12	172.676
1510.61	1128.74
1514.09	304.751
1517.58	56.707
