Measurement: Raman, 514 nm, ccw, Raman Data Processed
Mineral: Shortite
Rruff sample: R050248
Ideal chemistry: Na_2_Ca_2_(CO_3_)_3_
Locality: Stauffer mine, Green River, Wyoming, USA
Source: Marcus Origlieri
Description: Colorless wedge-shaped single crystal
Measured chemistry: Na_2.00_Ca_2.00_(CO_3_)_3_ ; CO2 not measured but estimated by difference and stoichiometry.
Pin_id: L00721
Orientation: Laser parallel to b* (0 1 0). Fiducial mark perpendicular to laser is parallel to -c [0 0 -1]
Raman shift (cm-1)	intensity
108.28	0
113.208	92.5825
118.134	11.2861
123.058	191.75
127.979	177.506
132.898	306.769
137.814	565.56
142.728	449.791
147.639	246.562
152.549	321.142
157.455	298.243
162.359	421.006
167.261	539.148
172.161	384.274
177.058	255.03
181.952	114.301
186.845	315.659
191.734	399.071
196.622	721.696
201.507	724.625
206.389	642.908
211.269	241.44
216.147	324.644
221.022	234.487
225.895	120.022
230.765	162.936
235.633	310.309
240.498	300.076
245.361	220.133
250.222	308.337
255.08	476.877
259.936	472.106
264.789	453.618
269.64	256.69
274.488	229.322
279.334	291.026
284.178	336.146
289.019	146.606
293.857	9.4248
298.693	106.408
303.527	56.209
308.358	77.6055
313.187	91.208
318.013	1.88477
322.837	130.672
327.659	29.4268
332.478	140.523
337.294	32.5713
342.108	212.717
346.92	117.109
351.729	83.9512
356.535	123.318
361.34	51.5371
366.141	102.822
370.94	40.7207
375.737	80.1152
380.531	113.262
385.323	38.7158
390.113	70.2197
394.9	142.758
399.684	169.305
404.466	45.044
409.245	54.6182
414.022	193.422
418.797	131.275
423.569	22.418
428.338	105.481
433.105	159.576
437.87	100.666
442.632	18.2383
447.391	57.3418
452.149	138.633
456.903	64.2959
461.655	65.0371
466.405	105.239
471.152	134.386
475.897	33.4785
480.639	183.732
485.378	126.267
490.116	19.6885
494.85	181.356
499.582	14.6201
504.312	51.7891
509.039	32.0977
513.764	60.0605
518.486	71.1113
523.206	160.667
527.923	45.626
532.638	190.478
537.35	96.7275
542.059	115.706
546.766	97.21
551.471	224.579
556.173	178.815
560.873	184.961
565.57	162.036
570.264	145.064
574.957	141.048
579.646	109.893
584.333	132.761
589.018	193.057
593.7	114.052
598.379	217.825
603.056	222.022
607.73	71.459
612.402	355.094
617.072	27.8779
621.739	249.94
626.403	291.206
631.065	99.3926
635.724	138.365
640.381	237.475
645.035	237.702
649.687	31.4482
654.336	125.999
658.983	18.8428
663.627	99.2559
668.268	73.665
672.907	56.1025
677.544	127.901
682.178	157.851
686.809	155.765
691.438	264.503
696.065	333.963
700.688	382.163
705.31	635.381
709.929	1320.24
714.545	548.22
719.158	304.434
723.77	76.9707
728.378	189.232
732.984	169.518
737.588	140.857
742.189	182.623
746.787	128.169
751.383	89.3125
755.976	127.406
760.567	73.5371
765.155	38.1074
769.741	66.3965
774.324	42.373
778.904	2.00195
783.482	119.16
788.058	236.711
792.631	207.231
797.201	112.795
801.769	204.824
806.334	161.516
810.897	137.375
815.457	77.5215
820.014	175.293
824.569	26.0137
829.122	109.822
833.671	50.6836
838.219	319.119
842.763	134.207
847.306	5.88867
851.845	258.385
856.382	196.516
860.917	169.787
865.448	236.926
869.978	213.619
874.505	174.152
879.029	142.935
883.55	44.4492
888.069	41.627
892.586	221.393
897.1	56.1816
901.611	115.777
906.12	163.098
910.626	324.547
915.129	125.328
919.63	18.8086
924.129	119.93
928.625	155.856
933.118	143.557
937.609	216.666
942.097	125.189
946.582	219.359
951.065	197.783
955.546	2.82031
960.023	144.022
964.499	74.7891
968.971	150.412
973.441	124.059
977.909	50.5703
982.374	5.78906
986.836	18.1406
991.295	225.369
995.753	293.391
1000.21	117.879
1004.66	160.34
1009.11	27.3848
1013.55	112.594
1018	192.193
1022.44	292.084
1026.88	48.2461
1031.32	23.4199
1035.75	18.6797
1040.18	147.568
1044.61	39.5352
1049.04	226.254
1053.46	115.894
1057.88	102.746
1062.3	159.086
1066.71	642.338
1071.13	890.109
1075.54	456.736
1079.94	702.08
1084.35	4225.46
1088.75	30710.4
1093.15	8203.4
1097.55	830.352
1101.94	277.191
1106.34	232.67
1110.73	387.385
1115.11	147.283
1119.5	164.94
1123.88	72.5
1128.26	92.1133
1132.63	186.248
1137.01	11.2637
1141.38	164.764
1145.75	310.922
1150.12	57.8398
1154.48	32.2988
1158.84	224.938
1163.2	125.732
1167.55	66.2656
1171.91	245.242
1176.26	75.9922
1180.61	346.809
1184.95	101.76
1189.29	206.918
1193.63	12.3945
1197.97	290.176
1202.31	18.8652
1206.64	294.42
1210.97	261.4
1215.29	79.1523
1219.62	34.7578
1223.94	49.3145
1228.26	291.512
1232.57	217.363
1236.89	31.8965
1241.2	269.41
1245.51	276.049
1249.81	272.191
1254.12	43.2832
1258.42	51.6816
1262.72	157.33
1267.01	202.014
1271.3	93.3906
1275.59	36.209
1279.88	218.742
1284.17	37.6348
1288.45	168.777
1292.73	73.7383
1297.01	223.393
1301.28	147.752
1305.55	98.5508
1309.82	276.26
1314.09	111.963
1318.35	255.459
1322.61	271.797
1326.87	204.633
1331.13	204.857
1335.38	120.951
1339.63	496.922
1343.88	232.432
1348.12	269.639
1352.37	326.635
1356.61	375.887
1360.85	215.057
1365.08	233.555
1369.31	294.643
1373.54	178.57
1377.77	85.6523
1381.99	486.203
1386.22	160.857
1390.43	545.318
1394.65	385.685
1398.87	399.9
1403.08	127.064
1407.29	329.459
1411.49	376.094
1415.69	195
1419.89	131.066
1424.09	7.56055
1428.29	347.684
1432.48	361.398
1436.67	203.805
1440.86	253.619
1445.04	291.301
1449.23	193.529
1453.4	356.644
1457.58	270.469
1461.76	8.36719
1465.93	408.99
1470.1	951.459
1474.26	191.338
1478.43	474.414
1482.59	146.185
1486.75	391.137
1490.9	325.941
1495.06	286.25
1499.21	123.037
1503.35	135.797
1507.5	55.7812
1511.64	19.5488
1515.78	318.492
1519.92	116.654
1524.05	295.43
1528.18	374.209
1532.31	184.652
1536.44	165.666
1540.56	441.568
1544.69	367.389
1548.8	169.469
1552.92	162.422
1557.03	182.832
1561.14	130.773
1565.25	107.394
1569.36	0.957031
