Measurement: Raman, 514 nm, ccw, Raman Data Processed
Mineral: Shortite
Rruff sample: R050248
Ideal chemistry: Na_2_Ca_2_(CO_3_)_3_
Locality: Stauffer mine, Green River, Wyoming, USA
Source: Marcus Origlieri
Description: Colorless wedge-shaped single crystal
Measured chemistry: Na_2.00_Ca_2.00_(CO_3_)_3_ ; CO2 not measured but estimated by difference and stoichiometry.
Pin_id: L01144
Orientation: Laser parallel to a* (1 0 0). Fiducial mark perpendicular to laser is parallel to -b [0 -1 0]
Raman shift (cm-1)	intensity
102.92	0
107.875	251.395
112.827	326.362
117.777	119.22
122.723	228.233
127.667	388.481
132.608	673.856
137.547	1000.36
142.482	1131.22
147.415	839.913
152.345	962.939
157.272	1057.73
162.197	872.303
167.118	1179.85
172.037	1253.02
176.954	760.388
181.867	510.136
186.778	713.377
191.685	932.939
196.591	1786.23
201.493	2645.64
206.393	1979.13
211.289	864.02
216.184	449.954
221.075	416.994
225.964	267.991
230.849	481.984
235.732	403.62
240.613	407.8
245.49	439.478
250.365	826.095
255.237	1404.5
260.107	2356
264.973	2873.6
269.837	1605.38
274.698	750.725
279.557	320.172
284.412	123.414
289.265	138.514
294.116	313.412
298.963	36.7637
303.808	169.996
308.65	67.0644
313.489	122.736
318.325	52.0371
323.159	217.736
327.99	142.068
332.819	117.772
337.644	181.654
342.467	107.492
347.287	115.023
352.105	71.3906
356.92	174.045
361.732	271.828
366.541	108.713
371.348	189.684
376.152	109.734
380.953	172.846
385.751	460.992
390.547	254.178
395.34	66.0391
400.13	561.57
404.918	309.26
409.703	329.185
414.485	41.7812
419.265	32.3398
424.041	107.137
428.816	50.9121
433.587	97.5254
438.356	55.375
443.122	181.369
447.885	85.0059
452.646	254.518
457.404	149.375
462.159	129.406
466.911	100.992
471.661	79.5664
476.409	58.1738
481.153	152.588
485.895	182.375
490.634	113.936
495.37	173.59
500.104	369.887
504.835	209.043
509.564	394.131
514.289	348.922
519.013	380.523
523.733	414.156
528.451	289.393
533.166	133.344
537.878	349.387
542.588	240.768
547.295	152.494
551.999	285.975
556.701	175.191
561.4	254.914
566.096	189.539
570.79	179.18
575.481	264.475
580.169	298.125
584.855	209.523
589.538	275.246
594.219	55.0352
598.896	226.365
603.571	187.975
608.244	195.096
612.914	97.3613
617.581	239.469
622.245	133.754
626.907	110.568
631.566	280.016
636.223	264.32
640.877	379.463
645.528	199.682
650.177	409.978
654.823	51.0547
659.466	344.248
664.107	237.91
668.745	79.2031
673.38	270.367
678.013	34.6133
682.643	271.078
687.271	266.185
691.896	525.981
696.518	577.479
701.138	265.908
705.755	515.457
710.369	1159.93
714.981	1173.59
719.59	437.877
724.197	321.217
728.801	214.596
733.402	248.492
738.001	195.658
742.597	200.031
747.19	18.9844
751.781	42.5508
756.369	206.674
760.955	161.67
765.538	305.281
770.118	220.838
774.696	34.1445
779.271	225.412
783.844	115.697
788.414	430.195
792.981	115.92
797.546	182.848
802.108	360.088
806.667	161.685
811.224	130.685
815.779	162.283
820.33	120.572
824.88	18.4336
829.426	151.365
833.97	302.065
838.512	309.027
843.05	194.65
847.587	150.006
852.12	177.119
856.651	301.881
861.18	372.553
865.706	234.969
870.229	279.486
874.75	326.781
879.268	222.469
883.783	336.715
888.296	182.217
892.807	8.30078
897.314	89.7305
901.82	236.324
906.322	235.254
910.822	113.535
915.32	68.3281
919.815	305.199
924.307	119.973
928.797	190.574
933.284	159.91
937.769	266.731
942.251	15.8281
946.731	291.824
951.208	144.922
955.682	159.883
960.154	251.812
964.623	2.79297
969.09	30.4414
973.554	227.523
978.016	128.465
982.475	189.562
986.931	260.691
991.385	33.043
995.837	101.195
1000.29	43.9102
1004.73	247.988
1009.18	11.7422
1013.62	190.477
1018.06	154.812
1022.49	145.777
1026.93	64.8828
1031.36	382.559
1035.79	115.258
1040.21	212.781
1044.63	141.133
1049.06	161.91
1053.47	407.418
1057.89	446.992
1062.3	820.695
1066.71	4158.91
1071.12	9443.15
1075.53	3016.97
1079.93	973.731
1084.33	5792.22
1088.73	22743
1093.13	12338.7
1097.52	1140.63
1101.91	549.465
1106.3	357.152
1110.68	470.445
1115.07	117.941
1119.45	291.086
1123.83	108.09
1128.2	146.035
1132.57	178.996
1136.94	7.13672
1141.31	375.637
1145.68	128.312
1150.04	167.699
1154.4	202.75
1158.76	19.0859
1163.11	6.57812
1167.47	227.453
1171.82	59.2266
1176.16	246.59
1180.51	59.0078
1184.85	75.3281
1189.19	138.59
1193.53	77.4844
1197.87	388.754
1202.2	70.4922
1206.53	241.828
1210.86	488.609
1215.18	41.9883
1219.51	163.039
1223.83	71.6055
1228.15	413.875
1232.46	107.891
1236.77	363.121
1241.09	357.977
1245.39	173.742
1249.7	335.539
1254	259.59
1258.3	130.844
1262.6	506.836
1266.9	3.63672
1271.19	403.812
1275.48	188.34
1279.77	410.09
1284.05	15.8281
1288.34	278.035
1292.62	298.148
1296.9	217.133
1301.17	347.941
1305.44	52.707
1309.72	224.699
1313.98	334.012
1318.25	204.316
1322.51	163.438
1326.78	125.938
1331.03	178.035
1335.29	303.816
1339.54	38.2969
1343.8	183.969
1348.04	244.301
1352.29	193.731
1356.53	241.633
1360.78	120.477
1365.02	384.981
1369.25	177.227
1373.49	385.09
1377.72	56.9219
1381.95	578.09
1386.17	411.035
1390.4	398.555
1394.62	230.332
1398.84	10.1055
1403.06	234.352
1407.27	443.742
1411.48	464.644
1415.69	587.176
1419.9	1182.95
1424.1	375.477
1428.31	418.387
1432.51	325.394
1436.7	474.016
1440.9	290.477
1445.09	535.519
1449.28	361.926
1453.47	257.684
1457.65	556.012
1461.84	509.945
1466.02	168.348
1470.2	264.137
1474.37	502.156
1478.55	336.992
1482.72	18.6758
1486.88	382.672
1491.05	800.188
1495.21	326.117
1499.38	339.32
1503.54	305.707
1507.69	643.391
1511.85	533.707
1516	370.82
1520.15	628.656
1524.29	628.305
1528.44	271.707
1532.58	383.809
1536.72	133.281
1540.86	433.262
1544.99	7.35547
1549.12	355.039
1553.25	61.8672
1557.38	225.086
1561.51	60.0508
1565.63	53.0898
1569.75	16.082
