Measurement: Raman, 514 nm, ccw, Raman Data Processed
Mineral: Shortite
Rruff sample: R040184
Ideal chemistry: Na_2_Ca_2_(CO_3_)_3_
Locality: Green River, Wyoming, USA
Source: University of Arizona Mineral Museum
Description: Colorless single crystal fragments
Measured chemistry: (Na_1.47_Ca_0.27_[box]_0.26_)_Î£=2_Ca_2.00_(CO_3_)_3_
Pin_id: L00388
Orientation: Laser parallel to -c* (0 0 -1). Fiducial mark perpendicular to laser is parallel to a [1 0 0]
Raman shift (cm-1)	intensity
114.726	0
118.915	6.878
123.102	27.446
127.286	96.372
131.469	138.572
135.649	437.561
139.827	573.542
144.003	191.012
148.177	97.602
152.348	205.079
156.517	189.284
160.685	107.232
164.85	114.7
169.012	211.54
173.173	186.719
177.332	97.164
181.488	87.869
185.642	85.871
189.794	91.081
193.944	223.531
198.092	447.161
202.237	343.299
206.38	186.847
210.522	71.023
214.661	99.698
218.798	1.47
222.932	0.01
227.065	81.422
231.196	134.591
235.324	156.833
239.45	184.212
243.574	184.668
247.696	99.811
251.816	72.417
255.933	119.14
260.049	200.213
264.162	164.144
268.274	109.918
272.383	41.562
276.49	94.521
280.595	18.957
284.697	21.356
288.798	68.71
292.896	49.654
296.993	0.185
301.087	62.146
305.179	56.616
309.269	84.309
313.357	8.986
317.443	20.043
321.527	82.937
325.608	71.258
329.688	17.775
333.765	13.77
337.84	114.95
341.913	118.72
345.984	75.916
350.053	40.111
354.12	91.29
358.185	116.489
362.248	43.807
366.308	35.016
370.367	23.872
374.423	65.084
378.478	29.609
382.53	52.763
386.58	125.208
390.628	57.757
394.674	13.852
398.718	25.931
402.76	30.461
406.799	73.805
410.837	5.076
414.873	14.703
418.906	55.6
422.938	124.752
426.967	5.053
430.994	26.18
435.02	74.824
439.043	98.805
443.064	132.769
447.083	24.851
451.1	21.532
455.115	142.605
459.128	61.521
463.139	56.816
467.147	13.634
471.154	146.395
475.159	33.31
479.161	18.283
483.162	12.111
487.161	106.906
491.157	97.353
495.151	4.989
499.144	3.302
503.134	73.219
507.123	116.832
511.109	108.706
515.093	21.815
519.075	55.586
523.055	156.951
527.034	150.29
531.01	82.115
534.984	53.139
538.956	11.003
542.926	107.967
546.894	64.844
550.86	46.314
554.824	90.386
558.786	50.031
562.746	126.388
566.704	31.854
570.66	38.329
574.614	43.155
578.565	114.537
582.515	84.791
586.463	17.792
590.409	26.975
594.353	106.136
598.295	195.647
602.235	58.8
606.172	19.363
610.108	66.618
614.042	83.601
617.974	178.371
621.904	71.554
625.832	26.04
629.758	91.294
633.681	179.181
637.603	79.379
641.523	121.562
645.441	24.533
649.357	155.641
653.271	206.134
657.183	89.484
661.093	30.631
665.001	26.419
668.907	119.369
672.811	171.029
676.713	102.37
680.613	49.767
684.511	6.41
688.407	109.47
692.302	357.085
696.194	473.044
700.084	20.106
703.972	120.957
707.859	506.164
711.743	1245.22
715.626	388.446
719.506	174.199
723.384	67.486
727.261	102.198
731.136	138.181
735.008	131.886
738.879	47.6
742.748	57.995
746.614	119.651
750.479	116.753
754.342	189.287
758.203	114.936
762.062	5.19
765.919	24.358
769.774	122.48
773.627	161.722
777.479	146.722
781.328	21.322
785.175	100.712
789.021	123.784
792.864	213.555
796.706	169.374
800.545	60.958
804.383	14.745
808.219	73.449
812.053	161.088
815.885	128.79
819.715	125.196
823.543	25.492
827.369	15.953
831.193	77.401
835.016	191.654
838.836	160.169
842.654	55.593
846.471	79.913
850.286	15.965
854.099	166.131
857.909	143.061
861.718	219.503
865.525	105.646
869.331	84.657
873.134	57.669
876.935	254.653
880.735	249.52
884.532	124.168
888.328	77.058
892.122	111.469
895.913	285.256
899.703	181.067
903.491	204.771
907.278	132.009
911.062	69.515
914.844	21.006
918.625	61.556
922.404	194.085
926.18	181.561
929.955	181.534
933.728	100.232
937.499	25.729
941.269	159.727
945.036	264.995
948.801	222.425
952.565	264.709
956.327	35.085
960.087	53.229
963.845	55.589
967.601	165.796
971.355	266.886
975.107	121.098
978.858	46.715
982.607	33.762
986.353	8.992
990.098	78.062
993.841	265.726
997.583	172.133
1001.32	219.137
1005.06	13.754
1008.79	11.618
1012.53	152.723
1016.26	286.768
1019.99	361.104
1023.72	189.123
1027.45	171.062
1031.17	117.095
1034.89	59.231
1038.61	239.172
1042.33	360.82
1046.05	286.087
1049.77	310.579
1053.48	156.084
1057.19	194.167
1060.9	262.155
1064.61	598.986
1068.32	1106.54
1072.02	1104.54
1075.72	614.428
1079.42	738.673
1083.12	1589.44
1086.82	16620.1
1090.51	25756.3
1094.21	2010.01
1097.9	893.069
1101.59	487.848
1105.28	335.124
1108.96	112.919
1112.65	138.61
1116.33	219.934
1120.01	343.633
1123.69	403.441
1127.37	349.5
1131.04	119.983
1134.71	65.33
1138.39	48.575
1142.06	200.135
1145.72	324.926
1149.39	390.715
1153.05	374.882
1156.72	222.912
1160.38	98.147
1164.04	21.238
1167.69	28.002
1171.35	175.938
1175	283.62
1178.65	368.025
1182.31	276.437
1185.95	167.118
1189.6	71.316
1193.24	2.312
1196.89	141.972
1200.53	196.579
1204.17	290.231
1207.81	393.479
1211.44	384.051
1215.07	267.188
1218.71	136.651
1222.34	17.9
1225.97	155.624
1229.59	190.917
1233.22	295.625
1236.84	452.997
1240.46	461.934
1244.08	329.695
1247.7	217.387
1251.32	90.35
1254.93	108.495
1258.54	167.92
1262.15	221.339
1265.76	416.601
1269.37	471.57
1272.98	344.281
1276.58	170.61
1280.18	154.716
1283.78	52.091
1287.38	66.123
1290.98	129.073
1294.57	270.268
1298.17	391.312
1301.76	535.024
1305.35	390.385
1308.94	336.178
1312.52	128.466
1316.11	72.784
1319.69	25.152
1323.27	20.173
1326.85	143.03
1330.43	274.851
1334	483.354
1337.58	395.909
1341.15	335.965
1344.72	272.275
1348.29	6.738
1351.86	30.21
1355.42	85.516
1358.99	59.307
1362.55	365.133
1366.11	526.492
1369.67	361.473
1373.22	478.705
1376.78	392.626
1380.33	328.043
1383.88	213.157
1387.43	7.992
1390.98	88.189
1394.53	177.315
1398.07	249.311
1401.62	488.896
1405.16	528.381
1408.7	710.425
1412.23	655.247
1415.77	421.719
1419.31	216.884
1422.84	248.945
1426.37	26.248
1429.9	67.194
1433.43	134.962
1436.95	296.702
1440.48	518.929
1444	598.476
1447.52	558.284
1451.04	469.436
1454.56	347.754
1458.07	326.779
1461.59	93.171
1465.1	51.114
1468.61	89.932
1472.12	111.736
1475.62	299.932
1479.13	347.382
1482.63	555.091
1486.14	622.72
1489.64	490.315
1493.14	609.928
1496.63	451.693
1500.13	234.979
1503.62	61.501
1507.12	75.469
1510.61	57.686
1514.09	1.938
