Measurement: Raman, 514 nm, ccw, Raman Data Processed
Mineral: Shortite
Rruff sample: R050248
Ideal chemistry: Na_2_Ca_2_(CO_3_)_3_
Locality: Stauffer mine, Green River, Wyoming, USA
Source: Marcus Origlieri
Description: Colorless wedge-shaped single crystal
Measured chemistry: Na_2.00_Ca_2.00_(CO_3_)_3_ ; CO2 not measured but estimated by difference and stoichiometry.
Pin_id: L00721
Orientation: Laser parallel to b* (0 1 0). Fiducial mark perpendicular to laser is parallel to -c [0 0 -1]
Raman shift (cm-1)	intensity
108.28	0
113.208	91.5137
118.134	182.674
123.058	241.606
127.979	756.354
132.898	2251.04
137.814	5100.73
142.728	3102.64
147.639	807.366
152.549	432.141
157.455	428.808
162.359	362.675
167.261	580.593
172.161	499.403
177.058	613.553
181.952	995.77
186.845	972.34
191.734	1379.83
196.622	2940.9
201.507	3198.03
206.389	2648.97
211.269	1443.71
216.147	769.541
221.022	396.946
225.895	288.541
230.765	258.825
235.633	407.274
240.498	308.399
245.361	333.954
250.222	695.098
255.08	1165.91
259.936	2345.21
264.789	4087.77
269.64	3812.32
274.488	1828.05
279.334	779.12
284.178	346.288
289.019	365.301
293.857	213.295
298.693	219.847
303.527	114.019
308.358	138.701
313.187	34.832
318.013	83.9014
322.837	141.552
327.659	74.4697
332.478	5.02832
337.294	48.0986
342.108	70.1084
346.92	52.4033
351.729	14.8584
356.535	6.91894
361.34	70.4873
366.141	27.3896
370.94	134.475
375.737	100.658
380.531	68.5947
385.323	127.582
390.113	0.545898
394.9	23.5439
399.684	194.576
404.466	131.922
409.245	169.656
414.022	125.558
418.797	131.907
423.569	78.6641
428.338	36.498
433.105	52.1172
437.87	84.5781
442.632	124.523
447.391	102.209
452.149	147.629
456.903	173.748
461.655	72.1699
466.405	125.432
471.152	136.725
475.897	120.662
480.639	58.2246
485.378	33.8516
490.116	94.9824
494.85	89.9414
499.582	264.014
504.312	45.7031
509.039	260.522
513.764	129.533
518.486	132.422
523.206	258.918
527.923	187.236
532.638	175.863
537.35	116.445
542.059	58.6992
546.766	120.045
551.471	183.182
556.173	211.752
560.873	141.19
565.57	161.465
570.264	250.977
574.957	53.5215
579.646	211.435
584.333	7.46875
589.018	196.898
593.7	30.1797
598.379	22.9766
603.056	360.684
607.73	126.42
612.402	8.69922
617.072	348.059
621.739	266.9
626.403	184.84
631.065	140.41
635.724	210.619
640.381	142.475
645.035	252.775
649.687	191.404
654.336	254.834
658.983	290.217
663.627	207.086
668.268	309.945
672.907	183.557
677.544	213.012
682.178	147.992
686.809	278.965
691.438	353.953
696.065	593.307
700.688	210.289
705.31	246.041
709.929	544.361
714.545	162.846
719.158	274.225
723.77	135.969
728.378	95.9981
732.984	163.18
737.588	157.471
742.189	271.838
746.787	146.785
751.383	86.3809
755.976	46.5332
760.567	104.555
765.155	178.494
769.741	251.603
774.324	199.955
778.904	250.766
783.482	192.129
788.058	83.8516
792.631	85.6211
797.201	244.391
801.769	387.85
806.334	1.91797
810.897	301.736
815.457	182.098
820.014	122.856
824.569	30.5664
829.122	234.635
833.671	178.379
838.219	141.539
842.763	134.717
847.306	132.566
851.845	222.812
856.382	200.828
860.917	535.123
865.448	718.644
869.978	343.033
874.505	75.3418
879.029	88.1231
883.55	114.551
888.069	99.9023
892.586	160.34
897.1	6.83203
901.611	118.443
906.12	221.676
910.626	53.4062
915.129	102.391
919.63	189.26
924.129	4.22266
928.625	188.606
933.118	201.762
937.609	46.6582
942.097	79.7441
946.582	148.871
951.065	350.08
955.546	244.033
960.023	46.0449
964.499	248.769
968.971	433.873
973.441	69.9199
977.909	30.7891
982.374	242.988
986.836	368.461
991.295	308.043
995.753	256.221
1000.21	228.734
1004.66	197.051
1009.11	178.74
1013.55	19.6797
1018	30.4355
1022.44	330.123
1026.88	394.014
1031.32	168.879
1035.75	168.945
1040.18	275.252
1044.61	128.553
1049.04	193.299
1053.46	370.246
1057.88	481.234
1062.3	826.729
1066.71	3990.2
1071.13	15863.5
1075.54	3260.2
1079.94	951.795
1084.35	2503.11
1088.75	19317.5
1093.15	9836.38
1097.55	750.391
1101.94	92.4062
1106.34	207.203
1110.73	144.66
1115.11	22.9746
1119.5	233.852
1123.88	336.969
1128.26	190.82
1132.63	321.703
1137.01	227.074
1141.38	435.328
1145.75	188.25
1150.12	62.7383
1154.48	327.012
1158.84	182.539
1163.2	122.867
1167.55	259.695
1171.91	126.043
1176.26	29.1641
1180.61	169.664
1184.95	71.7227
1189.29	208.426
1193.63	142.894
1197.97	237.113
1202.31	220.34
1206.64	159.269
1210.97	280.965
1215.29	262.273
1219.62	190.508
1223.94	223.676
1228.26	74.4688
1232.57	387.598
1236.89	353.906
1241.2	254.914
1245.51	119.375
1249.81	219.82
1254.12	35.0859
1258.42	125.629
1262.72	209.273
1267.01	318.973
1271.3	104.375
1275.59	8.15234
1279.88	181.551
1284.17	110.402
1288.45	44.6914
1292.73	99.0312
1297.01	160.195
1301.28	148.547
1305.55	29.8164
1309.82	190.941
1314.09	126.106
1318.35	497.422
1322.61	407.574
1326.87	229.094
1331.13	407.059
1335.38	313.406
1339.63	210.926
1343.88	372.926
1348.12	242.773
1352.37	260.035
1356.61	352.559
1360.85	418.68
1365.08	221.898
1369.31	387.418
1373.54	427.539
1377.77	198.438
1381.99	299.543
1386.22	25.5508
1390.43	236.141
1394.65	100.949
1398.87	139.035
1403.08	245.93
1407.29	218.516
1411.49	361.356
1415.69	284.609
1419.89	172.508
1424.09	397.438
1428.29	266.391
1432.48	257.168
1436.67	142.699
1440.86	465
1445.04	84.3711
1449.23	185.688
1453.4	483.441
1457.58	169.879
1461.76	205.246
1465.93	222.742
1470.1	367.519
1474.26	410.539
1478.43	119.481
1482.59	480.281
1486.75	173.359
1490.9	569.133
1495.06	194.106
1499.21	226.879
1503.35	178.137
1507.5	538.734
1511.64	521.254
1515.78	387.797
1519.92	172.773
1524.05	622.164
1528.18	439.594
1532.31	220.969
1536.44	550.512
1540.56	175.856
1544.69	312.906
1548.8	56.5078
1552.92	393.812
1557.03	562.668
1561.14	223.445
1565.25	273.988
1569.36	1.94531
