Measurement: Raman, 514 nm, ccw, Raman Data Processed
Mineral: Shortite
Rruff sample: R040184
Ideal chemistry: Na_2_Ca_2_(CO_3_)_3_
Locality: Green River, Wyoming, USA
Source: University of Arizona Mineral Museum
Description: Colorless single crystal fragments
Measured chemistry: (Na_1.47_Ca_0.27_[box]_0.26_)_Î£=2_Ca_2.00_(CO_3_)_3_
Pin_id: L00388
Orientation: Laser parallel to -c* (0 0 -1). Fiducial mark perpendicular to laser is parallel to a [1 0 0]
Raman shift (cm-1)	intensity
111.932	0
116.123	17.316
120.311	132.602
124.497	122.692
128.681	176.023
132.862	912.644
137.042	2294.4
141.219	1862.39
145.394	984.332
149.567	1680.4
153.738	2895.07
157.907	2110.82
162.073	799.215
166.237	355.008
170.4	272.559
174.559	116.52
178.717	167.514
182.873	165.589
187.026	8.477
191.178	131.225
195.327	213.656
199.474	275.147
203.618	249.713
207.761	225.562
211.902	161.653
216.04	60.988
220.176	31.674
224.31	128.213
228.442	160.765
232.572	254.627
236.7	459.936
240.825	601.221
244.948	446.29
249.07	710.796
253.189	1266.93
257.306	2940.97
261.42	7463.55
265.533	11115.2
269.643	5853.54
273.752	2134.91
277.858	945.992
281.962	594.074
286.064	462.949
290.164	211.938
294.262	39.687
298.358	165.924
302.451	84.777
306.543	16.975
310.632	21.496
314.719	137.294
318.804	181.879
322.887	48.125
326.968	9.727
331.047	150.3
335.124	111.154
339.198	143.827
343.271	17.153
347.341	142.159
351.409	129.714
355.475	8.363
359.539	4.409
363.601	72.919
367.661	148.865
371.719	51.954
375.775	58.576
379.828	118.834
383.88	71.376
387.929	20.152
391.977	12.763
396.022	134.691
400.065	177.599
404.106	60.023
408.146	4.919
412.182	57.38
416.217	146.145
420.25	28.945
424.281	22.62
428.31	179.488
432.336	161.332
436.361	20.134
440.383	28.12
444.404	70.844
448.422	160.598
452.438	138.456
456.453	37.396
460.465	133.638
464.475	159.432
468.483	260.979
472.489	105.481
476.493	7.986
480.495	164.393
484.495	197.753
488.493	42.981
492.489	29.983
496.482	87.013
500.474	268.949
504.464	145.996
508.451	21.689
512.437	100.12
516.421	275.918
520.402	228.064
524.382	24.529
528.359	12.73
532.335	149.789
536.308	223.037
540.279	208.756
544.249	6.649
548.216	19.075
552.181	144.866
556.145	221.888
560.106	128.853
564.065	46.18
568.023	143.247
571.978	220.677
575.931	234.375
579.882	6.367
583.831	5.109
587.779	265.927
591.724	238.747
595.667	179.809
599.608	50.453
603.547	97.261
607.485	334.06
611.42	300.449
615.353	42.888
619.284	59.922
623.213	181.028
627.141	359.188
631.066	332.152
634.989	113.481
638.91	107.09
642.829	220.778
646.747	338.357
650.662	305.583
654.575	87.59
658.486	44.773
662.396	197.159
666.303	286.634
670.209	354.41
674.112	10.526
678.013	66.883
681.913	244.077
685.81	340.153
689.706	353.912
693.599	1932.27
697.491	1121.15
701.38	393.498
705.268	444.278
709.154	955.848
713.037	549.519
716.919	330.414
720.799	122.88
724.677	437.26
728.553	244.34
732.427	159.849
736.299	52.238
740.169	224.089
744.037	365.283
747.903	203.103
751.767	91.686
755.629	19.001
759.49	93.385
763.348	253.062
767.204	416.436
771.059	182.131
774.911	19.006
778.762	31.257
782.611	257.341
786.457	394.18
790.302	212.881
794.145	16.57
797.986	91.126
801.825	217.593
805.662	269.058
809.497	231.263
813.33	97.269
817.162	49.661
820.991	13.56
824.818	320.916
828.644	319.425
832.468	306.531
836.289	92.721
840.109	29.648
843.927	219.763
847.743	372.017
851.557	355.163
855.369	337.12
859.179	113.454
862.988	60.272
866.794	263.42
870.599	415.206
874.401	396.974
878.202	118.604
882.001	9.852
885.798	201.581
889.593	269.208
893.386	640.878
897.177	310.655
900.966	192.321
904.754	93.504
908.539	154.789
912.323	236.324
916.105	583.455
919.885	423.773
923.663	114.988
927.439	36.052
931.213	12.796
934.985	428.359
938.756	489.314
942.525	318.209
946.291	118.792
950.056	139.794
953.819	116.277
957.58	384.974
961.339	416.438
965.097	337.569
968.852	308.51
972.606	41.193
976.358	101.398
980.108	189.049
983.856	253.283
987.602	352.804
991.346	253.519
995.089	34.106
998.829	25.289
1002.57	301.252
1006.3	361.718
1010.04	457.316
1013.77	557.908
1017.5	291.996
1021.23	203.297
1024.96	213.666
1028.69	279.064
1032.41	518.632
1036.13	699.047
1039.85	570.267
1043.57	492.069
1047.29	376.359
1051	726.557
1054.72	757.301
1058.43	1018.06
1062.14	1937.65
1065.84	5368.21
1069.55	49398.8
1073.25	10019.1
1076.95	2069.71
1080.66	1738.86
1084.35	3307.79
1088.05	43997.7
1091.74	9208.19
1095.44	1381.13
1099.13	481.45
1102.82	321.557
1106.51	571.402
1110.19	461.228
1113.87	630.72
1117.56	453.824
1121.24	360.456
1124.91	173.445
1128.59	57.189
1132.27	182.537
1135.94	383.215
1139.61	835.381
1143.28	719.062
1146.95	465.427
1150.61	190.745
1154.28	69.673
1157.94	148.382
1161.6	374.088
1165.26	647.64
1168.91	645.511
1172.57	653.014
1176.22	302.56
1179.87	198.97
1183.52	64.775
1187.17	55.671
1190.81	245.709
1194.46	561.663
1198.1	681.691
1201.74	735.146
1205.38	482.918
1209.02	167.873
1212.65	104.619
1216.29	318.044
1219.92	502.152
1223.55	735.247
1227.17	848.838
1230.8	841.95
1234.42	718.395
1238.05	192.865
1241.67	94.158
1245.29	222.214
1248.91	443.487
1252.52	704.283
1256.13	876.571
1259.75	910.031
1263.36	809.49
1266.97	288.854
1270.57	158.332
1274.18	43.151
1277.78	31.476
1281.38	368.768
1284.98	717.422
1288.58	754.288
1292.18	630.258
1295.77	600.61
1299.36	201.087
1302.95	93.818
1306.54	69.031
1310.13	51.616
1313.72	284.671
1317.3	458.121
1320.88	723.87
1324.46	766.651
1328.04	598.098
1331.62	298.803
1335.19	49.389
1338.77	53.574
1342.34	112.809
1345.91	106.785
1349.48	266.087
1353.05	734.996
1356.61	813.983
1360.17	753.171
1363.73	631.829
1367.3	309.479
1370.85	57.688
1374.41	42.175
1377.96	14.414
1381.52	349.198
1385.07	473.043
1388.62	805.469
1392.16	976.321
1395.71	1058.42
1399.25	877.219
1402.8	640.896
1406.34	374.645
1409.88	160.498
1413.41	269.336
1416.95	2196.87
1420.48	2439.27
1424.02	1057.64
1427.55	865.945
1431.08	1159.35
1434.6	1089.38
1438.13	986.684
1441.65	788.105
1445.17	348.225
1448.69	296.791
1452.21	169.904
1455.73	224.545
1459.24	278.982
1462.76	687.488
1466.27	1044.95
1469.78	1213.22
1473.29	1085.71
1476.79	972.449
1480.3	720.887
1483.8	479.494
1487.3	99.008
1490.8	31.357
1494.3	19.645
1497.8	85.596
1501.29	71.693
1504.79	370.322
1508.28	744.078
1511.77	1113.21
1515.26	1211.86
