Measurement: Raman, 514 nm, ccw, Raman Data Processed
Mineral: Shortite
Rruff sample: R040184
Ideal chemistry: Na_2_Ca_2_(CO_3_)_3_
Locality: Green River, Wyoming, USA
Source: University of Arizona Mineral Museum
Description: Colorless single crystal fragments
Measured chemistry: (Na_1.47_Ca_0.27_[box]_0.26_)_Î£=2_Ca_2.00_(CO_3_)_3_
Pin_id: L00388
Orientation: Laser parallel to -c* (0 0 -1). Fiducial mark perpendicular to laser is parallel to a [1 0 0]
Raman shift (cm-1)	intensity
116.123	0
120.311	119.548
124.497	6.506
128.681	41.019
132.862	403.879
137.042	1018.1
141.219	875.44
145.394	410.571
149.567	767.587
153.738	1234.82
157.907	1149.85
162.073	776.35
166.237	850.173
170.4	1684.98
174.559	1037.63
178.717	474.089
182.873	343.094
187.026	309.452
191.178	712.331
195.327	1417.99
199.474	3022.84
203.618	4190.44
207.761	2236.68
211.902	840.656
216.04	312.522
220.176	217.862
224.31	265.25
228.442	148.868
232.572	229.951
236.7	376.774
240.825	417.788
244.948	342.47
249.07	501.205
253.189	992.701
257.306	1812.4
261.42	3862.26
265.533	5177.07
269.643	2698.47
273.752	961.068
277.858	427.158
281.962	284.921
286.064	269.826
290.164	134.897
294.262	21.141
298.358	92.759
302.451	163.693
306.543	15.129
310.632	16.031
314.719	41.42
318.804	106.285
322.887	65.27
326.968	15.064
331.047	39.078
335.124	127.211
339.198	28.034
343.271	31.813
347.341	183.649
351.409	187.375
355.475	92.238
359.539	8.347
363.601	189.293
367.661	152.752
371.719	20.165
375.775	103.48
379.828	124.152
383.88	158.479
387.929	13.689
391.977	87.623
396.022	130.555
400.065	142.077
404.106	99.451
408.146	18.016
412.182	53.797
416.217	146.235
420.25	61.64
424.281	43.654
428.31	127.438
432.336	129.041
436.361	33.226
440.383	109.786
444.404	11.125
448.422	108.451
452.438	182.504
456.453	23.833
460.465	67.49
464.475	170.789
468.483	201.824
472.489	70.991
476.493	77.26
480.495	159.564
484.495	170.345
488.493	78.462
492.489	1.24
496.482	38.771
500.474	203.723
504.464	173.96
508.451	48.273
512.437	52.715
516.421	164.286
520.402	277.187
524.382	68.155
528.359	89.474
532.335	281.009
536.308	214.948
540.279	221.444
544.249	53.589
548.216	83.295
552.181	252.132
556.145	183.7
560.106	87.514
564.065	61.832
568.023	194.711
571.978	206.939
575.931	185.676
579.882	152.117
583.831	27.608
587.779	167.628
591.724	200.44
595.667	159.883
599.608	16.507
603.547	68.85
607.485	267.984
611.42	313.88
615.353	77.366
619.284	17.789
623.213	271.154
627.141	373.398
631.066	268.095
634.989	11.139
638.91	204.035
642.829	233.984
646.747	318.487
650.662	276.077
654.575	14.555
658.486	35.392
662.396	215.587
666.303	313.253
670.209	294.784
674.112	25.762
678.013	100.744
681.913	283.31
685.81	277.336
689.706	265.152
693.599	981.691
697.491	665.497
701.38	379.94
705.268	532.866
709.154	1046.31
713.037	1030.1
716.919	1483.09
720.799	342.412
724.677	511.773
728.553	355.166
732.427	142.592
736.299	87.636
740.169	178.353
744.037	509.72
747.903	232.431
751.767	70.007
755.629	9.02
759.49	173.437
763.348	403.469
767.204	456.316
771.059	228.537
774.911	49.08
778.762	123.562
782.611	245.896
786.457	437.708
790.302	178.938
794.145	82.304
797.986	153.171
801.825	214.446
805.662	325.779
809.497	266.622
813.33	47.447
817.162	25.566
820.991	60.648
824.818	354.323
828.644	426.091
832.468	218.512
836.289	118.755
840.109	38.781
843.927	191.678
847.743	291.877
851.557	402.316
855.369	233.653
859.179	13.558
862.988	13.367
866.794	253.492
870.599	463.064
874.401	422.717
878.202	101.469
882.001	88.895
885.798	240.181
889.593	399.14
893.386	607.833
897.177	496.284
900.966	175.181
904.754	133.211
908.539	140.783
912.323	329.443
916.105	547.805
919.885	316.173
923.663	24.412
927.439	1.018
931.213	146.97
934.985	552.903
938.756	490.897
942.525	453.529
946.291	219.724
950.056	137.611
953.819	162.473
957.58	410.094
961.339	375.117
965.097	432.772
968.852	232.146
972.606	71.001
976.358	28.585
980.108	148.551
983.856	217.071
987.602	343.957
991.346	107.741
995.089	84.05
998.829	11.049
1002.57	262.298
1006.3	249.028
1010.04	550.896
1013.77	537.501
1017.5	275.551
1021.23	122.707
1024.96	219.203
1028.69	424.864
1032.41	564.898
1036.13	601.514
1039.85	572.889
1043.57	299.958
1047.29	157.195
1051	433.233
1054.72	660.246
1058.43	797.249
1062.14	1293.46
1065.84	2959.1
1069.55	24054.8
1073.25	4950.26
1076.95	1345.83
1080.66	1641.33
1084.35	3396.29
1088.05	46351.5
1091.74	10177
1095.44	1430.71
1099.13	346.329
1102.82	272.062
1106.51	637.141
1110.19	591.981
1113.87	617.198
1117.56	474.486
1121.24	270.45
1124.91	83.2
1128.59	12.644
1132.27	170.747
1135.94	406.674
1139.61	749.969
1143.28	750.251
1146.95	532.866
1150.61	117.251
1154.28	98.19
1157.94	15.003
1161.6	377.925
1165.26	733.244
1168.91	696.527
1172.57	538.749
1176.22	231.41
1179.87	91.786
1183.52	77.347
1187.17	246.215
1190.81	107.224
1194.46	477.493
1198.1	699.032
1201.74	884.143
1205.38	537.404
1209.02	223.121
1212.65	152.406
1216.29	380.471
1219.92	603.592
1223.55	951.033
1227.17	939.254
1230.8	890.625
1234.42	626.443
1238.05	184.207
1241.67	139.869
1245.29	219.748
1248.91	514.762
1252.52	708.797
1256.13	1044.46
1259.75	1094.71
1263.36	715.703
1266.97	368.801
1270.57	202.348
1274.18	33.221
1277.78	53.559
1281.38	334.072
1284.98	705.533
1288.58	816.213
1292.18	754.623
1295.77	619.074
1299.36	151.199
1302.95	88.08
1306.54	174.678
1310.13	79.918
1313.72	255.031
1317.3	469.85
1320.88	752.357
1324.46	735.746
1328.04	603.656
1331.62	506.633
1335.19	117.857
1338.77	151.404
1342.34	49.893
1345.91	179.607
1349.48	388.482
1353.05	841.305
1356.61	881.586
1360.17	1100.62
1363.73	698.068
1367.3	304.49
1370.85	28.943
1374.41	111.99
1377.96	14.082
1381.52	309.33
1385.07	534.615
1388.62	907.508
1392.16	1209.58
1395.71	1302.37
1399.25	991.744
1402.8	630.619
1406.34	500.033
1409.88	75.146
1413.41	295.27
1416.95	1521.8
1420.48	1777.07
1424.02	1058.25
1427.55	1122.81
1431.08	1250.27
1434.6	1268.58
1438.13	1067.48
1441.65	597.574
1445.17	297.006
1448.69	443.666
1452.21	253.41
1455.73	268.525
1459.24	312.361
1462.76	825.152
1466.27	1163.62
1469.78	1346.8
1473.29	1363.96
1476.79	1119.78
1480.3	860.129
1483.8	671.535
1487.3	222.654
1490.8	53.908
1494.3	11.131
1497.8	261.617
1501.29	223.236
1504.79	406.693
1508.28	597.295
1511.77	1155.25
1515.26	1134.02
