Measurement: Raman, 514 nm, ccw, Raman Data Processed
Mineral: Shortite
Rruff sample: R050248
Ideal chemistry: Na_2_Ca_2_(CO_3_)_3_
Locality: Stauffer mine, Green River, Wyoming, USA
Source: Marcus Origlieri
Description: Colorless wedge-shaped single crystal
Measured chemistry: Na_2.00_Ca_2.00_(CO_3_)_3_ ; CO2 not measured but estimated by difference and stoichiometry.
Pin_id: L00721
Orientation: Laser parallel to b* (0 1 0). Fiducial mark perpendicular to laser is parallel to -c [0 0 -1]
Raman shift (cm-1)	intensity
108.28	0
113.208	0.832031
118.134	45.2959
123.058	29.0498
127.979	330.83
132.898	905.837
137.814	1829.22
142.728	1145.86
147.639	652.384
152.549	458.538
157.455	836.449
162.359	1973.69
167.261	3957.91
172.161	3172.53
177.058	1323.87
181.952	776.358
186.845	682.562
191.734	787.118
196.622	1365.01
201.507	1409.41
206.389	1107.72
211.269	601.916
216.147	541.623
221.022	411.792
225.895	502.565
230.765	562.837
235.633	604.765
240.498	838.52
245.361	1090.4
250.222	1905.83
255.08	3281.54
259.936	4737.45
264.789	4805.12
269.64	3165.1
274.488	1761.51
279.334	916.947
284.178	548.438
289.019	288.206
293.857	286.202
298.693	187.218
303.527	107.028
308.358	18
313.187	80.1357
318.013	213.773
322.837	176.408
327.659	14.3242
332.478	67.4853
337.294	7.90527
342.108	126.872
346.92	60.3672
351.729	108.69
356.535	88.2969
361.34	110.724
366.141	99.083
370.94	66.3662
375.737	109.923
380.531	64.7402
385.323	130.269
390.113	63.9766
394.9	17.0879
399.684	16.3896
404.466	32.7734
409.245	39.6279
414.022	20.8633
418.797	208.699
423.569	30.4141
428.338	43.4629
433.105	51.5859
437.87	30.6328
442.632	31.0723
447.391	78.0195
452.149	23.9814
456.903	48.6807
461.655	48.1963
466.405	218.212
471.152	95.3301
475.897	74.7188
480.639	227.236
485.378	157.417
490.116	146.613
494.85	241.691
499.582	42.7852
504.312	220.255
509.039	114.219
513.764	261.165
518.486	282.988
523.206	177.06
527.923	303.56
532.638	93.5039
537.35	95.5703
542.059	167.012
546.766	342.16
551.471	119.475
556.173	215.594
560.873	241.49
565.57	177.309
570.264	185.113
574.957	116.111
579.646	236.711
584.333	110.713
589.018	49.1875
593.7	133.789
598.379	19.7227
603.056	136.273
607.73	127.262
612.402	41.7227
617.072	151.629
621.739	38.2734
626.403	135.475
631.065	37.4375
635.724	290.893
640.381	404.182
645.035	42.2168
649.687	134.647
654.336	241.697
658.983	196.121
663.627	92.1269
668.268	176.18
672.907	295.562
677.544	182.115
682.178	83.3945
686.809	131.705
691.438	340.295
696.065	277.619
700.688	278.963
705.31	56.8008
709.929	550.223
714.545	638.99
719.158	999.326
723.77	304.938
728.378	166.297
732.984	119.326
737.588	95.668
742.189	215.172
746.787	167.69
751.383	1.06641
755.976	46.7773
760.567	38.6992
765.155	246.139
769.741	221.559
774.324	28.3516
778.904	277.934
783.482	189.441
788.058	318.908
792.631	255.582
797.201	146.81
801.769	28.8711
806.334	221.773
810.897	165.598
815.457	259.658
820.014	55.3008
824.569	383.086
829.122	169.17
833.671	26.2539
838.219	285.902
842.763	223.568
847.306	296.91
851.845	236.891
856.382	135.736
860.917	357.16
865.448	414.578
869.978	338.062
874.505	356.916
879.029	155.717
883.55	261.873
888.069	37.9238
892.586	163.221
897.1	316.58
901.611	178.572
906.12	108.404
910.626	139.039
915.129	1.04297
919.63	5.93164
924.129	216.166
928.625	207.014
933.118	116.85
937.609	202.293
942.097	235.199
946.582	204.039
951.065	44.7773
955.546	234.264
960.023	121.41
964.499	0.263672
968.971	132.213
973.441	196.752
977.909	223.926
982.374	339.525
986.836	193.023
991.295	57.4395
995.753	208.512
1000.21	181.607
1004.66	44.707
1009.11	164.857
1013.55	221.217
1018	133.957
1022.44	78.3691
1026.88	173.615
1031.32	386.478
1035.75	227.344
1040.18	97.8125
1044.61	222.393
1049.04	121.379
1053.46	29.8672
1057.88	349.334
1062.3	491.297
1066.71	2018.43
1071.13	5695.89
1075.54	1527.18
1079.94	725.633
1084.35	2800.03
1088.75	19613
1093.15	8430.18
1097.55	945.777
1101.94	338.125
1106.34	344.111
1110.73	214.484
1115.11	244.908
1119.5	154.098
1123.88	386.484
1128.26	69.4805
1132.63	358.856
1137.01	174.031
1141.38	117.195
1145.75	71.5781
1150.12	191.312
1154.48	293.606
1158.84	174.535
1163.2	311.453
1167.55	167.238
1171.91	339.719
1176.26	225.488
1180.61	558.894
1184.95	136.809
1189.29	300.039
1193.63	225.348
1197.97	162.902
1202.31	308.574
1206.64	306.598
1210.97	64.793
1215.29	169.078
1219.62	223.559
1223.94	354.684
1228.26	255.297
1232.57	226.555
1236.89	206.633
1241.2	193.875
1245.51	181.766
1249.81	238.809
1254.12	43.0547
1258.42	101.769
1262.72	297.227
1267.01	219.312
1271.3	479.289
1275.59	141.336
1279.88	37.8516
1284.17	5.98047
1288.45	123.609
1292.73	337.141
1297.01	149.199
1301.28	128.652
1305.55	191.086
1309.82	181.363
1314.09	188.91
1318.35	657.266
1322.61	214.117
1326.87	191.981
1331.13	582.188
1335.38	353.481
1339.63	289.129
1343.88	297.695
1348.12	317.516
1352.37	303.656
1356.61	506.055
1360.85	453.781
1365.08	144.324
1369.31	155.414
1373.54	340.926
1377.77	263.863
1381.99	284.894
1386.22	394.617
1390.43	141.434
1394.65	227.062
1398.87	598.641
1403.08	256.109
1407.29	179.5
1411.49	309.68
1415.69	159.082
1419.89	194.211
1424.09	274.445
1428.29	252.504
1432.48	258.758
1436.67	778.973
1440.86	271.738
1445.04	182.812
1449.23	189.961
1453.4	131.242
1457.58	311.09
1461.76	10.8281
1465.93	14.8047
1470.1	671.582
1474.26	427.57
1478.43	201.516
1482.59	125.469
1486.75	331.223
1490.9	240.492
1495.06	1.27344
1499.21	19.9258
1503.35	297.84
1507.5	215.906
1511.64	478.613
1515.78	159.805
1519.92	131.41
1524.05	507.816
1528.18	272.816
1532.31	383.406
1536.44	323.496
1540.56	181.926
1544.69	10.6484
1548.8	131.09
1552.92	618.203
1557.03	476.527
1561.14	14.5273
1565.25	237.363
1569.36	216.117
