Measurement: Raman, 514 nm, ccw, Raman Data Processed
Mineral: Shortite
Rruff sample: R040184
Ideal chemistry: Na_2_Ca_2_(CO_3_)_3_
Locality: Green River, Wyoming, USA
Source: University of Arizona Mineral Museum
Description: Colorless single crystal fragments
Measured chemistry: (Na_1.47_Ca_0.27_[box]_0.26_)_Î£=2_Ca_2.00_(CO_3_)_3_
Pin_id: L00189
Orientation: Laser parallel to -a* (-1 0 0). Fiducial mark perpendicular to laser is parallel to b [0 1 0]
Raman shift (cm-1)	intensity
117.519	0
121.706	37.787
125.892	399.932
130.075	1385.5
134.256	4520.99
138.435	7806.33
142.611	2723.56
146.786	576.383
150.958	265.088
155.128	141.034
159.296	7.72
163.462	19.258
167.625	41.872
171.786	80.959
175.946	308.003
180.103	1003.04
184.258	956.664
188.41	822.659
192.561	1867.03
196.709	4440.75
200.856	4771.73
205	3882.6
209.142	2134.45
213.281	966.742
217.419	464.661
221.554	242.605
225.688	43.369
229.819	121.258
233.948	128.01
238.075	138.467
242.2	152.319
246.322	366.898
250.443	614.856
254.561	985.005
258.677	1765.3
262.791	4249.9
266.903	7056.98
271.013	4257.97
275.121	1614.14
279.226	803.005
283.33	436.104
287.431	189.898
291.53	208.058
295.627	136.742
299.722	60.777
303.815	38.009
307.906	13.364
311.995	79.8
316.081	63.145
320.166	30.61
324.248	46.23
328.328	22.784
332.406	37.412
336.482	34.315
340.556	19.214
344.628	70.024
348.697	13.786
352.765	19.414
356.83	38.131
360.894	7.895
364.955	15.966
369.014	4.31
373.071	74.269
377.126	6.842
381.179	16.665
385.23	16.143
389.279	71.788
393.325	22.457
397.37	20.389
401.413	18.661
405.453	40.635
409.491	48.831
413.528	21.758
417.562	22.8
421.594	50.156
425.624	27.946
429.652	17.307
433.678	30.941
437.702	97.322
441.724	127.037
445.743	35.409
449.761	50.751
453.777	115.184
457.79	37.574
461.802	98.028
465.811	53.218
469.819	64.777
473.824	54.975
477.827	83.797
481.829	123.018
485.828	1.992
489.825	98.098
493.82	52.207
497.813	28.208
501.804	96.394
505.793	86.151
509.78	129.632
513.765	91.859
517.748	38.706
521.729	7.958
525.708	35.923
529.685	72.028
533.659	63.136
537.632	85.102
541.603	51.672
545.571	112.584
549.538	122.18
553.503	6.631
557.465	47.309
561.426	17.718
565.385	77.252
569.341	64.68
573.296	38.101
577.248	9.897
581.199	31.339
585.147	91.739
589.094	8.985
593.038	35.283
596.981	41.382
600.922	107.809
604.86	45.184
608.797	51.688
612.731	23.049
616.664	35.828
620.594	82.387
624.523	53.889
628.449	19.813
632.374	121.255
636.296	130.711
640.217	67.285
644.135	26.437
648.052	42.205
651.967	20.382
655.879	115.207
659.79	94.384
663.698	85.469
667.605	87.357
671.51	45.445
675.413	107.919
679.313	154.345
683.212	62.993
687.109	75.146
691.004	219.966
694.897	798.939
698.788	304.891
702.677	143.343
706.564	267.663
710.449	711.315
714.332	108.353
718.213	72.435
722.092	134.951
725.969	138.356
729.844	593.029
733.718	165.657
737.589	105.879
741.458	31.936
745.326	45.434
749.191	69.605
753.055	122.804
756.916	118.393
760.776	126.198
764.634	3.927
768.489	43.492
772.343	110.064
776.195	97.421
780.045	64.743
783.893	112.581
787.739	41.123
791.583	28.067
795.425	44.162
799.266	103.067
803.104	25.962
806.94	59.702
810.775	68.472
814.608	51.766
818.438	145.642
822.267	93.624
826.094	16.698
829.919	67.078
833.742	86.555
837.563	38.077
841.382	201.427
845.199	54.812
849.014	77.13
852.828	104.324
856.639	52.465
860.449	529.62
864.257	1441.66
868.062	206.754
871.866	193.708
875.668	14.456
879.468	10.772
883.267	147.887
887.063	133.644
890.857	101.964
894.65	93.893
898.44	10.81
902.229	101.361
906.016	107.506
909.801	169.042
913.584	118.808
917.365	7.885
921.144	33.447
924.922	127.395
928.697	160.3
932.471	117.14
936.242	58.931
940.012	27.566
943.78	13.136
947.546	61.603
951.311	43.27
955.073	172.079
958.834	132.622
962.592	129.092
966.349	2.296
970.104	100.256
973.857	94.031
977.608	122.785
981.357	74.083
985.105	133.37
988.85	60.275
992.594	81.052
996.336	77.884
1000.08	90.61
1003.81	185.676
1007.55	161.341
1011.28	91.558
1015.02	49.773
1018.75	155.956
1022.48	136.244
1026.2	184.08
1029.93	132.373
1033.65	200.384
1037.37	155.528
1041.09	121.192
1044.81	285.416
1048.53	490.386
1052.24	547.843
1055.95	399.074
1059.66	710.163
1063.37	1603.17
1067.08	10954.2
1070.79	22709.7
1074.49	2433.72
1078.19	1336.38
1081.89	1710.97
1085.59	7322.71
1089.28	48327.9
1092.98	3184.11
1096.67	606.189
1100.36	507.593
1104.05	399.872
1107.73	298.364
1111.42	202.688
1115.1	43.218
1118.78	156.068
1122.46	151.909
1126.14	26.566
1129.82	199.287
1133.49	216.854
1137.16	174.17
1140.83	54.522
1144.5	71.806
1148.17	47.353
1151.83	166.066
1155.5	200.025
1159.16	186.103
1162.82	159.978
1166.47	110.845
1170.13	87.59
1173.79	14.265
1177.44	29.56
1181.09	132.908
1184.74	185.444
1188.38	244.339
1192.03	129.533
1195.67	9.739
1199.31	61.346
1202.95	61.689
1206.59	77.606
1210.23	96.553
1213.86	245.33
1217.5	202.605
1221.13	206.625
1224.76	166.08
1228.38	44.945
1232.01	186.861
1235.63	3.805
1239.26	72.476
1242.88	138.212
1246.49	219.349
1250.11	221.966
1253.73	198.103
1257.34	15.094
1260.95	164.741
1264.56	11.386
1268.17	16.3
1271.78	84.496
1275.38	285.566
1278.98	369.544
1282.58	118.242
1286.18	112.099
1289.78	134.059
1293.38	106.022
1296.97	12.482
1300.56	23.655
1304.15	99.143
1307.74	95.718
1311.33	127.139
1314.91	180.642
1318.5	183.914
1322.08	98.592
1325.66	107.075
1329.23	15.454
1332.81	43.157
1336.39	104.065
1339.96	188.789
1343.53	183.11
1347.1	251.023
1350.67	163.259
1354.23	149.269
1357.8	167.689
1361.36	84.432
1364.92	66.559
1368.48	20.712
1372.04	41.238
1375.59	238.373
1379.15	319.173
1382.7	311.614
1386.25	427.411
1389.8	263.078
1393.35	228.036
1396.89	382.146
1400.43	914.903
1403.98	405.146
1407.52	101.994
1411.06	182.946
1414.59	427.373
1418.13	476.535
1421.66	286.979
1425.19	344.083
1428.72	198.805
1432.25	61.656
1435.78	11.113
1439.3	113.422
1442.83	202.363
1446.35	195.564
1449.87	239.972
1453.38	387.894
1456.9	464.06
1460.41	402.201
1463.93	449.844
1467.44	346.315
1470.95	245.394
1474.46	396.76
1477.96	320.093
1481.47	71.288
1484.97	117.232
1488.47	109.508
1491.97	204.696
1495.47	197.598
1498.96	395.243
1502.46	484.128
1505.95	492.829
1509.44	1493.74
1512.93	1055.35
1516.42	322.075
1519.9	2.139
