Measurement: Raman, 514 nm, ccw, Raman Data Processed
Mineral: Shortite
Rruff sample: R040184
Ideal chemistry: Na_2_Ca_2_(CO_3_)_3_
Locality: Green River, Wyoming, USA
Source: University of Arizona Mineral Museum
Description: Colorless single crystal fragments
Measured chemistry: (Na_1.47_Ca_0.27_[box]_0.26_)_Î£=2_Ca_2.00_(CO_3_)_3_
Pin_id: L00385
Orientation: Laser parallel to -b* (0 -1 0). Fiducial mark perpendicular to laser is parallel to -c [0 0 -1]
Raman shift (cm-1)	intensity
111.932	0
116.123	10.783
120.311	153.684
124.497	223.538
128.681	395.115
132.862	849.31
137.042	2047.73
141.219	1220.21
145.394	498.393
149.567	409.319
153.738	313.35
157.907	541.909
162.073	1114.43
166.237	2376.63
170.4	2860.43
174.559	1174.7
178.717	729.062
182.873	498.467
187.026	358.862
191.178	593.443
195.327	1030.89
199.474	1219.37
203.618	1074.89
207.761	887.7
211.902	504.836
216.04	275.364
220.176	171.854
224.31	233.586
228.442	244.756
232.572	202.767
236.7	483.506
240.825	581.581
244.948	627.146
249.07	1049.28
253.189	1900.49
257.306	2725.35
261.42	3420.16
265.533	3539.59
269.643	2490.38
273.752	1170.53
277.858	585.354
281.962	487.776
286.064	329.04
290.164	211.135
294.262	73.608
298.358	158.534
302.451	154.328
306.543	69.687
310.632	83.578
314.719	124.623
318.804	183.135
322.887	22.788
326.968	22.068
331.047	119.399
335.124	160.937
339.198	77.426
343.271	59.792
347.341	241.816
351.409	135.059
355.475	14.509
359.539	35.521
363.601	221.998
367.661	83.71
371.719	98.882
375.775	6.723
379.828	198.308
383.88	174.307
387.929	35.515
391.977	78.595
396.022	119.165
400.065	188.422
404.106	59.256
408.146	79.066
412.182	155.451
416.217	151.25
420.25	2.767
424.281	46.004
428.31	200.037
432.336	235.942
436.361	35.04
440.383	9.638
444.404	86.585
448.422	137.247
452.438	82.294
456.453	19.938
460.465	195.012
464.475	181.203
468.483	146.424
472.489	61.363
476.493	36.315
480.495	245.051
484.495	249.659
488.493	43.702
492.489	11.421
496.482	92.434
500.474	176.442
504.464	168.844
508.451	28.378
512.437	84.473
516.421	227.342
520.402	240.079
524.382	26.696
528.359	64.813
532.335	296.42
536.308	227.443
540.279	178.355
544.249	10.704
548.216	50.473
552.181	279.692
556.145	199.087
560.106	18.51
564.065	57.579
568.023	187.023
571.978	192.13
575.931	210.724
579.882	75.89
583.831	82.275
587.779	260.297
591.724	158.052
595.667	186.07
599.608	32.43
603.547	204.337
607.485	371.004
611.42	357.052
615.353	141.491
619.284	66.749
623.213	234.336
627.141	372.362
631.066	295.144
634.989	29.871
638.91	125.404
642.829	149.745
646.747	349.308
650.662	180.366
654.575	13.52
658.486	181.409
662.396	257.993
666.303	407.939
670.209	322.548
674.112	68.659
678.013	110.103
681.913	305.109
685.81	485.995
689.706	265.156
693.599	285.214
697.491	235.64
701.38	312.419
705.268	648.02
709.154	909.029
713.037	413.22
716.919	1047.36
720.799	632.819
724.677	558.065
728.553	456.288
732.427	204.816
736.299	82.231
740.169	347.614
744.037	434.828
747.903	333.585
751.767	155.645
755.629	59.972
759.49	236.727
763.348	406.265
767.204	401.722
771.059	303.468
774.911	22.131
778.762	132.036
782.611	226.027
786.457	448.905
790.302	106.873
794.145	10.084
797.986	201.518
801.825	263.064
805.662	293.699
809.497	253.525
813.33	64.881
817.162	11.721
820.991	29.91
824.818	374.145
828.644	444.275
832.468	234.467
836.289	146.4
840.109	145.186
843.927	117.504
847.743	283.75
851.557	253.779
855.369	346.742
859.179	54.748
862.988	263.586
866.794	312.639
870.599	470.398
874.401	438.824
878.202	165.812
882.001	2.59
885.798	189.377
889.593	465.461
893.386	651.867
897.177	477.453
900.966	223.598
904.754	248.092
908.539	88.482
912.323	443.689
916.105	548.422
919.885	452.6
923.663	66.688
927.439	1.5
931.213	252.221
934.985	613.137
938.756	646.342
942.525	558.248
946.291	319.529
950.056	292.484
953.819	324.635
957.58	607.482
961.339	561.055
965.097	559.303
968.852	430.814
972.606	49.693
976.358	151.416
980.108	312.25
983.856	405.096
987.602	616.818
991.346	298.379
995.089	100.818
998.829	0.947
1002.57	265.277
1006.3	334.977
1010.04	475.26
1013.77	745.047
1017.5	427.119
1021.23	116.188
1024.96	434.074
1028.69	447.475
1032.41	784.148
1036.13	773.158
1039.85	548.465
1043.57	448.166
1047.29	234
1051	517.672
1054.72	454.709
1058.43	801.104
1062.14	1315.85
1065.84	1851.51
1069.55	8466.19
1073.25	1459.91
1076.95	623.305
1080.66	1217.52
1084.35	2850.91
1088.05	33064
1091.74	5047.66
1095.44	960.119
1099.13	333.543
1102.82	196.34
1106.51	729.158
1110.19	601.035
1113.87	482.092
1117.56	510.848
1121.24	327.465
1124.91	78.146
1128.59	1.77
1132.27	159.852
1135.94	654.6
1139.61	1008.86
1143.28	869.693
1146.95	506.375
1150.61	153.064
1154.28	108.664
1157.94	118.857
1161.6	357.34
1165.26	810.16
1168.91	1017.53
1172.57	905.021
1176.22	312.217
1179.87	7.533
1183.52	97.504
1187.17	187.582
1190.81	44.588
1194.46	607.438
1198.1	881.291
1201.74	944.354
1205.38	806.508
1209.02	208.152
1212.65	208.424
1216.29	487.5
1219.92	695.861
1223.55	1103.37
1227.17	1351.8
1230.8	1220.85
1234.42	777.031
1238.05	208.152
1241.67	178.676
1245.29	304.777
1248.91	517.598
1252.52	951.775
1256.13	1486.01
1259.75	1365.73
1263.36	1186.13
1266.97	620.031
1270.57	351.084
1274.18	47.805
1277.78	63.572
1281.38	536.6
1284.98	1030.71
1288.58	880.604
1292.18	1165.85
1295.77	881.506
1299.36	217.053
1302.95	103.014
1306.54	51.197
1310.13	104.826
1313.72	409.188
1317.3	932.365
1320.88	1227.47
1324.46	1360.19
1328.04	1193.35
1331.62	889.971
1335.19	445.051
1338.77	87.912
1342.34	93.562
1345.91	523.898
1349.48	829.664
1353.05	1304.57
1356.61	1417.01
1360.17	1513.36
1363.73	1148.03
1367.3	608.02
1370.85	23.506
1374.41	8.371
1377.96	48.918
1381.52	0
