Measurement: Raman, 514 nm, ccw, Raman Data Processed
Mineral: Shortite
Rruff sample: R050248
Ideal chemistry: Na_2_Ca_2_(CO_3_)_3_
Locality: Stauffer mine, Green River, Wyoming, USA
Source: Marcus Origlieri
Description: Colorless wedge-shaped single crystal
Measured chemistry: Na_2.00_Ca_2.00_(CO_3_)_3_ ; CO2 not measured but estimated by difference and stoichiometry.
Pin_id: L01884
Orientation: Laser parallel to c* (0 0 1). Fiducial mark perpendicular to laser is parallel to a [1 0 0]
Raman shift (cm-1)	intensity
102.92	0
107.875	107.893
112.827	80.1221
117.777	215.403
122.723	624.906
127.667	2609.93
132.608	6084.27
137.547	9829.86
142.482	5652.17
147.415	1151.7
152.345	354.599
157.272	190.557
162.197	120.081
167.118	298.561
172.037	562.647
176.954	1016.7
181.867	1624.43
186.778	2040.02
191.685	3744.85
196.591	6918.11
201.493	7144.82
206.393	4829.99
211.289	2318.08
216.184	859.985
221.075	468.847
225.964	176.479
230.849	179.749
235.732	242.957
240.613	408.09
245.49	720.032
250.365	1443.02
255.237	2827.33
260.107	5992.42
264.973	9051.66
269.837	7514.06
274.698	2804.27
279.557	1060.27
284.412	459.323
289.265	216.387
294.116	215.691
298.963	106.97
303.808	74.4971
308.65	59.7734
313.489	21.5239
318.325	57.0835
323.159	25.2407
327.99	41.6172
332.819	28.6577
337.644	32.9219
342.467	74.4414
347.287	28.0576
352.105	17.5894
356.92	40.0298
361.732	47.9375
366.541	25.9072
371.348	16.6489
376.152	11.7778
380.953	45.5142
385.751	36.7129
390.547	60.7495
395.34	91.7734
400.13	94.9033
404.918	114.128
409.703	64.0225
414.485	33.6787
419.265	37.9487
424.041	61.9673
428.816	15.5815
433.587	60.1938
438.356	55.8721
443.122	7.5166
447.885	17.1431
452.646	65.2227
457.404	102.629
462.159	87.1689
466.911	90.4814
471.661	53.6636
476.409	52.0478
481.153	84.9106
485.895	106.497
490.634	30.1929
495.37	121.962
500.104	150.149
504.835	76.543
509.564	124.044
514.289	72.8901
519.013	148.538
523.733	166.935
528.451	96.687
533.166	171.432
537.878	40.0498
542.588	135.641
547.295	76.0815
551.999	126.48
556.701	87.6338
561.4	146.704
566.096	3.51709
570.79	73.8823
575.481	98.0288
580.169	59.3999
584.855	17.8042
589.538	16.3667
594.219	57.0845
598.896	70.4302
603.571	131.778
608.244	111.08
612.914	28.4199
617.581	128.409
622.245	86.7988
626.907	47.2358
631.566	141.152
636.223	188.631
640.877	26.0591
645.528	14.0537
650.177	59.625
654.823	38.7705
659.466	107
664.107	39.7534
668.745	31.4634
673.38	79.144
678.013	78.7783
682.643	29.3579
687.271	236.126
691.896	590.722
696.518	644.44
701.138	163.826
705.755	527.807
710.369	763.345
714.981	155.358
719.59	187.983
724.197	308.471
728.801	628.595
733.402	332.86
738.001	144.439
742.597	101.097
747.19	117.738
751.781	23.3203
756.369	28.5977
760.955	54.2515
765.538	55.9717
770.118	62.4985
774.696	102.186
779.271	7.51611
783.844	120.043
788.414	117.775
792.981	75.4829
797.546	18.0894
802.108	4.67432
806.667	77.2471
811.224	69.251
815.779	8.80664
820.33	88.3081
824.88	146.842
829.426	72.2881
833.97	111.741
838.512	10.8867
843.05	118.556
847.587	28.0005
852.12	35.1753
856.651	224.597
861.18	1169.02
865.706	1000.45
870.229	95.917
874.75	132.409
879.268	80.9033
883.783	125.4
888.296	48.9019
892.807	11.6528
897.314	27.1011
901.82	26.5518
906.322	112.05
910.822	49.3608
915.32	74.2729
919.815	73.6523
924.307	109.056
928.797	76.8174
933.284	26.5059
937.769	105.731
942.251	47.9355
946.731	166.344
951.208	167.661
955.682	53.0093
960.154	24.1216
964.623	133.757
969.09	126.499
973.554	128.046
978.016	132.483
982.475	82.2671
986.931	51.0776
991.385	21.6001
995.837	126.237
1000.29	25.9233
1004.73	69.6646
1009.18	35.4844
1013.62	16.3398
1018.06	94.2314
1022.49	97.1597
1026.93	31.3486
1031.36	101.552
1035.79	105.751
1040.21	73.5727
1044.63	103.149
1049.06	219.402
1053.47	360.977
1057.89	438.547
1062.3	1612.77
1066.71	16275.2
1071.12	29656
1075.53	4361.53
1079.93	1615.13
1084.33	10331.7
1088.73	52802.4
1093.13	16715.1
1097.52	1156.95
1101.91	305.893
1106.3	103.492
1110.68	108.926
1115.07	155.094
1119.45	152.576
1123.83	221.163
1128.2	131.221
1132.57	72.2935
1136.94	68.0259
1141.31	109.468
1145.68	97.9492
1150.04	56.4683
1154.4	101.724
1158.76	106.586
1163.11	37.291
1167.47	89.1484
1171.82	77.499
1176.16	100.32
1180.51	5.92139
1184.85	83.8335
1189.19	84.5889
1193.53	120.435
1197.87	5.84131
1202.2	29.0625
1206.53	128.013
1210.86	27.1494
1215.18	158.13
1219.51	129.14
1223.83	29.4297
1228.15	53.4976
1232.46	113.841
1236.77	69.9795
1241.09	25.9126
1245.39	91.0513
1249.7	143.22
1254	25.7598
1258.3	121.452
1262.6	134.5
1266.9	150.507
1271.19	130.478
1275.48	118.475
1279.77	33.4971
1284.05	56.543
1288.34	81.6084
1292.62	59.6816
1296.9	114.779
1301.17	126.181
1305.44	41.1338
1309.72	83.1011
1313.98	131.356
1318.25	29.354
1322.51	143.668
1326.78	139.603
1331.03	178.933
1335.29	96.2832
1339.54	74.605
1343.8	97.9546
1348.04	5.70752
1352.29	161.651
1356.53	51.0395
1360.78	79.4346
1365.02	40.6948
1369.25	66.8066
1373.49	163.284
1377.72	79.8066
1381.95	0.319824
1386.17	55.937
1390.4	162.897
1394.62	154.298
1398.84	627.099
1403.06	1214.98
1407.27	254.922
1411.48	192.858
1415.69	143.587
1419.9	124.72
1424.1	95.8721
1428.31	112.106
1432.51	164.266
1436.7	58.1416
1440.9	65.8213
1445.09	79.9688
1449.28	177.201
1453.47	22.4268
1457.65	82.5273
1461.84	211.73
1466.02	90.5732
1470.2	234.835
1474.37	432.31
1478.55	774.943
1482.72	171.868
1486.88	71.0547
1491.05	133.36
1495.21	156.835
1499.38	147.446
1503.54	196.136
1507.69	389.847
1511.85	1807.74
1516	1316.91
1520.15	447.455
1524.29	218.657
1528.44	299.329
1532.58	142.07
1536.72	88.8945
1540.86	150.214
1544.99	124.16
1549.12	26.7832
1553.25	71.9023
1557.38	216.562
1561.51	186.482
1565.63	122.103
1569.75	0.275391
