Measurement: Raman, 514 nm, ccw, Raman Data Processed
Mineral: Shortite
Rruff sample: R050248
Ideal chemistry: Na_2_Ca_2_(CO_3_)_3_
Locality: Stauffer mine, Green River, Wyoming, USA
Source: Marcus Origlieri
Description: Colorless wedge-shaped single crystal
Measured chemistry: Na_2.00_Ca_2.00_(CO_3_)_3_ ; CO2 not measured but estimated by difference and stoichiometry.
Pin_id: L01884
Orientation: Laser parallel to c* (0 0 1). Fiducial mark perpendicular to laser is parallel to a [1 0 0]
Raman shift (cm-1)	intensity
102.92	0
107.875	72.0125
112.827	8.71533
117.777	232.963
122.723	978.175
127.667	3042.4
132.608	4734.25
137.547	5489.55
142.482	3565.79
147.415	1363.45
152.345	1687.63
157.272	1606.85
162.197	507.401
167.118	87.3237
172.037	165.001
176.954	447.71
181.867	1056.18
186.778	1148.59
191.685	1418.29
196.591	2438.39
201.493	2960.02
206.393	2479.1
211.289	1403.88
216.184	571.993
221.075	205.211
225.964	44.2571
230.849	130.022
235.732	164.902
240.613	342.681
245.49	715.915
250.365	1292.27
255.237	2441.35
260.107	5179.49
264.973	9058.72
269.837	8454.74
274.698	3277.88
279.557	1129.03
284.412	535.3
289.265	324.279
294.116	161.622
298.963	141.717
303.808	138.994
308.65	24.5647
313.489	90.5261
318.325	0.638428
323.159	4.02686
327.99	35.4646
332.819	27.0373
337.644	18.3386
342.467	29.7498
347.287	4.927
352.105	20.8574
356.92	19.1916
361.732	13.0842
366.541	54.0308
371.348	97.353
376.152	32.4785
380.953	27.4441
385.751	43.2205
390.547	97.8423
395.34	127.355
400.13	196.743
404.918	110.231
409.703	1.24194
414.485	117.547
419.265	17.0557
424.041	90.928
428.816	20.9985
433.587	1.00928
438.356	24.197
443.122	47.3018
447.885	95.167
452.646	79.8931
457.404	98.8125
462.159	82.5928
466.911	132.303
471.661	138.156
476.409	73.1199
481.153	85.9968
485.895	18.8071
490.634	124.954
495.37	6.37964
500.104	96.0664
504.835	23.5029
509.564	98.6494
514.289	124.881
519.013	122.211
523.733	139.335
528.451	105.828
533.166	101.444
537.878	87.6033
542.588	41.532
547.295	62.3306
551.999	129.765
556.701	122.634
561.4	3.53613
566.096	82.6765
570.79	94.2466
575.481	66.7715
580.169	69.4109
584.855	30.0435
589.538	14.5605
594.219	75.78
598.896	87.5784
603.571	18.4814
608.244	67.4082
612.914	56.6079
617.581	177.697
622.245	62.6855
626.907	48.4412
631.566	89.5908
636.223	32.1743
640.877	57.9902
645.528	9.25146
650.177	90.4736
654.823	55.8818
659.466	90.7085
664.107	48.5845
668.745	29.9614
673.38	149.457
678.013	81.9331
682.643	15.5185
687.271	242.009
691.896	1033.42
696.518	1516.5
701.138	374.054
705.755	438.334
710.369	925.63
714.981	323.796
719.59	179.986
724.197	1115.12
728.801	3419.64
733.402	2086.52
738.001	207.708
742.597	117.516
747.19	65.5786
751.781	80.2593
756.369	38.2432
760.955	31.3061
765.538	25.4502
770.118	13.5273
774.696	50.4614
779.271	16.6426
783.844	13.8169
788.414	25.437
792.981	99.7725
797.546	59.4023
802.108	31.3735
806.667	41.75
811.224	60.9658
815.779	73.3179
820.33	30.648
824.88	111.076
829.426	16.7554
833.97	50.8281
838.512	57.1475
843.05	112.804
847.587	47.0488
852.12	133.308
856.651	117.476
861.18	373.605
865.706	569.707
870.229	148.777
874.75	140.815
879.268	93.4175
883.783	16.5835
888.296	103.156
892.807	48.9477
897.314	93.8042
901.82	105.643
906.322	39.1206
910.822	0.728516
915.32	149.353
919.815	76.5054
924.307	8.1123
928.797	68.9961
933.284	106.353
937.769	23.7417
942.251	38.1582
946.731	105.535
951.208	134.823
955.682	130.992
960.154	49.248
964.623	19.1685
969.09	117.21
973.554	19.8286
978.016	187.102
982.475	86.0147
986.931	136.938
991.385	97.9009
995.837	145.921
1000.29	139.96
1004.73	57.9917
1009.18	25.9766
1013.62	49.4141
1018.06	79.8281
1022.49	129.829
1026.93	153.251
1031.36	81.9414
1035.79	105.81
1040.21	104.916
1044.63	284.74
1049.06	391.65
1053.47	455.841
1057.89	725.826
1062.3	1670.26
1066.71	15195.5
1071.12	41564.8
1075.53	6138.05
1079.93	1564.51
1084.33	7378.81
1088.73	47351.1
1093.13	18955.5
1097.52	1121.18
1101.91	381.43
1106.3	241.468
1110.68	148.895
1115.07	147.21
1119.45	99.2632
1123.83	216.393
1128.2	48.7212
1132.57	51.2334
1136.94	135.764
1141.31	35.6616
1145.68	81.1904
1150.04	139.186
1154.4	94.7915
1158.76	64.3257
1163.11	25.8799
1167.47	19.332
1171.82	122.794
1176.16	117.281
1180.51	77.2153
1184.85	72.8144
1189.19	88.7559
1193.53	70.8008
1197.87	18.0859
1202.2	22.814
1206.53	60.544
1210.86	110.301
1215.18	32.3555
1219.51	19.4307
1223.83	52.2124
1228.15	37.9116
1232.46	103.103
1236.77	191.912
1241.09	54.7358
1245.39	80.5576
1249.7	142.313
1254	25.2739
1258.3	129.495
1262.6	84.7725
1266.9	112.256
1271.19	92.7358
1275.48	73.8115
1279.77	87.2808
1284.05	70.6846
1288.34	1.00244
1292.62	94.6812
1296.9	56.9785
1301.17	55.4722
1305.44	52.6909
1309.72	169.012
1313.98	0.977539
1318.25	154.349
1322.51	38.687
1326.78	75.0073
1331.03	34.3076
1335.29	192.585
1339.54	85.8452
1343.8	115.09
1348.04	39.3193
1352.29	36.5371
1356.53	120.556
1360.78	124.759
1365.02	117.969
1369.25	66.1899
1373.49	158.424
1377.72	71.8315
1381.95	30.75
1386.17	106.896
1390.4	23.0322
1394.62	242.185
1398.84	667.365
1403.06	1661.59
1407.27	438.382
1411.48	139.634
1415.69	18.9185
1419.9	69.521
1424.1	76.1128
1428.31	110.812
1432.51	68.624
1436.7	35.7822
1440.9	85.7983
1445.09	126.194
1449.28	56.7935
1453.47	77.3223
1457.65	172.471
1461.84	135.449
1466.02	565.634
1470.2	1266.34
1474.37	764.737
1478.55	1683.58
1482.72	479.536
1486.88	54.3877
1491.05	142.86
1495.21	138.257
1499.38	52.6299
1503.54	188.01
1507.69	667.165
1511.85	3327.42
1516	2959.84
1520.15	545.535
1524.29	276.422
1528.44	198.541
1532.58	187.871
1536.72	83.4121
1540.86	106.216
1544.99	70.8345
1549.12	127.407
1553.25	78.3501
1557.38	19.4795
1561.51	13.0044
1565.63	25.1753
1569.75	50.3496
