Measurement: Raman, 514 nm, ccw, Raman Data Processed
Mineral: Shortite
Rruff sample: R050248
Ideal chemistry: Na_2_Ca_2_(CO_3_)_3_
Locality: Stauffer mine, Green River, Wyoming, USA
Source: Marcus Origlieri
Description: Colorless wedge-shaped single crystal
Measured chemistry: Na_2.00_Ca_2.00_(CO_3_)_3_ ; CO2 not measured but estimated by difference and stoichiometry.
Pin_id: L01884
Orientation: Laser parallel to c* (0 0 1). Fiducial mark perpendicular to laser is parallel to a [1 0 0]
Raman shift (cm-1)	intensity
102.92	0
107.875	101.08
112.827	18.511
117.777	79.1694
122.723	272.738
127.667	941.949
132.608	2221.41
137.547	3602.55
142.482	3506.32
147.415	2921.07
152.345	4124.58
157.272	4000.61
162.197	1384.96
167.118	399.653
172.037	201.711
176.954	152.559
181.867	178.527
186.778	158.57
191.685	184.093
196.591	270.159
201.493	363.949
206.393	226.154
211.289	137.779
216.184	49.9285
221.075	36.4082
225.964	134.003
230.849	193.079
235.732	257.572
240.613	469.37
245.49	773.81
250.365	1407.82
255.237	3816.99
260.107	9315.93
264.973	15385.5
269.837	14332.9
274.698	5684.64
279.557	1989.34
284.412	959.523
289.265	631.032
294.116	434.732
298.963	244.228
303.808	195.632
308.65	105.986
313.489	63.9351
318.325	71.1604
323.159	62.2002
327.99	11.9392
332.819	70.261
337.644	54.5178
342.467	40.8704
347.287	4.3064
352.105	64.1846
356.92	92.072
361.732	43.3565
366.541	38.2266
371.348	30.8574
376.152	38.4729
380.953	75.4001
385.751	20.8189
390.547	59.437
395.34	45.0825
400.13	70.9536
404.918	40.2754
409.703	33.6167
414.485	65.7803
419.265	29.4504
424.041	26.5222
428.816	83.3789
433.587	66.7141
438.356	68.0903
443.122	17.821
447.885	75.106
452.646	9.72168
457.404	15.5102
462.159	24.0078
466.911	4.35278
471.661	33.1953
476.409	75.3169
481.153	60.998
485.895	33.4514
490.634	39.9656
495.37	24.4561
500.104	75.4683
504.835	70.1436
509.564	116.019
514.289	80.0134
519.013	16.5967
523.733	64.4116
528.451	77.4268
533.166	73.1096
537.878	39.852
542.588	73.3704
547.295	11.8862
551.999	86.322
556.701	100.688
561.4	87.2461
566.096	85.6062
570.79	61.1758
575.481	59.8337
580.169	85.9529
584.855	9.74438
589.538	115.814
594.219	10.4939
598.896	54.8484
603.571	27.988
608.244	3.03589
612.914	11.4893
617.581	102.81
622.245	87.0718
626.907	88.29
631.566	144.455
636.223	38.6155
640.877	114.386
645.528	35.1108
650.177	23.9519
654.823	94.9941
659.466	16.7227
664.107	19.6521
668.745	44.4705
673.38	109.254
678.013	135.187
682.643	105.816
687.271	518.008
691.896	1854.58
696.518	2735.96
701.138	564.913
705.755	682.396
710.369	1154.97
714.981	293.633
719.59	162.154
724.197	232.178
728.801	665.315
733.402	519.655
738.001	37.1611
742.597	74.7493
747.19	6.25464
751.781	70.2856
756.369	63.5867
760.955	72.1116
765.538	80.6128
770.118	34.6101
774.696	56.0662
779.271	104.511
783.844	144.915
788.414	51.6257
792.981	69.6362
797.546	7.6604
802.108	15.7456
806.667	32.6677
811.224	33.1006
815.779	1.04321
820.33	153.174
824.88	105.603
829.426	75.3948
833.97	84.8044
838.512	76.45
843.05	74.7366
847.587	67.0439
852.12	50.1128
856.651	86.1731
861.18	69.3743
865.706	56.4097
870.229	53.4414
874.75	85.781
879.268	19.7693
883.783	52.1768
888.296	132.219
892.807	15.2859
897.314	45.3499
901.82	97.4114
906.322	52.4731
910.822	60.502
915.32	20.5483
919.815	46.5986
924.307	71.813
928.797	102.032
933.284	3.22022
937.769	70.3535
942.251	19.5381
946.731	36.5376
951.208	69.6099
955.682	71.8257
960.154	21.6182
964.623	49.8491
969.09	23.9043
973.554	120.228
978.016	116.433
982.475	72.6836
986.931	5.85596
991.385	20.8452
995.837	35.7324
1000.29	68.0288
1004.73	21.3589
1009.18	70.75
1013.62	60.063
1018.06	50.398
1022.49	68.3789
1026.93	183.773
1031.36	113.192
1035.79	39.3603
1040.21	168.913
1044.63	200.404
1049.06	498.918
1053.47	623.189
1057.89	894.43
1062.3	2484.7
1066.71	26556
1071.12	52797.8
1075.53	8852.54
1079.93	2120.28
1084.33	9641.08
1088.73	51840.9
1093.13	21721.4
1097.52	1206.64
1101.91	408.169
1106.3	192.913
1110.68	223.806
1115.07	139.583
1119.45	115.586
1123.83	137.477
1128.2	55.7295
1132.57	58.8169
1136.94	129.051
1141.31	65.8628
1145.68	97.022
1150.04	64.1216
1154.4	45.2998
1158.76	29.498
1163.11	30.7061
1167.47	124.924
1171.82	52.6802
1176.16	79.9741
1180.51	156.293
1184.85	0.617188
1189.19	77.9102
1193.53	108.085
1197.87	63.8125
1202.2	67.0078
1206.53	46.7837
1210.86	63.0185
1215.18	54.2495
1219.51	46.5356
1223.83	1.17822
1228.15	6.11279
1232.46	9.86377
1236.77	47.21
1241.09	72.4189
1245.39	19.8296
1249.7	118.093
1254	64.3774
1258.3	69.6904
1262.6	13.9888
1266.9	176.297
1271.19	69.5908
1275.48	56.9219
1279.77	90.272
1284.05	16.0029
1288.34	10.3491
1292.62	143.722
1296.9	93.5742
1301.17	37.7876
1305.44	61.1309
1309.72	98.6235
1313.98	101.353
1318.25	81.3247
1322.51	16.2236
1326.78	97.1318
1331.03	47.687
1335.29	75.2466
1339.54	53.8242
1343.8	57.4058
1348.04	71.0068
1352.29	93.457
1356.53	121.974
1360.78	68.6655
1365.02	62.375
1369.25	89.188
1373.49	33.9746
1377.72	100.728
1381.95	83.5312
1386.17	201.149
1390.4	204.083
1394.62	282.805
1398.84	1047.78
1403.06	2092.81
1407.27	536.921
1411.48	127.014
1415.69	31.1826
1419.9	14.4336
1424.1	18.918
1428.31	37.2891
1432.51	98.2441
1436.7	104.156
1440.9	172.154
1445.09	94.7402
1449.28	76.5537
1453.47	50.3462
1457.65	124.776
1461.84	271.266
1466.02	967.831
1470.2	2518.7
1474.37	815.475
1478.55	751.356
1482.72	298.359
1486.88	145.551
1491.05	10.8467
1495.21	70.3042
1499.38	83.1836
1503.54	156.238
1507.69	271.505
1511.85	1704.95
1516	1529.68
1520.15	310.644
1524.29	179.914
1528.44	153.398
1532.58	139.204
1536.72	79.8286
1540.86	96.2295
1544.99	109.112
1549.12	38.5278
1553.25	89.7847
1557.38	20.9482
1561.51	118.714
1565.63	165.42
1569.75	0.628418
