Measurement: Raman, 514 nm, ccw, Raman Data Processed
Mineral: Siderite
Rruff sample: R040034
Ideal chemistry: FeCO_3_
Locality: Pribram, Czech Republic
Source: University of Arizona Mineral Museum
Description: Group of tan colored flattened rhombohedra
Measured chemistry: (Fe_0.72_Mg_0.24_Mn_0.03_Ca_0.01_)_Î£=1_C_1.00_O_3_; CO_2_ estimated by difference
Pin_id: M00031
Orientation: Laser parallel to c* (0 0 1). Fiducial mark perpendicular to laser is parallel to a [1 0 0]
Raman shift (cm-1)	intensity
83.614	0
87.798	33.204
91.981	88.245
96.161	47.481
100.34	73.917
104.516	92.365
108.691	136.634
112.864	134.019
117.034	266.873
121.203	227.18
125.369	136.198
129.534	148.062
133.696	146.824
137.857	218.784
142.016	185.145
146.172	245.044
150.327	257.081
154.48	365.846
158.63	476.577
162.779	618.154
166.926	810.79
171.07	1055.7
175.213	1443.89
179.354	2073.24
183.493	2892.74
187.63	3569.37
191.765	2758.11
195.898	1425.92
200.029	657.809
204.158	299.745
208.285	91.695
212.41	40.65
216.533	4.388
220.654	23.417
224.773	9.562
228.891	16.553
233.006	47.395
237.119	24.566
241.231	11.009
245.34	2.375
249.448	5.228
253.553	47.725
257.657	91.395
261.758	117.368
265.858	123.397
269.956	186.495
274.052	288.612
278.146	473.724
282.237	848.823
286.327	1291.88
290.416	1675.85
294.502	1472.75
298.586	1068.58
302.668	677.376
306.749	435.144
310.827	285.881
314.903	227.614
318.978	184.097
323.051	162.285
327.121	126.31
331.19	123.306
335.257	134.311
339.322	99.333
343.385	80.369
347.446	134.416
351.505	130.474
355.563	122.544
359.618	107.633
363.672	75.742
367.723	105.858
371.773	80.978
375.821	95.101
379.866	60.211
383.91	54.743
387.952	16.261
391.992	50.254
396.031	41.49
400.067	3.706
404.101	6.803
408.134	17.883
412.165	26.885
416.193	2.174
420.22	22.204
424.245	36.268
428.268	30.296
432.289	58.31
436.309	33.308
440.326	43.368
444.342	92.335
448.355	59.496
452.367	119.712
456.377	86.791
460.385	131.958
464.391	193.026
468.395	233.18
472.398	262.556
476.398	309.647
480.397	353.22
484.394	397.278
488.389	415.588
492.382	467.145
496.373	489.342
500.362	533.687
504.349	514.713
508.335	547.927
512.319	529.207
516.3	550.918
520.28	504.979
524.259	461.129
528.235	448.398
532.209	432.5
536.182	437.573
540.152	362.619
544.121	334.494
548.088	309.417
552.053	272.384
556.017	246.404
559.978	197.487
563.938	183.263
567.895	161.264
571.851	123.728
575.805	124.636
579.758	124.547
583.708	115.344
587.657	67.214
591.603	46.07
595.548	69.886
599.491	43.668
603.432	0.584
607.372	1.126
611.309	29.945
615.245	70.926
619.179	39.324
623.111	13.992
627.041	30.961
630.97	7.556
634.896	14.299
638.821	41.033
642.744	2.362
646.665	17.646
650.584	10.295
654.502	18.824
658.418	53.892
662.331	12.168
666.244	17.841
670.154	4.392
674.062	10.655
677.969	28.088
681.874	35.264
685.777	34.684
689.678	73.175
693.577	37.448
697.475	71.651
701.371	86.772
705.265	145.473
709.157	182.093
713.047	232.627
716.936	363.086
720.823	610.46
724.708	819.748
728.591	1048.97
732.472	980.265
736.352	804.565
740.23	639.704
744.106	515.257
747.98	381.039
751.853	162.524
755.723	128.19
759.592	86.137
763.459	43.579
767.325	25.781
771.188	51.877
775.05	16.491
778.91	16.834
782.768	38.512
786.625	52.953
790.479	0.289
794.332	32.341
798.183	47.291
802.033	17.425
805.88	29.287
809.726	2.087
813.57	34.699
817.413	15.799
821.253	60.6
825.092	12.514
828.929	3.204
832.764	10.601
836.598	10.429
840.429	68.096
844.259	69.955
848.088	23.496
851.914	17.207
855.739	22.829
859.562	53.425
863.383	158.919
867.203	115.346
871.02	105.706
874.836	66
878.65	54.231
882.463	45.399
886.274	4.505
890.083	25.544
893.89	23.503
897.695	58.334
901.499	20.083
905.301	21.77
909.102	3.609
912.9	4.931
916.697	25.29
920.492	36.448
924.285	46.629
928.077	6.802
931.867	25.995
935.655	25.974
939.442	53.063
943.226	8.464
947.009	53.375
950.791	84.388
954.57	39.126
958.348	57.652
962.124	28.462
965.899	26.993
969.671	5.79
973.442	40.748
977.211	19.267
980.979	64.612
984.745	83.064
988.509	104.107
992.271	98.533
996.032	115.338
999.791	145.201
1003.55	161.604
1007.3	175.146
1011.06	242.563
1014.81	193.915
1018.56	206.29
1022.31	261.688
1026.06	324.116
1029.8	460.571
1033.55	656.056
1037.29	712.318
1041.03	879.722
1044.77	1143.13
1048.5	1445.6
1052.24	1708.27
1055.97	2157.21
1059.7	2808.53
1063.43	3741.94
1067.16	4869.64
1070.89	6515.53
1074.61	9217.51
1078.34	14846.2
1082.06	28794.4
1085.78	55394.7
1089.5	54517.9
1093.21	27449.2
1096.93	12383.1
1100.64	6072.88
1104.35	3479.74
1108.06	2129.14
1111.77	1385.13
1115.48	1034.21
1119.18	773.367
1122.89	701.624
1126.59	470.999
1130.29	363.41
1133.99	234.894
1137.68	217.446
1141.38	144.061
1145.07	146.73
1148.76	106.454
1152.45	131.23
1156.14	72.059
1159.83	78.951
1163.51	66.294
1167.19	50.971
1170.88	20.224
1174.56	13.295
1178.23	39.437
1181.91	29.906
1185.59	38.437
1189.26	78.621
1192.93	22.87
1196.6	48.271
1200.27	52.729
1203.94	44.173
1207.6	5.593
1211.27	11.849
1214.93	35.659
1218.59	47.519
1222.25	12.247
1225.9	9.229
1229.56	76.456
1233.21	56.088
1236.86	90.434
1240.51	92.866
1244.16	73.179
1247.81	61.625
1251.45	135.543
1255.1	96.493
1258.74	51.785
1262.38	44.732
1266.02	108.678
1269.66	2.488
1273.29	99.128
1276.93	14.77
1280.56	79.417
1284.19	103.065
1287.82	95.708
1291.45	116.344
1295.07	90.953
1298.7	71.551
1302.32	89.085
1305.94	14.587
1309.56	103.879
1313.18	41.835
1316.8	83.561
1320.41	118.175
1324.02	40.666
1327.63	6.042
1331.24	59.33
1334.85	22.529
1338.46	30.23
1342.06	42.086
1345.67	24.898
1349.27	76.579
1352.87	52.155
1356.47	4.631
1360.07	6.012
1363.66	20.248
1367.25	56.399
1370.85	7.548
1374.44	43.688
1378.03	44.639
1381.61	4.948
1385.2	20.362
1388.78	8.008
1392.37	27.293
1395.95	32.481
1399.53	26.516
1403.1	11.433
1406.68	29.577
1410.26	40.531
1413.83	76.424
1417.4	122.142
1420.97	170.314
1424.54	198.287
1428.1	189.973
1431.67	256.369
1435.23	302.549
1438.8	364.37
1442.36	290.394
1445.91	309.915
1449.47	324.062
1453.03	301.434
1456.58	313.774
1460.13	308.228
1463.68	264.195
1467.23	267.013
1470.78	293.611
1474.33	278.9
1477.87	196.245
1481.42	142.521
1484.96	241.667
1488.5	200.869
1492.04	177.268
1495.57	94.707
1499.11	93.432
1502.64	1.018
1506.17	131.95
1509.71	30.137
1513.23	17.293
1516.76	4.237
1520.29	65.109
1523.81	19.145
