Measurement: Raman, 514 nm, ccw, Raman Data Processed
Mineral: Siderite
Rruff sample: R040034
Ideal chemistry: FeCO_3_
Locality: Pribram, Czech Republic
Source: University of Arizona Mineral Museum
Description: Group of tan colored flattened rhombohedra
Measured chemistry: (Fe_0.72_Mg_0.24_Mn_0.03_Ca_0.01_)_Î£=1_C_1.00_O_3_; CO_2_ estimated by difference
Pin_id: M00043
Orientation: Laser parallel to -a* (-1 0 0). Fiducial mark perpendicular to laser is parallel to c [0 0 1]
Raman shift (cm-1)	intensity
90.587	0
94.768	28.873
98.947	39.772
103.124	59.794
107.3	162.28
111.473	164.51
115.644	208.943
119.813	233.45
123.981	153.539
128.146	136.674
132.309	187.898
136.47	198.505
140.63	245.392
144.787	238.529
148.942	256.894
153.096	342.469
157.247	351.545
161.396	490.082
165.544	633.933
169.689	783.726
173.833	1055.26
177.974	1443.49
182.114	2078.76
186.251	3034.13
190.387	3258.59
194.52	2191.15
198.652	1122.81
202.782	494.57
206.909	205.422
211.035	81.362
215.159	45.378
219.281	19.532
223.4	8.371
227.518	6.14
231.634	14.158
235.748	25.522
239.86	6.76
243.97	39.601
248.079	17.151
252.185	19.594
256.289	74.037
260.391	19.429
264.492	86.616
268.59	137.875
272.687	213.059
276.781	341.204
280.874	536.516
284.964	791.962
289.053	1271.52
293.14	1471.17
297.225	1220.87
301.308	761.626
305.389	523.431
309.468	316.281
313.545	182.182
317.62	203.135
321.693	108.117
325.765	115.087
329.834	87.011
333.902	69.976
337.967	131.974
342.031	82.001
346.093	73.055
350.153	84.155
354.21	56.263
358.267	90.46
362.321	85.653
366.373	63.884
370.423	77.132
374.471	85.393
378.518	46.686
382.563	46.26
386.605	31.944
390.646	32.458
394.685	1.035
398.722	1.257
402.757	6.101
406.79	2.815
410.821	38.861
414.851	5.943
418.878	8.091
422.904	56.143
426.927	16.213
430.949	2.288
434.969	28.974
438.987	55.111
443.003	96.428
447.018	132.915
451.03	79.445
455.041	111.546
459.049	118.915
463.056	149.274
467.061	192.321
471.064	295.24
475.065	289.102
479.064	315.516
483.062	357.188
487.057	373.935
491.051	449.079
495.043	452.099
499.032	518.614
503.02	493.795
507.007	525.261
510.991	579.092
514.973	531.554
518.954	481.8
522.933	488.605
526.91	520.164
530.885	419.1
534.858	386.045
538.829	382.102
542.799	352.026
546.766	353.536
550.732	277.751
554.696	220.844
558.658	213.343
562.618	174.679
566.576	198.191
570.533	152.423
574.488	137.144
578.44	86.071
582.391	121.317
586.341	119.541
590.288	86.976
594.233	29.909
598.177	26.937
602.119	18.901
606.059	6.933
609.997	39.84
613.933	12.843
617.868	24.711
621.801	55.892
625.731	14.046
629.66	9.189
633.588	40.524
637.513	7.908
641.437	14.671
645.358	16.935
649.278	31.579
653.196	14.053
657.113	86.78
661.027	51.979
664.94	20.973
668.851	29.97
672.76	70.698
676.667	50.502
680.572	11.279
684.476	73.695
688.378	117.607
692.278	18.62
696.176	116.779
700.072	107.411
703.967	123.806
707.86	76.846
711.751	245.763
715.64	280.578
719.527	409.289
723.413	779.066
727.297	874.18
731.179	983.056
735.059	843.572
738.937	733.154
742.814	597.541
746.689	377.931
750.562	346.538
754.433	280.404
758.303	122.237
762.17	168.171
766.036	109.471
769.901	122.554
773.763	16.728
777.624	51.692
781.482	103.696
785.339	4.226
789.195	108.777
793.048	58.986
796.9	39.455
800.75	38.028
804.598	11.718
808.445	19.536
812.289	42.652
816.132	39.246
819.973	38.207
823.813	8.011
827.65	8.014
831.486	47.514
835.32	25.076
839.152	60.481
842.983	84.005
846.812	123.979
850.639	45.336
854.464	44.49
858.288	68.544
862.11	77.536
865.93	179.509
869.748	110.4
873.564	113.21
877.379	70.938
881.192	10.588
885.004	23.149
888.813	17.371
892.621	29.037
896.427	63.153
900.232	7.268
904.034	19.312
907.835	67.285
911.634	109.157
915.432	58.8
919.227	70.453
923.021	62.909
926.813	70.745
930.604	85.171
934.393	128.283
938.18	23.427
941.965	38.527
945.749	27.64
949.53	79.518
953.311	74.102
957.089	69.596
960.866	4.558
964.641	19.678
968.414	32.617
972.185	9.998
975.955	158.325
979.723	46.94
983.49	11.677
987.254	82.735
991.017	99.644
994.779	161.675
998.538	49.678
1002.3	220.78
1006.05	75.675
1009.81	167.817
1013.56	216.125
1017.31	244.437
1021.06	288.768
1024.81	283.127
1028.55	464.323
1032.3	487.104
1036.04	580.154
1039.78	760.229
1043.52	953.73
1047.26	1090.17
1050.99	1488.2
1054.73	1824.48
1058.46	2313.1
1062.19	3139.56
1065.92	4144.21
1069.65	5462.2
1073.37	7519.17
1077.1	11408.9
1080.82	21055.8
1084.54	42554.7
1088.26	57616
1091.97	35614.1
1095.69	16023.2
1099.4	7625.5
1103.12	4051.9
1106.83	2572.23
1110.54	1658.55
1114.24	1162.58
1117.95	919.897
1121.65	737.308
1125.35	439.911
1129.06	408.26
1132.75	269.03
1136.45	196.729
1140.15	104.779
1143.84	186.757
1147.53	102.929
1151.22	92.55
1154.91	97.435
1158.6	59.517
1162.28	50.606
1165.97	87.132
1169.65	48.272
1173.33	9.418
1177.01	35.237
1180.69	23.873
1184.36	51.528
1188.04	101.775
1191.71	74.504
1195.38	66.341
1199.05	90.851
1202.71	111.369
1206.38	26.369
1210.04	116.926
1213.71	56.122
1217.37	35.63
1221.03	46.842
1224.68	96.264
1228.34	6.534
1231.99	30.794
1235.65	58.22
1239.3	103.946
1242.95	69.482
1246.59	156.377
1250.24	104.685
1253.88	110.416
1257.53	52.631
1261.17	67.465
1264.81	117.823
1268.45	99.338
1272.08	87.437
1275.72	146.507
1279.35	115.376
1282.98	42.158
1286.61	135.74
1290.24	125.115
1293.87	127.331
1297.49	63.445
1301.11	54.31
1304.73	38.858
1308.36	65.133
1311.97	51.173
1315.59	46.979
1319.2	83.582
1322.82	77.878
1326.43	3.934
1330.04	22.896
1333.65	29.631
1337.26	7.877
1340.86	38.32
1344.47	49.362
1348.07	105.213
1351.67	141.854
1355.27	13.877
1358.87	49.496
1362.46	52.709
1366.06	42.872
1369.65	29.414
1373.24	34.101
1376.83	17.01
1380.42	33.841
1384	17.301
1387.59	8.425
1391.17	50.543
1394.75	102.883
1398.33	129.183
1401.91	151.715
1405.49	114.495
1409.06	126.502
1412.64	103.838
1416.21	98.466
1419.78	115.469
1423.35	137.502
1426.91	202.068
1430.48	263.127
1434.05	259.901
1437.61	296.194
1441.17	321.487
1444.73	325.442
1448.29	311.628
1451.84	284.657
1455.4	221.482
1458.95	298.236
1462.5	293.504
1466.05	337.081
1469.6	373.743
1473.15	384.728
1476.69	244.062
1480.24	185.414
1483.78	208.824
1487.32	258.362
1490.86	202.818
1494.39	58.655
1497.93	166.896
1501.46	59.523
1505	56.988
1508.53	29.649
1512.06	41.705
1515.59	60.222
1519.11	85.26
1522.64	0.436
