Measurement: Raman, 514 nm, ccw, Raman Data Processed
Mineral: Siderite
Rruff sample: R040034
Ideal chemistry: FeCO_3_
Locality: Pribram, Czech Republic
Source: University of Arizona Mineral Museum
Description: Group of tan colored flattened rhombohedra
Measured chemistry: (Fe_0.72_Mg_0.24_Mn_0.03_Ca_0.01_)_Î£=1_C_1.00_O_3_; CO_2_ estimated by difference
Pin_id: M00043
Orientation: Laser parallel to -a* (-1 0 0). Fiducial mark perpendicular to laser is parallel to c [0 0 1]
Raman shift (cm-1)	intensity
97.554	0
101.732	74.154
105.908	173.494
110.082	242.708
114.254	416.087
118.424	346.664
122.592	335.744
126.758	351.644
130.922	258.239
135.083	287.772
139.243	157.763
143.401	127.817
147.557	230.518
151.711	173.598
155.863	243.855
160.013	286.143
164.161	177.347
168.308	203.372
172.452	196.252
176.594	240.058
180.734	355.757
184.872	362.735
189.008	404.937
193.143	352.294
197.275	343.112
201.405	306.204
205.534	280.564
209.66	223.21
213.784	155.146
217.907	162.366
222.027	108.866
226.146	112.143
230.263	123.671
234.377	103.956
238.49	280.481
242.601	225.518
246.709	155.877
250.816	272.979
254.921	440.018
259.024	328.205
263.125	521.49
267.224	696.951
271.321	851.67
275.416	1290.58
279.51	2056.1
283.601	3359.26
287.69	5285.41
291.778	6579.52
295.863	6236.79
299.947	4415.78
304.029	2801.02
308.108	1763.55
312.186	1155.35
316.262	744.393
320.336	541.606
324.408	493.221
328.478	360.895
332.546	224.722
336.612	328.696
340.677	267.841
344.739	182.117
348.799	146.509
352.858	132.001
356.915	149.62
360.969	90.34
365.022	135.156
369.073	76.053
373.122	6.018
377.169	65.054
381.215	68.18
385.258	22.625
389.299	64.677
393.339	41.017
397.376	0.626
401.412	42.247
405.446	18.129
409.478	8.497
413.508	49.812
417.536	60.185
421.562	68.3
425.586	38.438
429.609	87.062
433.629	24.292
437.648	56.015
441.665	6.233
445.68	29.862
449.693	75.38
453.704	7.235
457.713	46.185
461.721	204.544
465.726	260.091
469.73	155.52
473.731	122.526
477.731	164.039
481.729	254.042
485.725	228.78
489.72	174.072
493.712	303.658
497.703	358.024
501.691	412.663
505.678	371.012
509.663	330.48
513.646	467.661
517.627	437.907
521.607	321.309
525.584	272.379
529.56	350.822
533.534	317.261
537.506	227.566
541.476	347.162
545.444	180.547
549.41	205.316
553.375	193.385
557.337	153.212
561.298	196.766
565.257	222.119
569.214	223.527
573.17	110.509
577.123	125.808
581.075	130.061
585.024	98.571
588.972	108.983
592.918	72.46
596.863	104.63
600.805	40.647
604.746	57.437
608.685	103.593
612.621	8.322
616.557	167.157
620.49	60.188
624.421	186.076
628.351	112.182
632.279	14.945
636.205	183.387
640.129	44.567
644.051	112.695
647.972	53.921
651.89	215.651
655.807	49.138
659.722	113.674
663.636	191
667.547	108.823
671.457	11.362
675.365	72.29
679.271	36.632
683.175	222.022
687.077	206.906
690.978	174.617
694.877	18.073
698.774	272.853
702.669	2.416
706.562	211.022
710.454	104.463
714.344	218.699
718.232	236.733
722.118	349.573
726.002	631.224
729.885	639.89
733.766	501.701
737.645	594.335
741.522	542.717
745.397	559.668
749.271	489.079
753.143	395.872
757.013	303.715
760.881	302.954
764.748	145.91
768.613	317.71
772.476	267.022
776.337	163.904
780.196	105.801
784.054	130.762
787.91	245.729
791.764	163.963
795.616	155.763
799.467	174.845
803.316	251.807
807.163	225.387
811.008	130.831
814.851	56.123
818.693	186.851
822.533	38.878
826.371	117.51
830.208	180.005
834.042	74.256
837.875	136.22
841.706	119.54
845.536	22.168
849.363	232.114
853.189	41.38
857.013	238.368
860.836	174.701
864.656	208.681
868.475	287.416
872.292	334.191
876.108	197.186
879.922	151.112
883.733	22.035
887.544	253.865
891.352	217.596
895.159	118.229
898.964	71.77
902.767	174.23
906.568	242.609
910.368	39.942
914.166	237.235
917.962	246.286
921.757	169.182
925.55	186.926
929.341	213.75
933.13	27.692
936.918	306.686
940.703	209.059
944.488	168.485
948.27	105.742
952.051	36.913
955.83	74.461
959.607	138.363
963.383	14.473
967.156	83.421
970.928	96.43
974.699	91.592
978.468	59.721
982.234	320.908
986	160.978
989.763	42.528
993.525	147.783
997.285	146.226
1001.04	75.882
1004.8	81.81
1008.55	223.145
1012.31	307.983
1016.06	152.185
1019.81	310.773
1023.56	358.465
1027.31	328.801
1031.05	345.98
1034.79	585.703
1038.53	554.303
1042.27	671.006
1046.01	743.057
1049.75	835.393
1053.48	1101.7
1057.22	1512.39
1060.95	2024.28
1064.68	2608.9
1068.4	3364.64
1072.13	4510.76
1075.86	6796.85
1079.58	12004.2
1083.3	24827.4
1087.02	40483
1090.74	30293.7
1094.45	14741.7
1098.17	6861.61
1101.88	3877.98
1105.59	2155.76
1109.3	1581.07
1113.01	1005.35
1116.71	752.424
1120.42	603.305
1124.12	570.145
1127.82	200.379
1131.52	214.172
1135.22	385.91
1138.91	129.699
1142.61	191.688
1146.3	43.885
1149.99	4.24
1153.68	139.77
1157.37	74.377
1161.06	41.498
1164.74	71.648
1168.42	173.74
1172.1	84.291
1175.78	248.801
1179.46	60.367
1183.14	205.77
1186.81	190.4
1190.48	250.777
1194.15	123.496
1197.83	169.086
1201.49	280.73
1205.16	59.303
1208.82	160.117
1212.49	271.838
1216.15	253.879
1219.81	175.941
1223.46	111.148
1227.12	9.605
1230.78	110.012
1234.43	187.592
1238.08	126.916
1241.73	205.057
1245.38	244.453
1249.03	305.266
1252.67	217.777
1256.31	28.076
1259.95	84.125
1263.6	235.926
1267.23	328.432
1270.87	65.566
1274.51	128.33
1278.14	257.764
1281.77	223.729
1285.4	128.729
1289.03	45.096
1292.66	105.17
1296.28	166.312
1299.91	187.432
1303.53	28.193
1307.15	129.754
1310.77	68.9
1314.38	166.547
1318	58.047
1321.61	40.756
1325.23	223.352
1328.84	44.002
1332.45	33.637
1336.06	54.041
1339.66	26.582
1343.27	132.191
1346.87	197.768
1350.47	264.816
1354.07	98.541
1357.67	248.391
1361.26	85.246
1364.86	203.957
1368.45	230.055
1372.04	216.697
1375.63	55.176
1379.22	199.023
1382.81	332.227
1386.39	84.484
1389.98	364.514
1393.56	366.477
1397.14	223.424
1400.72	438.988
1404.3	236.594
1407.87	354.324
1411.45	439.639
1415.02	510.811
1418.59	765.896
1422.16	580.893
1425.73	546.107
1429.29	467.729
1432.86	500.334
1436.42	729.99
1439.98	656.137
1443.54	822.4
1447.1	587.23
1450.66	747.188
1454.21	828.971
1457.77	770.934
1461.32	473.854
1464.87	466.705
1468.42	540.758
1471.96	365.107
1475.51	273.445
1479.06	377.025
1482.6	338.959
1486.14	163.678
1489.68	185.943
1493.22	225.316
1496.75	9.363
1500.29	221.906
1503.82	159.439
1507.35	91.379
1510.88	1.314
