Measurement: Raman, 514 nm, ccw, Raman Data Processed
Mineral: Siderite
Rruff sample: R040034
Ideal chemistry: FeCO_3_
Locality: Pribram, Czech Republic
Source: University of Arizona Mineral Museum
Description: Group of tan colored flattened rhombohedra
Measured chemistry: (Fe_0.72_Mg_0.24_Mn_0.03_Ca_0.01_)_Î£=1_C_1.00_O_3_; CO_2_ estimated by difference
Pin_id: M00031
Orientation: Laser parallel to c* (0 0 1). Fiducial mark perpendicular to laser is parallel to a [1 0 0]
Raman shift (cm-1)	intensity
87.798	0
91.981	145.111
96.161	75.516
100.34	77.584
104.516	156.25
108.691	182.432
112.864	231.623
117.034	437.67
121.203	355.55
125.369	123.714
129.534	210.423
133.696	53.109
137.857	160.002
142.016	38.896
146.172	64.623
150.327	33.051
154.48	37.917
158.63	62.347
162.779	66.704
166.926	17.355
171.07	145.792
175.213	237.701
179.354	281.318
183.493	418.561
187.63	546.002
191.765	461.582
195.898	307.9
200.029	168.166
204.158	105.824
208.285	102.214
212.41	71.937
216.533	71.685
220.654	48.152
224.773	59.768
228.891	140.525
233.006	123.415
237.119	213.427
241.231	248.67
245.34	342.648
249.448	368.74
253.553	534.829
257.657	564.218
261.758	745.248
265.858	1043.81
269.956	1470.7
274.052	2200.04
278.146	3606.15
282.237	6271.02
286.327	10317.2
290.416	13747.2
294.502	12622.3
298.586	8972.65
302.668	5566.11
306.749	3441.7
310.827	2337.41
314.903	1586.54
318.978	1136.57
323.051	969.796
327.121	678.954
331.19	564.181
335.257	514.239
339.322	418.645
343.385	391.114
347.446	271.629
351.505	240.241
355.563	233.937
359.618	130.677
363.672	132.437
367.723	160.218
371.773	140.023
375.821	77.844
379.866	104.69
383.91	62.556
387.952	28.438
391.992	45.662
396.031	100.232
400.067	43.098
404.101	1.897
408.134	9.591
412.165	41.821
416.193	11.672
420.22	44.604
424.245	37.436
428.268	77.792
432.289	72.029
436.309	0.037
440.326	10.177
444.342	7.599
448.355	46.488
452.367	149.458
456.377	75.277
460.385	155.458
464.391	161.419
468.395	244.816
472.398	308.416
476.398	307.048
480.397	409.115
484.394	451.217
488.389	414.687
492.382	482.825
496.373	460.173
500.362	561.498
504.349	549.903
508.335	562.558
512.319	590.187
516.3	644.336
520.28	562.651
524.259	506.942
528.235	536.642
532.209	379.786
536.182	412.609
540.152	422.802
544.121	386.608
548.088	387.906
552.053	276.482
556.017	259.517
559.978	157.696
563.938	212.429
567.895	201.332
571.851	161.768
575.805	86.596
579.758	173.701
583.708	84.112
587.657	31.42
591.603	11.193
595.548	106.295
599.491	129.056
603.432	99.479
607.372	18.063
611.309	43.137
615.245	76.135
619.179	73.769
623.111	42.554
627.041	98.44
630.97	110.526
634.896	96.32
638.821	64.259
642.744	8.999
646.665	28.945
650.584	29.583
654.502	81.004
658.418	136.133
662.331	47.773
666.244	87.083
670.154	28.14
674.062	94.692
677.969	114.948
681.874	78.86
685.777	115.629
689.678	42.78
693.577	151.89
697.475	77.979
701.371	29.15
705.265	227.171
709.157	192.51
713.047	114.612
716.936	215.527
720.823	338.283
724.708	484.904
728.591	782.62
732.472	688.427
736.352	826.946
740.23	789.709
744.106	981.889
747.98	883.063
751.853	562.893
755.723	429.598
759.592	377.254
763.459	210.961
767.325	156.6
771.188	120.699
775.05	135.159
778.91	108.991
782.768	71.658
786.625	53.312
790.479	143.038
794.332	151.44
798.183	46.36
802.033	65.643
805.88	110.765
809.726	69.776
813.57	109.924
817.413	28.482
821.253	104.327
825.092	45.488
828.929	68.216
832.764	68.807
836.598	126.541
840.429	149.825
844.259	140.68
848.088	5.338
851.914	22.011
855.739	206.281
859.562	143.029
863.383	259.553
867.203	330.921
871.02	266.863
874.836	167.797
878.65	104.647
882.463	55.461
886.274	13.159
890.083	68.734
893.89	98.203
897.695	101.559
901.499	63.804
905.301	130.944
909.102	63.98
912.9	26.926
916.697	23.216
920.492	21.537
924.285	75.104
928.077	72.899
931.867	59.088
935.655	59.846
939.442	47.21
943.226	34.979
947.009	133.921
950.791	13.4
954.57	111.803
958.348	99.335
962.124	106.217
965.899	94.873
969.671	104.992
973.442	55.832
977.211	35.349
980.979	8.758
984.745	196.275
988.509	214.066
992.271	103.482
996.032	248.263
999.791	243.883
1003.55	211.084
1007.3	160.218
1011.06	195.271
1014.81	100.758
1018.56	141.929
1022.31	153.685
1026.06	282.727
1029.8	337.158
1033.55	473.851
1037.29	688.63
1041.03	678.652
1044.77	868.955
1048.5	1173.9
1052.24	1368.32
1055.97	1867.9
1059.7	2226.01
1063.43	2943.96
1067.16	3993.65
1070.89	5121.23
1074.61	7346.09
1078.34	11912.6
1082.06	23354.4
1085.78	45408.4
1089.5	45157.6
1093.21	23075
1096.93	10643.5
1100.64	5219.49
1104.35	3148.55
1108.06	1868.95
1111.77	1366.39
1115.48	947.873
1119.18	677.918
1122.89	844.998
1126.59	519.839
1130.29	414.184
1133.99	161.087
1137.68	330.051
1141.38	185.185
1145.07	195.396
1148.76	19.85
1152.45	71.023
1156.14	58.895
1159.83	96.19
1163.51	49.021
1167.19	58.659
1170.88	17.989
1174.56	132.28
1178.23	165.044
1181.91	55.152
1185.59	84.778
1189.26	23.09
1192.93	70.704
1196.6	92.179
1200.27	98.443
1203.94	172.579
1207.6	14.093
1211.27	112.073
1214.93	199.559
1218.59	117.298
1222.25	87.944
1225.9	141.503
1229.56	198.977
1233.21	180.368
1236.86	229.68
1240.51	137.922
1244.16	182.22
1247.81	117.31
1251.45	183.342
1255.1	49.286
1258.74	71.142
1262.38	26.84
1266.02	184.517
1269.66	69.041
1273.29	43.471
1276.93	101.704
1280.56	143.796
1284.19	197.645
1287.82	195.281
1291.45	79.768
1295.07	100.762
1298.7	148.133
1302.32	27.784
1305.94	166.477
1309.56	102.799
1313.18	30.529
1316.8	105.982
1320.41	165.835
1324.02	9.62
1327.63	1.32
1331.24	172.632
1334.85	142.522
1338.46	18.252
1342.06	127.154
1345.67	124.082
1349.27	25.996
1352.87	76.36
1356.47	0.148
1360.07	115.281
1363.66	120.583
1367.25	164.583
1370.85	183.015
1374.44	194.037
1378.03	185.489
1381.61	212.19
1385.2	296.981
1388.78	153.97
1392.37	115.912
1395.95	271.986
1399.53	356.641
1403.1	427.67
1406.68	329.365
1410.26	277.537
1413.83	605.447
1417.4	666.953
1420.97	628.037
1424.54	687.441
1428.1	696.488
1431.67	746.512
1435.23	870.125
1438.8	684.248
1442.36	731.539
1445.91	768.615
1449.47	474.385
1453.03	562.477
1456.58	716.385
1460.13	695.875
1463.68	708.949
1467.23	406.621
1470.78	541.352
1474.33	334.59
1477.87	372.586
1481.42	213.064
1484.96	309.816
1488.5	210.109
1492.04	161.354
1495.57	154.176
1499.11	88.926
1502.64	52.082
1506.17	52.027
1509.71	41.91
1513.23	100.309
1516.76	3.188
