Measurement: Raman, 514 nm, ccw, Raman Data Processed
Mineral: Siderite
Rruff sample: R040034
Ideal chemistry: FeCO_3_
Locality: Pribram, Czech Republic
Source: University of Arizona Mineral Museum
Description: Group of tan colored flattened rhombohedra
Measured chemistry: (Fe_0.72_Mg_0.24_Mn_0.03_Ca_0.01_)_Î£=1_C_1.00_O_3_; CO_2_ estimated by difference
Pin_id: M00031
Orientation: Laser parallel to c* (0 0 1). Fiducial mark perpendicular to laser is parallel to a [1 0 0]
Raman shift (cm-1)	intensity
83.614	0
87.798	80.052
91.981	169.089
96.161	84.98
100.34	95.108
104.516	147.579
108.691	158.503
112.864	188.703
117.034	338.914
121.203	201.714
125.369	100.724
129.534	80.422
133.696	56.075
137.857	29.239
142.016	17.589
146.172	73.792
150.327	63.173
154.48	92.316
158.63	191.329
162.779	247.636
166.926	338.627
171.07	531.938
175.213	825.417
179.354	1299.96
183.493	1809.6
187.63	2238.33
191.765	1639.17
195.898	869.111
200.029	410.161
204.158	140.306
208.285	94.541
212.41	4.863
216.533	7.272
220.654	25.236
224.773	0.21
228.891	24.988
233.006	93.652
237.119	60.266
241.231	127.333
245.34	178.052
249.448	286.584
253.553	344.418
257.657	519.385
261.758	648.193
265.858	929.403
269.956	1296.7
274.052	1960.19
278.146	3327.83
282.237	5908.6
286.327	9732.46
290.416	12635.4
294.502	11498.4
298.586	8083.56
302.668	4992.76
306.749	3127.04
310.827	2030.4
314.903	1407.72
318.978	1067.98
323.051	826.31
327.121	688.686
331.19	521.118
335.257	459.604
339.322	372.124
343.385	328.732
347.446	262.288
351.505	248.951
355.563	180.643
359.618	165.357
363.672	163.065
367.723	148.831
371.773	122.587
375.821	45.762
379.866	117.128
383.91	58.677
387.952	20.701
391.992	20.488
396.031	29.255
400.067	6.971
404.101	59.352
408.134	12.837
412.165	15.45
416.193	10.093
420.22	8.233
424.245	5.451
428.268	28.762
432.289	108.073
436.309	25.469
440.326	32.803
444.342	69.202
448.355	79.238
452.367	130.102
456.377	142.489
460.385	220.09
464.391	246.428
468.395	313.171
472.398	289.706
476.398	421.299
480.397	447.253
484.394	510.295
488.389	596.405
492.382	574.742
496.373	585.085
500.362	692.821
504.349	708.96
508.335	678.001
512.319	683.249
516.3	721.737
520.28	696.667
524.259	609.873
528.235	590.946
532.209	574.484
536.182	506.211
540.152	499.414
544.121	432.423
548.088	376.284
552.053	357.793
556.017	276.845
559.978	236.205
563.938	253.399
567.895	184.541
571.851	112.246
575.805	153.987
579.758	152.834
583.708	91.308
587.657	69.84
591.603	67.352
595.548	80.712
599.491	93.957
603.432	89.077
607.372	32.065
611.309	10.066
615.245	13.365
619.179	4.402
623.111	16.803
627.041	55.549
630.97	26.553
634.896	15.924
638.821	6.858
642.744	17.665
646.665	3.228
650.584	2.582
654.502	62.742
658.418	108.159
662.331	11.774
666.244	28.719
670.154	54.922
674.062	73.958
677.969	72.319
681.874	55.437
685.777	58.195
689.678	27.117
693.577	105.858
697.475	67.531
701.371	128.03
705.265	163.801
709.157	203.161
713.047	211.346
716.936	371.422
720.823	566.425
724.708	868.556
728.591	1114.74
732.472	1051.51
736.352	1010.3
740.23	975.808
744.106	990.479
747.98	801.645
751.853	511.139
755.723	359.045
759.592	350.395
763.459	166.955
767.325	179.118
771.188	112.776
775.05	140.528
778.91	66.863
782.768	106.375
786.625	33.221
790.479	108.709
794.332	68.298
798.183	43.41
802.033	83.945
805.88	68.933
809.726	66.949
813.57	67.771
817.413	37.602
821.253	15.305
825.092	32.433
828.929	50.623
832.764	58.483
836.598	58.642
840.429	62.003
844.259	33.346
848.088	73.933
851.914	1.729
855.739	109.989
859.562	75.469
863.383	190.113
867.203	216.663
871.02	203.12
874.836	74.479
878.65	46.735
882.463	81.912
886.274	64.022
890.083	22.953
893.89	27.073
897.695	53.647
901.499	2.252
905.301	53.763
909.102	78.181
912.9	22.517
916.697	59.222
920.492	79.878
924.285	83.9
928.077	37.68
931.867	22.025
935.655	19.823
939.442	30.704
943.226	38.663
947.009	22.044
950.791	45.22
954.57	105.702
958.348	76.106
962.124	8.8
965.899	95.999
969.671	53.285
973.442	14.975
977.211	10.067
980.979	104.771
984.745	97.553
988.509	125.349
992.271	76.314
996.032	146.784
999.791	138.539
1003.55	215.817
1007.3	134.266
1011.06	150.944
1014.81	172.957
1018.56	283.117
1022.31	316.864
1026.06	288.963
1029.8	420.32
1033.55	520.939
1037.29	618.939
1041.03	781.334
1044.77	959.195
1048.5	1208.69
1052.24	1447.62
1055.97	1794.49
1059.7	2355.62
1063.43	3044.44
1067.16	3884.06
1070.89	5263.74
1074.61	7394.92
1078.34	12166
1082.06	23472.8
1085.78	45585.5
1089.5	44668.8
1093.21	22327.2
1096.93	11181
1100.64	5019.08
1104.35	2856.82
1108.06	1824
1111.77	1150.73
1115.48	759.974
1119.18	625.12
1122.89	776.129
1126.59	421.831
1130.29	360.924
1133.99	186.193
1137.68	237.337
1141.38	171.576
1145.07	118.699
1148.76	161.797
1152.45	73.883
1156.14	24.476
1159.83	58.987
1163.51	90.2
1167.19	64.174
1170.88	33.589
1174.56	117.431
1178.23	72.92
1181.91	138.666
1185.59	14.584
1189.26	87.82
1192.93	109.892
1196.6	15.704
1200.27	8.522
1203.94	134.064
1207.6	48.283
1211.27	67.888
1214.93	137.491
1218.59	122.867
1222.25	36.255
1225.9	50.574
1229.56	73.861
1233.21	97.141
1236.86	158.408
1240.51	123.677
1244.16	71.906
1247.81	50.11
1251.45	111.294
1255.1	50.445
1258.74	138.564
1262.38	134.66
1266.02	148.723
1269.66	86.745
1273.29	91.672
1276.93	32.529
1280.56	138.234
1284.19	208.733
1287.82	86.114
1291.45	98.413
1295.07	94.57
1298.7	99.178
1302.32	13.451
1305.94	51.812
1309.56	159.843
1313.18	26.928
1316.8	133.722
1320.41	11.306
1324.02	1.778
1327.63	105.164
1331.24	74.93
1334.85	60.026
1338.46	8.868
1342.06	29.006
1345.67	39.801
1349.27	3.204
1352.87	23.762
1356.47	73.789
1360.07	123.849
1363.66	64.908
1367.25	131.852
1370.85	137.301
1374.44	72.492
1378.03	63.679
1381.61	136.967
1385.2	134.562
1388.78	82.283
1392.37	66.315
1395.95	139.314
1399.53	112.061
1403.1	119.805
1406.68	115.679
1410.26	126.149
1413.83	311.738
1417.4	408.795
1420.97	369.369
1424.54	375.19
1428.1	349.678
1431.67	452.78
1435.23	508.26
1438.8	476.584
1442.36	430.244
1445.91	452.788
1449.47	503.027
1453.03	476.992
1456.58	494.641
1460.13	488.813
1463.68	391.519
1467.23	299.192
1470.78	406.708
1474.33	354.076
1477.87	329.459
1481.42	244.317
1484.96	207.542
1488.5	124.476
1492.04	135.087
1495.57	213.405
1499.11	36.916
1502.64	65.062
1506.17	5.912
1509.71	13.281
1513.23	0
