Measurement: Raman, 514 nm, ccw, Raman Data Processed
Mineral: Siderite
Rruff sample: R040034
Ideal chemistry: FeCO_3_
Locality: Pribram, Czech Republic
Source: University of Arizona Mineral Museum
Description: Group of tan colored flattened rhombohedra
Measured chemistry: (Fe_0.72_Mg_0.24_Mn_0.03_Ca_0.01_)_Î£=1_C_1.00_O_3_; CO_2_ estimated by difference
Pin_id: M00043
Orientation: Laser parallel to -a* (-1 0 0). Fiducial mark perpendicular to laser is parallel to c [0 0 1]
Raman shift (cm-1)	intensity
91.981	0
96.161	56.292
100.34	39.694
104.516	165.223
108.691	132.544
112.864	245.661
117.034	391.931
121.203	252.74
125.369	134.004
129.534	171.988
133.696	115.22
137.857	144.39
142.016	107.113
146.172	129.107
150.327	141.168
154.48	175.152
158.63	204.949
162.779	216.471
166.926	303.649
171.07	444.666
175.213	619.671
179.354	853.169
183.493	1321.79
187.63	1602.65
191.765	1480.7
195.898	933.941
200.029	455.385
204.158	230.051
208.285	120.946
212.41	132.071
216.533	93.419
220.654	78.98
224.773	118.746
228.891	108.708
233.006	145.86
237.119	131.192
241.231	235.203
245.34	239.512
249.448	309.982
253.553	426.94
257.657	541.504
261.758	740.597
265.858	895.217
269.956	1321.43
274.052	1848.12
278.146	2933.14
282.237	5033.55
286.327	8608.21
290.416	12117.6
294.502	12360.9
298.586	9280.4
302.668	5866.14
306.749	3607.16
310.827	2295.44
314.903	1523.92
318.978	1124.57
323.051	884.399
327.121	683.35
331.19	602.415
335.257	416.574
339.322	370.814
343.385	362.13
347.446	253.521
351.505	209.984
355.563	211.537
359.618	175.203
363.672	182.937
367.723	119.715
371.773	110.543
375.821	35.426
379.866	100.343
383.91	46.278
387.952	13.768
391.992	16.807
396.031	98.168
400.067	55.904
404.101	8.056
408.134	15.731
412.165	60.608
416.193	31.894
420.22	12.223
424.245	29.813
428.268	19.625
432.289	49.868
436.309	17.907
440.326	23.224
444.342	119.974
448.355	75.548
452.367	31.711
456.377	86.196
460.385	115.588
464.391	205.575
468.395	193.174
472.398	363.957
476.398	377.263
480.397	378.237
484.394	413.835
488.389	467.408
492.382	514.079
496.373	467.212
500.362	577.113
504.349	569.188
508.335	614.364
512.319	656.917
516.3	562.535
520.28	609.247
524.259	548.17
528.235	513.428
532.209	535.366
536.182	469.248
540.152	405.675
544.121	367.323
548.088	367.303
552.053	335.331
556.017	255.749
559.978	156.87
563.938	223.15
567.895	195.594
571.851	98.946
575.805	183.56
579.758	190.521
583.708	55.555
587.657	135.954
591.603	39.877
595.548	106.664
599.491	65.799
603.432	66.584
607.372	82.299
611.309	75.78
615.245	68.087
619.179	69.612
623.111	58.269
627.041	25.217
630.97	135.611
634.896	17.554
638.821	103.97
642.744	23.776
646.665	100.343
650.584	74.662
654.502	112.03
658.418	133.504
662.331	70.934
666.244	117.151
670.154	100.885
674.062	1.657
677.969	85.083
681.874	148.922
685.777	75.153
689.678	46.673
693.577	194.821
697.475	53.783
701.371	131.316
705.265	238.011
709.157	251.445
713.047	197.429
716.936	290.24
720.823	548.853
724.708	654.566
728.591	1026.36
732.472	968.024
736.352	941.101
740.23	1033.63
744.106	957.146
747.98	671.971
751.853	448.777
755.723	347.436
759.592	241.609
763.459	271.585
767.325	173.674
771.188	122.115
775.05	142.327
778.91	160.468
782.768	153.642
786.625	17.828
790.479	83.817
794.332	129.145
798.183	24.405
802.033	9.03
805.88	66.219
809.726	73.828
813.57	93.706
817.413	56.062
821.253	55.453
825.092	44.192
828.929	111.053
832.764	5.015
836.598	140.376
840.429	152.881
844.259	67.661
848.088	43.175
851.914	67.567
855.739	73.082
859.562	7.28
863.383	189.758
867.203	257.158
871.02	168.705
874.836	128.421
878.65	65.41
882.463	56.624
886.274	24.67
890.083	35.536
893.89	124.229
897.695	29.128
901.499	75.163
905.301	99.371
909.102	46.462
912.9	31.57
916.697	13.771
920.492	85.45
924.285	87.763
928.077	94.822
931.867	34.035
935.655	3.103
939.442	111.332
943.226	51.612
947.009	143.891
950.791	63.857
954.57	161.025
958.348	64.178
962.124	76.885
965.899	78.197
969.671	24.954
973.442	19.293
977.211	108.538
980.979	23.627
984.745	16.857
988.509	167.419
992.271	134.493
996.032	207.695
999.791	201.258
1003.55	211.464
1007.3	146.507
1011.06	249.47
1014.81	194.847
1018.56	118.975
1022.31	244.99
1026.06	310.773
1029.8	373.065
1033.55	497.104
1037.29	480.669
1041.03	593.263
1044.77	926.689
1048.5	1099.99
1052.24	1243.04
1055.97	1630
1059.7	1924.78
1063.43	2605.98
1067.16	3508.26
1070.89	4587.22
1074.61	6530.17
1078.34	10683.1
1082.06	20015.4
1085.78	39045.4
1089.5	39316.3
1093.21	20591.8
1096.93	9361.44
1100.64	4642.39
1104.35	2709.89
1108.06	1532.31
1111.77	1027.17
1115.48	704.118
1119.18	488.912
1122.89	672.639
1126.59	327.217
1130.29	312.336
1133.99	220.235
1137.68	251.223
1141.38	193.88
1145.07	122.888
1148.76	34.98
1152.45	88.766
1156.14	1.89
1159.83	74.448
1163.51	18.08
1167.19	108.526
1170.88	61.363
1174.56	4.338
1178.23	83.646
1181.91	120.755
1185.59	111.571
1189.26	0.338
1192.93	70.175
1196.6	127.993
1200.27	31.321
1203.94	202.359
1207.6	36.384
1211.27	233.806
1214.93	223.347
1218.59	96.738
1222.25	110.839
1225.9	177.879
1229.56	182.021
1233.21	133.042
1236.86	178.345
1240.51	138.332
1244.16	141.007
1247.81	54.81
1251.45	188.233
1255.1	203.32
1258.74	152.166
1262.38	163.728
1266.02	163.984
1269.66	109.795
1273.29	58.492
1276.93	171.533
1280.56	26.285
1284.19	169.611
1287.82	157.461
1291.45	121.875
1295.07	64.039
1298.7	136.393
1302.32	232.68
1305.94	14.277
1309.56	191.211
1313.18	137.389
1316.8	37.234
1320.41	153.672
1324.02	55.326
1327.63	22.4
1331.24	40.869
1334.85	11.748
1338.46	75.754
1342.06	52.93
1345.67	133.404
1349.27	68.695
1352.87	118.801
1356.47	105.371
1360.07	253.873
1363.66	220.115
1367.25	39.16
1370.85	221.641
1374.44	172.562
1378.03	151.074
1381.61	54.559
1385.2	270.252
1388.78	252.176
1392.37	159.555
1395.95	283.031
1399.53	344.303
1403.1	320.945
1406.68	185.422
1410.26	327.861
1413.83	380.783
1417.4	353.777
1420.97	466.949
1424.54	589.756
1428.1	593.438
1431.67	658.775
1435.23	686.738
1438.8	580.543
1442.36	568.158
1445.91	614.664
1449.47	432.215
1453.03	622.305
1456.58	637.557
1460.13	537.648
1463.68	730.131
1467.23	403.525
1470.78	620.068
1474.33	473.715
1477.87	526.992
1481.42	232.375
1484.96	228.057
1488.5	267.191
1492.04	318.166
1495.57	276.328
1499.11	75.916
1502.64	10.807
1506.17	113.926
1509.71	2.689
1513.23	187.562
1516.76	0
