Measurement: Raman, 514 nm, ccw, Raman Data Processed
Mineral: Silicon
Rruff sample: R050145
Ideal chemistry: Si
Locality: synthetic from Dupont
Source: Gerry Gibbs
Description: Dark gray synthetic fragment
Measured chemistry: Si
Pin_id: L00283
Orientation: Laser parallel to -a* (-1 0 0). Fiducial mark perpendicular to laser is parallel to -b [0 -1 0]
Raman shift (cm-1)	intensity
115.744	0
119.919	434.41
124.092	194.471
128.263	433.797
132.432	499.072
136.599	1003.19
140.764	1416.18
144.927	1611.19
149.088	914.389
153.247	739.297
157.404	343.217
161.559	166.213
165.711	174.016
169.862	224.26
174.011	215.785
178.158	313.494
182.303	167.29
186.446	355.801
190.587	314.806
194.726	262.078
198.862	186.328
202.997	109.637
207.13	25.427
211.261	60.43
215.39	39.743
219.517	111.694
223.642	82.344
227.765	140.141
231.886	16.646
236.005	37.74
240.122	34.967
244.237	104.09
248.35	85.732
252.461	90.549
256.57	39.414
260.677	82.896
264.782	160.157
268.885	211.499
272.986	65.187
277.085	72.356
281.182	174.725
285.278	461.213
289.371	688.41
293.462	851.425
297.552	965.118
301.639	1096.05
305.724	1175.39
309.808	1168.8
313.889	1111.2
317.969	1106.38
322.046	1066.7
326.122	1161.5
330.196	1053.52
334.267	1038.25
338.337	1037.16
342.405	1080.24
346.471	992.343
350.535	914.635
354.597	1074.21
358.657	937.217
362.715	950.05
366.771	957.364
370.825	997.701
374.877	1047.88
378.928	820.354
382.976	839.544
387.023	763.562
391.067	780.082
395.11	782.635
399.15	758.543
403.189	605.607
407.226	694.863
411.261	682.734
415.294	730.119
419.325	768.39
423.354	814.562
427.381	850.574
431.406	824.649
435.43	1010.77
439.451	966.106
443.471	900.791
447.488	892.26
451.504	940.801
455.518	945.404
459.53	936.3
463.54	970.377
467.548	1071.81
471.554	1071.63
475.558	1130.34
479.561	1147.26
483.561	1133.65
487.559	1219.79
491.556	1304.12
495.551	1447.92
499.544	1531.6
503.535	1795.2
507.524	2497.37
511.511	4249.5
515.496	11342.4
519.48	37843.6
523.461	45866.2
527.441	19998.1
531.418	7000.53
535.394	3213.04
539.368	1907.69
543.34	1330.22
547.311	1027.04
551.279	779.387
555.245	560.912
559.21	533.146
563.173	533.649
567.133	412.724
571.092	313.107
575.049	291.434
579.005	249.941
582.958	224.552
586.909	143.079
590.859	76.522
594.807	63.604
598.753	92.502
602.697	87.394
606.639	143.198
610.579	174.805
614.518	185.914
618.454	226.916
622.389	267.654
626.322	222.238
630.253	157.97
634.182	104.064
638.109	72.977
642.035	97.842
645.958	67.742
649.88	88.067
653.8	103.777
657.718	78.157
661.634	139.443
665.549	112.652
669.461	23.793
673.372	210.851
677.281	37.848
681.188	48.76
685.093	50.593
688.997	43.35
692.898	45.98
696.798	17.54
700.696	7.038
704.592	53.77
708.486	0.21
712.378	16.435
716.269	5.993
720.158	29.365
724.045	24.595
727.93	27.529
731.813	117.839
735.694	80.69
739.574	5.026
743.452	16.852
747.328	49.93
751.202	3.391
755.075	11.13
758.945	18.617
762.814	65.498
766.681	19.178
770.546	39.065
774.409	12.555
778.271	57.527
782.131	13.356
785.989	34.922
789.845	64.924
793.699	59.929
797.552	105.598
801.402	32.146
805.251	24.205
809.098	88.016
812.944	96.333
816.787	118.005
820.629	154.144
824.469	154.646
828.307	203.034
832.144	107.598
835.978	144.824
839.811	146.413
843.642	101.503
847.472	82.732
851.299	168.685
855.125	132.676
858.949	126.559
862.771	9.908
866.591	193.948
870.41	84.871
874.227	149.909
878.042	140.17
881.855	143.469
885.667	71.281
889.476	47.219
893.284	156.768
897.09	222.265
900.895	161.907
904.698	128.622
908.499	183.544
912.298	221.995
916.095	120.738
919.891	259.537
923.685	218.131
927.477	302.081
931.267	543.232
935.056	796.077
938.843	1029.8
942.628	1306.65
946.411	1573.57
950.193	1580.47
953.973	1676.24
957.751	1642.41
961.527	1692.63
965.302	1696.91
969.075	1674.31
972.846	1781.77
976.615	1771.97
980.383	1756.9
984.149	1731.66
987.913	1662.3
991.675	1430.12
995.436	1158.02
999.195	885.985
1002.95	746.049
1006.71	613.29
1010.46	562.899
1014.21	487.906
1017.96	444.879
1021.71	414.932
1025.46	381.932
1029.2	390.689
1032.95	312.309
1036.69	264.289
1040.43	238.501
1044.17	294.117
1047.9	54.659
1051.64	219.36
1055.37	233.882
1059.1	236.736
1062.83	215.838
1066.56	128.119
1070.29	199.334
1074.01	138.627
1077.73	121.755
1081.46	141.341
1085.17	158.746
1088.89	148.173
1092.61	220.805
1096.32	120.362
1100.04	124.634
1103.75	6.647
1107.46	98.318
1111.16	68.374
1114.87	82.026
1118.57	81.445
1122.28	476.414
1125.98	169.906
1129.67	75.151
1133.37	22.078
1137.07	72.453
1140.76	68.865
1144.45	5.744
1148.14	43.307
1151.83	56.004
1155.52	17.916
1159.21	19.664
1162.89	0.408
1166.57	0.088
1170.25	30.992
1173.93	4.154
1177.61	10.299
1181.28	21.053
1184.96	31.129
1188.63	41.624
1192.3	3.458
1195.97	88.086
1199.64	41.947
1203.3	7.771
1206.97	125.167
1210.63	73.521
1214.29	78.15
1217.95	224.304
1221.6	408.372
1225.26	458.269
1228.91	465.799
1232.57	594.024
1236.21	49.386
1239.86	121.591
1243.51	4.38
1247.16	99.589
1250.8	67.294
1254.44	85.123
1258.08	12.285
1261.72	101.844
1265.36	84.243
1268.99	43.209
1272.63	35.007
1276.26	99.533
1279.89	13.674
1283.52	15.479
1287.15	37.229
1290.77	115.843
1294.4	95.012
1298.02	49.379
1301.64	38.754
1305.26	80.349
1308.88	3.331
1312.49	48.779
1316.11	65.26
1319.72	3.295
1323.33	15.558
1326.94	50.951
1330.55	54.646
1334.15	5.985
1337.76	80.16
1341.36	66.151
1344.96	73.426
1348.56	72.464
1352.16	113.925
1355.75	43.632
1359.35	52.084
1362.94	79.512
1366.53	41.828
1370.12	134.064
1373.71	66.646
1377.3	102.534
1380.88	80.716
1384.46	86.821
1388.05	57.653
1391.63	260.828
1395.2	32.876
1398.78	57.73
1402.36	80.109
1405.93	106.105
1409.5	37.41
1413.07	69.512
1416.64	179.248
1420.21	46.675
1423.78	133.293
1427.34	97.714
1430.9	28.593
1434.46	134.134
1438.02	175.737
1441.58	98.583
1445.13	64.509
1448.69	211.287
1452.24	96.85
1455.79	66.215
1459.34	89.377
1462.89	146.013
1466.44	57.742
1469.98	158.064
1473.53	83.293
1477.07	36.347
1480.61	98.221
1484.14	121.862
1487.68	83.796
1491.22	58.743
1494.75	49.313
1498.28	58.369
1501.81	34.964
1505.34	22.247
1508.87	77.19
1512.4	73.724
1515.92	131.106
