Measurement: Raman, 514 nm, ccw, Raman Data Processed
Mineral: Silicon
Rruff sample: R050145
Ideal chemistry: Si
Locality: synthetic from Dupont
Source: Gerry Gibbs
Description: Dark gray synthetic fragment
Measured chemistry: Si
Pin_id: L00283
Orientation: Laser parallel to -a* (-1 0 0). Fiducial mark perpendicular to laser is parallel to -b [0 -1 0]
Raman shift (cm-1)	intensity
114.351	0
118.527	193.062
122.701	269.656
126.873	346.621
131.042	423.477
135.21	836.969
139.376	1400.94
143.539	1490.44
147.701	993.494
151.861	750.59
156.018	767.98
160.174	118.057
164.327	254.742
168.479	238.941
172.628	291.898
176.776	412.182
180.922	337.484
185.065	365.057
189.207	395.484
193.346	317.836
197.484	389.27
201.619	232.723
205.753	281.924
209.884	216.74
214.014	222.998
218.141	23.473
222.267	30.41
226.391	37.078
230.512	61.48
234.632	74.496
238.749	36.234
242.865	65.506
246.979	69.602
251.09	16.625
255.2	3.934
259.308	33.783
263.414	54.023
267.517	85.777
271.619	148.543
275.719	191.539
279.817	221.926
283.913	504.398
288.007	678.295
292.099	880.67
296.189	1235.39
300.277	1457.72
304.363	1492.86
308.447	1412.18
312.529	1409.42
316.609	1137.02
320.687	1161.2
324.764	1060.22
328.838	1202.52
332.91	1105.86
336.981	1072.27
341.049	1055.33
345.116	961.721
349.18	990.334
353.243	1017.67
357.304	798.592
361.362	836.923
365.419	830.366
369.474	970.102
373.527	965.523
377.578	854.466
381.627	733.526
385.674	687.568
389.719	613.972
393.762	685.466
397.804	643.485
401.843	556.723
405.881	671.931
409.916	654.128
413.95	638.846
417.981	718.758
422.011	809.852
426.039	758.503
430.065	742.021
434.089	1293.35
438.111	1465.77
442.131	837.75
446.149	750.016
450.166	791.056
454.18	699.751
458.193	739.527
462.203	758.963
466.212	736.729
470.219	764.426
474.224	861.403
478.227	850.112
482.228	886.748
486.227	840.649
490.224	992.984
494.22	1055.66
498.213	1084.17
502.205	1133.49
506.194	1279.73
510.182	2004.91
514.168	4350.67
518.152	14985.6
522.134	19279.3
526.114	9272.86
530.093	4296.68
534.069	1661.18
538.044	1015.92
542.017	720.343
545.987	613.528
549.956	589.692
553.923	502.893
557.889	365.127
561.852	529.575
565.813	543.183
569.773	335.706
573.731	360.957
577.686	313.112
581.64	189.402
585.593	245.484
589.543	100.45
593.491	87.228
597.438	65.568
601.382	80.43
605.325	37.277
609.266	137.966
613.205	140.594
617.142	187.856
621.078	271.568
625.011	293.036
628.943	304.07
632.872	126.198
636.8	150.631
640.726	114.076
644.651	186.647
648.573	239.09
652.494	281.406
656.412	113.533
660.329	165.977
664.244	197.754
668.157	179.405
672.069	140.926
675.978	172.308
679.886	143.572
683.792	54.723
687.696	85.752
691.598	46.654
695.498	38.814
699.397	19.418
703.293	41.234
707.188	23.111
711.081	67.537
714.972	19.281
718.862	30.788
722.749	52.852
726.635	34.518
730.519	78.89
734.401	26.875
738.281	19.729
742.16	2.979
746.036	30.981
749.911	4.813
753.784	48.56
757.655	11.85
761.525	45.008
765.392	9.04
769.258	63.088
773.122	32.776
776.984	22.229
780.844	67.186
784.703	32.477
788.56	23.829
792.415	0.016
796.268	33.242
800.119	110.508
803.969	151.506
807.816	106.007
811.662	9.61
815.506	73.211
819.349	117.756
823.189	112.351
827.028	246.009
830.865	40.019
834.7	173.957
838.534	97.49
842.365	91.368
846.195	44.22
850.023	76.47
853.85	147.887
857.674	19.562
861.497	169.598
865.318	29.321
869.137	114.903
872.955	94.399
876.77	134.972
880.584	91.142
884.396	67.857
888.207	66.001
892.015	5.737
895.822	217.399
899.627	130.096
903.43	213.742
907.232	208.281
911.032	72.626
914.83	151.644
918.626	270.937
922.42	285.4
926.213	452.227
930.004	637.596
933.793	1112.89
937.581	1438.64
941.366	1892.34
945.15	2117.35
948.932	2263.38
952.713	2419.48
956.491	2475.68
960.268	2441.93
964.044	2497.76
967.817	2424.18
971.589	2450.7
975.359	2507.3
979.127	2593.98
982.893	2610.73
986.658	2457.58
990.421	2114.5
994.183	1561.51
997.942	1451.4
1001.7	1027.19
1005.46	905.052
1009.21	749.223
1012.96	659.559
1016.71	580.58
1020.46	538.768
1024.21	489.071
1027.96	499.392
1031.7	440.333
1035.44	359.473
1039.18	278.973
1042.92	168.277
1046.66	267.853
1050.39	357.724
1054.13	232.864
1057.86	200.244
1061.59	200.769
1065.32	260.666
1069.05	183.039
1072.77	213.416
1076.49	212.534
1080.22	183.91
1083.94	183.912
1087.65	173.906
1091.37	211.887
1095.09	184.146
1098.8	194.439
1102.51	155.364
1106.22	215.576
1109.93	145.714
1113.63	135.946
1117.34	128.639
1121.04	119.316
1124.74	49.076
1128.44	219.803
1132.14	130.952
1135.84	20.975
1139.53	51.816
1143.22	71.956
1146.91	31.46
1150.61	8.167
1154.29	61.408
1157.98	8.289
1161.66	13.819
1165.35	61.372
1169.03	26.259
1172.71	3.509
1176.38	17.453
1180.06	47.69
1183.73	100.266
1187.41	81.806
1191.08	100.13
1194.75	38.207
1198.41	54.094
1202.08	86.881
1205.74	26.623
1209.41	193.889
1213.07	172.728
1216.73	128.636
1220.38	204.161
1224.04	89.514
1227.69	225.257
1231.35	269.671
1235	115.258
1238.65	279.874
1242.3	154.336
1245.94	88.637
1249.59	90.589
1253.23	196.354
1256.87	120.781
1260.51	204.314
1264.15	147.778
1267.78	230.882
1271.42	43.74
1275.05	96.039
1278.68	117.981
1282.31	89.766
1285.94	111.132
1289.56	132.172
1293.19	40.293
1296.81	110.284
1300.43	90.402
1304.05	29.585
1307.67	22.628
1311.29	26.986
1314.9	71.54
1318.52	27.343
1322.13	24.441
1325.74	29.485
1329.34	28.106
1332.95	85.067
1336.56	132.214
1340.16	88.534
1343.76	170.495
1347.36	20.801
1350.96	193.781
1354.56	29.667
1358.15	95.405
1361.74	128.658
1365.34	123.889
1368.93	39.341
1372.52	184.76
1376.1	71.188
1379.69	158.724
1383.27	184.513
1386.85	144.808
1390.43	262.557
1394.01	116.408
1397.59	62.853
1401.17	237.827
1404.74	102.268
1408.31	167.223
1411.88	131.356
1415.45	89.617
1419.02	171.046
1422.59	198.348
1426.15	109.438
1429.71	110.449
1433.28	149.099
1436.84	11.287
1440.39	88.431
1443.95	180.535
1447.5	141.125
1451.06	101.814
1454.61	212.262
1458.16	161.734
1461.71	90.085
1465.26	97.902
1468.8	236.354
1472.34	135.7
1475.89	135.803
1479.43	115.582
1482.97	97.055
1486.5	108.608
1490.04	40.504
1493.57	43.351
1497.11	127.417
1500.64	112.957
1504.17	70.312
1507.69	130.446
1511.22	184.789
1514.74	3.461
1518.27	0
