Measurement: Raman, 514 nm, ccw, Raman Data Processed
Mineral: Silicon
Rruff sample: R050145
Ideal chemistry: Si
Locality: synthetic from Dupont
Source: Gerry Gibbs
Description: Dark gray synthetic fragment
Measured chemistry: Si
Pin_id: L00283
Orientation: Laser parallel to -a* (-1 0 0). Fiducial mark perpendicular to laser is parallel to -b [0 -1 0]
Raman shift (cm-1)	intensity
114.351	0
118.527	48.738
122.701	491.641
126.873	349.066
131.042	124.221
135.21	527.781
139.376	1141.93
143.539	1199.74
147.701	1037.96
151.861	766.268
156.018	765.814
160.174	434.371
164.327	432.125
168.479	474.26
172.628	554.654
176.776	587.684
180.922	487.156
185.065	370.494
189.207	442.926
193.346	242.107
197.484	195.982
201.619	289.127
205.753	115.033
209.884	39.135
214.014	71.758
218.141	59.115
222.267	133.621
226.391	51.188
230.512	88.49
234.632	29.344
238.749	100.924
242.865	46.537
246.979	249.191
251.09	94.353
255.2	43.371
259.308	93.021
263.414	13.653
267.517	53.688
271.619	82.366
275.719	142.986
279.817	346.917
283.913	520.123
288.007	848.503
292.099	945.515
296.189	1114.19
300.277	1294.12
304.363	1511.48
308.447	1362.17
312.529	1289.98
316.609	1342.46
320.687	1325.56
324.764	1293.18
328.838	1345.35
332.91	1325.14
336.981	1338.57
341.049	1244.49
345.116	1250.73
349.18	1112.19
353.243	1140.76
357.304	1102.52
361.362	1048.61
365.419	1010.53
369.474	1139.51
373.527	938.979
377.578	917.5
381.627	972.099
385.674	836.78
389.719	842.692
393.762	888.589
397.804	761.581
401.843	823.75
405.881	842.232
409.916	747.235
413.95	780.526
417.981	840.656
422.011	860.833
426.039	1032.33
430.065	1014.57
434.089	916.466
438.111	960.732
442.131	965.687
446.149	910.612
450.166	866.233
454.18	858.889
458.193	991.012
462.203	934.443
466.212	993.676
470.219	1015.01
474.224	1071.21
478.227	1055.66
482.228	1138.16
486.227	1129.28
490.224	1128.88
494.22	1148.06
498.213	1117.28
502.205	1275.24
506.194	1301.66
510.182	1837.33
514.168	3791.78
518.152	11415.3
522.134	16099.6
526.114	9252.6
530.093	4047.5
534.069	1781.4
538.044	1176.03
542.017	699.889
545.987	662.938
549.956	635.258
553.923	399.075
557.889	468.565
561.852	596.289
565.813	373.374
569.773	457.283
573.731	334.545
577.686	411.514
581.64	185.786
585.593	164.55
589.543	100.764
593.491	107.503
597.438	54.767
601.382	11.635
605.325	128.756
609.266	149.449
613.205	173.913
617.142	181.408
621.078	154.455
625.011	90.206
628.943	97.464
632.872	81.878
636.8	86.601
640.726	109.431
644.651	222.044
648.573	147.806
652.494	116.653
656.412	68.666
660.329	148.718
664.244	114.739
668.157	128.723
672.069	155.013
675.978	96.247
679.886	117.349
683.792	11.677
687.696	29.152
691.598	39.988
695.498	100.513
699.397	60.873
703.293	1.093
707.188	1.469
711.081	59.229
714.972	30.285
718.862	8.366
722.749	58.622
726.635	35.563
730.519	71.526
734.401	38.72
738.281	15.95
742.16	58.802
746.036	22.478
749.911	4.366
753.784	32.709
757.655	10.852
761.525	57.928
765.392	34.404
769.258	31.34
773.122	61.967
776.984	5.148
780.844	58.743
784.703	51.686
788.56	15.785
792.415	26.871
796.268	150.305
800.119	133.636
803.969	37.004
807.816	70.209
811.662	152.806
815.506	65.894
819.349	118.998
823.189	181.998
827.028	155.075
830.865	164.386
834.7	141.416
838.534	153.952
842.365	106.26
846.195	84.046
850.023	38.901
853.85	321.259
857.674	63.989
861.497	7.338
865.318	27.086
869.137	74.779
872.955	74.373
876.77	41.076
880.584	173.966
884.396	125.014
888.207	94.148
892.015	205.323
895.822	106.51
899.627	229.706
903.43	271.076
907.232	82.008
911.032	234.751
914.83	213.756
918.626	174.887
922.42	266.163
926.213	370.104
930.004	544.459
933.793	748.213
937.581	1081
941.366	1563.23
945.15	1748.73
948.932	1789.22
952.713	1930.06
956.491	1915.86
960.268	1971.75
964.044	1907.75
967.817	2003.84
971.589	2080.01
975.359	2138.29
979.127	2102.63
982.893	2059.07
986.658	2035.61
990.421	1782.27
994.183	1560.03
997.942	1238.98
1001.7	935.96
1005.46	893.964
1009.21	741.654
1012.96	641.532
1016.71	649.206
1020.46	617.803
1024.21	439.367
1027.96	557.679
1031.7	388.402
1035.44	267.204
1039.18	256.313
1042.92	305.917
1046.66	318.131
1050.39	279.563
1054.13	203.419
1057.86	122.827
1061.59	172.361
1065.32	231.968
1069.05	201.577
1072.77	241.351
1076.49	241.217
1080.22	231.521
1083.94	151.654
1087.65	161.622
1091.37	171.602
1095.09	143.01
1098.8	114.33
1102.51	94.66
1106.22	334.504
1109.93	124.887
1113.63	136.416
1117.34	56.594
1121.04	63.544
1124.74	194.428
1128.44	126.707
1132.14	107.767
1135.84	19.162
1139.53	20.007
1143.22	80.288
1146.91	50.535
1150.61	38.689
1154.29	5.687
1157.98	68.74
1161.66	60.67
1165.35	27.952
1169.03	45.301
1172.71	144.973
1176.38	19.753
1180.06	136.787
1183.73	166.453
1187.41	134.493
1191.08	2.815
1194.75	9.334
1198.41	51.569
1202.08	86.069
1205.74	114.529
1209.41	91.083
1213.07	119.643
1216.73	135.896
1220.38	161.949
1224.04	137.908
1227.69	113.713
1231.35	179.746
1235	135.226
1238.65	170.459
1242.3	15.763
1245.94	120.738
1249.59	175.363
1253.23	99.937
1256.87	14.209
1260.51	108.388
1264.15	132.251
1267.78	171.003
1271.42	99.105
1275.05	82.336
1278.68	63.69
1282.31	66.408
1285.94	98.415
1289.56	106.891
1293.19	98.076
1296.81	56.839
1300.43	11.443
1304.05	9.035
1307.67	4.079
1311.29	84.27
1314.9	81.338
1318.52	40.498
1322.13	22.641
1325.74	25.881
1329.34	144.214
1332.95	52.139
1336.56	88.486
1340.16	152.336
1343.76	176.769
1347.36	44.034
1350.96	111.165
1354.56	17.938
1358.15	244.729
1361.74	181.234
1365.34	107.405
1368.93	103.296
1372.52	99.087
1376.1	137.025
1379.69	165.418
1383.27	183.147
1386.85	121.979
1390.43	168.708
1394.01	177.289
1397.59	191.45
1401.17	117.304
1404.74	202.865
1408.31	253.161
1411.88	188.456
1415.45	161.204
1419.02	133.604
1422.59	132.891
1426.15	175.357
1429.71	207.449
1433.28	126.914
1436.84	96.296
1440.39	249
1443.95	141.027
1447.5	174.744
1451.06	192.157
1454.61	162.38
1458.16	131.934
1461.71	150.705
1465.26	259.748
1468.8	136.364
1472.34	187.475
1475.89	124.869
1479.43	84.824
1482.97	196.764
1486.5	99.025
1490.04	182.04
1493.57	126.002
1497.11	170.005
1500.64	37.838
1504.17	38.726
1507.69	117.363
1511.22	1.842
1514.74	0
