Measurement: Raman, 514 nm, ccw, Raman Data Processed
Mineral: Sinoite
Rruff sample: R130011
Ideal chemistry: Si_2_N_2_O
Locality: Zakłodzie meteorite, Zakłodzie, Poland
Source: Chi Ma
Description: Euhedral lath-shaped crystals included in association with buseckite. Data from Ma et al (American Mineralogist, 97 (2012) 1226-1233)
Raman shift (cm-1)	intensity
1200.34	0
1197.15	213.164
1193.95	-477.666
1190.75	329.941
1187.55	292.813
1184.35	719.125
1181.14	915.546
1177.94	755.723
1174.73	1316.64
1171.53	1252.73
1168.32	1930.39
1165.11	2203.3
1161.9	3286.89
1158.68	4916.56
1155.47	6298.28
1152.25	8584.24
1149.04	11459.3
1145.82	14423.5
1142.6	16315.2
1139.38	15474.5
1136.15	12075.9
1132.93	7668.51
1129.7	4884.7
1126.47	3408.74
1123.25	2849.61
1120.02	2152.97
1116.78	1698.79
1113.55	1336.21
1110.32	674.791
1107.08	538.391
1103.84	858.782
1100.61	719.221
1097.37	80.4365
1094.13	481.878
1090.88	468.567
1087.64	354.453
1084.39	549.49
1081.15	20.5472
1077.9	227.103
1074.65	967.592
1071.4	1621.31
1068.14	1334.5
1064.89	1666.42
1061.63	1959.7
1058.38	1583.19
1055.12	979.559
1051.86	922.331
1048.6	1120.67
1045.33	466.376
1042.07	173.42
1038.8	463.817
1035.54	357.23
1032.27	600.881
1029	537.135
1025.73	562.234
1022.45	389.989
1019.18	688.502
1015.9	603.978
1012.63	630.779
1009.35	354.62
1006.07	534.81
1002.79	499.069
999.504	667.396
996.219	1069.64
992.934	694.297
989.646	2624.24
986.358	6787.8
983.067	8434.69
979.776	4982.34
976.483	2385.3
973.188	1320.85
969.892	1006.43
966.595	415.367
963.296	543.649
959.996	885.838
956.694	810.364
953.391	944.542
950.086	1708.33
946.78	3107.76
943.472	9382.02
940.163	10071.1
936.852	4140.79
933.54	1865.62
930.227	1192.95
926.912	1109.79
923.596	742.83
920.278	1096.26
916.958	1107.6
913.638	596.931
910.315	1169.98
906.992	1492.38
903.666	2303.89
900.34	3937.57
897.012	7326.99
893.682	11271.7
890.351	14249.1
887.018	9124.69
883.684	4629.47
880.349	2290.95
877.012	1349.11
873.673	977.413
870.333	946.026
866.992	612.393
863.649	640.892
860.305	156.27
856.959	309.014
853.612	-10.9693
850.263	204.487
846.912	471.127
843.561	-343.382
840.207	-265.425
836.853	33.2568
833.496	201.28
830.139	551.576
826.779	-68.1693
823.419	155.008
820.057	236.422
816.693	606.362
813.328	609.258
809.961	410.194
806.593	436.933
803.223	989.436
799.852	790.065
796.479	1009.3
793.105	824.121
789.73	1396.92
786.352	1320.75
782.974	1002.76
779.594	864.545
776.212	850.452
772.829	217.564
769.444	457.756
766.058	364.922
762.67	499.474
759.281	-236.373
755.89	-147.261
752.498	-69.6309
749.105	536.069
745.709	326.567
742.313	581.554
738.914	1675.88
735.515	5154.93
732.113	10378.8
728.711	9594.64
725.306	5181.27
721.901	2540.24
718.493	1324.15
715.085	904.468
711.674	246.935
708.262	576.474
704.849	655.258
701.434	141.424
698.018	234.54
694.6	264.957
691.18	294.552
687.759	466.164
684.337	150.987
680.913	-224.868
677.487	70.0266
674.06	83.1015
670.631	-135.199
667.201	-173.964
663.77	-219.302
660.336	-177.887
656.902	19.9429
653.465	177.125
650.028	323.984
646.588	929.05
643.147	380.666
639.705	-147.858
636.261	-454.44
632.815	-158.793
629.368	-258.364
625.92	-176.87
622.47	-269.068
619.018	173.195
615.565	408.366
612.11	479.723
608.654	-265.869
605.196	-157.755
601.737	436.209
598.276	310.518
594.813	237.082
591.349	198.371
587.884	75.356
584.417	300.521
580.948	281.015
577.478	-181.721
574.006	118.123
570.533	11.3182
567.058	245.074
563.581	467.308
560.103	341.454
556.624	572.723
553.143	497.059
549.66	265.49
546.176	226.851
542.69	875.524
539.203	200.199
535.714	545.664
532.223	641.128
528.731	573.077
525.238	758.374
521.742	1156.26
518.246	1243.39
514.747	1089.01
511.247	685.191
507.746	246.686
504.243	465.221
500.738	1184
497.232	2126.75
493.724	1619.48
490.215	286.292
486.704	228.074
483.192	175.309
479.678	-4.10257
476.162	229.972
472.645	201.187
469.126	39.6159
465.606	316.064
462.084	1778.97
458.56	4156.28
455.035	7433.58
451.508	4928.41
447.98	2731.19
444.45	1172.5
440.919	590.866
437.386	477.348
433.851	869.356
430.315	819.977
426.777	11.4737
423.237	-6.61127
419.696	63.3396
416.154	36.6397
412.609	211.577
409.064	18.4922
405.516	217.006
401.967	431.244
398.417	383.205
394.864	-84.291
391.311	173.852
387.755	290.655
384.198	756.238
380.64	1564.61
377.079	4715.16
373.518	8537.93
369.954	5524.52
366.389	1137.06
362.822	142.636
359.254	-102.081
355.684	3.62703
352.113	-211.664
348.54	245.8
344.965	-29.1916
341.389	208.07
337.811	236.157
334.231	307.117
330.65	1026.24
327.067	2169.06
323.483	944.326
319.897	412.835
316.309	310.54
312.72	350.752
309.129	274.691
305.536	-115.66
301.942	271.595
298.347	75.8287
294.749	140.795
291.15	180.104
287.549	48.8965
283.947	103.869
280.343	-162.05
276.738	441.915
273.13	528.637
269.522	1180.23
265.911	761.96
262.299	1507.94
258.685	3332.23
255.07	13595.4
251.453	58716.4
247.834	32458.2
244.214	6210.43
240.592	1235.09
236.969	325.412
233.343	92.5373
229.717	716.034
226.088	1428.13
222.458	2944.99
218.826	9794.84
215.193	9763.79
211.558	5709.16
207.921	5431.69
204.283	6573.18
200.642	10332
197.001	16125.4
193.357	31855.4
189.712	98485.4
186.066	402570
182.417	312405
178.767	84082
175.116	32801.1
171.463	16189.9
167.808	8301.5
164.151	5646.13
160.493	3068.13
156.833	1782.98
153.171	968.123
149.508	559.637
145.843	483.304
142.176	487.613
138.508	433.474
134.838	478.382
131.166	160.441
127.493	308.584
123.818	194.101
120.141	-77.8384
116.463	221.843
112.783	61.4829
109.101	-47.249
105.418	194.146
101.733	191.372
