Measurement: Raman, 514 nm, ccw, Raman Data Processed
Mineral: Smithsonite
Rruff sample: R040051
Ideal chemistry: ZnCO_3_
Locality: Berg Aukas mine, Grootfontein, Namibia
Source: University of Arizona Mineral Museum
Description: Yellowish brown botryoidal groups
Measured chemistry: (Zn_0.94_Ca_0.02_Mg_0.02_)C_1.01_O_3_
Pin_id: M00001
Orientation: Laser parallel to -a* (-1 0 0). Fiducial mark perpendicular to laser is parallel to c [0 0 1]
Raman shift (cm-1)	intensity
80.823	0
85.009	34.343
89.193	106.444
93.375	78.021
97.554	110.967
101.732	83.725
105.908	89.153
110.082	77.442
114.254	149.987
118.424	76.476
122.592	55.062
126.758	32.568
130.922	17.648
135.083	41.857
139.243	41.179
143.401	47.602
147.557	17.281
151.711	19.144
155.863	88.365
160.013	132.954
164.161	162.902
168.308	272.476
172.452	350.603
176.594	529.37
180.734	869.186
184.872	1623.03
189.008	3628.9
193.143	6175.82
197.275	5545.78
201.405	2678.75
205.534	1084.72
209.66	457.888
213.784	276.72
217.907	128.555
222.027	95.919
226.146	33.921
230.263	56.891
234.377	29.481
238.49	5.168
242.601	19.558
246.709	10.105
250.816	4.075
254.921	11.06
259.024	40.223
263.125	24.608
267.224	31.209
271.321	34.277
275.416	78.198
279.51	99.18
283.601	190.268
287.69	346.297
291.778	640.334
295.863	1279.42
299.947	2155.19
304.029	2515.56
308.108	1900.56
312.186	998.581
316.262	479.55
320.336	263.51
324.408	114.412
328.478	71.235
332.546	53.052
336.612	49.232
340.677	45.388
344.739	26.986
348.799	23.936
352.858	67.526
356.915	10.948
360.969	0.222
365.022	4.24
369.073	7.139
373.122	12.229
377.169	22.649
381.215	14.081
385.258	19.381
389.299	39.612
393.339	11.77
397.376	3.869
401.412	0.517
405.446	11.481
409.478	1.142
413.508	22.995
417.536	7.778
421.562	32.158
425.586	40.504
429.609	9.744
433.629	35.972
437.648	77.614
441.665	22.214
445.68	46.772
449.693	56.285
453.704	31.864
457.713	10.32
461.721	53.737
465.726	74.115
469.73	35.468
473.731	50.808
477.731	100.107
481.729	76.387
485.725	79.591
489.72	82.569
493.712	48.854
497.703	54.649
501.691	58.677
505.678	71.689
509.663	39.789
513.646	70.969
517.627	52.531
521.607	52.375
525.584	9.402
529.56	80.225
533.534	69.351
537.506	36.744
541.476	69.27
545.444	56.159
549.41	56.536
553.375	100.988
557.337	76.624
561.298	57.552
565.257	43.364
569.214	96.789
573.17	80.872
577.123	34.65
581.075	72.588
585.024	92.196
588.972	88.198
592.918	61.008
596.863	115.912
600.805	85.838
604.746	54.004
608.685	64.53
612.621	95.188
616.557	110.192
620.49	150.993
624.421	216.343
628.351	163.742
632.279	103.587
636.205	128.082
640.129	149.36
644.051	144.601
647.972	150.784
651.89	161.96
655.807	97.118
659.722	56.221
663.636	26.234
667.547	76.799
671.457	32.677
675.365	23.528
679.271	4.092
683.175	28.597
687.077	17.69
690.978	30.142
694.877	26.114
698.774	26.417
702.669	87.993
706.562	51.874
710.454	65.044
714.344	140.173
718.232	204.115
722.118	353.11
726.002	1415.14
729.885	3103.09
733.766	1116.89
737.645	384.904
741.522	189.797
745.397	110.658
749.271	14.457
753.143	43.251
757.013	44.009
760.881	4.711
764.748	22.287
768.613	16.873
772.476	13.583
776.337	23.333
780.196	11.362
784.054	16.753
787.91	5.781
791.764	22.538
795.616	28.221
799.467	63.708
803.316	30.833
807.163	5.925
811.008	26.974
814.851	47.001
818.693	37.836
822.533	59.799
826.371	105.385
830.208	61.854
834.042	54.936
837.875	22.161
841.706	51.283
845.536	63.893
849.363	122.229
853.189	95.906
857.013	145.827
860.836	191.747
864.656	130.614
868.475	106.537
872.292	103.467
876.108	63.401
879.922	38.339
883.733	60.004
887.544	67.235
891.352	61.208
895.159	117.189
898.964	82.18
902.767	99.087
906.568	102.097
910.368	50.909
914.166	24.486
917.962	18.619
921.757	1.631
925.55	12.177
929.341	43.461
933.13	11.613
936.918	45.32
940.703	37.391
944.488	3.606
948.27	9.103
952.051	3.215
955.83	10.574
959.607	66.818
963.383	40.245
967.156	60.671
970.928	11.171
974.699	14.707
978.468	73.281
982.234	82.896
986	64.554
989.763	83.27
993.525	61.04
997.285	146.93
1001.04	211.91
1004.8	168.93
1008.55	137.99
1012.31	175.089
1016.06	237.225
1019.81	239.711
1023.56	334.924
1027.31	392.179
1031.05	480.472
1034.79	477.802
1038.53	641.17
1042.27	749.692
1046.01	905.146
1049.75	1071.65
1053.48	1135.22
1057.22	1257.5
1060.95	1424.22
1064.68	1789.02
1068.4	2210.91
1072.13	2837.24
1075.86	4138.52
1079.58	6960.75
1083.3	12597.9
1087.02	25521.2
1090.74	53010.5
1094.45	57149.2
1098.17	25498
1101.88	10303.4
1105.59	4754.85
1109.3	2729.19
1113.01	1662.84
1116.71	1135.48
1120.42	771.923
1124.12	579.365
1127.82	387.83
1131.52	370.317
1135.22	274.291
1138.91	189.835
1142.61	149.521
1146.3	152.213
1149.99	73.796
1153.68	80.388
1157.37	117.526
1161.06	53.715
1164.74	46.335
1168.42	96.035
1172.1	112.906
1175.78	64.61
1179.46	101.477
1183.14	85.884
1186.81	4.475
1190.48	70.017
1194.15	4.606
1197.83	8.358
1201.49	39.68
1205.16	40.821
1208.82	52.105
1212.49	4.392
1216.15	5.916
1219.81	20.062
1223.46	20.432
1227.12	14.117
1230.78	68.384
1234.43	9.272
1238.08	52.033
1241.73	44.339
1245.38	3.628
1249.03	61.896
1252.67	31.147
1256.31	0.388
1259.95	2.613
1263.6	15.818
1267.23	81.006
1270.87	106.561
1274.51	97.342
1278.14	95.487
1281.77	74.611
1285.4	20.71
1289.03	18.773
1292.66	56.747
1296.28	84.582
1299.91	24.308
1303.53	24.408
1307.15	64.656
1310.77	66.285
1314.38	47.576
1318	76.146
1321.61	47.685
1325.23	87.19
1328.84	39.662
1332.45	3.012
1336.06	37.373
1339.66	19.72
1343.27	0.97
1346.87	18.073
1350.47	1.873
1354.07	53.049
1357.67	54.191
1361.26	9.947
1364.86	73.353
1368.45	82.418
1372.04	10.365
1375.63	85.044
1379.22	122.765
1382.81	165.352
1386.39	263.547
1389.98	229.064
1393.56	279.165
1397.14	370.776
1400.72	755.37
1404.3	1897.35
1407.87	4726.51
1411.45	3150.95
1415.02	1080.22
1418.59	591.514
1422.16	306.44
1425.73	203.782
1429.29	291.813
1432.86	272.813
1436.42	267.717
1439.98	277.919
1443.54	400.518
1447.1	295.826
1450.66	475.991
1454.21	458.438
1457.77	473.841
1461.32	415.119
1464.87	335.249
1468.42	366.222
1471.96	316.99
1475.51	256.546
1479.06	252.175
1482.6	220.932
1486.14	170.127
1489.68	111.487
1493.22	98.06
1496.75	84.01
1500.29	30.634
1503.82	18.86
1507.35	29.574
1510.88	58.416
1514.41	43.72
1517.94	3.402
1521.46	0
