Measurement: Raman, 514 nm, ccw, Raman Data Processed
Mineral: Smithsonite
Rruff sample: R040051
Ideal chemistry: ZnCO_3_
Locality: Berg Aukas mine, Grootfontein, Namibia
Source: University of Arizona Mineral Museum
Description: Yellowish brown botryoidal groups
Measured chemistry: (Zn_0.94_Ca_0.02_Mg_0.02_)C_1.01_O_3_
Pin_id: M00015
Orientation: Laser parallel to c* (0 0 1). Fiducial mark perpendicular to laser is parallel to a [1 0 0]
Raman shift (cm-1)	intensity
100.34	0
104.516	44.853
108.691	198.253
112.864	258.694
117.034	273.814
121.203	229.186
125.369	50.6
129.534	186.579
133.696	21.945
137.857	31.845
142.016	27.623
146.172	4.957
150.327	44.924
154.48	8.567
158.63	38.879
162.779	91.157
166.926	155.151
171.07	284.873
175.213	427.178
179.354	661.146
183.493	1194.88
187.63	2305.05
191.765	4478.33
195.898	5789.6
200.029	2913.78
204.158	1130.72
208.285	452.392
212.41	262.732
216.533	103.026
220.654	43.228
224.773	44.05
228.891	35.975
233.006	27.984
237.119	27.341
241.231	39.486
245.34	24.552
249.448	4.563
253.553	14.801
257.657	23.589
261.758	50.903
265.858	99.066
269.956	195.966
274.052	89.805
278.146	140.159
282.237	293.912
286.327	404.12
290.416	593.57
294.502	966.17
298.586	1734.78
302.668	2359.89
306.749	2260.47
310.827	1537.71
314.903	848.883
318.978	434.986
323.051	283.185
327.121	171.599
331.19	196.377
335.257	54.838
339.322	98.777
343.385	137.611
347.446	141.295
351.505	59.21
355.563	35.933
359.618	19.539
363.672	19.894
367.723	0.771
371.773	16.308
375.821	5.76
379.866	44.834
383.91	73.232
387.952	150.284
391.992	133.103
396.031	96.964
400.067	85.293
404.101	4.642
408.134	28.18
412.165	21.581
416.193	48.438
420.22	21.917
424.245	47.937
428.268	7.915
432.289	67.049
436.309	13.374
440.326	19.006
444.342	84.171
448.355	9.13
452.367	116.868
456.377	44.409
460.385	111.768
464.391	119.965
468.395	163.987
472.398	134.846
476.398	126.551
480.397	121.119
484.394	168.514
488.389	65.728
492.382	67.671
496.373	91.461
500.362	102.293
504.349	175.345
508.335	163.282
512.319	132.125
516.3	240.369
520.28	205.859
524.259	148.939
528.235	150.121
532.209	111.198
536.182	224.804
540.152	226.279
544.121	209.709
548.088	218.917
552.053	263.021
556.017	230.239
559.978	193.808
563.938	146.504
567.895	253.399
571.851	203.633
575.805	269.923
579.758	285.123
583.708	303.702
587.657	377.556
591.603	349.948
595.548	329.242
599.491	391.283
603.432	339.538
607.372	263.678
611.309	358.122
615.245	391.85
619.179	663.992
623.111	968.875
627.041	967.831
630.97	650.53
634.896	395.024
638.821	511.464
642.744	650.729
646.665	728.299
650.584	624.534
654.502	568.814
658.418	377.2
662.331	175.441
666.244	193.372
670.154	111.75
674.062	89.148
677.969	24.615
681.874	61.363
685.777	44.884
689.678	22.913
693.577	118.944
697.475	65.801
701.371	64.031
705.265	184.085
709.157	120.023
713.047	21.064
716.936	81.483
720.823	359.324
724.708	958.436
728.591	2851.69
732.472	1694.92
736.352	576.973
740.23	259.146
744.106	230.292
747.98	84.405
751.853	871.537
755.723	22.642
759.592	104.707
763.459	163.742
767.325	53.755
771.188	36.739
775.05	60.692
778.91	63.613
782.768	81.508
786.625	10.378
790.479	59.227
794.332	92.057
798.183	108.872
802.033	37.681
805.88	226.489
809.726	122.3
813.57	142.424
817.413	118.243
821.253	141.192
825.092	167.778
828.929	276.579
832.764	348.208
836.598	367.07
840.429	450.344
844.259	428.037
848.088	425.767
851.914	485.469
855.739	622.231
859.562	924.785
863.383	791.426
867.203	503.827
871.02	370.178
874.836	337.891
878.65	367.682
882.463	320.607
886.274	311.657
890.083	298.813
893.89	315.052
897.695	476.429
901.499	400.979
905.301	415.61
909.102	250.159
912.9	193.97
916.697	126.904
920.492	166.941
924.285	191.035
928.077	138.105
931.867	120.423
935.655	63.829
939.442	69.242
943.226	60.825
947.009	107.498
950.791	108.26
954.57	141.111
958.348	100.052
962.124	20.081
965.899	136.197
969.671	85.395
973.442	46.679
977.211	7.95
980.979	13.482
984.745	62.104
988.509	202.815
992.271	81.842
996.032	157.991
999.791	836.368
1003.55	646.885
1007.3	258.921
1011.06	144.409
1014.81	184
1018.56	369.288
1022.31	562.546
1026.06	587.939
1029.8	499.859
1033.55	536.209
1037.29	450.878
1041.03	502.521
1044.77	608.056
1048.5	816.69
1052.24	797.579
1055.97	832.624
1059.7	923.466
1063.43	1172.77
1067.16	1588.74
1070.89	2140.39
1074.61	2906.6
1078.34	4703.5
1082.06	7964.86
1085.78	15099.1
1089.5	32044.3
1093.21	42260.5
1096.93	21696.8
1100.64	8985.02
1104.35	4381.26
1108.06	2409.49
1111.77	1476.73
1115.48	1023.64
1119.18	642.854
1122.89	627.935
1126.59	390.994
1130.29	208.012
1133.99	159.808
1137.68	57.94
1141.38	20.045
1145.07	21.903
1148.76	58.985
1152.45	11.765
1156.14	47.661
1159.83	21.304
1163.51	23.912
1167.19	39.281
1170.88	61.094
1174.56	134.084
1178.23	152.97
1181.91	160.677
1185.59	81.229
1189.26	151.827
1192.93	66.358
1196.6	123.269
1200.27	58.438
1203.94	95.749
1207.6	8.34
1211.27	3.162
1214.93	125.228
1218.59	95.603
1222.25	29.013
1225.9	70.205
1229.56	206.312
1233.21	203.337
1236.86	349.274
1240.51	323.125
1244.16	235.899
1247.81	266.596
1251.45	273.213
1255.1	334.747
1258.74	285.197
1262.38	277.566
1266.02	331.852
1269.66	315.053
1273.29	450.176
1276.93	395.222
1280.56	427.212
1284.19	330.137
1287.82	294.77
1291.45	297.768
1295.07	398.653
1298.7	465.752
1302.32	252.064
1305.94	320.819
1309.56	400.629
1313.18	384.201
1316.8	474.767
1320.41	573.147
1324.02	292.976
1327.63	190.342
1331.24	189.355
1334.85	36.648
1338.46	108.846
1342.06	88.334
1345.67	50.951
1349.27	73.282
1352.87	58.223
1356.47	6.749
1360.07	21.886
1363.66	67.075
1367.25	118.518
1370.85	107.108
1374.44	167.806
1378.03	127.554
1381.61	149.272
1385.2	325.646
1388.78	247.883
1392.37	321.983
1395.95	238.945
1399.53	395.766
1403.1	788.443
1406.68	1429.98
1410.26	1287.56
1413.83	662.362
1417.4	371.388
1420.97	387.428
1424.54	301.517
1428.1	380.664
1431.67	389.236
1435.23	602.538
1438.8	921.971
1442.36	1317.67
1445.91	1414.25
1449.47	1469.08
1453.03	1688.8
1456.58	1753.37
1460.13	1769.74
1463.68	1578.91
1467.23	1022.88
1470.78	949.564
1474.33	804.856
1477.87	805.365
1481.42	624.326
1484.96	671.043
1488.5	557.13
1492.04	384.726
1495.57	219.125
1499.11	24.837
1502.64	106.467
1506.17	9.079
1509.71	138.455
1513.23	176.649
1516.76	104.81
1520.29	54.936
