Measurement: Raman, 514 nm, ccw, Raman Data Processed
Mineral: Smithsonite
Rruff sample: R040051
Ideal chemistry: ZnCO_3_
Locality: Berg Aukas mine, Grootfontein, Namibia
Source: University of Arizona Mineral Museum
Description: Yellowish brown botryoidal groups
Measured chemistry: (Zn_0.94_Ca_0.02_Mg_0.02_)C_1.01_O_3_
Pin_id: M00001
Orientation: Laser parallel to -a* (-1 0 0). Fiducial mark perpendicular to laser is parallel to c [0 0 1]
Raman shift (cm-1)	intensity
83.614	0
87.798	73.231
91.981	111.999
96.161	87.136
100.34	132.949
104.516	168.269
108.691	174.63
112.864	204.114
117.034	391.74
121.203	141.855
125.369	81.528
129.534	33.573
133.696	8.804
137.857	19.436
142.016	0.312
146.172	15.358
150.327	25.463
154.48	15.832
158.63	50.216
162.779	47.732
166.926	150.447
171.07	190.403
175.213	260.573
179.354	460.888
183.493	778.308
187.63	1717.71
191.765	3567.12
195.898	4204.5
200.029	2405.82
204.158	949.948
208.285	392.082
212.41	196.231
216.533	183.376
220.654	75.508
224.773	26.606
228.891	81.908
233.006	74.013
237.119	105.951
241.231	112.605
245.34	160.6
249.448	210.915
253.553	213.788
257.657	342.461
261.758	422.083
265.858	509.754
269.956	675.193
274.052	757.14
278.146	1070.5
282.237	1619.85
286.327	2576.82
290.416	4447.16
294.502	8229.39
298.586	14796.6
302.668	19721.5
306.749	16708.7
310.827	9435.32
314.903	4891.82
318.978	2644.51
323.051	1520.96
327.121	895.104
331.19	605.301
335.257	439.35
339.322	340.147
343.385	278.331
347.446	270.294
351.505	223.189
355.563	174.694
359.618	136.206
363.672	98.971
367.723	119.496
371.773	21.825
375.821	35.337
379.866	55.848
383.91	0.231
387.952	49.683
391.992	2.117
396.031	10.609
400.067	0.611
404.101	15.529
408.134	15.347
412.165	7.387
416.193	9.862
420.22	32.303
424.245	5.735
428.268	9.969
432.289	38.139
436.309	9.707
440.326	69.616
444.342	53.993
448.355	38.743
452.367	59.566
456.377	14.714
460.385	11.226
464.391	18.828
468.395	8.512
472.398	90.771
476.398	20.041
480.397	29.259
484.394	40.393
488.389	10.555
492.382	12.388
496.373	59.235
500.362	1.985
504.349	26.772
508.335	5.547
512.319	49.57
516.3	59.505
520.28	87.272
524.259	52.28
528.235	66.581
532.209	44.26
536.182	40.689
540.152	54.969
544.121	78.305
548.088	54.965
552.053	55.653
556.017	102.155
559.978	62.317
563.938	82.86
567.895	140.745
571.851	74.115
575.805	3.298
579.758	59.153
583.708	104.418
587.657	68.65
591.603	47.525
595.548	86.654
599.491	151.98
603.432	123.334
607.372	75.401
611.309	83.388
615.245	138.536
619.179	166.976
623.111	229.141
627.041	264.393
630.97	189.592
634.896	95.037
638.821	140.806
642.744	168.655
646.665	214.583
650.584	188.677
654.502	181.091
658.418	137.927
662.331	19.78
666.244	21.415
670.154	15.253
674.062	34.127
677.969	16.845
681.874	27.01
685.777	63.619
689.678	23.498
693.577	68.372
697.475	26.162
701.371	45.969
705.265	59.35
709.157	33.697
713.047	8.185
716.936	72.518
720.823	225.825
724.708	613.789
728.591	2099.96
732.472	1299.36
736.352	404.36
740.23	166.451
744.106	165.403
747.98	112.216
751.853	10.116
755.723	20.942
759.592	11.684
763.459	4.283
767.325	26.094
771.188	32.447
775.05	70.865
778.91	10.501
782.768	41.523
786.625	13.476
790.479	53.053
794.332	3.377
798.183	18.779
802.033	16.015
805.88	8.679
809.726	41.331
813.57	35.942
817.413	14.056
821.253	33.41
825.092	40.232
828.929	74.311
832.764	86.659
836.598	132.389
840.429	160.756
844.259	123.887
848.088	193.648
851.914	185.326
855.739	258.283
859.562	304.358
863.383	269.957
867.203	189.434
871.02	117.283
874.836	92.897
878.65	115.221
882.463	95.541
886.274	107.862
890.083	109.188
893.89	124.513
897.695	177.841
901.499	129.019
905.301	123.02
909.102	102.049
912.9	93.705
916.697	51.655
920.492	82.567
924.285	87.872
928.077	36.266
931.867	51.334
935.655	12.972
939.442	0.233
943.226	55.938
947.009	25.901
950.791	42.848
954.57	93.225
958.348	30.982
962.124	24.876
965.899	50.819
969.671	32.717
973.442	11.75
977.211	4.815
980.979	2.089
984.745	60.03
988.509	103.184
992.271	60.404
996.032	101.744
999.791	364.135
1003.55	285.637
1007.3	129.884
1011.06	148.653
1014.81	142.173
1018.56	266.812
1022.31	353.39
1026.06	382.102
1029.8	420.719
1033.55	499.507
1037.29	611.309
1041.03	632.015
1044.77	760.868
1048.5	902.026
1052.24	1065.23
1055.97	1104.75
1059.7	1191.78
1063.43	1426.29
1067.16	1882.87
1070.89	2416.51
1074.61	3201.82
1078.34	5220.07
1082.06	8900.68
1085.78	17501.4
1089.5	37423.6
1093.21	54634.9
1096.93	30920
1100.64	11955.4
1104.35	5448.92
1108.06	2888.14
1111.77	1643.51
1115.48	1123.35
1119.18	704.546
1122.89	701.576
1126.59	389.612
1130.29	334.586
1133.99	181.033
1137.68	215.026
1141.38	107.532
1145.07	129.548
1148.76	94.031
1152.45	24.658
1156.14	17.869
1159.83	73.268
1163.51	84.018
1167.19	78.666
1170.88	40.281
1174.56	80.86
1178.23	56.402
1181.91	72.908
1185.59	88.396
1189.26	118.005
1192.93	4.331
1196.6	41.018
1200.27	8.646
1203.94	33.133
1207.6	50.734
1211.27	14.836
1214.93	81.006
1218.59	85.758
1222.25	7.551
1225.9	104.011
1229.56	10.51
1233.21	30.834
1236.86	148.056
1240.51	84.226
1244.16	25.672
1247.81	6.341
1251.45	66.286
1255.1	20.157
1258.74	154.978
1262.38	59.729
1266.02	125.408
1269.66	107.033
1273.29	98.606
1276.93	191.127
1280.56	116.604
1284.19	96.033
1287.82	90.411
1291.45	83.644
1295.07	143.786
1298.7	124.182
1302.32	27.802
1305.94	34.685
1309.56	108.593
1313.18	50.37
1316.8	127.192
1320.41	147.86
1324.02	136.604
1327.63	44.159
1331.24	89.68
1334.85	18.719
1338.46	52.493
1342.06	27.817
1345.67	6.754
1349.27	10.351
1352.87	71.218
1356.47	40.309
1360.07	71.768
1363.66	83.143
1367.25	102.25
1370.85	157.365
1374.44	193.358
1378.03	178.301
1381.61	311.353
1385.2	511.296
1388.78	637.231
1392.37	619.436
1395.95	846.968
1399.53	1644.21
1403.1	3737.52
1406.68	10713.6
1410.26	10786
1413.83	4132.14
1417.4	1715.64
1420.97	954.71
1424.54	627.73
1428.1	487.666
1431.67	476.365
1435.23	551.306
1438.8	553.744
1442.36	654.312
1445.91	770.943
1449.47	735.756
1453.03	788.742
1456.58	857.84
1460.13	892.02
1463.68	766.355
1467.23	509.695
1470.78	567.092
1474.33	425.556
1477.87	288.064
1481.42	360.198
1484.96	358.987
1488.5	276.173
1492.04	122.782
1495.57	142.902
1499.11	74.687
1502.64	54.388
1506.17	47.223
1509.71	1.587
1513.23	50.461
1516.76	36.751
1520.29	49.727
1523.81	46.975
