Measurement: Raman, 514 nm, ccw, Raman Data Processed
Mineral: Smithsonite
Rruff sample: R040051
Ideal chemistry: ZnCO_3_
Locality: Berg Aukas mine, Grootfontein, Namibia
Source: University of Arizona Mineral Museum
Description: Yellowish brown botryoidal groups
Measured chemistry: (Zn_0.94_Ca_0.02_Mg_0.02_)C_1.01_O_3_
Pin_id: M00015
Orientation: Laser parallel to c* (0 0 1). Fiducial mark perpendicular to laser is parallel to a [1 0 0]
Raman shift (cm-1)	intensity
97.554	0
101.732	73.164
105.908	106.485
110.082	100.573
114.254	190.865
118.424	133.821
122.592	169.065
126.758	90.742
130.922	49.291
135.083	117.32
139.243	29.569
143.401	99.854
147.557	92.953
151.711	69.747
155.863	53.149
160.013	174.08
164.161	194.466
168.308	291.236
172.452	421.334
176.594	592.345
180.734	750.997
184.872	1403.2
189.008	2644.39
193.143	4754.74
197.275	4526.33
201.405	2118.11
205.534	893.051
209.66	431.235
213.784	193.502
217.907	121.909
222.027	93.421
226.146	63.962
230.263	134.526
234.377	78.114
238.49	195.716
242.601	79.332
246.709	75.024
250.816	149.71
254.921	274.663
259.024	224.945
263.125	357.119
267.224	442.036
271.321	587.347
275.416	715.477
279.51	953.099
283.601	1446.02
287.69	2245.92
291.778	3769.58
295.863	6787.39
299.947	10817.1
304.029	13018.8
308.108	10831.4
312.186	6347.04
316.262	3414.77
320.336	1896.96
324.408	1099.66
328.478	780.652
332.546	516.347
336.612	463.637
340.677	359.395
344.739	236.107
348.799	198.953
352.858	214.578
356.915	109.185
360.969	166.094
365.022	94.772
369.073	86.356
373.122	105.083
377.169	128.457
381.215	45.832
385.258	37.673
389.299	55.796
393.339	80.265
397.376	50.58
401.412	31.263
405.446	22.726
409.478	57.257
413.508	5.255
417.536	20.398
421.562	36.851
425.586	35.655
429.609	78.9
433.629	37.148
437.648	28.292
441.665	5.381
445.68	9.315
449.693	32.825
453.704	24.104
457.713	2.569
461.721	26.025
465.726	0.607
469.73	83.64
473.731	8.261
477.731	13.279
481.729	51.549
485.725	12.328
489.72	9.016
493.712	66.587
497.703	34.047
501.691	53.425
505.678	38.339
509.663	47.593
513.646	115.869
517.627	92.103
521.607	99.293
525.584	58.146
529.56	83.254
533.534	114.909
537.506	104.619
541.476	102.365
545.444	9.184
549.41	80.628
553.375	63.366
557.337	139.143
561.298	91.688
565.257	127.57
569.214	121.944
573.17	60.18
577.123	49.127
581.075	51.272
585.024	131.795
588.972	140.243
592.918	133.635
596.863	88.669
600.805	141.533
604.746	107.686
608.685	172.955
612.621	73.766
616.557	194.258
620.49	158.852
624.421	273.641
628.351	246.08
632.279	81.958
636.205	151.649
640.129	254.766
644.051	262.007
647.972	230.181
651.89	257.64
655.807	114.335
659.722	92.005
663.636	63.928
667.547	94.684
671.457	7.503
675.365	14.025
679.271	76.091
683.175	85.085
687.077	3.261
690.978	44.084
694.877	21.058
698.774	112.862
702.669	52.855
706.562	123.691
710.454	51.863
714.344	207.286
718.232	375.499
722.118	507.278
726.002	1726.41
729.885	3989.18
733.766	1553.74
737.645	505.604
741.522	301.656
745.397	233.647
749.271	116.196
753.143	63.34
757.013	25.857
760.881	80.936
764.748	43.359
768.613	91.168
772.476	93.768
776.337	6.678
780.196	38.811
784.054	19.733
787.91	23.642
791.764	68.008
795.616	29.729
799.467	72.399
803.316	111.477
807.163	106.451
811.008	25.694
814.851	65.036
818.693	134.365
822.533	49.893
826.371	69.594
830.208	145.304
834.042	177.216
837.875	144.732
841.706	185.749
845.536	91.069
849.363	187.1
853.189	265.087
857.013	221.945
860.836	285.627
864.656	187.236
868.475	182.05
872.292	111.936
876.108	37.88
879.922	126.857
883.733	115.869
887.544	117.904
891.352	159.959
895.159	127.034
898.964	119.219
902.767	175.429
906.568	208.67
910.368	177.568
914.166	134.555
917.962	169.734
921.757	42.033
925.55	97.469
929.341	131.907
933.13	0.275
936.918	217.038
940.703	156.726
944.488	42.131
948.27	54.524
952.051	46.183
955.83	136.808
959.607	53.014
963.383	112.196
967.156	74.131
970.928	83.113
974.699	60.119
978.468	77.319
982.234	153.594
986	151.927
989.763	87.305
993.525	127.75
997.285	189.246
1001.04	348.81
1004.8	217.193
1008.55	208.783
1012.31	265.251
1016.06	224.172
1019.81	291.818
1023.56	441.703
1027.31	382.426
1031.05	434.328
1034.79	459.303
1038.53	653.695
1042.27	645.65
1046.01	789.926
1049.75	846.358
1053.48	1034.34
1057.22	1100.44
1060.95	1281.5
1064.68	1566.06
1068.4	1997.63
1072.13	2582.41
1075.86	3811.02
1079.58	6213.71
1083.3	11204.2
1087.02	22523.4
1090.74	45956.6
1094.45	46537.3
1098.17	21088.7
1101.88	9096.67
1105.59	4642.16
1109.3	2771.98
1113.01	1755.01
1116.71	1160.3
1120.42	788.079
1124.12	634.354
1127.82	310.597
1131.52	401.949
1135.22	243.313
1138.91	157.185
1142.61	129.403
1146.3	33.41
1149.99	36.551
1153.68	15.248
1157.37	13.087
1161.06	46.329
1164.74	22.705
1168.42	39.836
1172.1	27.875
1175.78	140.177
1179.46	71.104
1183.14	50.199
1186.81	83.49
1190.48	101.75
1194.15	58.008
1197.83	18.817
1201.49	37.851
1205.16	40.031
1208.82	116.47
1212.49	1.737
1216.15	54.802
1219.81	72.594
1223.46	62.241
1227.12	34.597
1230.78	66.77
1234.43	128.814
1238.08	16.715
1241.73	96.512
1245.38	109.213
1249.03	88.749
1252.67	73.158
1256.31	16.452
1259.95	24.588
1263.6	68.596
1267.23	130.495
1270.87	232.266
1274.51	168.911
1278.14	148.449
1281.77	57.885
1285.4	138.156
1289.03	139.465
1292.66	120.746
1296.28	43.128
1299.91	172.895
1303.53	37.196
1307.15	91.241
1310.77	145.555
1314.38	171.854
1318	93.655
1321.61	96.165
1325.23	157.552
1328.84	16.521
1332.45	35.556
1336.06	65.55
1339.66	74.941
1343.27	43.82
1346.87	161.015
1350.47	57.649
1354.07	196.485
1357.67	205.679
1361.26	26.371
1364.86	44.28
1368.45	110.492
1372.04	141.509
1375.63	123.695
1379.22	214.858
1382.81	317.973
1386.39	290.004
1389.98	494.678
1393.56	522.061
1397.14	795.451
1400.72	1509.79
1404.3	3126.32
1407.87	5702.6
1411.45	3920.23
1415.02	1711.59
1418.59	1031.94
1422.16	646.064
1425.73	569.949
1429.29	382.723
1432.86	527.688
1436.42	600.98
1439.98	639.002
1443.54	700.374
1447.1	709.266
1450.66	780.577
1454.21	865.808
1457.77	900.895
1461.32	852.922
1464.87	601.673
1468.42	638.169
1471.96	505.484
1475.51	530.516
1479.06	343.246
1482.6	431.161
1486.14	254.491
1489.68	142.228
1493.22	262.551
1496.75	76.801
1500.29	145.521
1503.82	142.849
1507.35	145.123
1510.88	239.244
1514.41	2.798
1517.94	191.075
1521.46	0
