Measurement: Raman, 514 nm, ccw, Raman Data Processed
Mineral: Smithsonite
Rruff sample: R040051
Ideal chemistry: ZnCO_3_
Locality: Berg Aukas mine, Grootfontein, Namibia
Source: University of Arizona Mineral Museum
Description: Yellowish brown botryoidal groups
Measured chemistry: (Zn_0.94_Ca_0.02_Mg_0.02_)C_1.01_O_3_
Pin_id: M00001
Orientation: Laser parallel to -a* (-1 0 0). Fiducial mark perpendicular to laser is parallel to c [0 0 1]
Raman shift (cm-1)	intensity
87.798	0
91.981	96.786
96.161	123.944
100.34	111.647
104.516	3.007
108.691	179.085
112.864	90.247
117.034	42.709
121.203	229.177
125.369	209.706
129.534	258.729
133.696	83.975
137.857	101.084
142.016	30.847
146.172	37.762
150.327	14.436
154.48	47.751
158.63	127.436
162.779	78.913
166.926	24.615
171.07	43.864
175.213	40.034
179.354	44.603
183.493	82.676
187.63	45.977
191.765	153.27
195.898	161.685
200.029	140.191
204.158	78.395
208.285	59.114
212.41	18.523
216.533	32.418
220.654	6.329
224.773	27.972
228.891	39.474
233.006	42.674
237.119	12.203
241.231	45.355
245.34	106.663
249.448	55.257
253.553	111.05
257.657	203.374
261.758	115.692
265.858	298.623
269.956	364.267
274.052	350.339
278.146	475.077
282.237	675.709
286.327	993.93
290.416	1842.88
294.502	3414.25
298.586	6067.1
302.668	7648.36
306.749	6092.93
310.827	3583.05
314.903	1886.12
318.978	1031.1
323.051	615.934
327.121	425.376
331.19	315.777
335.257	224.955
339.322	285.227
343.385	226.36
347.446	252.778
351.505	189.077
355.563	110.109
359.618	171.439
363.672	126.64
367.723	155.024
371.773	127.712
375.821	146.029
379.866	120.595
383.91	164.506
387.952	176.516
391.992	160.24
396.031	172.522
400.067	6.605
404.101	49.946
408.134	10.768
412.165	29.488
416.193	25.615
420.22	33.245
424.245	83.169
428.268	42.427
432.289	143.494
436.309	42.396
440.326	12.161
444.342	61.8
448.355	89.334
452.367	90.771
456.377	40.118
460.385	93.384
464.391	22.589
468.395	47.752
472.398	125.879
476.398	59.023
480.397	62.176
484.394	94.326
488.389	28.419
492.382	81.462
496.373	39.497
500.362	127.496
504.349	91.471
508.335	130.394
512.319	38.938
516.3	96.529
520.28	146.091
524.259	114.57
528.235	137.268
532.209	113.902
536.182	27.58
540.152	55.439
544.121	139.145
548.088	155.647
552.053	112.042
556.017	97.01
559.978	133.524
563.938	97.128
567.895	180.048
571.851	168.673
575.805	103.707
579.758	153.949
583.708	182.183
587.657	267.194
591.603	120.338
595.548	304.436
599.491	277.988
603.432	299.09
607.372	226.424
611.309	228.991
615.245	361.775
619.179	558.547
623.111	834.926
627.041	817.213
630.97	582.777
634.896	275.144
638.821	422.336
642.744	520.473
646.665	654.336
650.584	551.286
654.502	583.921
658.418	264.7
662.331	165.951
666.244	53.295
670.154	76.69
674.062	34.136
677.969	40.467
681.874	18.694
685.777	7.223
689.678	10.615
693.577	28.946
697.475	23.053
701.371	5.9
705.265	55.804
709.157	36.512
713.047	20.674
716.936	42.27
720.823	9.399
724.708	102.101
728.591	318.738
732.472	198.257
736.352	120.674
740.23	48.119
744.106	156.491
747.98	103.796
751.853	16.97
755.723	4.843
759.592	12.195
763.459	46.155
767.325	50.043
771.188	34.866
775.05	52.632
778.91	25.654
782.768	71.965
786.625	62.532
790.479	98.052
794.332	99.528
798.183	119.962
802.033	92.358
805.88	148.717
809.726	68.041
813.57	118.331
817.413	119.578
821.253	212.594
825.092	287.185
828.929	320.794
832.764	209.448
836.598	299.685
840.429	451.465
844.259	521.558
848.088	439.849
851.914	504.444
855.739	787.088
859.562	933.941
863.383	750.182
867.203	548.93
871.02	401.008
874.836	320.827
878.65	413.027
882.463	304.541
886.274	253.085
890.083	266.665
893.89	437.18
897.695	405.892
901.499	356.564
905.301	207.97
909.102	264.165
912.9	215.534
916.697	78.701
920.492	67.485
924.285	109.589
928.077	67.029
931.867	118.9
935.655	108.357
939.442	135.947
943.226	85.632
947.009	81.37
950.791	175.162
954.57	173.007
958.348	56.906
962.124	59.861
965.899	92.87
969.671	80.935
973.442	19.944
977.211	14.231
980.979	24.527
984.745	95.759
988.509	180.095
992.271	115.101
996.032	193.663
999.791	874.188
1003.55	760.448
1007.3	143.176
1011.06	251.624
1014.81	249.659
1018.56	367.07
1022.31	489.539
1026.06	590.161
1029.8	563.875
1033.55	552.586
1037.29	571.296
1041.03	652.042
1044.77	798.887
1048.5	1004.84
1052.24	995.507
1055.97	1139.56
1059.7	1110.65
1063.43	1470.5
1067.16	1903.9
1070.89	2271.1
1074.61	3195.74
1078.34	4989.08
1082.06	8603.75
1085.78	16582.9
1089.5	34891.1
1093.21	50755.3
1096.93	28395.5
1100.64	10949.6
1104.35	4993.82
1108.06	2533.99
1111.77	1529.15
1115.48	988.296
1119.18	679.435
1122.89	624.318
1126.59	475.432
1130.29	297.058
1133.99	227.23
1137.68	220.295
1141.38	39.31
1145.07	73.29
1148.76	12.781
1152.45	7.963
1156.14	24.537
1159.83	50.022
1163.51	21.377
1167.19	127.669
1170.88	90.921
1174.56	204.119
1178.23	154.254
1181.91	123.343
1185.59	66.386
1189.26	122.48
1192.93	74.458
1196.6	5.659
1200.27	26.409
1203.94	84.167
1207.6	53.977
1211.27	43.039
1214.93	38.879
1218.59	73.74
1222.25	62.475
1225.9	57.096
1229.56	66.619
1233.21	106.112
1236.86	258.579
1240.51	297.002
1244.16	207.372
1247.81	124.688
1251.45	180.949
1255.1	154.155
1258.74	189.304
1262.38	221.396
1266.02	326.429
1269.66	267.405
1273.29	401.331
1276.93	363.209
1280.56	217.05
1284.19	187.845
1287.82	249.015
1291.45	274.688
1295.07	346.269
1298.7	253.321
1302.32	244.947
1305.94	257.854
1309.56	422.246
1313.18	293.499
1316.8	338.728
1320.41	358.886
1324.02	355.986
1327.63	218.109
1331.24	129.256
1334.85	15.391
1338.46	22.013
1342.06	31.089
1345.67	8.33
1349.27	44.215
1352.87	34.667
1356.47	33.002
1360.07	58.164
1363.66	79.249
1367.25	143.761
1370.85	250.429
1374.44	280.005
1378.03	299.159
1381.61	376.986
1385.2	569.005
1388.78	871.987
1392.37	743.896
1395.95	1093.73
1399.53	1837.49
1403.1	4571.18
1406.68	12673.8
1410.26	13548.4
1413.83	5041.18
1417.4	1987.18
1420.97	1254.29
1424.54	865.397
1428.1	666.523
1431.67	678.328
1435.23	829.644
1438.8	892.641
1442.36	1104.12
1445.91	1319.81
1449.47	1228.8
1453.03	1391.77
1456.58	1398.69
1460.13	1424.7
1463.68	1212.82
1467.23	968.11
1470.78	850.589
1474.33	686.247
1477.87	608.102
1481.42	614.53
1484.96	513.337
1488.5	399.85
1492.04	231.04
1495.57	192.122
1499.11	135.368
1502.64	17.179
1506.17	1.007
1509.71	37.193
1513.23	35.723
1516.76	14.303
1520.29	144.903
1523.81	71.676
