Measurement: Raman, 514 nm, ccw, Raman Data Processed
Mineral: Smithsonite
Rruff sample: R040051
Ideal chemistry: ZnCO_3_
Locality: Berg Aukas mine, Grootfontein, Namibia
Source: University of Arizona Mineral Museum
Description: Yellowish brown botryoidal groups
Measured chemistry: (Zn_0.94_Ca_0.02_Mg_0.02_)C_1.01_O_3_
Pin_id: M00015
Orientation: Laser parallel to c* (0 0 1). Fiducial mark perpendicular to laser is parallel to a [1 0 0]
Raman shift (cm-1)	intensity
100.34	0
104.516	13.381
108.691	73.41
112.864	113.799
117.034	172.049
121.203	131.308
125.369	83.06
129.534	99.381
133.696	84.667
137.857	77.498
142.016	4.595
146.172	49.746
150.327	160.759
154.48	119.505
158.63	141.866
162.779	184.971
166.926	276.134
171.07	415.895
175.213	478.998
179.354	719.561
183.493	1214.53
187.63	2226.61
191.765	4183.87
195.898	5392.38
200.029	2877.11
204.158	1258.01
208.285	567.993
212.41	371.055
216.533	225.323
220.654	103.768
224.773	107.328
228.891	87.919
233.006	103.508
237.119	28.1
241.231	64.923
245.34	113.535
249.448	79.177
253.553	89.335
257.657	197.798
261.758	174.629
265.858	250.632
269.956	384.98
274.052	436.462
278.146	618.525
282.237	883.026
286.327	1360.76
290.416	2326.91
294.502	4071.32
298.586	6956.85
302.668	9428.09
306.749	8529.28
310.827	5376.49
314.903	2989.45
318.978	1590.82
323.051	995.108
327.121	607.438
331.19	483.797
335.257	295.151
339.322	216.049
343.385	243.888
347.446	180.167
351.505	190.548
355.563	129.788
359.618	94.289
363.672	118.533
367.723	55.927
371.773	23.479
375.821	2.875
379.866	12.053
383.91	27.111
387.952	109.907
391.992	87.308
396.031	130.647
400.067	21.293
404.101	135.767
408.134	24.643
412.165	47.284
416.193	11.208
420.22	4.714
424.245	2.062
428.268	9.23
432.289	34.242
436.309	22.722
440.326	17.941
444.342	24.308
448.355	12.907
452.367	52.361
456.377	27.736
460.385	1.286
464.391	16.41
468.395	118.304
472.398	60.909
476.398	106.395
480.397	23.761
484.394	119.989
488.389	35.081
492.382	100.984
496.373	42.724
500.362	28.565
504.349	130.489
508.335	81.122
512.319	87.105
516.3	199.848
520.28	124.393
524.259	81.642
528.235	55.664
532.209	101.689
536.182	142.197
540.152	68.194
544.121	42.823
548.088	72.882
552.053	148.88
556.017	112.649
559.978	102.643
563.938	114.766
567.895	128.29
571.851	51.805
575.805	118.357
579.758	216.599
583.708	124.866
587.657	159.225
591.603	112.591
595.548	178.396
599.491	114.369
603.432	188.612
607.372	139.444
611.309	133.017
615.245	258.907
619.179	265.365
623.111	281.042
627.041	338.859
630.97	342.479
634.896	180.865
638.821	173.66
642.744	296.964
646.665	303.524
650.584	260.566
654.502	248.149
658.418	190.996
662.331	67.672
666.244	121.281
670.154	65.373
674.062	148.47
677.969	12.07
681.874	87.61
685.777	44.843
689.678	47.011
693.577	110.879
697.475	21.553
701.371	73.786
705.265	146.039
709.157	173.192
713.047	100.964
716.936	234.902
720.823	466.751
724.708	1098.61
728.591	3259.02
732.472	2075.8
736.352	687.44
740.23	305.049
744.106	245.505
747.98	162.934
751.853	2.375
755.723	86.706
759.592	97.581
763.459	9.558
767.325	16.88
771.188	52.905
775.05	86.112
778.91	42.234
782.768	28.319
786.625	2.65
790.479	27.324
794.332	116.244
798.183	62.87
802.033	28.118
805.88	97.606
809.726	64.3
813.57	47.302
817.413	3.782
821.253	96.67
825.092	110.161
828.929	185.159
832.764	54.605
836.598	118.256
840.429	191.123
844.259	158.447
848.088	87.965
851.914	158.536
855.739	271.774
859.562	345.537
863.383	284.785
867.203	266.121
871.02	245.778
874.836	110.454
878.65	140.149
882.463	142.88
886.274	154.687
890.083	109.526
893.89	161.413
897.695	169.329
901.499	138.316
905.301	130.729
909.102	123.813
912.9	67.96
916.697	8.94
920.492	122.054
924.285	121.129
928.077	104.707
931.867	86.121
935.655	91.517
939.442	32.641
943.226	112.022
947.009	117.95
950.791	96.613
954.57	98.03
958.348	52.687
962.124	30.524
965.899	179.424
969.671	14.702
973.442	42.725
977.211	63.799
980.979	33.924
984.745	99.108
988.509	139.346
992.271	24.399
996.032	78.271
999.791	350.882
1003.55	247.748
1007.3	171.04
1011.06	184.818
1014.81	194.013
1018.56	376.725
1022.31	294.881
1026.06	608.966
1029.8	450.393
1033.55	536.282
1037.29	560.482
1041.03	546.001
1044.77	705.592
1048.5	880.076
1052.24	876.819
1055.97	903.001
1059.7	1019.74
1063.43	1388.61
1067.16	1835.53
1070.89	2241.82
1074.61	3051.18
1078.34	4951.79
1082.06	8399.39
1085.78	16020.4
1089.5	34228.5
1093.21	46723.8
1096.93	25571.5
1100.64	10591.8
1104.35	5356.66
1108.06	2862.08
1111.77	1721.08
1115.48	1174.2
1119.18	724.684
1122.89	581.073
1126.59	375.558
1130.29	262.828
1133.99	118.533
1137.68	234.167
1141.38	31.168
1145.07	59.369
1148.76	53.648
1152.45	55.82
1156.14	50.012
1159.83	127.595
1163.51	105.158
1167.19	185.582
1170.88	95.226
1174.56	44.932
1178.23	110.316
1181.91	130.313
1185.59	4.576
1189.26	89.186
1192.93	65.194
1196.6	27.295
1200.27	3.468
1203.94	81.069
1207.6	21.878
1211.27	49.818
1214.93	85.469
1218.59	39.108
1222.25	11.928
1225.9	71.668
1229.56	124.966
1233.21	64.878
1236.86	156.6
1240.51	193.205
1244.16	129.692
1247.81	40.005
1251.45	188.171
1255.1	133.203
1258.74	129.074
1262.38	145.774
1266.02	98.306
1269.66	68.678
1273.29	138.887
1276.93	60.926
1280.56	81.786
1284.19	140.3
1287.82	101.49
1291.45	59.332
1295.07	136.045
1298.7	108.328
1302.32	102.883
1305.94	66.032
1309.56	174.529
1313.18	0.619
1316.8	199.644
1320.41	47.701
1324.02	88.543
1327.63	99.369
1331.24	211.312
1334.85	10.342
1338.46	21.192
1342.06	94.99
1345.67	32.871
1349.27	14.444
1352.87	161.077
1356.47	87.489
1360.07	200.982
1363.66	80.211
1367.25	251.605
1370.85	162.437
1374.44	332.668
1378.03	186.599
1381.61	265.089
1385.2	308.099
1388.78	391.627
1392.37	462.509
1395.95	577.282
1399.53	963.038
1403.1	1952.49
1406.68	4159.46
1410.26	3879.93
1413.83	1859.12
1417.4	829.787
1420.97	617.422
1424.54	483.098
1428.1	435.908
1431.67	407.479
1435.23	426.304
1438.8	628.123
1442.36	760.614
1445.91	759.345
1449.47	786.174
1453.03	728.688
1456.58	894.918
1460.13	1055.76
1463.68	857.199
1467.23	521.298
1470.78	546.093
1474.33	545.804
1477.87	471.078
1481.42	323.965
1484.96	545.867
1488.5	267.283
1492.04	292.58
1495.57	226.359
1499.11	52.803
1502.64	118.433
1506.17	21.938
1509.71	36.641
1513.23	82.437
1516.76	0.691
