Measurement: Raman, 514 nm, ccw, Raman Data Processed
Mineral: Sodalite
Rruff sample: R040141
Ideal chemistry: Na_4_Si_3_Al_3_O_12_Cl
Locality: Princess Sodalite mine, Bancroft, Ontario, Canada
Source: University of Arizona Mineral Museum
Description: Blue grains in a coarsely crystalline rock
Measured chemistry: Na_7.86_Al_6.00_Si_6.03_O_24_Cl_2.02_
Pin_id: L00469
Orientation: Laser parallel to -a* (-1 0 0). Fiducial mark perpendicular to laser is parallel to -b [0 -1 0]
Raman shift (cm-1)	intensity
55.278	0
59.46	173.76
63.641	519.144
67.819	569.851
71.996	8.241
76.17	282.117
80.343	682.042
84.514	103.173
88.683	207.36
92.85	118.89
97.015	189.142
101.178	333.469
105.34	208.631
109.499	410.617
113.656	912.956
117.812	1150.78
121.966	433.926
126.117	134.232
130.267	228.798
134.415	420.242
138.561	235.743
142.705	210.802
146.847	164.98
150.988	243.416
155.126	164.513
159.262	487.93
163.397	1509.45
167.53	3162.9
171.66	3003.27
175.789	1629.35
179.916	954.91
184.042	572.722
188.165	226.717
192.286	91.119
196.406	3.214
200.523	29.973
204.639	59.456
208.753	48.52
212.864	59.694
216.974	51.299
221.083	2.485
225.189	35.012
229.293	232.6
233.396	493.124
237.496	680.056
241.595	700.125
245.692	841.336
249.787	1272.65
253.88	1967.05
257.972	3239.87
262.061	4834.35
266.149	5869.03
270.234	5208.31
274.318	3726.8
278.4	2551.95
282.48	1951.66
286.558	1757.92
290.635	2024.15
294.709	2771
298.782	2877.94
302.853	1700.2
306.922	941.369
310.989	699.317
315.054	607.871
319.118	585.516
323.179	541.297
327.239	559.042
331.297	538.671
335.353	559.181
339.407	535.574
343.459	523.855
347.51	651.997
351.559	509.812
355.605	527.516
359.65	513.303
363.694	497.03
367.735	491.786
371.774	547.72
375.812	522.831
379.848	416.592
383.882	358.456
387.914	342.804
391.944	377.724
395.973	365.703
400	465.121
404.025	498.602
408.048	622.794
412.069	975.215
416.088	821.669
420.106	735.209
424.122	761.138
428.136	904.6
432.148	1041.96
436.158	1201.83
440.167	1417.46
444.173	1952.48
448.178	2898.47
452.181	4434.3
456.183	7899.44
460.182	16442.2
464.18	30741.9
468.176	30940.8
472.17	16980.1
476.162	8659.36
480.152	4875.72
484.141	3198.79
488.128	2425.63
492.113	1959.16
496.096	1577.52
500.078	1429.9
504.058	993.157
508.035	754.445
512.012	687.774
515.986	585.189
519.958	530.77
523.929	500.729
527.898	457.672
531.865	386.109
535.831	306.885
539.794	220.997
543.756	218.385
547.716	205.96
551.674	158.62
555.631	122.307
559.586	88.991
563.539	94.666
567.49	2.319
571.439	5.075
575.387	35.533
579.333	20.105
583.277	12.006
587.219	10.49
591.16	19.725
595.099	48.057
599.036	42.913
602.971	5.881
606.904	69.094
610.836	47.059
614.766	49.149
618.694	26.177
622.621	3.855
626.546	3.093
630.468	14.321
634.39	21.289
638.309	44.024
642.227	3.875
646.143	30.785
650.057	41.005
653.969	50.84
657.88	91.772
661.789	116.071
665.696	109.166
669.602	149.347
673.506	181.989
677.408	177.321
681.308	244
685.206	190.212
689.103	194.884
692.998	183.697
696.892	199.46
700.783	227.824
704.673	204.29
708.561	224.02
712.447	272.57
716.332	256.024
720.215	270.259
724.096	287.176
727.976	274.761
731.854	382.97
735.73	555.757
739.604	463.467
743.476	383.071
747.347	300
751.216	184.835
755.084	172.311
758.95	100.325
762.814	126.544
766.676	56.752
770.536	45.63
774.395	9.69
778.252	70.444
782.108	80.504
785.962	51.023
789.814	29.492
793.664	36.909
797.513	48.269
801.359	9.116
805.205	41.008
809.048	14.904
812.89	38.285
816.73	69.407
820.569	43.945
824.405	24.357
828.24	20.614
832.074	18.721
835.905	11.707
839.735	1.424
843.563	12.292
847.39	2.111
851.215	37.386
855.038	3.785
858.859	26.081
862.679	54.304
866.497	80.464
870.314	101.564
874.128	69.604
877.942	54.602
881.753	87.569
885.563	51.522
889.371	38.476
893.177	18.404
896.982	13.305
900.785	1.144
904.586	3.108
908.386	6.388
912.184	10.691
915.98	16.961
919.775	77.518
923.568	18.921
927.359	23.922
931.148	101.957
934.936	105.374
938.723	139.39
942.507	178.584
946.29	216.077
950.072	283.396
953.851	321.177
957.629	421.313
961.406	747.276
965.18	1332.35
968.953	1657.11
972.725	1762.8
976.495	1774.35
980.263	2353.48
984.029	5776.89
987.794	12114.9
991.557	7149.86
995.318	2623.44
999.078	1235.87
1002.84	773.442
1006.59	550.52
1010.35	564.943
1014.1	619.979
1017.85	401.108
1021.6	224.293
1025.35	227.553
1029.1	141.866
1032.84	241.225
1036.59	278.65
1040.33	250.091
1044.07	354.642
1047.81	445.336
1051.54	694.983
1055.28	1230.38
1059.01	2149.64
1062.74	2576.16
1066.47	2519.78
1070.2	2034.45
1073.93	1348.2
1077.66	831.983
1081.38	653.814
1085.1	438.672
1088.82	385.448
1092.54	353.244
1096.26	275.31
1099.97	279.475
1103.69	194.56
1107.4	210.731
1111.11	212.904
1114.82	141.458
1118.53	169.093
1122.24	138.585
1125.94	152.789
1129.64	143.824
1133.34	91.31
1137.04	108.642
1140.74	132.541
1144.44	196.281
1148.13	106.333
1151.83	155.561
1155.52	156.437
1159.21	143.646
1162.9	144.646
1166.58	123.524
1170.27	107.812
1173.95	121.46
1177.63	162.022
1181.32	158.646
1184.99	104.255
1188.67	120.452
1192.35	89.487
1196.02	79.254
1199.69	88.161
1203.36	126.873
1207.03	129.778
1210.7	68.512
1214.37	63.3
1218.03	41.887
1221.69	36.77
1225.36	34.429
1229.02	73.899
1232.67	128.333
1236.33	108.73
1239.99	49.083
1243.64	36.236
1247.29	33.635
1250.94	72.746
1254.59	84.618
1258.24	31.299
1261.88	54.725
1265.53	72.903
1269.17	21.855
1272.81	17.588
1276.45	39.108
1280.09	1.502
1283.72	34.234
1287.36	51.132
1290.99	1.756
1294.62	6.542
1298.25	37.977
1301.88	40.301
1305.51	22.402
1309.13	22.262
1312.76	21.071
1316.38	33.585
1320	14.268
1323.62	9.097
1327.24	6.077
1330.85	6.214
1334.47	75.519
1338.08	141.154
1341.69	94.722
1345.3	107.243
1348.91	76.748
1352.52	66.311
1356.12	79.549
1359.72	94.72
1363.33	40.187
1366.93	122.479
1370.53	103.837
1374.12	117.511
1377.72	121.086
1381.31	182.422
1384.9	95.161
1388.5	129.44
1392.09	155.716
1395.67	129.065
1399.26	149.238
1402.85	119.327
1406.43	168.135
1410.01	179.32
1413.59	132.855
1417.17	125.141
1420.75	100.727
1424.32	119.424
1427.9	148.483
1431.47	56.369
1435.04	53.17
1438.61	74.612
1442.18	121.539
1445.75	112.512
1449.31	183.138
1452.88	117.356
1456.44	165.813
1460	95.296
1463.56	64.178
1467.12	158.964
1470.67	56.902
1474.23	51.372
1477.78	85.913
1481.33	51.524
1484.88	80.259
1488.43	85.86
1491.98	76.207
1495.52	75.13
1499.07	71.845
