Measurement: Raman, 514 nm, ccw, Raman Data Processed
Mineral: Sodalite
Rruff sample: R040141
Ideal chemistry: Na_4_Si_3_Al_3_O_12_Cl
Locality: Princess Sodalite mine, Bancroft, Ontario, Canada
Source: University of Arizona Mineral Museum
Description: Blue grains in a coarsely crystalline rock
Measured chemistry: Na_7.86_Al_6.00_Si_6.03_O_24_Cl_2.02_
Pin_id: L00469
Orientation: Laser parallel to -a* (-1 0 0). Fiducial mark perpendicular to laser is parallel to -b [0 -1 0]
Raman shift (cm-1)	intensity
55.278	0
59.46	176.735
63.641	1036.37
67.819	1168.36
71.996	294.271
76.17	230.047
80.343	251.667
84.514	28.954
88.683	41.439
92.85	85.75
97.015	271.918
101.178	395.001
105.34	300.193
109.499	458.752
113.656	914.416
117.812	807.233
121.966	334.254
126.117	212.652
130.267	265.06
134.415	429.264
138.561	271.56
142.705	269.976
146.847	248.053
150.988	362.056
155.126	265.137
159.262	597.901
163.397	1706.76
167.53	3431.62
171.66	3135.46
175.789	1589.08
179.916	974.297
184.042	545.926
188.165	270.02
192.286	68.747
196.406	28.267
200.523	36.404
204.639	55.387
208.753	25.627
212.864	30.913
216.974	11.464
221.083	8.068
225.189	97.056
229.293	300.812
233.396	501.094
237.496	638.664
241.595	693.306
245.692	883.429
249.787	1386.18
253.88	2098.66
257.972	3351.74
262.061	5083.8
266.149	6135.25
270.234	5357.52
274.318	3714.87
278.4	2564.38
282.48	1888.55
286.558	1746.88
290.635	2016.81
294.709	2771.32
298.782	2642.63
302.853	1454.54
306.922	864.13
310.989	629.677
315.054	661.942
319.118	612.965
323.179	631.137
327.239	647.826
331.297	678.472
335.353	610.052
339.407	661.566
343.459	641.019
347.51	599.417
351.559	588.159
355.605	569.143
359.65	565.804
363.694	468.564
367.735	485.181
371.774	469.745
375.812	442.923
379.848	367.193
383.882	352.661
387.914	320.488
391.944	338.117
395.973	358.09
400	347.266
404.025	467.394
408.048	694.591
412.069	938.612
416.088	765.057
420.106	643.949
424.122	729.053
428.136	782.473
432.148	990.887
436.158	1145.23
440.167	1373.53
444.173	1818.05
448.178	2663.87
452.181	4398.3
456.183	8321.76
460.182	17950.7
464.18	33060.6
468.176	31753.2
472.17	16785.9
476.162	8426.51
480.152	4819.77
484.141	3070.11
488.128	2191.9
492.113	1764.86
496.096	1636.75
500.078	1612.68
504.058	1092.65
508.035	813.609
512.012	596.635
515.986	542.774
519.958	528.087
523.929	512.617
527.898	428.483
531.865	363.694
535.831	309.242
539.794	248.1
543.756	187.169
547.716	176.357
551.674	173.602
555.631	110.87
559.586	73.138
563.539	44.406
567.49	52.421
571.439	5.086
575.387	1.931
579.333	24.864
583.277	5.083
587.219	37.027
591.16	6.756
595.099	25.492
599.036	23.816
602.971	9.738
606.904	77.282
610.836	136.814
614.766	60.335
618.694	5.981
622.621	2.765
626.546	40.761
630.468	0.48
634.39	23.762
638.309	33.83
642.227	19.83
646.143	57.946
650.057	66.138
653.969	92.199
657.88	65.603
661.789	194.665
665.696	131.235
669.602	166.922
673.506	172.936
677.408	183.991
681.308	221.792
685.206	184.509
689.103	217.054
692.998	247.678
696.892	222.255
700.783	228.309
704.673	238.592
708.561	297.6
712.447	281.464
716.332	291.179
720.215	305.593
724.096	286.85
727.976	329.4
731.854	496.63
735.73	626.938
739.604	480.881
743.476	292.673
747.347	286.693
751.216	187.307
755.084	130.46
758.95	115.214
762.814	98.404
766.676	92.166
770.536	78.655
774.395	13.798
778.252	72.668
782.108	97.715
785.962	84.252
789.814	81.898
793.664	110.2
797.513	1010.28
801.359	9.037
805.205	32.62
809.048	44.615
812.89	2.311
816.73	50.67
820.569	35.535
824.405	38.216
828.24	4.27
832.074	9.91
835.905	7.478
839.735	1.737
843.563	8.921
847.39	15.357
851.215	32.242
855.038	16.684
858.859	40.042
862.679	50.331
866.497	52.556
870.314	96.719
874.128	42.824
877.942	63.876
881.753	77.884
885.563	39.903
889.371	65.904
893.177	14.086
896.982	22.12
900.785	30.812
904.586	23.689
908.386	10.561
912.184	26.413
915.98	14.185
919.775	61.919
923.568	47.599
927.359	50.461
931.148	57.958
934.936	107.027
938.723	135.656
942.507	200.243
946.29	274.689
950.072	287.637
953.851	300.656
957.629	493.574
961.406	828.883
965.18	1479.02
968.953	1841.34
972.725	2003.09
976.495	1910.76
980.263	2530.11
984.029	6424.04
987.794	12971.7
991.557	6979.61
995.318	2512.91
999.078	1194.5
1002.84	786.22
1006.59	563.307
1010.35	705.284
1014.1	718.456
1017.85	426.721
1021.6	274.113
1025.35	186.387
1029.1	175.078
1032.84	200.553
1036.59	234.18
1040.33	259.862
1044.07	372.582
1047.81	440.795
1051.54	745.569
1055.28	1421.7
1059.01	2217.33
1062.74	2359.18
1066.47	1882.92
1070.2	1386.78
1073.93	892.458
1077.66	610.409
1081.38	449.445
1085.1	376.422
1088.82	359.537
1092.54	287.602
1096.26	196.586
1099.97	221.801
1103.69	146.171
1107.4	196.447
1111.11	161.114
1114.82	197.524
1118.53	132.256
1122.24	139.209
1125.94	76.192
1129.64	124.013
1133.34	80.72
1137.04	114.449
1140.74	115.781
1144.44	143.495
1148.13	147.698
1151.83	118.484
1155.52	141.344
1159.21	96.138
1162.9	136.242
1166.58	103.748
1170.27	127.848
1173.95	135.228
1177.63	84.812
1181.32	67.987
1184.99	111.254
1188.67	86.29
1192.35	54.461
1196.02	109.374
1199.69	39.426
1203.36	99.642
1207.03	98.647
1210.7	136.361
1214.37	53.177
1218.03	90.912
1221.69	45.654
1225.36	99.264
1229.02	73.787
1232.67	75.235
1236.33	45.751
1239.99	95.106
1243.64	74.405
1247.29	7.629
1250.94	77.705
1254.59	56.623
1258.24	98.311
1261.88	52.799
1265.53	25.041
1269.17	44.024
1272.81	20.785
1276.45	3.316
1280.09	18.313
1283.72	10.104
1287.36	29.715
1290.99	30.164
1294.62	10.145
1298.25	31.335
1301.88	37.626
1305.51	8.28
1309.13	19.406
1312.76	16.229
1316.38	5.326
1320	7.938
1323.62	25.953
1327.24	7.039
1330.85	21.703
1334.47	99.792
1338.08	127.272
1341.69	163.643
1345.3	69.874
1348.91	39.01
1352.52	116.03
1356.12	62.086
1359.72	55.969
1363.33	96.01
1366.93	118.306
1370.53	116.187
1374.12	160.162
1377.72	112.451
1381.31	158.732
1384.9	147.302
1388.5	141.009
1392.09	232.906
1395.67	170.956
1399.26	132.447
1402.85	165.78
1406.43	228.736
1410.01	182.382
1413.59	113.857
1417.17	120.405
1420.75	95.769
1424.32	115.221
1427.9	0.485
1431.47	49.433
1435.04	60.861
1438.61	80.262
1442.18	140.263
1445.75	120.637
1449.31	168.28
1452.88	130.905
1456.44	164.146
1460	126.5
1463.56	97.73
1467.12	127.591
1470.67	57.451
1474.23	10.679
1477.78	72.564
1481.33	107.505
1484.88	59.955
1488.43	103.142
1491.98	63.902
1495.52	44.541
1499.07	45.26
1502.61	6.057
