Measurement: Raman, 514 nm, ccw, Raman Data Processed
Mineral: Sodalite
Rruff sample: R040141
Ideal chemistry: Na_4_Si_3_Al_3_O_12_Cl
Locality: Princess Sodalite mine, Bancroft, Ontario, Canada
Source: University of Arizona Mineral Museum
Description: Blue grains in a coarsely crystalline rock
Measured chemistry: Na_7.86_Al_6.00_Si_6.03_O_24_Cl_2.02_
Pin_id: L00469
Orientation: Laser parallel to -a* (-1 0 0). Fiducial mark perpendicular to laser is parallel to -b [0 -1 0]
Raman shift (cm-1)	intensity
73.388	0
77.562	778.834
81.734	717.497
85.904	502.005
90.072	251.937
94.239	260.112
98.403	295.563
102.566	146.111
106.726	1.695
110.885	276.732
115.042	763.102
119.197	631.82
123.35	75.167
127.501	61.941
131.65	46.897
135.797	70.12
139.943	19.085
144.086	121.664
148.228	285.628
152.367	348.206
156.505	311
160.641	831.708
164.775	2178.05
168.907	3870.56
173.037	2902.79
177.165	1310.32
181.292	731.021
185.416	381.369
189.539	109.106
193.659	2.247
197.778	18.021
201.895	56.544
206.01	56.235
210.123	30.08
214.235	44.105
218.344	20.651
222.452	8.308
226.557	142.845
230.661	271.957
234.763	454.77
238.863	529.783
242.961	720.315
247.057	999.394
251.152	1577.2
255.244	2505.44
259.335	4094.97
263.424	5883.11
267.511	6478.21
271.596	5267.85
275.679	3627.98
279.76	2663.5
283.84	1897.32
287.917	1654.78
291.993	1862.64
296.067	2491.21
300.139	2476.86
304.209	1444.87
308.278	927.174
312.344	819.86
316.409	799.863
320.472	797.696
324.533	846.66
328.592	861.75
332.649	813.806
336.704	876.812
340.758	822.761
344.81	810.651
348.86	765.218
352.908	684.553
356.954	603.202
360.998	558.567
365.041	526.483
369.082	522.73
373.121	462.857
377.158	369.993
381.193	307.761
385.226	285.61
389.258	282.893
393.287	258.641
397.315	335.231
401.342	364.111
405.366	436.809
409.388	903.602
413.409	1196.27
417.428	758.687
421.445	623.238
425.46	671.86
429.473	798.863
433.485	942.573
437.494	1162.16
441.502	1481.73
445.508	2094.86
449.513	3331.91
453.515	5457.96
457.516	10571.1
461.515	22550.4
465.512	36660.6
469.507	29680.6
473.501	15201.4
477.492	7559.1
481.482	4516.05
485.47	3157.21
489.457	2392.3
493.441	2112.93
497.424	2047.57
501.405	1943.11
505.384	1185.68
509.361	770.304
513.337	656.001
517.31	599.836
521.282	553.861
525.252	529.174
529.221	444.839
533.187	378.81
537.152	333.084
541.115	266.019
545.076	249.446
549.036	189.306
552.994	167.2
556.949	120.096
560.904	54.981
564.856	53.851
568.807	28.705
572.755	21.48
576.702	19.825
580.648	27.324
584.591	19.925
588.533	36.585
592.473	41.339
596.411	16.199
600.348	40.095
604.282	64.931
608.215	211.973
612.146	165.98
616.076	85.083
620.003	4.761
623.929	0.778
627.853	6.812
631.776	26.333
635.696	15.354
639.615	3.323
643.532	9.535
647.448	30.443
651.361	60.189
655.273	117.167
659.183	153.543
663.092	107.835
666.998	153.637
670.903	205.06
674.806	239.559
678.708	186.714
682.608	211.156
686.506	229.191
690.402	474.746
694.296	251.921
698.189	266.486
702.08	262.129
705.969	228.608
709.857	299.668
713.743	280.313
717.627	306.776
721.509	297.153
725.39	295.01
729.269	262.859
733.146	369.634
737.021	369.618
740.895	337.033
744.767	306.408
748.637	291.956
752.506	234.162
756.373	153.99
760.238	99.046
764.101	112.641
767.963	97.059
771.823	123.407
775.681	81.054
779.538	73.415
783.393	37.469
787.246	22.592
791.097	46.16
794.947	53.355
798.795	44.475
802.641	20.574
806.486	46.071
810.329	27.365
814.17	5.34
818.01	3.19
821.848	48.783
825.684	46.387
829.518	24.763
833.351	29.302
837.182	36.009
841.011	1.922
844.839	1.979
848.665	46.812
852.489	1.502
856.312	0.098
860.133	27.605
863.952	77.041
867.77	74.411
871.585	82.723
875.4	106.978
879.212	85.182
883.023	72.362
886.832	53.583
890.64	8.808
894.445	11.978
898.25	19.181
902.052	19.33
905.853	11.415
909.652	46.421
913.449	2.404
917.245	32.315
921.039	17.215
924.831	68.971
928.622	76.63
932.411	110.402
936.199	127.014
939.984	159.441
943.769	216.094
947.551	220.66
951.332	293.85
955.111	280.231
958.888	376.925
962.664	528.152
966.438	897.068
970.211	1028.11
973.982	1305.34
977.751	1578.46
981.518	3070.44
985.284	8455.1
989.048	12715.4
992.811	5593.61
996.572	2122.1
1000.33	1142.66
1004.09	772.748
1007.85	762.016
1011.6	944.781
1015.35	891.701
1019.1	496.933
1022.85	305.237
1026.6	231.57
1030.35	262.951
1034.09	296.369
1037.83	299.831
1041.58	352.139
1045.31	541.969
1049.05	742.213
1052.79	1329.44
1056.52	2382.48
1060.26	3311.27
1063.99	3264.51
1067.72	2745.05
1071.45	1975.65
1075.17	1248.26
1078.9	852.958
1082.62	634.763
1086.34	494.516
1090.06	399.316
1093.78	316.106
1097.5	307.888
1101.21	262.739
1104.93	251.558
1108.64	229.517
1112.35	191.371
1116.06	142.492
1119.77	133.747
1123.47	189.27
1127.17	94.545
1130.88	98.485
1134.58	157.841
1138.28	142.082
1141.97	128.446
1145.67	109.981
1149.37	107.986
1153.06	122.203
1156.75	103.587
1160.44	91.417
1164.13	90.046
1167.81	164.652
1171.5	125.935
1175.18	100.38
1178.86	59.393
1182.54	92.593
1186.22	108.945
1189.9	42.599
1193.57	84.128
1197.24	48.614
1200.92	90.069
1204.59	49.52
1208.26	76.024
1211.92	62.441
1215.59	33.764
1219.25	106.991
1222.91	33.166
1226.58	95.283
1230.23	56.36
1233.89	95.402
1237.55	39.038
1241.2	57.344
1244.86	9.753
1248.51	41.08
1252.16	55.792
1255.81	53.29
1259.45	67.623
1263.1	26.801
1266.74	7.811
1270.38	26.565
1274.02	21.74
1277.66	8.443
1281.3	63.401
1284.93	18.443
1288.57	40.373
1292.2	13.935
1295.83	3.637
1299.46	8.038
1303.09	7.702
1306.72	9.607
1310.34	39.708
1313.96	18.005
1317.59	13.525
1321.21	6.92
1324.83	68.178
1328.44	21.316
1332.06	80.334
1335.67	128.256
1339.28	227.089
1342.89	81.843
1346.5	87.458
1350.11	87.059
1353.72	117.617
1357.32	87.184
1360.92	105.681
1364.53	86.316
1368.13	84.405
1371.72	110.089
1375.32	109.786
1378.92	120.37
1382.51	129.658
1386.1	127.769
1389.69	213.166
1393.28	229.676
1396.87	208.718
1400.46	219.829
1404.04	181.422
1407.62	156.282
1411.2	151.669
1414.79	140.669
1418.36	171.571
1421.94	129.421
1425.52	103.893
1429.09	97.274
1432.66	104.244
1436.23	136.958
1439.8	121.561
1443.37	133.754
1446.94	119.345
1450.5	88.293
1454.06	119.698
1457.62	76.579
1461.18	85.823
1464.74	96.141
1468.3	76.234
1471.86	104.38
1475.41	146.37
1478.96	126.634
1482.51	78.33
1486.06	140.832
1489.61	67.18
1493.16	26.318
1496.7	33.728
1500.25	71.984
1503.79	33.966
1507.33	2.236
1510.87	0
