Measurement: Raman, 514 nm, ccw, Raman Data Processed
Mineral: Spessartine
Rruff sample: R050063
Ideal chemistry: Mn^2+^_3_Al_2_(SiO_4_)_3_
Locality: Fujian Province, China
Source: Rock Currier
Description: Reddish brown crystals
Measured chemistry: (Mn_2.72_Fe_0.24_Ca_0.04_)_Σ=3_(Al_1.95_Fe^3+^_0.05_)_Σ=2_(Si_1.00_O_4_)_2.75_(F_0.58_(OH)_0.42_)_Σ=1_; trace amounts of Mg; OH estimated by charge balance
Pin_id: L00458
Orientation: Laser parallel to c* (0 0 1). Fiducial mark perpendicular to laser is parallel to a [1 0 0]
Raman shift (cm-1)	intensity
49.365	0
53.566	538.505
57.765	933.458
61.962	1617.09
66.157	2570.14
70.349	1531.89
74.54	1028.37
78.729	532.631
82.916	163.009
87.101	10.482
91.284	43.486
95.465	7.046
99.644	24.586
103.82	10.424
107.995	76.848
112.168	246.521
116.339	553.495
120.508	453.896
124.675	532.357
128.84	554.025
133.003	601.904
137.164	505.436
141.323	554.37
145.48	393.292
149.635	406.067
153.788	678.1
157.939	1674.98
162.088	3079.62
166.235	2029.98
170.38	879.168
174.523	700.349
178.664	630.444
182.803	528.448
186.94	443.402
191.076	371.496
195.209	367.051
199.34	147.051
203.47	2.312
207.597	9.853
211.722	24.817
215.846	6.135
219.967	162.989
224.087	182.601
228.204	221.017
232.32	217.942
236.434	298.939
240.545	233.486
244.655	269.207
248.763	247.654
252.869	303.121
256.973	232.133
261.075	201.101
265.175	189.988
269.273	223.495
273.369	310.474
277.463	316.232
281.556	489.534
285.646	695.631
289.734	1038.65
293.821	1487.04
297.905	1981.38
301.988	2466.52
306.069	2796.39
310.147	3211.5
314.224	3401.8
318.299	3466.98
322.372	3547.42
326.443	4025.92
330.512	4808.18
334.579	5651.66
338.645	6719.26
342.708	7378.77
346.769	7352.78
350.829	6602.98
354.887	5856.2
358.942	5408.36
362.996	5546.5
367.048	6051.72
371.098	6661.81
375.146	7003.79
379.192	6401.27
383.236	4972.25
387.279	3762.32
391.319	2924.99
395.358	2343.39
399.394	1811.27
403.429	1487.06
407.462	1271.18
411.493	1065.43
415.522	835.533
419.549	618.25
423.575	431.374
427.598	244.822
431.619	149.751
435.639	13.418
439.657	15.104
443.673	40.031
447.687	23.813
451.699	50.356
455.709	11.532
459.717	6.327
463.724	1.221
467.728	14.871
471.731	30.937
475.732	41.021
479.731	51.001
483.728	2.042
487.723	30.117
491.716	110.159
495.708	200.354
499.697	259.134
503.685	374.413
507.671	379.311
511.655	496.322
515.637	603.452
519.617	646.969
523.596	697.964
527.572	870.531
531.547	1196.05
535.52	1815.54
539.491	2683.34
543.46	4176.86
547.427	5414.49
551.393	4646.59
555.356	3022.85
559.318	1917.33
563.278	1366.22
567.236	1115.26
571.192	947.07
575.147	798.432
579.099	720.79
583.05	677.142
586.999	631.354
590.946	543.048
594.891	516.303
598.834	473.157
602.776	379.401
606.715	419.34
610.653	429.086
614.589	448.613
618.523	476.168
622.456	605.912
626.386	654.387
630.315	637.362
634.242	575.796
638.167	455.868
642.09	330.729
646.012	229.493
649.931	140.012
653.849	124.24
657.765	67.159
661.679	36.744
665.592	2.1
669.502	42.49
673.411	19.529
677.318	39.226
681.223	52.711
685.126	64.994
689.028	89.05
692.927	86.95
696.825	32.679
700.721	20.937
704.616	17.016
708.508	38.647
712.399	67.908
716.288	81.854
720.175	140.492
724.06	150.893
727.944	172.015
731.825	152.885
735.705	114.505
739.584	146.872
743.46	145.991
747.334	155.867
751.207	164.511
755.078	197.934
758.947	203.698
762.815	167.213
766.68	192.104
770.544	164.807
774.406	163.318
778.267	214.656
782.125	282.848
785.982	344.91
789.837	365.832
793.69	370.616
797.542	447.266
801.391	582.774
805.239	717.503
809.085	844.519
812.93	976.68
816.772	957.192
820.613	1018.44
824.452	1044.73
828.29	930.737
832.125	1110.54
835.959	1376.14
839.791	1778.15
843.621	2054.42
847.45	2252.29
851.277	2366.06
855.102	2408.72
858.925	2508.89
862.746	2533.36
866.566	2652.06
870.384	2825.24
874.2	3054.09
878.015	3507.48
881.828	4297.05
885.639	5407.79
889.448	6997.33
893.256	9447.05
897.061	13903.6
900.865	21950.7
904.668	34368
908.468	43235.5
912.267	37173.1
916.064	24560.9
919.86	15188.6
923.653	10006.5
927.445	6695.92
931.236	4887.81
935.024	3823.37
938.811	3209.12
942.596	2636.65
946.379	2371.82
950.161	2107.06
953.94	1877
957.719	1750.76
961.495	1524.07
965.27	1328.27
969.043	1142.94
972.814	1067.16
976.583	866.038
980.351	723.214
984.117	704.774
987.882	678.797
991.644	672.365
995.405	735.021
999.165	844.091
1002.92	1032.53
1006.68	1047.26
1010.43	1079.24
1014.18	1188.42
1017.93	1285.79
1021.68	1356.32
1025.43	1499.01
1029.18	1432.53
1032.92	1129.81
1036.66	754.92
1040.4	481.153
1044.14	279.516
1047.88	258
1051.62	199.612
1055.35	141.354
1059.08	100.211
1062.81	37.172
1066.54	31.238
1070.27	37.433
1073.99	10.738
1077.72	28.155
1081.44	10.647
1085.16	32.833
1088.88	6.705
1092.59	14.729
1096.31	41.139
1100.02	49.567
1103.73	28.083
1107.44	24.71
1111.15	42.434
1114.86	63.294
1118.57	12.316
1122.27	24.598
1125.97	97.526
1129.67	34.487
1133.37	45.471
1137.07	22.47
1140.76	56.455
1144.45	14.433
1148.15	71.406
1151.84	88.406
1155.53	88.543
1159.21	109.038
1162.9	161.79
1166.58	147.931
1170.26	130.964
1173.94	116.76
1177.62	151.694
1181.3	193.705
1184.97	192.968
1188.65	211.956
1192.32	165.457
1195.99	166.738
1199.66	147.207
1203.33	127.436
1206.99	144.552
1210.65	131.748
1214.32	166.451
1217.98	175.273
1221.64	138.303
1225.29	153.449
1228.95	137.052
1232.6	202.553
1236.26	143.483
1239.91	132.888
1243.56	175.736
1247.2	201.886
1250.85	204.863
1254.49	200.431
1258.13	206.289
1261.78	212.248
1265.41	185.612
1269.05	186.616
1272.69	171.358
1276.32	169.936
1279.95	145.484
1283.59	136.717
1287.21	133.619
1290.84	136.58
1294.47	54.384
1298.09	59.12
1301.72	18.56
1305.34	59.763
1308.96	19.246
1312.58	29.546
1316.19	0.153
1319.81	54.578
1323.42	11.833
1327.03	12.897
1330.64	10.786
1334.25	9.493
1337.86	13.021
1341.46	18.369
1345.07	8.541
1348.67	19.539
1352.27	20.378
1355.87	41.064
1359.46	6.407
1363.06	3.953
1366.65	35.82
1370.25	8.738
1373.84	11.733
1377.43	24.297
1381.02	8.064
1384.6	91.473
1388.18	24.921
1391.77	20.534
1395.35	57.384
1398.93	41.225
1402.51	38.927
1406.08	68.529
1409.66	89.976
1413.23	56.485
1416.8	127.194
1420.37	97.96
1423.94	34.878
1427.51	95.422
1431.08	65.99
1434.64	83.66
1438.2	71.601
1441.76	67.495
1445.32	81.002
1448.88	70.18
1452.43	72.323
1455.99	77.866
1459.54	69.109
1463.09	64.56
1466.64	95.487
1470.19	99.41
1473.74	74.371
1477.28	49.737
1480.83	61.871
1484.37	35.61
1487.91	37.021
1491.45	50.605
1494.98	41.212
1498.52	54.01
1502.05	51.337
1505.59	56.305
1509.12	44.968
1512.65	20.828
1516.17	25.632
1519.7	47
