Measurement: Raman, 514 nm, ccw, Raman Data Processed
Mineral: Spessartine
Rruff sample: R050063
Ideal chemistry: Mn^2+^_3_Al_2_(SiO_4_)_3_
Locality: Fujian Province, China
Source: Rock Currier
Description: Reddish brown crystals
Measured chemistry: (Mn_2.72_Fe_0.24_Ca_0.04_)_Σ=3_(Al_1.95_Fe^3+^_0.05_)_Σ=2_(Si_1.00_O_4_)_2.75_(F_0.58_(OH)_0.42_)_Σ=1_; trace amounts of Mg; OH estimated by charge balance
Pin_id: L00458
Orientation: Laser parallel to c* (0 0 1). Fiducial mark perpendicular to laser is parallel to a [1 0 0]
Raman shift (cm-1)	intensity
49.365	0
53.566	300.209
57.765	1061.11
61.962	1420.57
66.157	1788.99
70.349	1028.23
74.54	765.792
78.729	448.216
82.916	160.919
87.101	73.265
91.284	31.409
95.465	62.599
99.644	3.125
103.82	31.708
107.995	40.928
112.168	88.374
116.339	473.074
120.508	247.4
124.675	266.94
128.84	282.134
133.003	337.169
137.164	307.25
141.323	311.978
145.48	208.063
149.635	170.811
153.788	349.162
157.939	749.077
162.088	1550.96
166.235	1480.29
170.38	1293.59
174.523	1602.17
178.664	1598.28
182.803	1147.93
186.94	813.154
191.076	631.306
195.209	481.434
199.34	352.536
203.47	301.62
207.597	348.639
211.722	558.498
215.846	920.166
219.967	1421.77
224.087	1540.89
228.204	1360.74
232.32	1194.15
236.434	843.142
240.545	663.597
244.655	520.188
248.763	367.723
252.869	314.265
256.973	190.579
261.075	112.708
265.175	102.892
269.273	82.212
273.369	66.332
277.463	41.994
281.556	127.222
285.646	232.786
289.734	388.166
293.821	569.118
297.905	762.031
301.988	949.838
306.069	1076.04
310.147	1283.91
314.224	1515.62
318.299	1709.5
322.372	1974.87
326.443	2470.1
330.512	3168.13
334.579	3991.02
338.645	4829.89
342.708	5450.74
346.769	5355.6
350.829	4833.48
354.887	4096.34
358.942	3678.92
362.996	3497.21
367.048	3440.68
371.098	3622.51
375.146	3609.95
379.192	3217.98
383.236	2452.48
387.279	1931.36
391.319	1505.53
395.358	1133.52
399.394	861.974
403.429	723.944
407.462	495.075
411.493	461.49
415.522	330.371
419.549	212.344
423.575	115.292
427.598	27.331
431.619	0.019
435.639	71.355
439.657	74.291
443.673	71.621
447.687	38.023
451.699	25.221
455.709	67.184
459.717	164.97
463.724	288.704
467.728	457.396
471.731	821.045
475.732	946.661
479.731	816.237
483.728	541.726
487.723	473.083
491.716	601.559
495.708	864.785
499.697	1062.84
503.685	1176.12
507.671	1066.7
511.655	912.53
515.637	851.256
519.617	816.311
523.596	812.245
527.572	953.156
531.547	1210.51
535.52	1704.26
539.491	2368.1
543.46	3547.04
547.427	4542.5
551.393	3816.01
555.356	2573.12
559.318	1710.26
563.278	1233.58
567.236	992.233
571.192	875.668
575.147	775.892
579.099	627.932
583.05	577.159
586.999	520.273
590.946	483.347
594.891	418.114
598.834	398.655
602.776	384.709
606.715	398.411
610.653	344.938
614.589	452.397
618.523	609.56
622.456	763.142
626.386	963.502
630.315	1036.61
634.242	787.469
638.167	535.075
642.09	381.429
646.012	269.532
649.931	184.382
653.849	100.963
657.765	64.252
661.679	70.236
665.592	11.907
669.502	21.855
673.411	48.208
677.318	43.207
681.223	32.871
685.126	72.279
689.028	29.444
692.927	46.233
696.825	56.7
700.721	2.843
704.616	5.548
708.508	52.605
712.399	84.403
716.288	119.966
720.175	177.312
724.06	182.462
727.944	210.421
731.825	152.193
735.705	158.783
739.584	113.197
743.46	151.45
747.334	137.572
751.207	141.64
755.078	124.677
758.947	103.713
762.815	68.73
766.68	19.643
770.544	69.43
774.406	87.089
778.267	149.62
782.125	200.028
785.982	205.329
789.837	238.549
793.69	268.673
797.542	330.719
801.391	420.749
805.239	542.212
809.085	756.705
812.93	718.428
816.772	824.989
820.613	846.914
824.452	886.496
828.29	968.549
832.125	1153.75
835.959	1569.44
839.791	2160.91
843.621	2721.98
847.45	3256.76
851.277	3339.68
855.102	3292.33
858.925	3100.44
862.746	2880.56
866.566	2783.19
870.384	2962.64
874.2	3105.84
878.015	3460.3
881.828	4255.84
885.639	5181.45
889.448	6485.17
893.256	8334.69
897.061	11842.5
900.865	18380.4
904.668	28448.4
908.468	35756.5
912.267	30544.7
916.064	20242.9
919.86	12520.9
923.653	8109.24
927.445	5588.16
931.236	3981.15
935.024	3109.61
938.811	2532.86
942.596	2161.5
946.379	1954.08
950.161	1695.52
953.94	1558.49
957.719	1350.37
961.495	1303.92
965.27	1074.05
969.043	955.727
972.814	871.999
976.583	767.686
980.351	646.759
984.117	587.497
987.882	584.303
991.644	618.906
995.405	676.738
999.165	814.456
1002.92	976.533
1006.68	1075.91
1010.43	1253.52
1014.18	1374.29
1017.93	1748.2
1021.68	2170.23
1025.43	2685.4
1029.18	2759.7
1032.92	2173.15
1036.66	1296.71
1040.4	823.382
1044.14	535.191
1047.88	374.138
1051.62	276.194
1055.35	211.353
1059.08	118.615
1062.81	72.98
1066.54	32.435
1070.27	102.994
1073.99	32.639
1077.72	34.36
1081.44	38.151
1085.16	18.999
1088.88	34.137
1092.59	26.279
1096.31	46.396
1100.02	28.565
1103.73	17.826
1107.44	1.176
1111.15	50.636
1114.86	39.276
1118.57	36.071
1122.27	42.05
1125.97	49.179
1129.67	1.32
1133.37	17.396
1137.07	24.42
1140.76	12.394
1144.45	48.313
1148.15	62.319
1151.84	50.379
1155.53	75.585
1159.21	57.039
1162.9	121.934
1166.58	104.119
1170.26	141.185
1173.94	125.432
1177.62	123.325
1181.3	115.475
1184.97	171.116
1188.65	149.748
1192.32	120.237
1195.99	125.568
1199.66	125.942
1203.33	134.333
1206.99	130.442
1210.65	91.217
1214.32	102.901
1217.98	82.67
1221.64	144.033
1225.29	303.871
1228.95	224.591
1232.6	143.44
1236.26	135.108
1239.91	154.794
1243.56	167.966
1247.2	197.5
1250.85	207.669
1254.49	183.183
1258.13	197.762
1261.78	174.023
1265.41	166.41
1269.05	159.382
1272.69	166.095
1276.32	187.012
1279.95	144.923
1283.59	126.571
1287.21	102.631
1290.84	56.649
1294.47	43.923
1298.09	59.198
1301.72	38.14
1305.34	26.909
1308.96	33.515
1312.58	43.975
1316.19	7.717
1319.81	10.408
1323.42	40.365
1327.03	29.13
1330.64	6.708
1334.25	6.891
1337.86	0.683
1341.46	34.344
1345.07	8.214
1348.67	37.932
1352.27	22.491
1355.87	19.252
1359.46	10.515
1363.06	16.635
1366.65	27.627
1370.25	16.484
1373.84	16.181
1377.43	36.85
1381.02	51.337
1384.6	21.275
1388.18	33.057
1391.77	34.924
1395.35	42.019
1398.93	54.174
1402.51	47.221
1406.08	57.258
1409.66	18.094
1413.23	55.23
1416.8	82.585
1420.37	73.565
1423.94	74.466
1427.51	91.213
1431.08	94.053
1434.64	94.943
1438.2	39.068
1441.76	63.748
1445.32	72.554
1448.88	43.911
1452.43	79.745
1455.99	85.707
1459.54	51.479
1463.09	80.814
1466.64	82.615
1470.19	73.846
1473.74	51.585
1477.28	24.029
1480.83	35.786
1484.37	28.059
1487.91	24.055
1491.45	72.948
1494.98	26.793
1498.52	69.852
1502.05	64.271
1505.59	18.965
1509.12	41.96
1512.65	22.017
1516.17	0.853
1519.7	30.625
1523.23	0
