Measurement: Raman, 514 nm, ccw, Raman Data Processed
Mineral: Spessartine
Rruff sample: R050063
Ideal chemistry: Mn^2+^_3_Al_2_(SiO_4_)_3_
Locality: Fujian Province, China
Source: Rock Currier
Description: Reddish brown crystals
Measured chemistry: (Mn_2.72_Fe_0.24_Ca_0.04_)_Σ=3_(Al_1.95_Fe^3+^_0.05_)_Σ=2_(Si_1.00_O_4_)_2.75_(F_0.58_(OH)_0.42_)_Σ=1_; trace amounts of Mg; OH estimated by charge balance
Pin_id: L00458
Orientation: Laser parallel to c* (0 0 1). Fiducial mark perpendicular to laser is parallel to a [1 0 0]
Raman shift (cm-1)	intensity
49.365	0
53.566	223.674
57.765	1525.43
61.962	2315.03
66.157	2149.35
70.349	1305.76
74.54	1022.57
78.729	695.334
82.916	211.389
87.101	140.344
91.284	8.725
95.465	57.878
99.644	51.278
103.82	5.932
107.995	98.753
112.168	315.157
116.339	505.169
120.508	330.124
124.675	342.335
128.84	418.767
133.003	486.879
137.164	453.803
141.323	514.824
145.48	429.162
149.635	412.83
153.788	618.872
157.939	1372.28
162.088	2571.4
166.235	2071.12
170.38	864.062
174.523	689.771
178.664	636.168
182.803	480.21
186.94	453.955
191.076	355.674
195.209	268.378
199.34	182.122
203.47	83.477
207.597	42.749
211.722	36.765
215.846	116.345
219.967	216.066
224.087	267.414
228.204	264.507
232.32	377.853
236.434	369.785
240.545	339.844
244.655	361.395
248.763	380.858
252.869	309.334
256.973	261.654
261.075	251.033
265.175	244.283
269.273	286.242
273.369	322.296
277.463	405.115
281.556	582.767
285.646	806.683
289.734	1153.61
293.821	1575.94
297.905	2083.02
301.988	2440.97
306.069	2686.67
310.147	2997.52
314.224	3178.22
318.299	3040.71
322.372	3094.43
326.443	3550.41
330.512	4158.22
334.579	5067.96
338.645	6062.78
342.708	6750.05
346.769	6841.39
350.829	6277.28
354.887	5771
358.942	5309.8
362.996	5490.52
367.048	6019.48
371.098	6486.07
375.146	6639.1
379.192	5760.54
383.236	4343.77
387.279	3235.45
391.319	2395.88
395.358	1806.58
399.394	1435.1
403.429	1117.62
407.462	927.375
411.493	791.167
415.522	563.204
419.549	372.334
423.575	269.22
427.598	145.621
431.619	47.05
435.639	8.456
439.657	30.531
443.673	48.156
447.687	51.898
451.699	15.261
455.709	23.637
459.717	19.42
463.724	30.458
467.728	72.483
471.731	84.505
475.732	96.54
479.731	101.576
483.728	62.56
487.723	59.469
491.716	117.422
495.708	226.179
499.697	257.377
503.685	404.176
507.671	404.684
511.655	442.075
515.637	597.761
519.617	688.214
523.596	765.13
527.572	916.785
531.547	1232.04
535.52	1796.14
539.491	2692.08
543.46	4206.55
547.427	5058.98
551.393	4450.95
555.356	3002.13
559.318	1913.73
563.278	1341.53
567.236	1059.67
571.192	949.551
575.147	808.863
579.099	672.122
583.05	651.283
586.999	632.005
590.946	587.181
594.891	572.104
598.834	515.892
602.776	532.239
606.715	478.635
610.653	516.351
614.589	502.443
618.523	523.933
622.456	590.927
626.386	664.474
630.315	574.852
634.242	554.201
638.167	483.208
642.09	374.953
646.012	275.395
649.931	169.834
653.849	122.006
657.765	48.895
661.679	16.485
665.592	1.272
669.502	25.495
673.411	28.281
677.318	42.652
681.223	41.708
685.126	61.478
689.028	77.014
692.927	45.035
696.825	34.374
700.721	4.053
704.616	1.273
708.508	17.039
712.399	37.963
716.288	64.595
720.175	121.945
724.06	125.036
727.944	137.874
731.825	110.471
735.705	94.832
739.584	127.956
743.46	132.853
747.334	114.531
751.207	143.005
755.078	188.313
758.947	214.486
762.815	162.543
766.68	125.47
770.544	162.259
774.406	190.892
778.267	241.854
782.125	255.698
785.982	301.894
789.837	344.959
793.69	394.912
797.542	468.769
801.391	576.555
805.239	682.885
809.085	833.357
812.93	926.131
816.772	986.688
820.613	977.223
824.452	966.171
828.29	948.025
832.125	1067.26
835.959	1343.89
839.791	1681.41
843.621	1977.52
847.45	2156.68
851.277	2316.57
855.102	2341.08
858.925	2403.97
862.746	2314.61
866.566	2507.71
870.384	2720.87
874.2	2915.79
878.015	3337.04
881.828	4080.49
885.639	5037.24
889.448	6638.98
893.256	8942.91
897.061	13060.1
900.865	20667.3
904.668	32284.7
908.468	40892.5
912.267	35240.4
916.064	23358.4
919.86	14466.4
923.653	9474.57
927.445	6380.85
931.236	4700.81
935.024	3697.84
938.811	3071.09
942.596	2534.69
946.379	2214.85
950.161	1956.57
953.94	1854.08
957.719	1585.45
961.495	1445.45
965.27	1270.05
969.043	1145.83
972.814	935.406
976.583	831.377
980.351	694.608
984.117	692.323
987.882	676.302
991.644	697.119
995.405	737.728
999.165	803.702
1002.92	937.001
1006.68	1003.61
1010.43	1075.46
1014.18	1134.55
1017.93	1243.8
1021.68	1354.21
1025.43	1433.76
1029.18	1391.47
1032.92	1102.33
1036.66	709.348
1040.4	463.488
1044.14	321.741
1047.88	207.116
1051.62	159.027
1055.35	96.255
1059.08	92.02
1062.81	68.145
1066.54	33.903
1070.27	47.007
1073.99	59.67
1077.72	4.52
1081.44	16.838
1085.16	14.745
1088.88	8.304
1092.59	23.847
1096.31	37.418
1100.02	38.041
1103.73	52.732
1107.44	2.534
1111.15	24.411
1114.86	37.359
1118.57	17.582
1122.27	8.498
1125.97	108.429
1129.67	10.394
1133.37	2.636
1137.07	0.176
1140.76	26.206
1144.45	46.12
1148.15	31.159
1151.84	82.172
1155.53	118.464
1159.21	134.66
1162.9	144.871
1166.58	143.187
1170.26	140.53
1173.94	165.612
1177.62	125.284
1181.3	157.553
1184.97	167.904
1188.65	180.101
1192.32	137.938
1195.99	126.276
1199.66	169.559
1203.33	93.691
1206.99	134.183
1210.65	112.529
1214.32	121.859
1217.98	109.647
1221.64	131.163
1225.29	137.134
1228.95	143.656
1232.6	130.695
1236.26	130.313
1239.91	152.578
1243.56	190.211
1247.2	173.008
1250.85	194.988
1254.49	233.952
1258.13	190.736
1261.78	181.924
1265.41	198.103
1269.05	156.466
1272.69	143.287
1276.32	156.155
1279.95	178.946
1283.59	159.457
1287.21	113.474
1290.84	88.606
1294.47	39.414
1298.09	30.999
1301.72	36.502
1305.34	39.757
1308.96	18.845
1312.58	25.766
1316.19	62.525
1319.81	2.107
1323.42	55.476
1327.03	34.638
1330.64	26.601
1334.25	54.391
1337.86	33.005
1341.46	32.438
1345.07	9.69
1348.67	13.23
1352.27	19.674
1355.87	10.388
1359.46	26.928
1363.06	29.765
1366.65	20.774
1370.25	3.887
1373.84	23.864
1377.43	38.695
1381.02	19.466
1384.6	40.981
1388.18	41.514
1391.77	41.161
1395.35	30.911
1398.93	21.671
1402.51	34.302
1406.08	46.891
1409.66	34.948
1413.23	63.915
1416.8	50.225
1420.37	83.13
1423.94	93.468
1427.51	101.087
1431.08	48.138
1434.64	74.935
1438.2	63.372
1441.76	55.649
1445.32	75.555
1448.88	57.96
1452.43	52.955
1455.99	64.618
1459.54	69.179
1463.09	81.461
1466.64	59.109
1470.19	68.317
1473.74	96.599
1477.28	58.524
1480.83	50.83
1484.37	73.176
1487.91	66.936
1491.45	8.025
1494.98	53.123
1498.52	14.195
1502.05	41.06
1505.59	82.024
1509.12	57.098
1512.65	36.782
1516.17	28.346
1519.7	31.956
1523.23	0
