Measurement: Raman, 514 nm, ccw, Raman Data Processed
Mineral: Sphalerite
Rruff sample: R050237
Ideal chemistry: ZnS
Locality: Picos de Europa, Spain
Source: Marcus Origlieri
Description: Green single crystal
Measured chemistry: Zn_1.00_S_1.00_
Pin_id: L00430
Orientation: Laser parallel to a* (1 0 0). Fiducial mark perpendicular to laser is parallel to b [0 1 0]
Raman shift (cm-1)	intensity
96.161	0
100.34	299.072
104.516	22.844
108.691	259.873
112.864	24.004
117.034	1925.76
121.203	1658.15
125.369	1231.8
129.534	2085.39
133.696	4086.94
137.857	7456.83
142.016	9737.69
146.172	10338.1
150.327	10633.3
154.48	11691.1
158.63	12374.6
162.779	13409.9
166.926	15092
171.07	17241.3
175.213	22708.6
179.354	21303.4
183.493	16556.9
187.63	14198.6
191.765	13326.5
195.898	12248
200.029	11991.5
204.158	12670.1
208.285	16337.2
212.41	22731.5
216.533	29731.7
220.654	25176.9
224.773	17805.8
228.891	13924.9
233.006	13327.3
237.119	11884
241.231	5278.79
245.34	1474.77
249.448	389.415
253.553	418.758
257.657	365.138
261.758	495.904
265.858	3008.58
269.956	8768.01
274.052	11419.7
278.146	7494.87
282.237	4262.99
286.327	2928.81
290.416	3051.85
294.502	4662.78
298.586	6892.32
302.668	5005.55
306.749	3087.83
310.827	2063.8
314.903	805.382
318.978	95.34
323.051	1113.38
327.121	3652.82
331.19	6426.04
335.257	7436.15
339.322	9690.33
343.385	18860.8
347.446	43712.5
351.505	38821.3
355.563	14818.1
359.618	10758
363.672	11483.8
367.723	12431.6
371.773	13977.6
375.821	14813.5
379.866	13865
383.91	13907.5
387.952	14962.5
391.992	16141.1
396.031	17421.1
400.067	16845.1
404.101	13579.1
408.134	11533.5
412.165	11154
416.193	13624.3
420.22	16162.5
424.245	15035.6
428.268	13722.4
432.289	11476.8
436.309	9022.02
440.326	8806.91
444.342	9505.4
448.355	10755.4
452.367	8938.88
456.377	3256.85
460.385	426.221
464.391	240.242
468.395	272.955
472.398	501.618
476.398	257.667
480.397	248.481
484.394	16.887
488.389	87.512
492.382	144.826
496.373	185.073
500.362	327.273
504.349	545.036
508.335	849.81
512.319	1233.27
516.3	1685.87
520.28	1763.59
524.259	1306.4
528.235	734.308
532.209	342.271
536.182	220.19
540.152	105.839
544.121	13.077
548.088	198.803
552.053	259.156
556.017	381.221
559.978	563.106
563.938	585.899
567.895	760.624
571.851	1047.33
575.805	1263.26
579.758	1489.84
583.708	1905.95
587.657	2145.77
591.603	2670.09
595.548	3431.43
599.491	4502.27
603.432	5997.33
607.372	8092.52
611.309	8974.4
615.245	9995.21
619.179	8217.57
623.111	4283.64
627.041	3482.4
630.97	4512.41
634.896	7383.04
638.821	9299.87
642.744	7965.55
646.665	3886.21
650.584	2630.51
654.502	3564.6
658.418	5886.99
662.331	10220
666.244	17547
670.154	22992.2
674.062	16219.6
677.969	12468.8
681.874	10814.2
685.777	10070.3
689.678	9292.49
693.577	7790.4
697.475	5815.12
701.371	3170.54
705.265	1954.63
709.157	1349.08
713.047	1130.96
716.936	888.982
720.823	829.865
724.708	613.729
728.591	460.385
732.472	379.078
736.352	391.797
740.23	289.747
744.106	241.918
747.98	167.947
751.853	76.359
755.723	6.885
759.592	57.253
763.459	56.408
767.325	54.99
771.188	12.182
775.05	60.998
778.91	155.76
782.768	67.189
786.625	12.434
790.479	25.422
794.332	53.357
798.183	61.844
802.033	70.959
805.88	51.829
809.726	31.449
813.57	52.467
817.413	28.233
821.253	17.079
825.092	42.802
828.929	48.986
832.764	71.365
836.598	34.323
840.429	54.141
844.259	61.934
848.088	34.658
851.914	47.85
855.739	87.459
859.562	93.732
863.383	59.868
867.203	61.844
871.02	16.616
874.836	57.129
878.65	147.367
882.463	61.337
886.274	90.843
890.083	54.013
893.89	84.079
897.695	180.408
901.499	111.879
905.301	115
909.102	206.162
912.9	284.91
916.697	237.773
920.492	232.705
924.285	425.819
928.077	161.484
931.867	288.41
935.655	298.256
939.442	284.392
943.226	283.828
947.009	280.41
950.791	274.288
954.57	33.412
958.348	203.545
962.124	143.027
965.899	187.286
969.671	109.059
973.442	209.88
977.211	237.036
980.979	253.11
984.745	189.092
988.509	272.704
992.271	390.406
996.032	466.667
999.791	379.486
1003.55	541.551
1007.3	465.6
1011.06	412.197
1014.81	422.634
1018.56	429.563
1022.31	425.975
1026.06	358.824
1029.8	521.104
1033.55	534.344
1037.29	501.489
1041.03	585.562
1044.77	546.057
1048.5	450.522
1052.24	411.31
1055.97	462.247
1059.7	467.035
1063.43	483.991
1067.16	448.535
1070.89	486.425
1074.61	405.998
1078.34	338.522
1082.06	431.841
1085.78	649.56
1089.5	233.855
1093.21	302.305
1096.93	142.76
1100.64	284.66
1104.35	70.878
1108.06	135.14
1111.77	120.407
1115.48	96.521
1119.18	74.933
1122.89	1.884
1126.59	6.514
1130.29	53.609
1133.99	53.084
1137.68	120.031
1141.38	26.667
1145.07	93.334
1148.76	20.1
1152.45	82.728
1156.14	148.722
1159.83	32.429
1163.51	85.223
1167.19	52.902
1170.88	182.844
1174.56	158.623
1178.23	39.659
1181.91	69.167
1185.59	63.209
1189.26	141.659
1192.93	5.739
1196.6	68.923
1200.27	107.389
1203.94	223.787
1207.6	177.845
1211.27	85.822
1214.93	138.2
1218.59	365.513
1222.25	7.878
1225.9	208.512
1229.56	161.223
1233.21	181.307
1236.86	78.834
1240.51	174.376
1244.16	96.206
1247.81	198.727
1251.45	129.273
1255.1	110.179
1258.74	41.545
1262.38	94.138
1266.02	25.425
1269.66	138.975
1273.29	186.262
1276.93	215.081
1280.56	154.104
1284.19	134.977
1287.82	158.462
1291.45	80.604
1295.07	74.594
1298.7	13.712
1302.32	77.572
1305.94	53.744
1309.56	20.526
1313.18	82.018
1316.8	34.12
1320.41	22.238
1324.02	128.203
1327.63	47.382
1331.24	67.268
1334.85	52.646
1338.46	28.787
1342.06	14.432
1345.67	15.373
1349.27	59.976
1352.87	84.659
1356.47	41.899
1360.07	38.386
1363.66	152.004
1367.25	216.849
1370.85	234.968
1374.44	244.902
1378.03	182.644
1381.61	215.386
1385.2	201.119
1388.78	244.268
1392.37	183.748
1395.95	181.582
1399.53	141.363
1403.1	218.787
1406.68	319.479
1410.26	227.912
1413.83	108.699
1417.4	234.816
1420.97	175.92
1424.54	203.186
1428.1	255.668
1431.67	227.742
1435.23	133.441
1438.8	227.746
1442.36	256.969
1445.91	188.842
1449.47	396.447
1453.03	341.379
1456.58	252.133
1460.13	408.752
1463.68	293.838
1467.23	318.666
1470.78	356.238
1474.33	360.02
1477.87	277.539
1481.42	337.453
1484.96	152.693
1488.5	127.717
1492.04	154.566
1495.57	258.244
1499.11	329.045
1502.64	27.832
1506.17	242.422
1509.71	191.578
1513.23	215.406
1516.76	206.074
1520.29	107.135
