Measurement: Raman, 514 nm, ccw, Raman Data Processed
Mineral: Sphalerite
Rruff sample: R050005
Ideal chemistry: ZnS
Locality: Taolin mine, Yueyang, Linxing, Hunan Province, China
Source: Eugene Schlepp
Description: Reddish brown crystals
Measured chemistry: (Zn_.997_Fe_.003_)S
Pin_id: L00184
Orientation: Laser parallel to -a* (-1 0 0). Fiducial mark perpendicular to laser is parallel to -b [0 -1 0]
Raman shift (cm-1)	intensity
85.064	0
89.254	7.268
93.442	99.452
97.628	145.479
101.812	24.591
105.994	74.032
110.174	341.93
114.351	398.445
118.527	364.759
122.701	523.109
126.873	669.662
131.042	948.745
135.21	1494.45
139.376	2343.94
143.539	2576.01
147.701	2723.41
151.861	3071.55
156.018	3231.65
160.174	3316.83
164.327	3686.26
168.479	4372.03
172.628	4935.74
176.776	6054.36
180.922	5426.44
185.065	4365.7
189.207	3603.55
193.346	3389.79
197.484	3238.88
201.619	3138.18
205.753	3462.27
209.884	4767.7
214.014	6874.24
218.141	7154.65
222.267	5449.8
226.391	4221.67
230.512	3615.36
234.632	3236.09
238.749	2258.98
242.865	837.773
246.979	372.325
251.09	5.496
255.2	54.155
259.308	95.977
263.414	169.417
267.517	82.117
271.619	189.613
275.719	205.497
279.817	128.411
283.913	273.278
288.007	813.063
292.099	1623.74
296.189	3407.22
300.277	4303.04
304.363	3386.28
308.447	2489.62
312.529	1658.15
316.609	977.589
320.687	974.146
324.764	2004.21
328.838	4545.73
332.91	7444.28
336.981	8145.83
341.049	8664.42
345.116	23731.8
349.18	62708.1
353.243	21473.5
357.304	8578.56
361.362	6159.49
365.419	6020.78
369.474	5409.22
373.527	4997.44
377.578	4411.92
381.627	4568.62
385.674	4639.45
389.719	4624.85
393.762	4614.97
397.804	4596.26
401.843	4195.39
405.881	3427.66
409.916	2985.16
413.95	3173.9
417.981	3901.81
422.011	3855.17
426.039	3462.29
430.065	3018.3
434.089	2518.29
438.111	2281.85
442.131	2285.57
446.149	2395.85
450.166	2452.93
454.18	1262.71
458.193	270.193
462.203	12.351
466.212	57.958
470.219	1.955
474.224	11.389
478.227	17.88
482.228	8.271
486.227	45.934
490.224	58.175
494.22	24.017
498.213	83.485
502.205	143.622
506.194	224.461
510.182	262.019
514.168	327.319
518.152	358.37
522.134	296.162
526.114	171.678
530.093	59.893
534.069	4.211
538.044	22.281
542.017	2.687
545.987	8.857
549.956	18.971
553.923	59.729
557.889	165.184
561.852	166.359
565.813	149.254
569.773	235.883
573.731	324.27
577.686	449.541
581.64	451.869
585.593	487.415
589.543	680.375
593.491	1022.23
597.438	1247.89
601.382	1553.44
605.325	1884
609.266	2273.38
613.205	2551.65
617.142	2268.26
621.078	1304.69
625.011	1067.4
628.943	1263.19
632.872	1664.66
636.8	2043.75
640.726	1755.76
644.651	1234.76
648.573	1073.49
652.494	1386.52
656.412	1918.31
660.329	2842.9
664.244	4501.51
668.157	5930.81
672.069	4785.89
675.978	3652.58
679.886	3015.22
683.792	2720.62
687.696	2619.66
691.598	2359.44
695.498	1823.11
699.397	1123.09
703.293	712.803
707.188	615.489
711.081	509.967
714.972	345.551
718.862	235.469
722.749	271.366
726.635	236.114
730.519	235.788
734.401	150.124
738.281	102.41
742.16	75.76
746.036	131.754
749.911	149.577
753.784	57.275
757.655	42.849
761.525	15.302
765.392	73.627
769.258	100.834
773.122	51.918
776.984	20.888
780.844	6.869
784.703	4.901
788.56	30.99
792.415	76.113
796.268	4.257
800.119	3.905
803.969	7.417
807.816	9.403
811.662	51.306
815.506	18.122
819.349	15.163
823.189	29.553
827.028	7.075
830.865	43.296
834.7	39.582
838.534	9.81
842.365	28.013
846.195	1.914
850.023	5.808
853.85	75.305
857.674	39.447
861.497	1.382
865.318	33.233
869.137	25.161
872.955	2.171
876.77	64.759
880.584	32.628
884.396	42.437
888.207	30.174
892.015	20.872
895.822	98.435
899.627	68.928
903.43	113.254
907.232	95.351
911.032	55.405
914.83	116.115
918.626	132.098
922.42	221.746
926.213	171.457
930.004	141.761
933.793	140.38
937.581	140.165
941.366	187.788
945.15	197.06
948.932	240.559
952.713	213.287
956.491	187.141
960.268	169.5
964.044	223.416
967.817	296.824
971.589	241.747
975.359	288.609
979.127	260.203
982.893	222.487
986.658	295.258
990.421	362.893
994.183	341.694
997.942	310.102
1001.7	250.478
1005.46	246.817
1009.21	252.209
1012.96	301.306
1016.71	334.382
1020.46	292.823
1024.21	268.049
1027.96	198.194
1031.7	210.439
1035.44	205.654
1039.18	225.188
1042.92	244.8
1046.66	233.875
1050.39	155.004
1054.13	113.799
1057.86	116.363
1061.59	135.783
1065.32	160.969
1069.05	176.043
1072.77	171.394
1076.49	119.021
1080.22	65.113
1083.94	38.759
1087.65	70.941
1091.37	110.975
1095.09	121.821
1098.8	107.614
1102.51	44.37
1106.22	53.131
1109.93	23.839
1113.63	32.544
1117.34	93.343
1121.04	171.851
1124.74	123.442
1128.44	26.889
1132.14	2.398
1135.84	14.332
1139.53	59.854
1143.22	61.076
1146.91	108.25
1150.61	75.432
1154.29	52.461
1157.98	26.565
1161.66	29.631
1165.35	11.665
1169.03	50.056
1172.71	39.737
1176.38	55.361
1180.06	82.933
1183.73	35.465
1187.41	15.927
1191.08	17.679
1194.75	48.39
1198.41	27.742
1202.08	64.795
1205.74	51.75
1209.41	50.619
1213.07	28.433
1216.73	6.132
1220.38	2.266
1224.04	43.246
1227.69	21.694
1231.35	32.051
1235	34.344
1238.65	80.565
1242.3	93.729
1245.94	62.956
1249.59	25.361
1253.23	30.327
1256.87	71.302
1260.51	89.108
1264.15	115.775
1267.78	138.565
1271.42	144.378
1275.05	87.671
1278.68	96.855
1282.31	91.95
1285.94	67.376
1289.56	64.516
1293.19	89.662
1296.81	123.549
1300.43	136.589
1304.05	145.714
1307.67	137.406
1311.29	128.29
1314.9	113.27
1318.52	79.828
1322.13	141.214
1325.74	92.244
1329.34	113.061
1332.95	155.542
1336.56	180.269
1340.16	147.089
1343.76	158.066
1347.36	128.037
1350.96	95.938
1354.56	56.478
1358.15	76.393
1361.74	105.31
1365.34	122.573
1368.93	142.423
1372.52	130.045
1376.1	94.381
1379.69	112.14
1383.27	71.451
1386.85	36.761
1390.43	1.84
1394.01	64.95
1397.59	44.949
1401.17	95.045
1404.74	81.278
1408.31	80.313
1411.88	118.264
1415.45	107.019
1419.02	50.133
1422.59	57.204
1426.15	40.171
1429.71	40.877
1433.28	36.209
1436.84	13.39
1440.39	81.569
1443.95	66.91
1447.5	86.248
1451.06	132.774
1454.61	109.154
1458.16	86.796
1461.71	51.995
1465.26	16.082
1468.8	11.075
1472.34	42.543
1475.89	89.916
1479.43	78.945
1482.97	102.026
1486.5	98.04
1490.04	130.802
1493.57	125.762
1497.11	89.074
1500.64	105.42
1504.17	39.548
1507.69	20.394
1511.22	5.854
1514.74	1.769
1518.27	53.249
