Measurement: Raman, 514 nm, ccw, Raman Data Processed
Mineral: Sphalerite
Rruff sample: R040136
Ideal chemistry: ZnS
Locality: Hilltop mine, Paradise, Cochise County, Arizona, USA
Source: University of Arizona Mineral Museum
Description: Olive green fragments
Measured chemistry: Zn_0.98_S
Pin_id: L00334
Orientation: Laser parallel to -a* (-1 0 0). Fiducial mark perpendicular to laser is parallel to -b [0 -1 0]
Raman shift (cm-1)	intensity
78.953	0
83.124	6.055
87.294	22.405
91.461	39.555
95.627	141.741
99.791	197.726
103.953	224.422
108.113	312.36
112.271	357.479
116.427	465.52
120.581	471.616
124.734	576.23
128.884	666.999
133.033	905.602
137.179	1216.78
141.324	1897.52
145.467	2194.83
149.608	2281.6
153.747	2278.66
157.884	2502.91
162.019	2657.25
166.152	2736.77
170.284	2990.44
174.413	3515.5
178.541	4064.14
182.667	3685.41
186.791	2980.3
190.912	2780.81
195.033	2545.22
199.151	2307.19
203.267	2353.25
207.381	2510.09
211.494	3018.49
215.605	4459.26
219.713	5204.7
223.82	4151.75
227.925	2994.45
232.029	2532.62
236.13	2571.46
240.229	2018.78
244.327	754.805
248.422	281.227
252.516	54.424
256.608	73.137
260.698	100.46
264.786	64.825
268.873	33.604
272.957	336.745
277.04	438.51
281.12	271.823
285.199	138.621
289.276	125.85
293.351	431.453
297.425	1224.39
301.496	1855.64
305.566	1136.45
309.633	894.101
313.699	765.619
317.763	217.23
321.826	98.492
325.886	364.945
329.944	1383.98
334.001	2189.52
338.056	2463.57
342.109	4127.03
346.16	14306.1
350.209	56814.3
354.257	23582.6
358.302	7456.99
362.346	4595.48
366.388	3670.03
370.428	3228.65
374.466	3157.6
378.503	3028.49
382.537	2946.21
386.57	2907.31
390.601	3193.16
394.63	3314.05
398.658	3449.03
402.683	2935.84
406.707	2416.76
410.729	2135.52
414.749	2178.38
418.767	2670.03
422.783	2900.72
426.798	2704.16
430.811	2362.12
434.821	1725.18
438.831	1524.24
442.838	1589.28
446.843	1672.3
450.847	1772.3
454.849	1249.27
458.849	284.193
462.847	36.069
466.844	51.176
470.839	88.761
474.831	53.847
478.822	2.316
482.812	43.03
486.799	14.065
490.785	9.702
494.769	19.309
498.751	58.746
502.731	41.04
506.71	65.22
510.686	128.312
514.661	211.291
518.634	281.163
522.606	203.939
526.575	161.593
530.543	99.119
534.509	44.492
538.473	21.339
542.436	24.498
546.396	49.971
550.355	25.148
554.312	73.007
558.268	101.82
562.221	96.197
566.173	113.567
570.123	151.804
574.071	179.962
578.018	249.126
581.962	308.512
585.905	380.725
589.846	421.858
593.786	472.646
597.723	618.254
601.659	905.136
605.593	1230.94
609.526	1406.53
613.456	1490.6
617.385	1681.14
621.312	1048.91
625.237	585.897
629.161	531.145
633.083	699.711
637.003	1234.49
640.921	1345.16
644.838	849.134
648.752	428.334
652.666	451.508
656.577	785.042
660.486	1314.75
664.394	2194.59
668.3	3550.32
672.205	3212.08
676.107	2354.63
680.008	1920.46
683.907	1656.67
687.804	1466.57
691.7	1434.48
695.594	1167.84
699.486	756.279
703.377	425.004
707.265	241.53
711.152	194.633
715.037	182.647
718.921	148.494
722.803	135.927
726.683	56.848
730.561	57.343
734.438	51.832
738.313	78.241
742.186	72.649
746.057	54.729
749.927	24.59
753.795	27.452
757.661	57.099
761.526	29.622
765.389	37.034
769.25	5.658
773.109	14.623
776.967	51.715
780.823	74.774
784.677	53.893
788.53	11.869
792.381	33.619
796.23	3.597
800.077	55.806
803.923	54.947
807.767	19.256
811.61	6.249
815.45	3.224
819.289	73.058
823.126	70.213
826.962	51.868
830.796	9.583
834.628	35.661
838.459	61.048
842.287	58.379
846.115	51.684
849.94	23.986
853.764	3.425
857.586	1.043
861.406	43.375
865.225	65.82
869.042	24.224
872.857	55.577
876.671	3.11
880.483	28.101
884.293	39.45
888.101	47.411
891.908	50.086
895.714	54.769
899.517	40.259
903.319	46.84
907.119	37.564
910.918	77.912
914.715	84.923
918.51	49.99
922.303	14.964
926.095	55.407
929.885	85.968
933.674	110.922
937.461	61
941.246	31.595
945.03	58.619
948.811	63.901
952.592	71.044
956.37	131.853
960.147	72.875
963.922	14.035
967.696	27.208
971.468	11.128
975.238	53.202
979.007	91.629
982.774	57.471
986.539	33.979
990.303	24.297
994.065	22.198
997.825	58.796
1001.58	84.052
1005.34	111.336
1009.1	118.52
1012.85	47.875
1016.6	23.666
1020.35	34.754
1024.1	50.159
1027.85	102.419
1031.6	69.204
1035.34	59.557
1039.08	53.917
1042.82	10.338
1046.56	70.458
1050.3	61.792
1054.03	94.272
1057.77	86.48
1061.5	71.251
1065.23	20.42
1068.96	16.823
1072.69	68.025
1076.41	80.359
1080.14	103.687
1083.86	78.922
1087.58	27.286
1091.3	19.498
1095.02	1.326
1098.74	39.97
1102.45	60.094
1106.16	82.263
1109.88	110.266
1113.59	33.407
1117.29	12.438
1121	18.346
1124.71	7.345
1128.41	53.5
1132.11	96.908
1135.81	61.254
1139.51	53.79
1143.21	2.905
1146.9	4.337
1150.6	1.948
1154.29	17.926
1157.98	109.4
1161.67	111.408
1165.36	81.31
1169.04	38.306
1172.72	8.866
1176.41	38.794
1180.09	38.758
1183.77	63.285
1187.44	116.935
1191.12	100.389
1194.8	144.575
1198.47	52.498
1202.14	55.958
1205.81	1.122
1209.48	46.989
1213.14	60.978
1216.81	105.743
1220.47	90.857
1224.14	124.641
1227.8	98.454
1231.45	38.164
1235.11	46.797
1238.77	86.302
1242.42	70.48
1246.07	115.814
1249.72	162.164
1253.37	114.472
1257.02	123.622
1260.67	86.756
1264.31	14.663
1267.95	72.684
1271.6	64.432
1275.24	31.047
1278.88	82.423
1282.51	139.733
1286.15	124.081
1289.78	77.728
1293.41	35.936
1297.04	12.902
1300.67	17.338
1304.3	18.526
1307.92	55.229
1311.55	124.513
1315.17	124.175
1318.79	120.401
1322.41	138.221
1326.03	61.581
1329.65	43.099
1333.26	14.186
1336.88	50.016
1340.49	32.936
1344.1	72.746
1347.71	138.449
1351.31	103.872
1354.92	153.578
1358.52	131.166
1362.12	104.917
1365.73	32.454
1369.33	11.285
1372.92	46.037
1376.52	52.875
1380.11	161.547
1383.71	218.283
1387.3	151.721
1390.89	149.077
1394.48	168.195
1398.07	89.133
1401.65	51.397
1405.23	33.982
1408.82	20.039
1412.4	65.427
1415.98	105.562
1419.56	148.058
1423.13	133.64
1426.71	206.567
1430.28	181.668
1433.85	164.279
1437.42	98.88
1440.99	66.382
1444.56	93.37
1448.12	53.958
1451.69	88.943
1455.25	95.881
1458.81	194.444
1462.37	287.148
1465.93	229.117
1469.49	267.281
1473.04	174.721
1476.6	125.934
1480.15	146.909
1483.7	40.946
1487.25	59.831
1490.79	14.548
1494.34	50.31
1497.88	106.434
1501.43	136.244
1504.97	208.378
1508.51	162.979
