Measurement: Raman, 514 nm, ccw, Raman Data Processed
Mineral: Sphalerite
Rruff sample: R040136
Ideal chemistry: ZnS
Locality: Hilltop mine, Paradise, Cochise County, Arizona, USA
Source: University of Arizona Mineral Museum
Description: Olive green fragments
Measured chemistry: Zn_0.98_S
Pin_id: L00334
Orientation: Laser parallel to -a* (-1 0 0). Fiducial mark perpendicular to laser is parallel to -b [0 -1 0]
Raman shift (cm-1)	intensity
69.212	0
73.388	48.214
77.562	121.24
81.734	11.864
85.904	12.298
90.072	21.865
94.239	298.859
98.403	569.292
102.566	680.742
106.726	815.655
110.885	1086.91
115.042	1543.38
119.197	1451.82
123.35	1483.47
127.501	1686.87
131.65	2045.72
135.797	2615.03
139.943	3494.67
144.086	4282.24
148.228	4697.86
152.367	4808.94
156.505	5136.95
160.641	5203.4
164.775	5619.66
168.907	6083.03
173.037	6901.65
177.165	7847.58
181.292	8254.84
185.416	6803.43
189.539	5833.51
193.659	5510.16
197.778	5222.36
201.895	4931.39
206.01	5145.77
210.123	6115.1
214.235	8196.33
218.344	10267.4
222.452	9349.34
226.557	6992.36
230.661	5656.04
234.763	5123.8
238.863	4688.05
242.961	2652.67
247.057	1263.4
251.152	750.046
255.244	409.675
259.335	244.567
263.424	378.997
267.511	948.53
271.596	2024.89
275.679	2867.11
279.76	2149.38
283.84	1319.63
287.917	1007.8
291.993	1144.83
296.067	1999.66
300.139	3258.26
304.209	2842.71
308.278	1791.78
312.344	1206.61
316.409	512.004
320.472	65.164
324.533	274.703
328.592	1314.95
332.649	2664.38
336.704	2817.33
340.758	3291.16
344.81	8628.77
348.86	33121.8
352.908	34355.1
356.954	10388.8
360.998	5639.85
365.041	4684.16
369.082	4686.72
373.121	4605.52
377.158	4550.07
381.193	4699.71
385.226	4855.9
389.258	5126.84
393.287	5474.55
397.315	5816.98
401.342	5732.29
405.366	4599.86
409.388	3956.75
413.409	3732.96
417.428	4639.45
421.445	5355.17
425.46	4987.09
429.473	4589.2
433.485	3837.47
437.494	3003.9
441.502	2916.45
445.508	3087.14
449.513	3304.92
453.515	2899.78
457.516	1156.69
461.515	104.645
465.512	72.305
469.507	124.452
473.501	95.177
477.492	136.469
481.482	174.339
485.47	21.737
489.457	81.425
493.441	3.553
497.424	4.327
501.405	26.97
505.384	85.567
509.361	232.06
513.337	348.438
517.31	493.697
521.282	526.837
525.252	349.837
529.221	156.689
533.187	45.391
537.152	6.16
541.115	46.271
545.076	1.074
549.036	0.439
552.994	40.649
556.949	9.308
560.904	168.554
564.856	151.572
568.807	201.377
572.755	299.977
576.702	329.78
580.648	421.947
584.591	510.147
588.533	615.53
592.473	768.942
596.411	1028.59
600.348	1389.73
604.282	1914.48
608.215	2451.85
612.146	2843.66
616.076	3166.39
620.003	2425.89
623.929	1290.06
627.853	1051.93
631.776	1428.42
635.696	2285.37
639.615	2738.91
643.532	2224.26
647.448	1116.17
651.361	792.844
655.273	1137.56
659.183	1979.54
663.092	3369.52
666.998	5869.29
670.903	7164.83
674.806	5040.26
678.708	3906.07
682.608	3285.71
686.506	3032.36
690.402	2736.26
694.296	2405.63
698.189	1729.95
702.08	950.115
705.969	556.97
709.857	404.706
713.743	265.838
717.627	237.624
721.509	183.034
725.39	196.789
729.269	75.903
733.146	119.598
737.021	123.989
740.895	95.093
744.767	81.989
748.637	86.139
752.506	39.461
756.373	61.375
760.238	75.317
764.101	52.691
767.963	22.762
771.823	104.722
775.681	43.363
779.538	16.625
783.393	37.793
787.246	4.026
791.097	8.208
794.947	38.522
798.795	6.849
802.641	13.973
806.486	77.04
810.329	36.113
814.17	37.754
818.01	32.378
821.848	23.684
825.684	1.847
829.518	50.701
833.351	10.619
837.182	2.22
841.011	1.527
844.839	26.101
848.665	59.172
852.489	13.163
856.312	21.213
860.133	19.307
863.952	14.307
867.77	24.615
871.585	38.806
875.4	2.718
879.212	50.43
883.023	119.815
886.832	106.88
890.64	68.178
894.445	120.805
898.25	10.96
902.052	72.896
905.853	124.751
909.652	117.432
913.449	100.638
917.245	123.651
921.039	87.653
924.831	140.274
928.622	161.055
932.411	130.874
936.199	128.177
939.984	139.284
943.769	104.885
947.551	62.149
951.332	82.54
955.111	161.234
958.888	148.472
962.664	100.155
966.438	112.858
970.211	81.365
973.982	107.619
977.751	84.571
981.518	59.567
985.284	49.624
989.048	68.892
992.811	38.334
996.572	34.85
1000.33	121.631
1004.09	96.241
1007.85	136.125
1011.6	88.361
1015.35	105.171
1019.1	52.952
1022.85	95.345
1026.6	55.236
1030.35	127.527
1034.09	129.702
1037.83	131.954
1041.58	76.185
1045.31	48.475
1049.05	50.373
1052.79	117.286
1056.52	108.42
1060.26	120.862
1063.99	112.17
1067.72	93.924
1071.45	81.452
1075.17	76.426
1078.9	121.544
1082.62	50.485
1086.34	69.043
1090.06	142.893
1093.78	19.753
1097.5	4.143
1101.21	109.448
1104.93	97.346
1108.64	140.181
1112.35	113.82
1116.06	0.507
1119.77	20.132
1123.47	19.344
1127.17	67.236
1130.88	79.368
1134.58	97.287
1138.28	76.429
1141.97	28.78
1145.67	62.112
1149.37	35.351
1153.06	4.589
1156.75	29.542
1160.44	24.872
1164.13	84.599
1167.81	97.445
1171.5	10.521
1175.18	69.371
1178.86	62.779
1182.54	159.918
1186.22	70.937
1189.9	129.955
1193.57	128.644
1197.24	129.778
1200.92	80.473
1204.59	27.926
1208.26	77.215
1211.92	73.104
1215.59	122.708
1219.25	116.956
1222.91	148.666
1226.58	129.906
1230.23	150.286
1233.89	100.244
1237.55	63.337
1241.2	154.494
1244.86	145.116
1248.51	138.371
1252.16	166.874
1255.81	158.321
1259.45	168.159
1263.1	41.919
1266.74	73.879
1270.38	44.495
1274.02	17.093
1277.66	56.196
1281.3	88.174
1284.93	115.403
1288.57	75.093
1292.2	81.633
1295.83	38.25
1299.46	16.157
1303.09	26.68
1306.72	27.856
1310.34	13.394
1313.96	29.623
1317.59	51.329
1321.21	12.688
1324.83	190.931
1328.44	62.671
1332.06	140.167
1335.67	164.76
1339.28	112.151
1342.89	104.62
1346.5	140.778
1350.11	101.372
1353.72	211.856
1357.32	244.647
1360.92	156.268
1364.53	151.291
1368.13	116.292
1371.72	139.06
1375.32	216.401
1378.92	88.65
1382.51	114.133
1386.1	74.02
1389.69	96.761
1393.28	175.72
1396.87	148.643
1400.46	126.542
1404.04	43.055
1407.62	0.113
1411.2	7.517
1414.79	10.907
1418.36	38.846
1421.94	0
