Measurement: Raman, 514 nm, ccw, Raman Data Processed
Mineral: Sphalerite
Rruff sample: R050140
Ideal chemistry: ZnS
Locality: Big Four mine, Summit County, Colorado, USA
Source: Dave Bunk Minerals
Description: Group of dark green tetrahedra
Measured chemistry: Zn_1.00_S_1.00_
Pin_id: L00183
Orientation: Laser parallel to -a* (-1 0 0). Fiducial mark perpendicular to laser is parallel to b [0 1 0]
Raman shift (cm-1)	intensity
49.365	0
53.566	262.383
57.765	2356.66
61.962	4019
66.157	4366.82
70.349	2644.25
74.54	1808.97
78.729	1025
82.916	283.09
87.101	116.812
91.284	179.528
95.465	86.42
99.644	58.781
103.82	292.107
107.995	796.846
112.168	1288.3
116.339	2414.36
120.508	2777.98
124.675	3498.64
128.84	4496.52
133.003	6112.39
137.164	8024.53
141.323	11512.3
145.48	13491.2
149.635	13957.2
153.788	14558.9
157.939	15776.7
162.088	16600.1
166.235	17619.4
170.38	19557.1
174.523	22724.8
178.664	25200.9
182.803	23641.7
186.94	19908.6
191.076	17437.6
195.209	16294
199.34	15640.3
203.47	15766.2
207.597	16751.9
211.722	20587.2
215.846	28467.5
219.967	32837.5
224.087	25387.8
228.204	19036.9
232.32	16763.9
236.434	16369.7
240.545	12890.1
244.655	6739.1
248.763	3887.48
252.869	2422.99
256.973	1459.77
261.075	982.598
265.175	576.125
269.273	219.125
273.369	62.087
277.463	275.617
281.556	141.912
285.646	188.399
289.734	135.19
293.821	1058.18
297.905	2975.72
301.988	4319.82
306.069	2707.58
310.147	1649.45
314.224	815.595
318.299	439.073
322.372	647.06
326.443	1656.41
330.512	3465.8
334.579	4673.98
338.645	4588.64
342.708	6232.52
346.769	14954.6
350.829	38554.7
354.887	24844.5
358.942	12964.1
362.996	10623.5
367.048	10792.6
371.098	11602
375.146	12515.1
379.192	12829.4
383.236	12908.4
387.279	13549.3
391.319	14647
395.358	15860.5
399.394	15796.8
403.429	13900.1
407.462	11701.6
411.493	10312.3
415.522	9493.3
419.549	10393.9
423.575	12670.5
427.598	12492.3
431.619	11780.4
435.639	9379.95
439.657	8393.97
443.673	8502.3
447.687	9216.69
451.699	9070.94
455.709	6533.52
459.717	1921.52
463.724	431.218
467.728	70.547
471.731	6.41
475.732	67.252
479.731	116.534
483.728	18.77
487.723	109.635
491.716	191.307
495.708	257.681
499.697	200.807
503.685	310.652
507.671	584.217
511.655	853.579
515.637	1195.69
519.617	1391.55
523.596	1149.15
527.572	690.496
531.547	212.573
535.52	6.636
539.491	190.359
543.46	170.047
547.427	131.786
551.393	55.55
555.356	2.924
559.318	151.317
563.278	296.281
567.236	518.002
571.192	666.503
575.147	801.87
579.099	1094.75
583.05	1421.68
586.999	1692.2
590.946	1967.83
594.891	2625.31
598.834	3473.14
602.776	4877.48
606.715	6689.18
610.653	7922.47
614.589	8576.5
618.523	8878.12
622.456	4939.2
626.386	2331.46
630.315	1938.38
634.242	2592.89
638.167	4256.17
642.09	4518.65
646.012	2810.59
649.931	1569.62
653.849	2203.83
657.765	4034.13
661.679	7223.7
665.592	12615.4
669.502	19273.8
673.411	17511.5
677.318	12568.8
681.223	10215.8
685.126	8852.34
689.028	7869.67
692.927	7172.91
696.825	5874.54
700.721	3639.22
704.616	1792.38
708.508	1067.4
712.399	748.103
716.288	615.185
720.175	542.748
724.06	355.031
727.944	223.353
731.825	165.208
735.705	164.528
739.584	113.096
743.46	77.531
747.334	85.184
751.207	89.185
755.078	98.769
758.947	65.891
762.815	0.529
766.68	28.108
770.544	24.603
774.406	11.091
778.267	42.772
782.125	9.285
785.982	6.472
789.837	22.645
793.69	16.007
797.542	33.194
801.391	14.053
805.239	41.794
809.085	31.731
812.93	0.434
816.772	78.825
820.613	17.736
824.452	75.832
828.29	48.707
832.125	27.014
835.959	19.913
839.791	27.424
843.621	9.233
847.45	20.1
851.277	20.239
855.102	35.618
858.925	34.476
862.746	57.87
866.566	86.022
870.384	60.785
874.2	52.208
878.015	52.254
881.828	90.938
885.639	127.087
889.448	109.379
893.256	77.511
897.061	145.896
900.865	155.82
904.668	197.598
908.468	189.711
912.267	190.636
916.064	216.647
919.86	188.977
923.653	211.612
927.445	268.937
931.236	296.269
935.024	211.279
938.811	263.258
942.596	161.531
946.379	204.823
950.161	217.973
953.94	188.389
957.719	154.003
961.495	131.756
965.27	81.561
969.043	41.648
972.814	121.281
976.583	104.803
980.351	108.118
984.117	125.895
987.882	138.487
991.644	112.318
995.405	64.119
999.165	123.077
1002.92	134.418
1006.68	119.702
1010.43	76.975
1014.18	70.555
1017.93	78.209
1021.68	102.688
1025.43	120.781
1029.18	86.292
1032.92	64.623
1036.66	60.901
1040.4	111.691
1044.14	94.143
1047.88	123.135
1051.62	136.334
1055.35	102.705
1059.08	97.069
1062.81	57.4
1066.54	70.13
1070.27	135.471
1073.99	98.63
1077.72	131.902
1081.44	75.258
1085.16	134.475
1088.88	82.82
1092.59	38.416
1096.31	34.167
1100.02	1.603
1103.73	96.112
1107.44	83.453
1111.15	30.223
1114.86	25.848
1118.57	70.876
1122.27	125.358
1125.97	151.683
1129.67	72.852
1133.37	85.888
1137.07	67.23
1140.76	46.262
1144.45	21.302
1148.15	48.425
1151.84	50.842
1155.53	38.769
1159.21	10.798
1162.9	0.514
1166.58	82.398
1170.26	23.03
1173.94	4.714
1177.62	13.295
1181.3	73.234
1184.97	88.456
1188.65	21.351
1192.32	128.555
1195.99	110.601
1199.66	49.864
1203.33	0.889
1206.99	40.04
1210.65	19.758
1214.32	137.06
1217.98	168.334
1221.64	120.031
1225.29	95.205
1228.95	19.838
1232.6	91.997
1236.26	66.348
1239.91	69.906
1243.56	57.916
1247.2	100.139
1250.85	117.482
1254.49	118.696
1258.13	87.164
1261.78	114.869
1265.41	85.892
1269.05	86.655
1272.69	94.537
1276.32	113.911
1279.95	143.077
1283.59	86.581
1287.21	33.928
1290.84	65.819
1294.47	2.102
1298.09	49.042
1301.72	15.192
1305.34	53.345
1308.96	8.447
1312.58	105.238
1316.19	106.264
1319.81	108.333
1323.42	37.917
1327.03	42.279
1330.64	87.2
1334.25	22.331
1337.86	20.007
1341.46	106.207
1345.07	100.417
1348.67	134.377
1352.27	154.111
1355.87	25.949
1359.46	46.495
1363.06	14.673
1366.65	29.538
1370.25	33.558
1373.84	56.573
1377.43	77.892
1381.02	105.136
1384.6	152.542
1388.18	176.208
1391.77	100.743
1395.35	39.234
1398.93	56.899
1402.51	66.945
1406.08	102.433
1409.66	69.722
1413.23	136.905
1416.8	157.505
1420.37	179.602
1423.94	142.245
1427.51	202.76
1431.08	120.572
1434.64	48.215
1438.2	12.885
1441.76	59.2
1445.32	114.683
1448.88	69.161
1452.43	143.113
1455.99	168.852
1459.54	208.326
1463.09	251.464
1466.64	240.058
1470.19	190.746
1473.74	132.492
1477.28	129.585
1480.83	27.237
1484.37	129.953
1487.91	96.614
1491.45	137.716
1494.98	142.873
1498.52	251.847
1502.05	295.485
1505.59	283.247
1509.12	271.836
1512.65	198.613
1516.17	116.798
1519.7	111.285
