Measurement: Raman, 514 nm, ccw, Raman Data Processed
Mineral: Sphalerite
Rruff sample: R050237
Ideal chemistry: ZnS
Locality: Picos de Europa, Spain
Source: Marcus Origlieri
Description: Green single crystal
Measured chemistry: Zn_1.00_S_1.00_
Pin_id: L00430
Orientation: Laser parallel to a* (1 0 0). Fiducial mark perpendicular to laser is parallel to b [0 1 0]
Raman shift (cm-1)	intensity
93.375	0
97.554	195.43
101.732	13.752
105.908	296.551
110.082	152.658
114.254	650.314
118.424	2904.25
122.592	2065.84
126.758	1866.21
130.922	3599.03
135.083	5794.61
139.243	10327.5
143.401	11155.9
147.557	12369.5
151.711	12989.8
155.863	13734.9
160.013	14607.1
164.161	16047.3
168.308	17864.7
172.452	21109.6
176.594	25378.5
180.734	23027.6
184.872	18375.4
189.008	16085.6
193.143	15198.7
197.275	14015.9
201.405	13810
205.534	15423.5
209.66	20098.2
213.784	29022.5
217.907	33943.7
222.027	25884.7
226.146	18710.4
230.263	15323.6
234.377	15252.3
238.49	11766.1
242.601	4446.98
246.709	1373.01
250.816	39.545
254.921	461.992
259.024	230.46
263.125	910.573
267.224	4131.99
271.321	10436.6
275.416	10270.8
279.51	6087.94
283.601	3701.23
287.69	2798.2
291.778	3426.45
295.863	5681.68
299.947	7493.18
304.029	4465.22
308.108	3147.95
312.186	2076.74
316.262	363.056
320.336	124.829
324.408	2168.01
328.478	4846.97
332.546	7756.81
336.612	8472.94
340.677	11929
344.739	23073.7
348.799	49914.3
352.858	25977.2
356.915	12583.2
360.969	11304.3
365.022	12867.4
369.073	14268.7
373.122	15883.6
377.169	15773.2
381.215	15924.1
385.258	15887.4
389.299	16933
393.339	18254.5
397.376	20107.6
401.412	17485.7
405.446	14130.6
409.478	12445.1
413.508	12475.8
417.536	15721.5
421.562	17320
425.586	16258.5
429.609	14707
433.629	11917.5
437.648	9643.7
441.665	9848.51
445.68	10832.9
449.693	11160.8
453.704	8583.11
457.713	2268.85
461.721	142.953
465.726	431.866
469.73	476.383
473.731	313.026
477.731	261.727
481.729	197.696
485.725	60.474
489.72	75.834
493.712	116.782
497.703	176.553
501.691	441.206
505.678	579.859
509.663	990.645
513.646	1499.58
517.627	2064.59
521.607	1886.65
525.584	1239.75
529.56	709.899
533.534	307.991
537.506	136.851
541.476	20.196
545.444	100.659
549.41	213.411
553.375	324.673
557.337	487.655
561.298	621.445
565.257	743.092
569.214	1048.68
573.17	1338.26
577.123	1571.93
581.075	1927.15
585.024	2250.22
588.972	2663.76
592.918	3266.77
596.863	4221.41
600.805	5448.36
604.746	7567.49
608.685	9473.28
612.621	10482.8
616.557	11889.9
620.49	7547.09
624.421	4092.9
628.351	4155.58
632.279	5612.13
636.205	8894.82
640.129	9961.98
644.051	7172.01
647.972	3473.47
651.89	2961.79
655.807	4735.45
659.722	7891.61
663.636	13505
667.547	22990.7
671.457	23960.3
675.365	16387.5
679.271	13345.4
683.175	12036.5
687.077	11013.1
690.978	10156.6
694.877	8642.25
698.774	5576.49
702.669	2963.17
706.562	2000.53
710.454	1547.38
714.344	1198.15
718.232	1052.9
722.118	940.253
726.002	633.5
729.885	692.327
733.766	431.338
737.645	338.84
741.522	209.023
745.397	197.642
749.271	176.465
753.143	208.807
757.013	40.208
760.881	136.949
764.748	120.75
768.613	70.906
772.476	60.549
776.337	12.008
780.196	16.702
784.054	25.095
787.91	87.667
791.764	55.793
795.616	58.463
799.467	36.738
803.316	89.932
807.163	90.68
811.008	3.062
814.851	11.568
818.693	112.668
822.533	17.856
826.371	21.618
830.208	76.823
834.042	16.249
837.875	66.551
841.706	57.466
845.536	16.296
849.363	35.223
853.189	18.567
857.013	15.354
860.836	70.629
864.656	99.989
868.475	27.069
872.292	137.868
876.108	143.334
879.922	56.341
883.733	88.951
887.544	115.19
891.352	177.561
895.159	174.408
898.964	183.014
902.767	243.708
906.568	283.604
910.368	152.947
914.166	216.832
917.962	184.199
921.757	220.35
925.55	357.64
929.341	340.765
933.13	259.406
936.918	161.749
940.703	237.528
944.488	222.698
948.27	266.894
952.051	293.44
955.83	143.099
959.607	129.778
963.383	156.351
967.156	191.979
970.928	134.328
974.699	168.525
978.468	207.18
982.234	179.174
986	85.554
989.763	191.014
993.525	113.649
997.285	293.417
1001.04	331.067
1004.8	318.583
1008.55	311.199
1012.31	324.454
1016.06	334.847
1019.81	231.457
1023.56	222.478
1027.31	472.881
1031.05	395.071
1034.79	399.625
1038.53	478.161
1042.27	292.138
1046.01	276.399
1049.75	446.264
1053.48	353.602
1057.22	429.94
1060.95	257.515
1064.68	324.348
1068.4	370.847
1072.13	321.849
1075.86	306.015
1079.58	286.055
1083.3	301.644
1087.02	233.995
1090.74	212.915
1094.45	90.355
1098.17	241.558
1101.88	133.711
1105.59	35.394
1109.3	69.823
1113.01	45.834
1116.71	154.65
1120.42	2.18
1124.12	160.416
1127.82	162.653
1131.52	53.511
1135.22	30.714
1138.91	90.872
1142.61	2.264
1146.3	14.358
1149.99	5.471
1153.68	30.991
1157.37	37.137
1161.06	61.273
1164.74	124.441
1168.42	205.284
1172.1	32.06
1175.78	158.988
1179.46	111.682
1183.14	192.141
1186.81	32.638
1190.48	208.586
1194.15	158.129
1197.83	252.197
1201.49	184.007
1205.16	250.115
1208.82	162.284
1212.49	152.867
1216.15	242.416
1219.81	96.925
1223.46	410.21
1227.12	202.518
1230.78	198.474
1234.43	275.575
1238.08	233.687
1241.73	214.176
1245.38	73.408
1249.03	79.013
1252.67	224.185
1256.31	132.891
1259.95	163.844
1263.6	143.917
1267.23	186.138
1270.87	94.642
1274.51	186.634
1278.14	242.003
1281.77	32.475
1285.4	79.281
1289.03	140.676
1292.66	11.697
1296.28	112.578
1299.91	165.754
1303.53	15.047
1307.15	19.791
1310.77	99.082
1314.38	114.113
1318	84.242
1321.61	112.469
1325.23	60.23
1328.84	65.119
1332.45	105.119
1336.06	195.047
1339.66	31.109
1343.27	12.139
1346.87	90.289
1350.47	259.998
1354.07	238.41
1357.67	265.65
1361.26	385.627
1364.86	345.197
1368.45	328.887
1372.04	257.027
1375.63	318.664
1379.22	134.008
1382.81	156.33
1386.39	269.375
1389.98	143.047
1393.56	239.951
1397.14	345.107
1400.72	340.121
1404.3	192.375
1407.87	190.146
1411.45	184.648
1415.02	249.76
1418.59	244.139
1422.16	304.09
1425.73	309.029
1429.29	211.533
1432.86	488.787
1436.42	487.586
1439.98	298.082
1443.54	363.561
1447.1	479.17
1450.66	187.328
1454.21	410.275
1457.77	426.797
1461.32	461.023
1464.87	257.871
1468.42	180.867
1471.96	289.557
1475.51	269.742
1479.06	176.232
1482.6	213.854
1486.14	285.043
1489.68	270.895
1493.22	310.883
1496.75	258.861
1500.29	166.258
1503.82	36.334
1507.35	162.088
1510.88	178.803
1514.41	176.533
1517.94	45.111
1521.46	68.76
