Measurement: Raman, 514 nm, ccw, Raman Data Processed
Mineral: Sphalerite
Rruff sample: R050140
Ideal chemistry: ZnS
Locality: Big Four mine, Summit County, Colorado, USA
Source: Dave Bunk Minerals
Description: Group of dark green tetrahedra
Measured chemistry: Zn_1.00_S_1.00_
Pin_id: L00183
Orientation: Laser parallel to -a* (-1 0 0). Fiducial mark perpendicular to laser is parallel to b [0 1 0]
Raman shift (cm-1)	intensity
49.365	0
53.566	0.35
57.765	1211.97
61.962	2706.63
66.157	3701.93
70.349	2507.95
74.54	3821.43
78.729	5297.79
82.916	3797.6
87.101	3218.11
91.284	1428.34
95.465	680.109
99.644	343.559
103.82	330.634
107.995	23.046
112.168	590.506
116.339	1868.72
120.508	1942.77
124.675	2551.63
128.84	3785.62
133.003	5255.56
137.164	7217.3
141.323	10731.6
145.48	12746.7
149.635	13230.8
153.788	13810.5
157.939	15069.9
162.088	15948.8
166.235	17154.4
170.38	18983
174.523	22198.9
178.664	24665.7
182.803	22972.1
186.94	19459.6
191.076	16960.2
195.209	15895.3
199.34	15199.8
203.47	15283.5
207.597	16436.3
211.722	20358.3
215.846	28400.1
219.967	32323.2
224.087	24641.1
228.204	18670.9
232.32	16311.4
236.434	16013.5
240.545	12306.9
244.655	6335.18
248.763	3435.44
252.869	2134.49
256.973	1299.26
261.075	917.201
265.175	593.357
269.273	228.993
273.369	138.099
277.463	186.812
281.556	213.748
285.646	205.324
289.734	30.146
293.821	979.389
297.905	2943.71
301.988	4249.21
306.069	2634.71
310.147	1607.46
314.224	732.88
318.299	406.327
322.372	595.783
326.443	1714.43
330.512	3663
334.579	4764.65
338.645	4639.97
342.708	6273.49
346.769	14824.8
350.829	37113.5
354.887	23411.6
358.942	12579.2
362.996	10596.3
367.048	10843
371.098	11660.1
375.146	12511.3
379.192	12953.1
383.236	12974.6
387.279	13771.7
391.319	14790.5
395.358	15961.6
399.394	16064.4
403.429	14044.7
407.462	11762
411.493	10557.9
415.522	9682.97
419.549	10812.5
423.575	12115.6
427.598	12753.1
431.619	11884.1
435.639	9683.93
439.657	8524.3
443.673	8785.06
447.687	9262
451.699	9157.92
455.709	6307.27
459.717	2010.64
463.724	537.214
467.728	113.234
471.731	19.607
475.732	86.624
479.731	134.262
483.728	117.454
487.723	163.004
491.716	235.332
495.708	236.219
499.697	267.688
503.685	368.711
507.671	595.322
511.655	865.568
515.637	1263.47
519.617	1452.05
523.596	1161.33
527.572	716.254
531.547	237.835
535.52	69.977
539.491	158.426
543.46	150.808
547.427	66.157
551.393	68.349
555.356	11.756
559.318	149.417
563.278	349.729
567.236	457.745
571.192	605.488
575.147	833.103
579.099	1093.29
583.05	1375.57
586.999	1768.02
590.946	2010.89
594.891	2631.34
598.834	3600.55
602.776	4940.4
606.715	6720.64
610.653	7802.42
614.589	8696
618.523	8729.69
622.456	4744.68
626.386	2313.91
630.315	1969.74
634.242	2742.87
638.167	4315.89
642.09	4492.13
646.012	2722.38
649.931	1421.17
653.849	2269.81
657.765	4287.17
661.679	7358.4
665.592	12846.2
669.502	19274.5
673.411	17303.1
677.318	12444.9
681.223	10203.1
685.126	8600.41
689.028	7878.65
692.927	7129.23
696.825	5827.7
700.721	3399.44
704.616	1701.56
708.508	949.658
712.399	726.6
716.288	596.654
720.175	458.732
724.06	356.077
727.944	261.938
731.825	149.908
735.705	146.941
739.584	153.833
743.46	49.972
747.334	27.664
751.207	46.871
755.078	6.8
758.947	34.43
762.815	40.097
766.68	26.638
770.544	16.883
774.406	1.419
778.267	4.711
782.125	37.229
785.982	43.127
789.837	14.603
793.69	16.976
797.542	4.92
801.391	29.904
805.239	26.906
809.085	9.148
812.93	43.261
816.772	24.295
820.613	69.975
824.452	22.308
828.29	25.65
832.125	7.99
835.959	13.996
839.791	46.301
843.621	31.506
847.45	9.382
851.277	18.977
855.102	15.888
858.925	30.262
862.746	60.385
866.566	26.326
870.384	16.852
874.2	18.893
878.015	31.904
881.828	38.134
885.639	142.644
889.448	118.577
893.256	109.92
897.061	79.261
900.865	142.087
904.668	224.569
908.468	272.969
912.267	275.09
916.064	225.411
919.86	249.23
923.653	220.068
927.445	277.701
931.236	281.36
935.024	231.056
938.811	205.136
942.596	205.133
946.379	186.002
950.161	202.471
953.94	170.95
957.719	171.963
961.495	136.699
965.27	133.671
969.043	140.977
972.814	88.733
976.583	132.488
980.351	92.442
984.117	99.269
987.882	127.49
991.644	109.455
995.405	118.598
999.165	102.42
1002.92	140.455
1006.68	153.097
1010.43	88.677
1014.18	84.974
1017.93	116.924
1021.68	143.156
1025.43	78.651
1029.18	123.101
1032.92	89.324
1036.66	44.931
1040.4	53.763
1044.14	78.195
1047.88	145.77
1051.62	123.359
1055.35	134.298
1059.08	81.757
1062.81	49.048
1066.54	69.265
1070.27	107.665
1073.99	113.905
1077.72	131.639
1081.44	133.491
1085.16	137.204
1088.88	38.581
1092.59	48.772
1096.31	57.672
1100.02	129.706
1103.73	111.542
1107.44	115.519
1111.15	63.286
1114.86	186.58
1118.57	78.309
1122.27	170.74
1125.97	145.312
1129.67	151.993
1133.37	40.839
1137.07	33.307
1140.76	6.338
1144.45	38.326
1148.15	5.692
1151.84	105.861
1155.53	90.158
1159.21	42.678
1162.9	5.924
1166.58	33.227
1170.26	28.441
1173.94	42.634
1177.62	5.945
1181.3	37.16
1184.97	18.578
1188.65	61.464
1192.32	69.664
1195.99	52.658
1199.66	8.026
1203.33	12.955
1206.99	53.731
1210.65	69.551
1214.32	31.704
1217.98	42.895
1221.64	73.004
1225.29	74.127
1228.95	11.149
1232.6	80.093
1236.26	54.748
1239.91	102.679
1243.56	98.767
1247.2	130.621
1250.85	45.984
1254.49	33.313
1258.13	49.477
1261.78	74.017
1265.41	18.49
1269.05	51.534
1272.69	72.562
1276.32	84.208
1279.95	152.188
1283.59	96.779
1287.21	58.857
1290.84	47.775
1294.47	4.148
1298.09	5.182
1301.72	19.832
1305.34	97.023
1308.96	71.817
1312.58	58.408
1316.19	42.132
1319.81	63.253
1323.42	61.122
1327.03	71.446
1330.64	35.06
1334.25	13.784
1337.86	47.586
1341.46	105.927
1345.07	95.305
1348.67	48.766
1352.27	149.284
1355.87	281.824
1359.46	216.814
1363.06	3.222
1366.65	58.307
1370.25	6.756
1373.84	1.82
1377.43	93.151
1381.02	74.294
1384.6	101.144
1388.18	116.518
1391.77	79.943
1395.35	91.357
1398.93	63.159
1402.51	11.448
1406.08	53.534
1409.66	14.225
1413.23	135.675
1416.8	153.815
1420.37	199.271
1423.94	78.411
1427.51	186.275
1431.08	140.766
1434.64	88.184
1438.2	46.05
1441.76	106.559
1445.32	77.251
1448.88	90.822
1452.43	218.992
1455.99	218.07
1459.54	296.797
1463.09	279.053
1466.64	144.768
1470.19	178.532
1473.74	179.895
1477.28	17.692
1480.83	95.419
1484.37	51.406
1487.91	372.055
1491.45	142.704
1494.98	141.702
1498.52	187.862
1502.05	188.592
1505.59	244.203
1509.12	206.236
1512.65	152.742
1516.17	134.929
1519.7	35.682
