Measurement: Raman, 514 nm, ccw, Raman Data Processed
Mineral: Sphalerite
Rruff sample: R040136
Ideal chemistry: ZnS
Locality: Hilltop mine, Paradise, Cochise County, Arizona, USA
Source: University of Arizona Mineral Museum
Description: Olive green fragments
Measured chemistry: Zn_0.98_S
Pin_id: L00334
Orientation: Laser parallel to -a* (-1 0 0). Fiducial mark perpendicular to laser is parallel to -b [0 -1 0]
Raman shift (cm-1)	intensity
83.124	0
87.294	2.187
91.461	20.74
95.627	29.428
99.791	108.745
103.953	147.179
108.113	132.192
112.271	185.533
116.427	385.254
120.581	399.226
124.734	500.634
128.884	661.939
133.033	978.628
137.179	1352.54
141.324	2165.59
145.467	2604.05
149.608	2626.83
153.747	2743.69
157.884	2964.51
162.019	3157.22
166.152	3231.73
170.284	3632.51
174.413	4349.23
178.541	5041.21
182.667	4683.31
186.791	3747.91
190.912	3431
195.033	3123.61
199.151	2847.46
203.267	2888.78
207.381	3186.22
211.494	3801.84
215.605	5537.75
219.713	6816.86
223.82	5320.14
227.925	3694.58
232.029	3153.25
236.13	3179.39
240.229	2552.01
244.327	902.828
248.422	394.837
252.516	79.122
256.608	89.902
260.698	109.188
264.786	33.87
268.873	200.242
272.957	800.038
277.04	898.402
281.12	517.247
285.199	306.504
289.276	262.119
293.351	517.041
297.425	1345.21
301.496	2210.59
305.566	1353.42
309.633	915.18
313.699	514.615
317.763	105.068
321.826	54.878
325.886	250.13
329.944	1349.26
334.001	2145.74
338.056	2034.27
342.109	3045.9
346.16	10004.4
350.209	41657.9
354.257	19761.1
358.302	6438.37
362.346	4137.67
366.388	3405.95
370.428	3181.34
374.466	3319.15
378.503	3357.6
382.537	3245.61
386.57	3238.28
390.601	3592.38
394.63	3893.93
398.658	3984.18
402.683	3450.61
406.707	2981.99
410.729	2598.79
414.749	2523.4
418.767	3103.27
422.783	3426.13
426.798	3308.05
430.811	2852.85
434.821	2218.34
438.831	1896.77
442.838	1967.13
446.843	2118.41
450.847	2119.59
454.849	1524.68
458.849	408.657
462.847	59.533
466.844	62.737
470.839	95.435
474.831	72.701
478.822	18.487
482.812	21.898
486.799	0.26
490.785	25.561
494.769	6.339
498.751	58.016
502.731	68.521
506.71	96.866
510.686	171.058
514.661	280.1
518.634	375.98
522.606	278.695
526.575	214.262
530.543	86.671
534.509	31.902
538.473	32.857
542.436	44.499
546.396	3.73
550.355	26.593
554.312	50.163
558.268	98.182
562.221	102.623
566.173	168.555
570.123	210.293
574.071	195.945
578.018	257.618
581.962	405.219
585.905	413.762
589.846	511.034
593.786	554.25
597.723	766.516
601.659	1096.7
605.593	1503.44
609.526	1794.56
613.456	1905.79
617.385	2087.97
621.312	1300.16
625.237	751.7
629.161	648.216
633.083	972.501
637.003	1480.21
640.921	1642.57
644.838	1157.44
648.752	489.653
652.666	538.735
656.577	887.524
660.486	1559.32
664.394	2650.14
668.3	4252.86
672.205	4042.51
676.107	2871.11
680.008	2415.52
683.907	2027.12
687.804	1799.41
691.7	1612.97
695.594	1414.49
699.486	938.906
703.377	461.611
707.265	290.021
711.152	192.131
715.037	195.142
718.921	187.551
722.803	131.659
726.683	74.797
730.561	53.179
734.438	67.884
738.313	50.946
742.186	55.998
746.057	52.847
749.927	12.122
753.795	9.34
757.661	39.75
761.526	50.945
765.389	51.05
769.25	9.048
773.109	19.012
776.967	38.839
780.823	27.466
784.677	31.174
788.53	13.005
792.381	38.12
796.23	15.944
800.077	22.873
803.923	13.661
807.767	11.576
811.61	2.889
815.45	9.316
819.289	13.185
823.126	30.647
826.962	25.906
830.796	4.167
834.628	41.58
838.459	6.469
842.287	5.518
846.115	20.448
849.94	23.344
853.764	31.802
857.586	1.941
861.406	9.003
865.225	51.873
869.042	10.687
872.857	32.491
876.671	53.776
880.483	28.992
884.293	53.416
888.101	82.772
891.908	31.044
895.714	14.209
899.517	7.545
903.319	44.341
907.119	65.996
910.918	76.766
914.715	86.566
918.51	29.658
922.303	16.255
926.095	1.742
929.885	76.301
933.674	118.432
937.461	94.815
941.246	46.222
945.03	17.367
948.811	27.81
952.592	64.379
956.37	79.612
960.147	78.617
963.922	84.192
967.696	33.066
971.468	8.64
975.238	58.921
979.007	53.392
982.774	28.283
986.539	36.143
990.303	11.488
994.065	9.186
997.825	39.796
1001.58	58.908
1005.34	67.897
1009.1	54.704
1012.85	28.59
1016.6	41.206
1020.35	27.589
1024.1	61.553
1027.85	56.929
1031.6	68.086
1035.34	70.533
1039.08	9.161
1042.82	23.437
1046.56	38.459
1050.3	63.256
1054.03	70.248
1057.77	98.152
1061.5	50.107
1065.23	46.13
1068.96	32.586
1072.69	17.555
1076.41	66.304
1080.14	68.341
1083.86	91.297
1087.58	71.164
1091.3	23.954
1095.02	5.858
1098.74	9.417
1102.45	42.26
1106.16	89.988
1109.88	35.528
1113.59	38.984
1117.29	37.807
1121	40.167
1124.71	14.66
1128.41	71.004
1132.11	92.233
1135.81	50.252
1139.51	80.362
1143.21	30.418
1146.9	10.479
1150.6	22.483
1154.29	23.772
1157.98	76.58
1161.67	79.205
1165.36	64.17
1169.04	94.123
1172.72	31.759
1176.41	31.279
1180.09	15.133
1183.77	58.371
1187.44	89.576
1191.12	82.843
1194.8	103.24
1198.47	76.76
1202.14	89.058
1205.81	47.262
1209.48	71.158
1213.14	67.045
1216.81	76.1
1220.47	90.89
1224.14	110.67
1227.8	60.053
1231.45	45.463
1235.11	60.057
1238.77	11.892
1242.42	42.071
1246.07	109.641
1249.72	93.689
1253.37	157.747
1257.02	92.582
1260.67	33.969
1264.31	62.51
1267.95	40.114
1271.6	62.426
1275.24	82.605
1278.88	122.905
1282.51	149.76
1286.15	121.125
1289.78	113.843
1293.41	55.044
1297.04	26.15
1300.67	0.664
1304.3	12.679
1307.92	1.203
1311.55	77.404
1315.17	79.842
1318.79	91.369
1322.41	85.934
1326.03	75.158
1329.65	66.739
1333.26	28.709
1336.88	15.427
1340.49	3.602
1344.1	0.819
1347.71	114.137
1351.31	135.816
1354.92	129.23
1358.52	114.733
1362.12	60.681
1365.73	31.901
1369.33	20.297
1372.92	67.374
1376.52	42.383
1380.11	101.508
1383.71	144.249
1387.3	130.03
1390.89	124.881
1394.48	128.918
1398.07	88.926
1401.65	43.879
1405.23	58.617
1408.82	29.873
1412.4	31.436
1415.98	77.653
1419.56	86.665
1423.13	98.526
1426.71	130.968
1430.28	155.417
1433.85	81.599
1437.42	150.186
1440.99	112.57
1444.56	55.281
1448.12	54.03
1451.69	95.344
1455.25	115.131
1458.81	156.478
1462.37	222.679
1465.93	188.791
1469.49	187.514
1473.04	137.399
1476.6	0
