Measurement: Raman, 514 nm, ccw, Raman Data Processed
Mineral: Sphalerite
Rruff sample: R050140
Ideal chemistry: ZnS
Locality: Big Four mine, Summit County, Colorado, USA
Source: Dave Bunk Minerals
Description: Group of dark green tetrahedra
Measured chemistry: Zn_1.00_S_1.00_
Pin_id: L00183
Orientation: Laser parallel to -a* (-1 0 0). Fiducial mark perpendicular to laser is parallel to b [0 1 0]
Raman shift (cm-1)	intensity
49.365	0
53.566	125.088
57.765	361.526
61.962	712.788
66.157	825.429
70.349	638.163
74.54	593.985
78.729	489.63
82.916	241.787
87.101	149.583
91.284	5.642
95.465	2.164
99.644	13.977
103.82	14.203
107.995	23.464
112.168	73.904
116.339	206.324
120.508	212.776
124.675	318.3
128.84	399.902
133.003	544.901
137.164	792.969
141.323	1146
145.48	1377.37
149.635	1431.76
153.788	1495.01
157.939	1595.14
162.088	1713.05
166.235	1811.92
170.38	2001.23
174.523	2297.57
178.664	2593.05
182.803	2390.8
186.94	1972.88
191.076	1773.12
195.209	1619.46
199.34	1575.86
203.47	1581.31
207.597	1721.79
211.722	2159.3
215.846	2979.8
219.967	3491.37
224.087	2695.09
228.204	2043.56
232.32	1725.6
236.434	1731.31
240.545	1335.97
244.655	693.247
248.763	346.966
252.869	240.593
256.973	147.502
261.075	85.915
265.175	50.308
269.273	36.01
273.369	19.689
277.463	27.213
281.556	7.282
285.646	14.207
289.734	53.3
293.821	206.406
297.905	484.528
301.988	619.661
306.069	531.127
310.147	442.25
314.224	418.497
318.299	220.661
322.372	211.513
326.443	436.243
330.512	868.104
334.579	1488.71
338.645	2124.29
342.708	4464.74
346.769	18027
350.829	51804.1
354.887	25000.9
358.942	8105.77
362.996	4388.58
367.048	3177.39
371.098	2771.36
375.146	2598.32
379.192	2375.57
383.236	2314.05
387.279	2298.81
391.319	2371.64
395.358	2452.45
399.394	2385.28
403.429	2136.9
407.462	1807.36
411.493	1684.51
415.522	1672.52
419.549	1972.54
423.575	2063.35
427.598	1884.81
431.619	1611.02
435.639	1226.98
439.657	1097.65
443.673	1075.7
447.687	1162.66
451.699	1105.27
455.709	811.434
459.717	261.563
463.724	36.648
467.728	5.341
471.731	14.45
475.732	29.698
479.731	9.868
483.728	2.667
487.723	0.286
491.716	21.01
495.708	19.239
499.697	22.399
503.685	37.491
507.671	47.52
511.655	86.487
515.637	124.402
519.617	149.261
523.596	120.068
527.572	74.821
531.547	30.523
535.52	19.164
539.491	12.308
543.46	11.964
547.427	12.798
551.393	6.795
555.356	17.094
559.318	32.91
563.278	39.662
567.236	59.354
571.192	79.982
575.147	101.596
579.099	106.31
583.05	156.934
586.999	194.558
590.946	220.198
594.891	276.744
598.834	349.827
602.776	513.686
606.715	737.255
610.653	842.67
614.589	988.411
618.523	952.921
622.456	542.918
626.386	300.184
630.315	286.742
634.242	441.001
638.167	724.883
642.09	730.776
646.012	463.018
649.931	218.558
653.849	273.477
657.765	467.491
661.679	803.638
665.592	1445.71
669.502	2192.18
673.411	2031.61
677.318	1435.18
681.223	1172.4
685.126	1004.02
689.028	925.055
692.927	816.761
696.825	694.347
700.721	395.594
704.616	212.066
708.508	131.297
712.399	80.368
716.288	84.694
720.175	59.697
724.06	50.849
727.944	41.478
731.825	25.663
735.705	22.977
739.584	25.242
743.46	12.454
747.334	24.573
751.207	6.393
755.078	3.657
758.947	17.627
762.815	15.421
766.68	6.156
770.544	2.16
774.406	28.438
778.267	21.005
782.125	1.545
785.982	1.039
789.837	0.469
793.69	4.028
797.542	18.514
801.391	8.03
805.239	11.38
809.085	2.797
812.93	0.117
816.772	18.347
820.613	11.6
824.452	0.16
828.29	3.919
832.125	13.037
835.959	6.957
839.791	8.007
843.621	8.142
847.45	0.057
851.277	1.226
855.102	23.561
858.925	2.441
862.746	1.36
866.566	29.166
870.384	17.959
874.2	17.682
878.015	3.383
881.828	15.998
885.639	31.076
889.448	20.791
893.256	22.181
897.061	13.623
900.865	23.608
904.668	15.283
908.468	15.604
912.267	26.125
916.064	32.105
919.86	24.1
923.653	27.478
927.445	34.426
931.236	29.372
935.024	35.218
938.811	23.12
942.596	31.56
946.379	21.331
950.161	14.077
953.94	30.185
957.719	14.884
961.495	19.527
965.27	28.993
969.043	13.592
972.814	9.152
976.583	32.456
980.351	8.92
984.117	13.163
987.882	13.264
991.644	1.756
995.405	16.313
999.165	6.568
1002.92	22.834
1006.68	12.284
1010.43	18.332
1014.18	8.576
1017.93	17.358
1021.68	24.511
1025.43	17.914
1029.18	18.261
1032.92	16.506
1036.66	28.176
1040.4	10.891
1044.14	18.099
1047.88	27.233
1051.62	10.479
1055.35	12.793
1059.08	7.054
1062.81	12.34
1066.54	2.69
1070.27	14.903
1073.99	22.128
1077.72	18.484
1081.44	13.539
1085.16	15.763
1088.88	13.934
1092.59	16.172
1096.31	14.473
1100.02	19.53
1103.73	14.623
1107.44	10.534
1111.15	35.459
1114.86	13.435
1118.57	22.342
1122.27	42.309
1125.97	27.318
1129.67	24.353
1133.37	17.259
1137.07	7.065
1140.76	18.885
1144.45	13.19
1148.15	8.941
1151.84	11.229
1155.53	8.698
1159.21	8.322
1162.9	12.082
1166.58	15.375
1170.26	24.941
1173.94	19.386
1177.62	16.19
1181.3	26.768
1184.97	4.641
1188.65	20.779
1192.32	22.219
1195.99	40.725
1199.66	0.207
1203.33	5.187
1206.99	10.953
1210.65	15.364
1214.32	26.595
1217.98	33.868
1221.64	25.889
1225.29	11.098
1228.95	17.299
1232.6	16.578
1236.26	8.532
1239.91	8.602
1243.56	24.624
1247.2	42.759
1250.85	27.738
1254.49	20.72
1258.13	17.676
1261.78	28.617
1265.41	24.496
1269.05	15.274
1272.69	2.073
1276.32	16.028
1279.95	24.69
1283.59	26.212
1287.21	20.805
1290.84	27.36
1294.47	2.552
1298.09	9.869
1301.72	11.465
1305.34	1.973
1308.96	1.778
1312.58	27.22
1316.19	20.349
1319.81	7.549
1323.42	24.65
1327.03	24.811
1330.64	30.226
1334.25	15.221
1337.86	10.262
1341.46	6.285
1345.07	7.124
1348.67	15.975
1352.27	7.732
1355.87	17.471
1359.46	22.185
1363.06	9.048
1366.65	12.665
1370.25	2.316
1373.84	4.036
1377.43	20.963
1381.02	30.59
1384.6	47.532
1388.18	25.694
1391.77	33.886
1395.35	23.963
1398.93	7.669
1402.51	14.554
1406.08	12.768
1409.66	29.098
1413.23	38.521
1416.8	52.743
1420.37	50.104
1423.94	24.269
1427.51	22.828
1431.08	21.407
1434.64	45.637
1438.2	4.85
1441.76	9.365
1445.32	20.304
1448.88	6.315
1452.43	32.282
1455.99	30.143
1459.54	37.945
1463.09	37.709
1466.64	30.522
1470.19	12.506
1473.74	29.79
1477.28	15.801
1480.83	44.785
1484.37	6.702
1487.91	21.464
1491.45	38.026
1494.98	29.946
1498.52	23.967
1502.05	52.101
1505.59	38.474
1509.12	44.497
1512.65	23.237
1516.17	42.349
1519.7	18.37
