Measurement: Raman, 514 nm, ccw, Raman Data Processed
Mineral: Sphalerite
Rruff sample: R050237
Ideal chemistry: ZnS
Locality: Picos de Europa, Spain
Source: Marcus Origlieri
Description: Green single crystal
Measured chemistry: Zn_1.00_S_1.00_
Pin_id: L00430
Orientation: Laser parallel to a* (1 0 0). Fiducial mark perpendicular to laser is parallel to b [0 1 0]
Raman shift (cm-1)	intensity
97.554	0
101.732	194.499
105.908	221.462
110.082	74.839
114.254	632.242
118.424	2651.39
122.592	1793.28
126.758	1877.44
130.922	3749.92
135.083	6203.33
139.243	11021.6
143.401	12202.7
147.557	13173.3
151.711	13999.3
155.863	14768
160.013	15917.7
164.161	17686.1
168.308	19661.2
172.452	23189.1
176.594	27798
180.734	25029.3
184.872	19749.8
189.008	17210.9
193.143	16501
197.275	15477.6
201.405	15101.3
205.534	17067.9
209.66	22265.7
213.784	32027
217.907	36625.6
222.027	27483.9
226.146	20042.1
230.263	16595.1
234.377	16507.9
238.49	12434.6
242.601	4320.53
246.709	1309.64
250.816	7.418
254.921	570.123
259.024	460.956
263.125	757.426
267.224	4000.48
271.321	10124.7
275.416	9621.16
279.51	5461.67
283.601	3381.2
287.69	2655.67
291.778	3440.39
295.863	5993.87
299.947	7960.87
304.029	4710.54
308.108	2887.54
312.186	1641.49
316.262	239.594
320.336	107.58
324.408	2478.29
328.478	5310.37
332.546	8479.4
336.612	9151.86
340.677	13590.5
344.739	24906.6
348.799	46891.2
352.858	24411.5
356.915	13055.2
360.969	11945
365.022	13772
369.073	15253.1
373.122	17206.4
377.169	17277.6
381.215	16706.8
385.258	17013.3
389.299	18192.2
393.339	19713.2
397.376	21707.6
401.412	18393.7
405.446	15077.9
409.478	13013.6
413.508	13185.6
417.536	16721.6
421.562	18153.7
425.586	17208.5
429.609	16092.7
433.629	12585.8
437.648	10476.9
441.665	10617.6
445.68	11586.9
449.693	12190.7
453.704	9208.05
457.713	2106.77
461.721	127.854
465.726	379.292
469.73	468.526
473.731	363.42
477.731	356.784
481.729	101.562
485.725	20.385
489.72	70.863
493.712	125.556
497.703	178.998
501.691	496.232
505.678	670.419
509.663	1087.61
513.646	1779.37
517.627	2307.13
521.607	1995.46
525.584	1290.77
529.56	756.061
533.534	390.308
537.506	48.188
541.476	110.23
545.444	128.455
549.41	241.724
553.375	447.414
557.337	583.79
561.298	739.91
565.257	793.832
569.214	1183.59
573.17	1476.23
577.123	1692.98
581.075	2133.45
585.024	2465.49
588.972	3034.93
592.918	3801.18
596.863	4667.81
600.805	6037.99
604.746	8349.98
608.685	10474
612.621	11390.9
616.557	12462.6
620.49	8003.04
624.421	4746.87
628.351	5159.01
632.279	6678.04
636.205	9382.33
640.129	10396.9
644.051	7298.58
647.972	3458.09
651.89	3235.79
655.807	5188.71
659.722	8571.33
663.636	14895.8
667.547	25401.3
671.457	25747.5
675.365	17539.1
679.271	14455.7
683.175	13091.1
687.077	12136.3
690.978	11155.7
694.877	9320.82
698.774	5898.65
702.669	3209.05
706.562	2145.15
710.454	1634.89
714.344	1346.35
718.232	1140.1
722.118	915.788
726.002	846.818
729.885	718.782
733.766	455.015
737.645	433.097
741.522	257.088
745.397	368.335
749.271	280.952
753.143	170.679
757.013	75.656
760.881	77.505
764.748	45.078
768.613	15.954
772.476	13.852
776.337	7.371
780.196	16.989
784.054	63.979
787.91	4.784
791.764	23.204
795.616	76.983
799.467	60.156
803.316	1.547
807.163	22.585
811.008	24.95
814.851	1.754
818.693	19.071
822.533	17.83
826.371	9.254
830.208	39.721
834.042	44.629
837.875	9.247
841.706	33.626
845.536	259.541
849.363	38.661
853.189	46.076
857.013	98.4
860.836	54.878
864.656	35.118
868.475	88.072
872.292	112.711
876.108	8.027
879.922	119.991
883.733	47.607
887.544	0.142
891.352	126.427
895.159	144.005
898.964	296.034
902.767	220.553
906.568	325.672
910.368	183.462
914.166	299.16
917.962	260.219
921.757	343.046
925.55	349.125
929.341	436.629
933.13	343.204
936.918	208.089
940.703	232.99
944.488	223.767
948.27	263.687
952.051	332.752
955.83	292.291
959.607	58.499
963.383	161.205
967.156	205.558
970.928	262.776
974.699	264.007
978.468	216.942
982.234	133.621
986	314.438
989.763	353.608
993.525	287.102
997.285	584.617
1001.04	466.033
1004.8	281.901
1008.55	317.67
1012.31	465.635
1016.06	382.343
1019.81	280.369
1023.56	397.917
1027.31	391.492
1031.05	590.68
1034.79	671.095
1038.53	538.036
1042.27	472.478
1046.01	503.524
1049.75	446.312
1053.48	422.559
1057.22	373.887
1060.95	340.386
1064.68	449.331
1068.4	437.273
1072.13	561.966
1075.86	423.088
1079.58	318.737
1083.3	377.121
1087.02	260.26
1090.74	276.596
1094.45	105.419
1098.17	216.36
1101.88	136.286
1105.59	32.449
1109.3	50.12
1113.01	48.363
1116.71	455.808
1120.42	60.877
1124.12	599.383
1127.82	236.491
1131.52	132.373
1135.22	5.849
1138.91	129.746
1142.61	50.742
1146.3	186.574
1149.99	0.569
1153.68	95.067
1157.37	16.563
1161.06	158.939
1164.74	105.064
1168.42	88.582
1172.1	115.959
1175.78	269.443
1179.46	208.465
1183.14	34.32
1186.81	156.765
1190.48	163.857
1194.15	56.595
1197.83	229.31
1201.49	153.325
1205.16	258.438
1208.82	86.339
1212.49	112.806
1216.15	216.475
1219.81	208.738
1223.46	72.693
1227.12	276.041
1230.78	251.051
1234.43	180.384
1238.08	349.331
1241.73	294.71
1245.38	104.072
1249.03	32.368
1252.67	105.27
1256.31	10.201
1259.95	197.705
1263.6	69.996
1267.23	118.39
1270.87	32.613
1274.51	133.767
1278.14	129.492
1281.77	115.883
1285.4	166.805
1289.03	194.357
1292.66	56.959
1296.28	42.912
1299.91	95.348
1303.53	5.275
1307.15	102.559
1310.77	126.625
1314.38	180.146
1318	33.852
1321.61	118.611
1325.23	216.092
1328.84	23.479
1332.45	70.916
1336.06	72.555
1339.66	66.896
1343.27	3.512
1346.87	130.076
1350.47	117.795
1354.07	262.203
1357.67	378.008
1361.26	380.936
1364.86	329.875
1368.45	337.168
1372.04	280.93
1375.63	339.889
1379.22	211.139
1382.81	304.211
1386.39	202.4
1389.98	345.369
1393.56	305.926
1397.14	253.354
1400.72	554.439
1404.3	308.203
1407.87	183.064
1411.45	249.836
1415.02	262.02
1418.59	225.785
1422.16	239.957
1425.73	335.057
1429.29	221.963
1432.86	149.143
1436.42	323.283
1439.98	294.023
1443.54	310.205
1447.1	322.662
1450.66	125.135
1454.21	308.461
1457.77	366.125
1461.32	388.76
1464.87	423.787
1468.42	181.814
1471.96	406.852
1475.51	335.938
1479.06	284.26
1482.6	232.58
1486.14	265.006
1489.68	140.342
1493.22	365.672
1496.75	280.619
1500.29	8.17
1503.82	133.979
1507.35	284.832
1510.88	175.598
1514.41	111.168
1517.94	0
