Measurement: Raman, 514 nm, ccw, Raman Data Processed
Mineral: Sphalerite
Rruff sample: R050005
Ideal chemistry: ZnS
Locality: Taolin mine, Yueyang, Linxing, Hunan Province, China
Source: Eugene Schlepp
Description: Reddish brown crystals
Measured chemistry: (Zn_.997_Fe_.003_)S
Pin_id: L00184
Orientation: Laser parallel to -a* (-1 0 0). Fiducial mark perpendicular to laser is parallel to -b [0 -1 0]
Raman shift (cm-1)	intensity
85.064	0
89.254	2.224
93.442	108.169
97.628	134.007
101.812	27.33
105.994	7.436
110.174	296.781
114.351	417.081
118.527	236.503
122.701	359.376
126.873	599.249
131.042	955.569
135.21	1570.75
139.376	2675.91
143.539	2939.95
147.701	3159.71
151.861	3527.63
156.018	3739.84
160.174	3816.43
164.327	4306.52
168.479	5296.18
172.628	5918.17
176.776	6822.38
180.922	6428.18
185.065	5314.55
189.207	4366.43
193.346	4050.81
197.484	3930.52
201.619	3774.06
205.753	4061.79
209.884	5742.13
214.014	8334.71
218.141	8807.22
222.267	6599.46
226.391	5011.38
230.512	4349.08
234.632	4024.9
238.749	2670.95
242.865	957.938
246.979	256.632
251.09	133.207
255.2	203.96
259.308	144.245
263.414	104.508
267.517	986.07
271.619	2326.15
275.719	2133.08
279.817	1380.12
283.913	1011.19
288.007	1515.23
292.099	2468.22
296.189	4358
300.277	5425.96
304.363	4255.62
308.447	3183.8
312.529	2064.34
316.609	961.462
320.687	922.226
324.764	2222.52
328.838	5145.49
332.91	8473.43
336.981	8887.45
341.049	8391.26
345.116	18481.1
349.18	41849.4
353.243	15226.6
357.304	7062.84
361.362	5665.81
365.419	6166.33
369.474	5464.39
373.527	5212.06
377.578	4794.51
381.627	5181.82
385.674	5402.92
389.719	5472.96
393.762	5600.32
397.804	5696.65
401.843	5158.01
405.881	4311.12
409.916	3769.07
413.95	4073.99
417.981	5149.21
422.011	5094.54
426.039	4593.4
430.065	3878.58
434.089	3173.4
438.111	2931.82
442.131	2942.85
446.149	3064.48
450.166	3043.7
454.18	1609.52
458.193	263.92
462.203	29.144
466.212	94.943
470.219	53.788
474.224	67.6
478.227	80.335
482.228	19.903
486.227	35.833
490.224	48.903
494.22	13.389
498.213	10.668
502.205	145.732
506.194	258.654
510.182	302.131
514.168	421.19
518.152	510.879
522.134	457.173
526.114	217.083
530.093	53.591
534.069	4.656
538.044	15.165
542.017	82.001
545.987	21.818
549.956	11.264
553.923	115.753
557.889	231.343
561.852	260.489
565.813	196.199
569.773	259.495
573.731	435.469
577.686	556.425
581.64	613.589
585.593	685.814
589.543	874.051
593.491	1237.8
597.438	1602.27
601.382	1914.29
605.325	2398.47
609.266	2938.34
613.205	3414.97
617.142	3010.22
621.078	1806.8
625.011	1562.8
628.943	1879.49
632.872	2567.64
636.8	3077.73
640.726	2757.06
644.651	1808.73
648.573	1491.13
652.494	1810.65
656.412	2461.71
660.329	3641.57
664.244	5720.64
668.157	7636.16
672.069	6355.93
675.978	4851.73
679.886	3982.74
683.792	3575.54
687.696	3410.95
691.598	3124.37
695.498	2394.16
699.397	1479.53
703.293	1046.39
707.188	760.852
711.081	648.831
714.972	554.38
718.862	360.536
722.749	310.45
726.635	374.198
730.519	334.088
734.401	229.253
738.281	174.362
742.16	102.273
746.036	157.799
749.911	183.247
753.784	160.5
757.655	35.514
761.525	32.353
765.392	82.025
769.258	151.533
773.122	68.884
776.984	27.137
780.844	5.457
784.703	2.069
788.56	30.521
792.415	46.2
796.268	33.891
800.119	15.447
803.969	28.834
807.816	29.681
811.662	20.11
815.506	61.455
819.349	53.736
823.189	6.078
827.028	14.979
830.865	86.894
834.7	140.706
838.534	34.621
842.365	49.12
846.195	61.749
850.023	17.44
853.85	16.456
857.674	29.234
861.497	15.603
865.318	31.093
869.137	3.9
872.955	53.263
876.77	16.397
880.584	52.482
884.396	42.5
888.207	14.457
892.015	70.364
895.822	93.037
899.627	157.702
903.43	195.259
907.232	68.681
911.032	103.729
914.83	120.62
918.626	208.644
922.42	224.49
926.213	248.233
930.004	193.788
933.793	212.22
937.581	243.527
941.366	240.252
945.15	287.77
948.932	362.222
952.713	272.333
956.491	253.047
960.268	243.147
964.044	304.634
967.817	415.497
971.589	373.638
975.359	358.507
979.127	345.072
982.893	293.617
986.658	352.011
990.421	391.403
994.183	415.998
997.942	453.021
1001.7	414.532
1005.46	369.982
1009.21	324.959
1012.96	387.665
1016.71	469.561
1020.46	424.355
1024.21	346.862
1027.96	298.809
1031.7	227.749
1035.44	280.483
1039.18	284.314
1042.92	318.939
1046.66	279.572
1050.39	189.081
1054.13	181.514
1057.86	117.626
1061.59	182.894
1065.32	217.203
1069.05	239.572
1072.77	157.551
1076.49	150.473
1080.22	59.393
1083.94	62.431
1087.65	142.322
1091.37	129.837
1095.09	191.46
1098.8	166.346
1102.51	111.425
1106.22	84.649
1109.93	52.651
1113.63	57.066
1117.34	105.425
1121.04	197.435
1124.74	181.589
1128.44	76.451
1132.14	4.741
1135.84	0.968
1139.53	66.826
1143.22	47.775
1146.91	91.519
1150.61	112.245
1154.29	58.985
1157.98	4.481
1161.66	3.035
1165.35	11.597
1169.03	34.27
1172.71	49.913
1176.38	22.991
1180.06	97.036
1183.73	77.91
1187.41	4.675
1191.08	14.664
1194.75	57.121
1198.41	34.23
1202.08	67.482
1205.74	57.645
1209.41	91.701
1213.07	83.788
1216.73	35.681
1220.38	7.55
1224.04	7.896
1227.69	9.579
1231.35	10.97
1235	96.273
1238.65	130.561
1242.3	153.671
1245.94	53.859
1249.59	95.835
1253.23	2.176
1256.87	33.55
1260.51	85.498
1264.15	145.781
1267.78	136.606
1271.42	173.077
1275.05	158.908
1278.68	83.424
1282.31	70.197
1285.94	31.48
1289.56	76.549
1293.19	118.2
1296.81	155.678
1300.43	218.375
1304.05	172.423
1307.67	194.525
1311.29	152.957
1314.9	169.727
1318.52	100.349
1322.13	71.636
1325.74	101.772
1329.34	141.877
1332.95	217.827
1336.56	250.295
1340.16	176.818
1343.76	107.224
1347.36	186.449
1350.96	91.767
1354.56	52.534
1358.15	72.728
1361.74	91.3
1365.34	130.405
1368.93	171.142
1372.52	168.489
1376.1	170.922
1379.69	154.832
1383.27	72.66
1386.85	43.222
1390.43	34.304
1394.01	49.871
1397.59	81.159
1401.17	120.729
1404.74	124.174
1408.31	111.27
1411.88	135.539
1415.45	114.594
1419.02	100.745
1422.59	49.961
1426.15	19.103
1429.71	7.36
1433.28	25.304
1436.84	21.134
1440.39	97.361
1443.95	166.788
1447.5	176.301
1451.06	158.075
1454.61	191.625
1458.16	121.823
1461.71	63.58
1465.26	83.894
1468.8	53.74
1472.34	71.781
1475.89	99.425
1479.43	93.793
1482.97	129.111
1486.5	193.59
1490.04	141.304
1493.57	167.327
1497.11	178.952
1500.64	127.064
1504.17	65.776
1507.69	110.923
1511.22	55.137
1514.74	15.816
1518.27	69.605
1521.79	72.511
