Measurement: Raman, 514 nm, ccw, Raman Data Processed
Mineral: Sphalerite
Rruff sample: R050005
Ideal chemistry: ZnS
Locality: Taolin mine, Yueyang, Linxing, Hunan Province, China
Source: Eugene Schlepp
Description: Reddish brown crystals
Measured chemistry: (Zn_.997_Fe_.003_)S
Pin_id: L00184
Orientation: Laser parallel to -a* (-1 0 0). Fiducial mark perpendicular to laser is parallel to -b [0 -1 0]
Raman shift (cm-1)	intensity
85.064	0
89.254	13.318
93.442	215.017
97.628	152.129
101.812	75.587
105.994	63.61
110.174	351.2
114.351	618.325
118.527	415.725
122.701	756.064
126.873	964.516
131.042	1369.21
135.21	2419.06
139.376	4026.24
143.539	4300.92
147.701	4604.27
151.861	5146.81
156.018	5498.69
160.174	5669.96
164.327	6320.74
168.479	7496.99
172.628	8517.72
176.776	9893.39
180.922	9310.81
185.065	7639.03
189.207	6387.99
193.346	5717.66
197.484	5639.24
201.619	5493.85
205.753	5860.44
209.884	8347.86
214.014	12185.7
218.141	12443.4
222.267	9410.66
226.391	7357.53
230.512	6214.11
234.632	5710.75
238.749	3737.51
242.865	1359.14
246.979	320.411
251.09	154.698
255.2	323.602
259.308	220.364
263.414	233.053
267.517	1620.92
271.619	3546.87
275.719	3180.3
279.817	1968.97
283.913	1505.76
288.007	2029.6
292.099	3246.41
296.189	5938.01
300.277	7420.03
304.363	5561.29
308.447	3954.65
312.529	2420.34
316.609	1172.37
320.687	1150.87
324.764	2732.65
328.838	6539.89
332.91	10483.5
336.981	10535.6
341.049	9522.28
345.116	19616.2
349.18	44667.8
353.243	16687.9
357.304	8167.15
361.362	7046.08
365.419	7755.29
369.474	7256.76
373.527	6930.92
377.578	6510.22
381.627	7028.05
385.674	7323.47
389.719	7388.14
393.762	7650.73
397.804	7960.36
401.843	7077.86
405.881	5924.46
409.916	5107.43
413.95	5637.8
417.981	6993.11
422.011	7061.72
426.039	6282.67
430.065	5412.84
434.089	4347.53
438.111	4096.71
442.131	4121.36
446.149	4241.47
450.166	4248.03
454.18	2259.05
458.193	425.505
462.203	84.662
466.212	65.869
470.219	126.865
474.224	88.596
478.227	112.19
482.228	32.019
486.227	101.095
490.224	61.362
494.22	7.209
498.213	101.406
502.205	264.338
506.194	412.624
510.182	453.319
514.168	586.46
518.152	762.093
522.134	617.207
526.114	351.82
530.093	83.855
534.069	14.252
538.044	66.92
542.017	17.795
545.987	16.13
549.956	21.173
553.923	122.812
557.889	305.834
561.852	258.256
565.813	294.083
569.773	389.343
573.731	676.13
577.686	804.899
581.64	798.088
585.593	999.442
589.543	1258.71
593.491	1715.14
597.438	2150.09
601.382	2643.55
605.325	3347.86
609.266	4073.96
613.205	4760.42
617.142	4113.85
621.078	2511.91
625.011	2150.83
628.943	2567.76
632.872	3460.11
636.8	4260.08
640.726	3647.08
644.651	2507.33
648.573	1984.54
652.494	2506.48
656.412	3347.85
660.329	5016.12
664.244	8091.73
668.157	10558.4
672.069	8506.87
675.978	6512.05
679.886	5258.29
683.792	4902.75
687.696	4618.65
691.598	4205.17
695.498	3161.92
699.397	1932.59
703.293	1244.46
707.188	1018.05
711.081	878.728
714.972	611.923
718.862	428.738
722.749	404.074
726.635	467.307
730.519	422.382
734.401	294.566
738.281	129.962
742.16	117.294
746.036	187.948
749.911	152.379
753.784	166.58
757.655	71.563
761.525	62.329
765.392	86.876
769.258	136.21
773.122	67.344
776.984	18.637
780.844	20.559
784.703	1.761
788.56	42.413
792.415	23.228
796.268	54.153
800.119	11.047
803.969	20.094
807.816	24.312
811.662	60.372
815.506	31.114
819.349	25.582
823.189	4.728
827.028	0.126
830.865	66.828
834.7	55.59
838.534	2.84
842.365	42.405
846.195	64.097
850.023	33.104
853.85	72.287
857.674	48.479
861.497	9.371
865.318	48.323
869.137	28.584
872.955	52.434
876.77	57.281
880.584	48.088
884.396	20.183
888.207	22.452
892.015	23.701
895.822	154.955
899.627	185.064
903.43	215.074
907.232	118.179
911.032	114.774
914.83	173.323
918.626	218.679
922.42	254.24
926.213	298.194
930.004	209.451
933.793	200.428
937.581	253.265
941.366	339.267
945.15	355.376
948.932	360.917
952.713	341.419
956.491	303.965
960.268	331.194
964.044	390.761
967.817	472.302
971.589	494.864
975.359	440.849
979.127	380.173
982.893	326.279
986.658	461.678
990.421	495.402
994.183	510.84
997.942	496.148
1001.7	479.127
1005.46	450.789
1009.21	454.595
1012.96	490.605
1016.71	577.927
1020.46	512.577
1024.21	446.965
1027.96	362.396
1031.7	339.685
1035.44	304.8
1039.18	400.912
1042.92	375.999
1046.66	377.46
1050.39	244.233
1054.13	239.466
1057.86	200.369
1061.59	228.663
1065.32	255.581
1069.05	287.787
1072.77	213.637
1076.49	228.24
1080.22	120.264
1083.94	62.015
1087.65	161.013
1091.37	214.324
1095.09	193.716
1098.8	147.457
1102.51	70.989
1106.22	110.109
1109.93	22.515
1113.63	120.787
1117.34	108.87
1121.04	294.723
1124.74	208.516
1128.44	66.311
1132.14	18.84
1135.84	18.269
1139.53	57.682
1143.22	78.157
1146.91	110.468
1150.61	95.861
1154.29	51.099
1157.98	39.152
1161.66	21.13
1165.35	26.128
1169.03	12.029
1172.71	83.784
1176.38	119.332
1180.06	84.779
1183.73	56.04
1187.41	16.152
1191.08	47.87
1194.75	24.105
1198.41	32.498
1202.08	48.969
1205.74	85.261
1209.41	82.397
1213.07	78.588
1216.73	39.424
1220.38	84.134
1224.04	28.734
1227.69	61.215
1231.35	123.614
1235	157.85
1238.65	104.202
1242.3	82.246
1245.94	63.118
1249.59	80.776
1253.23	29.636
1256.87	69.504
1260.51	84.699
1264.15	192.994
1267.78	178.46
1271.42	203.825
1275.05	168.79
1278.68	146.354
1282.31	107.876
1285.94	136.015
1289.56	177.77
1293.19	139.264
1296.81	260.09
1300.43	219.168
1304.05	249.361
1307.67	179.516
1311.29	179.734
1314.9	131.943
1318.52	141.962
1322.13	101.357
1325.74	214.654
1329.34	231.447
1332.95	271.458
1336.56	299.083
1340.16	190.218
1343.76	209.736
1347.36	196.378
1350.96	167.096
1354.56	50.34
1358.15	117.438
1361.74	149.949
1365.34	216.913
1368.93	204.434
1372.52	256.703
1376.1	244.364
1379.69	180.402
1383.27	75.593
1386.85	85.725
1390.43	80.207
1394.01	38.663
1397.59	109.056
1401.17	149.404
1404.74	207.989
1408.31	176.26
1411.88	183.363
1415.45	139.494
1419.02	68.454
1422.59	26.388
1426.15	3.342
1429.71	30.598
1433.28	44.576
1436.84	15.843
1440.39	146.933
1443.95	199.483
1447.5	223.104
1451.06	202.593
1454.61	148.845
1458.16	121.619
1461.71	42.168
1465.26	57.232
1468.8	120.286
1472.34	72.906
1475.89	143.291
1479.43	112.169
1482.97	293.97
1486.5	213.186
1490.04	237.628
1493.57	157.054
1497.11	153.027
1500.64	83.104
1504.17	33.069
1507.69	56.809
1511.22	34.714
1514.74	1.271
1518.27	78.545
1521.79	26.714
