Measurement: Raman, 514 nm, ccw, Raman Data Processed
Mineral: Spodumene
Rruff sample: R040050
Ideal chemistry: LiAlSi_2_O_6_
Locality: Minas Gerais, Brazil
Source: University of Arizona Mineral Museum
Description: Pale pink fragment of a single crystal, variety kunzite
Measured chemistry: (Li_0.99_Na_0.01_)Al_1.00_Si_2.00_O_6_
Pin_id: L00429
Orientation: Laser parallel to c* (0 0 1). Fiducial mark perpendicular to laser is parallel to a [1 0 0]
Raman shift (cm-1)	intensity
105.529	0
109.239	42.2618
112.946	58.0355
116.653	55.8614
120.358	77.2742
124.061	134.469
127.763	161.285
131.464	189.728
135.163	57.7629
138.86	27.6545
142.556	17.6595
146.251	45.7871
149.944	25.1457
153.636	30.5666
157.326	7.51831
161.015	44.6938
164.702	2.77734
168.388	55.8184
172.072	37.4385
175.755	28.0874
179.437	83.7104
183.117	152.258
186.795	174.656
190.472	146.438
194.148	107.392
197.822	2.36792
201.494	4.40186
205.166	10.5579
208.835	0.79834
212.504	10.9846
216.17	5.36206
219.836	50.9788
223.5	94.8272
227.162	182.714
230.823	140.624
234.482	55.4871
238.14	88.521
241.797	263.558
245.452	524.32
249.106	970.644
252.758	628.596
256.408	232.534
260.058	99.8384
263.705	35.0537
267.352	23.3662
270.996	49.6401
274.64	29.9185
278.281	11.4895
281.922	37.8772
285.561	150.706
289.198	342.91
292.834	567.393
296.469	687.659
300.102	478.813
303.733	186.818
307.363	74.7395
310.992	59.6191
314.619	41.8394
318.245	90.5798
321.869	131.593
325.492	226.425
329.113	242.494
332.733	158.82
336.351	60.2082
339.968	67.7383
343.584	236.897
347.198	619.69
350.81	1138.91
354.421	1741.86
358.031	1314.37
361.639	566.53
365.245	255.286
368.851	162.312
372.454	104.209
376.056	111.955
379.657	174.536
383.256	306.957
386.854	610.212
390.451	997.731
394.045	1173.04
397.639	721.151
401.231	242.934
404.821	177.054
408.41	97.6694
411.998	137.413
415.584	267.12
419.168	196.115
422.751	199.323
426.333	83.853
429.913	70.5169
433.492	142.409
437.069	260.088
440.645	364.118
444.219	456.616
447.792	264.843
451.363	79.8059
454.933	51.6121
458.501	73.2007
462.068	47.4504
465.634	24.2715
469.198	59.168
472.76	27.9924
476.321	42.0024
479.881	56.5757
483.439	54.7969
486.996	10.3359
490.551	4.48975
494.105	20.9678
497.657	92.0806
501.207	81.876
504.757	55.294
508.305	149.331
511.851	253.915
515.396	358.948
518.939	522.145
522.481	708.896
526.022	552.18
529.561	239.98
533.098	90.5718
536.634	135.416
540.169	119.79
543.702	68.4756
547.233	118.077
550.763	164.434
554.292	124.002
557.819	140.589
561.345	76.7686
564.869	84.46
568.392	172.513
571.913	206.907
575.433	191.804
578.952	211.759
582.469	360.269
585.984	487.738
589.498	443.401
593.011	210.083
596.522	141.907
600.031	44.1216
603.539	90.9981
607.046	122.755
610.551	129.954
614.055	184.478
617.557	0.408691
621.058	85.5352
624.557	88.3906
628.055	4.81689
631.551	25.9243
635.046	47.8887
638.539	48.1201
642.031	68.1704
645.521	92.293
649.01	111.3
652.498	41.5449
655.984	61.709
659.468	124.519
662.951	0.033691
666.433	148.941
669.913	147.227
673.392	110.76
676.869	165.427
680.345	174.891
683.819	95.6904
687.292	272.994
690.763	305.15
694.233	555.324
697.701	1214.31
701.168	2236.07
704.633	3737.65
708.097	4080.68
711.56	2243.05
715.021	1094.51
718.48	520.207
721.938	408.318
725.395	264.966
728.85	176.916
732.304	162.431
735.756	113.922
739.206	116.132
742.656	165.207
746.103	68.7373
749.55	236.767
752.995	189.509
756.438	132.875
759.88	81.9619
763.32	91.8296
766.759	60.5234
770.196	6.69824
773.632	153.722
777.067	129.56
780.5	39.957
783.932	230.175
787.362	161.467
790.79	34.8125
794.217	28.1572
797.643	219.382
801.067	121.735
804.49	74.1894
807.911	100.362
811.331	68.0518
814.749	92.6875
818.166	135.185
821.582	35.4131
824.995	179.537
828.408	85.54
831.819	192.36
835.228	121.326
838.636	56.5869
842.043	87.7656
845.448	32.0752
848.852	117.444
852.254	170.38
855.654	148.185
859.054	71.334
862.451	248.524
865.848	83.8213
869.242	71.2168
872.636	270.858
876.028	114.938
879.418	224.938
882.807	294.199
886.194	108.34
889.58	28.1426
892.965	156.181
896.348	26.7539
899.729	106.056
903.109	45.5605
906.488	95.8213
909.865	71.6631
913.241	165.048
916.615	40.0147
919.988	37.7246
923.359	131.24
926.729	162.76
930.097	82.4258
933.464	84.585
936.829	193.807
940.193	138.327
943.556	1.78809
946.917	9.80273
950.276	98.6172
953.634	152.865
956.991	5.36621
960.346	125.119
963.699	174.423
967.051	294.961
970.402	354.984
973.751	869.457
977.099	1000.1
980.445	900.017
983.79	610.332
987.134	331.007
990.475	4.78906
993.816	80.7422
997.155	101.356
1000.49	26.8291
1003.83	108.631
1007.16	29.9355
1010.5	86.3262
1013.83	227.303
1017.16	161.329
1020.49	578.176
1023.81	297.644
1027.14	296.264
1030.46	57.6797
1033.79	67.8008
1037.11	174.748
1040.43	55.5527
1043.74	298.647
1047.06	50.2148
1050.38	403.848
1053.69	329.309
1057	396.025
1060.32	553.236
1063.62	830.051
1066.93	1464.58
1070.24	2462.62
1073.55	2716.73
1076.85	1901.86
1080.15	1129.39
1083.45	646.432
1086.75	560.029
1090.05	315.185
1093.35	289.602
1096.64	228.633
1099.93	316.422
1103.22	363.334
1106.52	191.707
1109.8	86.5098
1113.09	256.039
1116.38	236.15
1119.66	29.2383
1122.95	0
