Measurement: Raman, 514 nm, ccw, Raman Data Processed
Mineral: Spodumene
Rruff sample: R040050
Ideal chemistry: LiAlSi_2_O_6_
Locality: Minas Gerais, Brazil
Source: University of Arizona Mineral Museum
Description: Pale pink fragment of a single crystal, variety kunzite
Measured chemistry: (Li_0.99_Na_0.01_)Al_1.00_Si_2.00_O_6_
Pin_id: L00321
Orientation: Laser parallel to (1 0 1). Fiducial mark perpendicular to laser is parallel to b [0 1 0]
Raman shift (cm-1)	intensity
112.946	0
116.653	87.5772
120.358	112.143
124.061	86.9907
127.763	171.923
131.464	221.835
135.163	105.198
138.86	84.3804
142.556	93.73
146.251	76.3267
149.944	191.332
153.636	73.125
157.326	181.835
161.015	72.4873
164.702	144.573
168.388	138.649
172.072	184.427
175.755	164.524
179.437	281.4
183.117	347.701
186.795	506.366
190.472	356.683
194.148	210.775
197.822	111.207
201.494	139.967
205.166	74.9844
208.835	109.237
212.504	70.2959
216.17	59.3418
219.836	52.7451
223.5	95.5791
227.162	69.3897
230.823	23.4453
234.482	44.8584
238.14	215.076
241.797	400.154
245.452	1005.17
249.106	2127.24
252.758	787.382
256.408	119.586
260.058	170.701
263.705	54.8457
267.352	6.95898
270.996	3.39746
274.64	77.5967
278.281	267.491
281.922	435.174
285.561	921.252
289.198	1784.29
292.834	3110.37
296.469	4026.48
300.102	2680.63
303.733	1360.82
307.363	990.017
310.992	569.975
314.619	599.738
318.245	1170.52
321.869	1480.21
325.492	2681.98
329.113	3452.17
332.733	2232.3
336.351	1083.46
339.968	843.573
343.584	1591.5
347.198	3481.03
350.81	6796.81
354.421	13142
358.031	10161
361.639	3976.06
365.245	1927.95
368.851	1354.32
372.454	989.169
376.056	1137.67
379.657	1598.74
383.256	2813.09
386.854	5005.42
390.451	8450.72
394.045	11433
397.639	7357.15
401.231	2852.68
404.821	1430.25
408.41	536.432
411.998	272.296
415.584	95.1523
419.168	199.537
422.751	261.726
426.333	288.579
429.913	346.153
433.492	696.231
437.069	1055.69
440.645	1683.46
444.219	1780.07
447.792	1065.53
451.363	571.821
454.933	319.218
458.501	80.0723
462.068	16.374
465.634	64.1006
469.198	12.6582
472.76	8.5918
476.321	20.1797
479.881	28.7666
483.439	3.52246
486.996	12.0342
490.551	39.168
494.105	158.689
497.657	168.995
501.207	193.727
504.757	322.454
508.305	594.153
511.851	827.743
515.396	1740.45
518.939	2950.01
522.481	3707.91
526.022	2592.03
529.561	1077.26
533.098	526.337
536.634	397.493
540.169	69.0205
543.702	218.238
547.233	43.1494
550.763	142.721
554.292	3.95117
557.819	11.2705
561.345	80.2324
564.869	169.345
568.392	100.853
571.913	266.97
575.433	182.722
578.952	304.117
582.469	564.173
585.984	724.875
589.498	736.216
593.011	271.981
596.522	238.647
600.031	159.971
603.539	42.1309
607.046	75.1602
610.551	25.4736
614.055	70.5283
617.557	112.352
621.058	107.223
624.557	8.94824
628.055	93.4912
631.551	85.5684
635.046	19.7334
638.539	20.5547
642.031	221.994
645.521	15.002
649.01	216.93
652.498	78.6084
655.984	57.2256
659.468	254.221
662.951	150.642
666.433	29.5928
669.913	180.379
673.392	152.822
676.869	384.743
680.345	360.1
683.819	332.063
687.292	433.769
690.763	616.775
694.233	1111.83
697.701	2030.18
701.168	4008.25
704.633	7157.52
708.097	8575.34
711.56	4567.07
715.021	2028.39
718.48	1000.15
721.938	692.848
725.395	454.775
728.85	240.541
732.304	497.127
735.756	341.19
739.206	259.977
742.656	401.227
746.103	421.445
749.55	168.385
752.995	152.606
756.438	145.047
759.88	81.9023
763.32	110.039
766.759	92.1367
770.196	212.375
773.632	64.1445
777.067	82.3008
780.5	144.787
783.932	243.965
787.362	197.42
790.79	84.6231
794.217	90.4727
797.643	128.816
801.067	199.467
804.49	88.7324
807.911	151.713
811.331	77.9668
814.749	424.629
818.166	113.019
821.582	95.8418
824.995	274.213
828.408	73.1289
831.819	23.1445
835.228	259.644
838.636	304.865
842.043	176.244
845.448	244.576
848.852	235.647
852.254	262.106
855.654	188.838
859.054	347.316
862.451	269.848
865.848	267.853
869.242	343.685
872.636	170.246
876.028	184.688
879.418	44.3242
882.807	183.062
886.194	132.955
889.58	185.547
892.965	43.4648
896.348	5.41797
899.729	291.697
903.109	69.2051
906.488	177.352
909.865	115.307
913.241	196.035
916.615	189.602
919.988	28.3789
923.359	16.7969
926.729	90.2949
930.097	137.32
933.464	219.44
936.829	229.117
940.193	18.707
943.556	151.037
946.917	84.5977
950.276	98.6035
953.634	86.9375
956.991	193.117
960.346	11.7988
963.699	97.0156
967.051	90.2832
970.402	300.371
973.751	370.56
977.099	594.045
980.445	495.389
983.79	300.967
987.134	99.7344
990.475	280.096
993.816	214.697
997.155	324.527
1000.49	463.647
1003.83	423.871
1007.16	490.266
1010.5	868.051
1013.83	1445.45
1017.16	2778
1020.49	3141.02
1023.81	1824.39
1027.14	678.74
1030.46	368.324
1033.79	390.623
1037.11	518.658
1040.43	598.369
1043.74	519.119
1047.06	582.021
1050.38	650.537
1053.69	845.42
1057	1440.64
1060.32	2116.73
1063.62	3889.86
1066.93	7516.79
1070.24	13603.2
1073.55	17047.7
1076.85	10403.2
1080.15	5319.1
1083.45	2471.33
1086.75	1478.88
1090.05	1217.03
1093.35	617.846
1096.64	614.291
1099.93	472.188
1103.22	519.053
1106.52	284.172
1109.8	233.867
1113.09	371.295
1116.38	288.959
1119.66	378.127
1122.95	246.861
1126.23	62.1641
1129.51	70.1836
1132.79	237.301
1136.06	41.1387
1139.34	262.559
1142.61	62.3242
1145.89	343.801
1149.16	224.32
1152.43	256.539
1155.7	398.012
1158.96	316.449
1162.23	269.856
1165.49	275.711
1168.76	334.262
1172.02	427.918
1175.28	128.043
1178.54	127.512
1181.79	279.375
1185.05	133.352
1188.3	142.891
1191.55	291.231
1194.8	491.953
1198.05	232.051
1201.3	304.023
1204.55	223.781
1207.79	201.945
1211.04	71.8945
