Measurement: Raman, 514 nm, ccw, Raman Data Processed
Mineral: Spodumene
Rruff sample: R040050
Ideal chemistry: LiAlSi_2_O_6_
Locality: Minas Gerais, Brazil
Source: University of Arizona Mineral Museum
Description: Pale pink fragment of a single crystal, variety kunzite
Measured chemistry: (Li_0.99_Na_0.01_)Al_1.00_Si_2.00_O_6_
Pin_id: L00429
Orientation: Laser parallel to c* (0 0 1). Fiducial mark perpendicular to laser is parallel to a [1 0 0]
Raman shift (cm-1)	intensity
99.344	0
103.056	13.5543
106.766	63.9076
110.475	98.4283
114.182	52.7224
117.888	72.2909
121.592	150.609
125.295	211.908
128.997	314.955
132.697	368.443
136.395	210.54
140.092	140.097
143.788	135.329
147.482	128.288
151.175	35.3684
154.866	73.7444
158.556	93.2327
162.244	79.4273
165.931	67.0012
169.616	41.7012
173.3	71.5102
176.982	127.199
180.663	154.863
184.343	270.65
188.021	465.902
191.697	325.228
195.373	124.081
199.046	101.92
202.718	9.8894
206.389	13.3081
210.058	25.9458
213.726	69.9768
217.392	49.1047
221.057	22.9941
224.721	45.3232
228.382	91.6802
232.043	80.9453
235.702	48.9941
239.359	217.443
243.015	323.892
246.67	749.713
250.323	912.039
253.975	429.957
257.625	98.6838
261.274	47.4089
264.921	25.6084
268.567	8.23023
272.211	9.63892
275.854	19.2871
279.495	11.2685
283.135	131.989
286.773	172.197
290.41	378.735
294.046	593.183
297.68	510.52
301.312	292.741
304.944	17.7998
308.573	24.928
312.201	37.3352
315.828	9.61182
319.453	36.4292
323.077	101.619
326.699	166.583
330.32	290.703
333.939	209.54
337.557	87.3542
341.174	110.906
344.789	201.177
348.402	496.859
352.014	876.012
355.625	1046.93
359.234	595.545
362.841	255.409
366.447	164.938
370.052	11.2297
373.655	26.4028
377.257	110.263
380.857	107.911
384.456	232.326
388.053	386.061
391.649	521.979
395.243	449.699
398.836	136.545
402.428	105.697
406.018	39.5217
409.606	45.2693
413.193	150.919
416.779	104.239
420.363	89.9822
423.945	58.7886
427.527	1.95068
431.106	195.944
434.684	208.152
438.261	286.227
441.836	362.918
445.41	403.279
448.982	191.196
452.553	65.1626
456.123	28.3389
459.691	35.7339
463.257	25.6821
466.822	36.9399
470.386	35.1982
473.948	0.108887
477.508	39.4492
481.067	65.4741
484.625	101.825
488.181	65.0786
491.736	87.2417
495.289	118.138
498.84	23.2188
502.391	10.9233
505.94	184.162
509.487	182.258
513.033	277.975
516.577	361.541
520.12	453.31
523.661	388.764
527.201	333.966
530.74	227.517
534.277	97.6885
537.812	61.3535
541.346	56.8677
544.879	92.3003
548.41	117.049
551.94	54.9292
555.468	116.387
558.995	39.0185
562.52	89.0571
566.044	192.391
569.566	152.909
573.087	176.609
576.606	321.695
580.124	357.309
583.641	352.459
587.156	427.762
590.669	393.368
594.181	304.843
597.692	241.105
601.201	170.319
604.708	56.9282
608.214	16.856
611.719	74.1099
615.222	83.7134
618.724	81.4141
622.224	10.5146
625.723	54.8052
629.22	15.9326
632.716	171.786
636.21	26.1929
639.703	62.6846
643.195	29.6582
646.685	20.5195
650.173	93.6797
653.66	53.6362
657.145	12.7964
660.63	65.8389
664.112	52.7515
667.593	8.5166
671.073	91.4189
674.551	158.215
678.028	224.593
681.503	174.779
684.977	267.01
688.449	352.153
691.92	450.871
695.389	815.578
698.857	1626.73
702.323	2987.44
705.788	4505.95
709.252	3952.53
712.714	2087.14
716.174	922.164
719.633	615.502
723.091	290.051
726.547	239.717
730.001	189.698
733.455	212.06
736.906	96.8408
740.356	140.293
743.805	115.94
747.252	128.171
750.698	90.5381
754.142	137.736
757.585	56.8711
761.027	125.285
764.467	82.0107
767.905	170.931
771.342	101.019
774.777	127.398
778.211	116.902
781.644	134.769
785.075	135.876
788.505	68.2812
791.933	66.376
795.359	29.3428
798.785	14.1035
802.208	73.832
805.631	90.376
809.051	34.7529
812.471	147.69
815.888	3.92969
819.305	109.942
822.72	153.203
826.133	110.102
829.545	68.8467
832.956	171.429
836.365	168.623
839.772	90.8457
843.178	154.081
846.583	167.261
849.986	191.394
853.387	105.516
856.788	108.421
860.186	111.24
863.584	92.8203
866.979	150.661
870.374	86.9434
873.766	221.478
877.158	154.162
880.548	137.985
883.936	248.852
887.323	142.809
890.709	7.70898
894.093	67.7266
897.475	125.026
900.856	162.89
904.236	34.5068
907.614	122.978
910.99	172.369
914.366	226.101
917.739	33.6826
921.112	120.384
924.482	156.455
927.852	101.316
931.219	34.376
934.586	9.72168
937.951	207.246
941.314	59.5674
944.676	121.373
948.037	38.7695
951.396	76.8359
954.753	55.9482
958.109	31.0654
961.464	181.832
964.817	153.438
968.169	546.29
971.519	847.595
974.867	1222.66
978.215	1510.18
981.56	1239.03
984.905	575.85
988.248	376.262
991.589	114.088
994.929	44.0977
998.267	11.2012
1001.6	15.3145
1004.94	78.6211
1008.27	100.051
1011.61	15.0449
1014.94	193.453
1018.27	173.289
1021.6	115.006
1024.92	105.438
1028.25	126.652
1031.57	6.1875
1034.89	8.60547
1038.21	64.7871
1041.53	123.096
1044.85	128.959
1048.17	127.799
1051.48	170.576
1054.8	273.728
1058.11	530.172
1061.42	403.951
1064.73	632.242
1068.04	1391.66
1071.34	1638.59
1074.65	1662.08
1077.95	959.008
1081.25	557.969
1084.55	388.092
1087.85	360.299
1091.15	279.701
1094.44	345.758
1097.74	212.473
1101.03	165.002
1104.32	94.0312
1107.61	79.7891
1110.9	59.7441
1114.19	231.545
1117.47	389.688
1120.76	149.096
1124.04	130.728
1127.32	298.941
1130.6	197.56
1133.88	415.147
1137.16	256.826
1140.43	382.594
1143.7	0
