Measurement: Raman, 514 nm, ccw, Raman Data Processed
Mineral: Spodumene
Rruff sample: R040050
Ideal chemistry: LiAlSi_2_O_6_
Locality: Minas Gerais, Brazil
Source: University of Arizona Mineral Museum
Description: Pale pink fragment of a single crystal, variety kunzite
Measured chemistry: (Li_0.99_Na_0.01_)Al_1.00_Si_2.00_O_6_
Pin_id: L00235
Orientation: Laser parallel to a* (1 0 0). Fiducial mark perpendicular to laser is parallel to b [0 1 0]
Raman shift (cm-1)	intensity
106.766	0
110.475	112.938
114.182	118.879
117.888	216.55
121.592	220.688
125.295	149.645
128.997	185.181
132.697	166.137
136.395	165.314
140.092	179.959
143.788	190.537
147.482	182.957
151.175	166.183
154.866	121.038
158.556	163.445
162.244	123.495
165.931	155.082
169.616	95.397
173.3	95.9194
176.982	154
180.663	210.555
184.343	300.215
188.021	299.714
191.697	208.735
195.373	42.0884
199.046	33.7173
202.718	58.6055
206.389	79.7422
210.058	97.1094
213.726	52.3052
217.392	26.604
221.057	51.8047
224.721	3.37402
228.382	3.96631
232.043	57.6812
235.702	41.5269
239.359	156.709
243.015	357.228
246.67	977.163
250.323	1094.15
253.975	241.696
257.625	128.331
261.274	98.3311
264.921	7.96387
268.567	15.7427
272.211	124.872
275.854	23.9658
279.495	138.381
283.135	359.4
286.773	898.136
290.41	1433.02
294.046	2405.04
297.68	2486.17
301.312	1325.4
304.944	638.707
308.573	360.014
312.201	267.979
315.828	418.743
319.453	728.503
323.077	1243.73
326.699	2046.09
330.32	2013.55
333.939	999.828
337.557	503.625
341.174	636.343
344.789	1355.69
348.402	2944.09
352.014	5983.08
355.625	8238.8
359.234	4490.73
362.841	1780.4
366.447	961.653
370.052	648.64
373.655	577.441
377.257	852.376
380.857	1267.26
384.456	2180.08
388.053	3837.85
391.649	6395.55
395.243	6458.19
398.836	2981.61
402.428	1246.09
406.018	513.098
409.606	247.001
413.193	183.7
416.779	54.3394
420.363	54.627
423.945	0.874023
427.527	43.7744
431.106	278.974
434.684	475.507
438.261	776.596
441.836	1229.76
445.41	985.764
448.982	523.598
452.553	253.787
456.123	95.46
459.691	127.194
463.257	9.84277
466.822	19.8169
470.386	72.4771
473.948	79.9673
477.508	36.3315
481.067	27.7822
484.625	4.49414
488.181	9.58643
491.736	35.8726
495.289	14.6484
498.84	25.1929
502.391	3.29736
505.94	180.886
509.487	303.18
513.033	581.796
516.577	1219.85
520.12	2046.71
523.661	2289.23
527.201	1142.22
530.74	497.438
534.277	291.966
537.812	166.873
541.346	93.501
544.879	105.073
548.41	112.455
551.94	30.5757
555.468	50.8359
558.995	15.5273
562.52	63.7998
566.044	56.1543
569.566	86.5132
573.087	92.4805
576.606	199.037
580.124	310.19
583.641	382.946
587.156	417.737
590.669	308.003
594.181	157.333
597.692	123.726
601.201	120.177
604.708	145.081
608.214	49.2676
611.719	39.9688
615.222	93.5703
618.724	46.4883
622.224	100.228
625.723	82.4102
629.22	118.695
632.716	51.8603
636.21	117.557
639.703	77.3984
643.195	53.1103
646.685	130.882
650.173	48.7978
653.66	150.395
657.145	166.137
660.63	188.459
664.112	195.446
667.593	103.921
671.073	80.8975
674.551	169.547
678.028	91.2881
681.503	138.922
684.977	167.01
688.449	239.477
691.92	423.995
695.389	812.927
698.857	1636.29
702.323	3119.82
705.788	5296.18
709.252	4575.81
712.714	1893.94
716.174	719.597
719.633	529.345
723.091	371.038
726.547	201.697
730.001	215.894
733.455	144.299
736.906	185.42
740.356	161.243
743.805	167.068
747.252	143.878
750.698	121.184
754.142	6.59766
757.585	29.6885
761.027	126.489
764.467	113.663
767.905	105.914
771.342	88.5674
774.777	121.614
778.211	195.065
781.644	154.235
785.075	286.738
788.505	84.1973
791.933	103.551
795.359	171.269
798.785	146
802.208	167.058
805.631	144.531
809.051	113.992
812.471	49.2949
815.888	163.667
819.305	174.853
822.72	135.159
826.133	213.219
829.545	255.124
832.956	159.237
836.365	268.269
839.772	334.825
843.178	279.757
846.583	335.728
849.986	338.412
853.387	343.447
856.788	288.172
860.186	188.669
863.584	117.006
866.979	223.643
870.374	300.704
873.766	271.839
877.158	228.068
880.548	341.29
883.936	37.8994
887.323	101.708
890.709	153.648
894.093	94.167
897.475	106.603
900.856	193.397
904.236	13.5596
907.614	242.093
910.99	45.876
914.366	100.792
917.739	24.2793
921.112	158.56
924.482	144.422
927.852	68.1338
931.219	58.6807
934.586	95.1455
937.951	48.7812
941.314	95.7891
944.676	98.8184
948.037	169.625
951.396	173.426
954.753	67.9023
958.109	21.5742
961.464	12.0703
964.817	123.022
968.169	57.2852
971.519	134.059
974.867	334.154
978.215	234.141
981.56	222.775
984.905	99.332
988.248	175.078
991.589	106.404
994.929	128.363
998.267	132.879
1001.6	362.826
1004.94	289.045
1008.27	389.941
1011.61	523.492
1014.94	1087.09
1018.27	1916.61
1021.6	1760.35
1024.92	616.521
1028.25	279.863
1031.57	107.022
1034.89	64.1055
1038.21	128.482
1041.53	36.6113
1044.85	191.947
1048.17	340.863
1051.48	418.225
1054.8	628.449
1058.11	995.902
1061.42	1427.5
1064.73	3222.86
1068.04	6094.4
1071.34	9827.74
1074.65	9241.23
1077.95	4848.01
1081.25	2430.03
1084.55	1287.48
1087.85	582.822
1091.15	439.566
1094.44	313.43
1097.74	254.459
1101.03	170.871
1104.32	297.34
1107.61	344.295
1110.9	26.8789
1114.19	72.457
1117.47	66.6328
1120.76	7.64453
1124.04	163.871
1127.32	168.027
1130.6	162.94
1133.88	215.33
1137.16	296.85
1140.43	248.732
1143.7	129.014
1146.98	245.059
1150.25	199.898
1153.52	51.9043
1156.79	274.703
1160.05	221.326
1163.32	233.533
1166.58	329.697
1169.84	270.799
1173.1	264.043
