Measurement: Raman, 514 nm, ccw, Raman Data Processed
Mineral: Spodumene
Rruff sample: R040050
Ideal chemistry: LiAlSi_2_O_6_
Locality: Minas Gerais, Brazil
Source: University of Arizona Mineral Museum
Description: Pale pink fragment of a single crystal, variety kunzite
Measured chemistry: (Li_0.99_Na_0.01_)Al_1.00_Si_2.00_O_6_
Pin_id: L00235
Orientation: Laser parallel to a* (1 0 0). Fiducial mark perpendicular to laser is parallel to b [0 1 0]
Raman shift (cm-1)	intensity
131.464	0
135.163	0.911743
138.86	4.53101
142.556	36.1194
146.251	30.4232
149.944	16.5779
153.636	14.0008
157.326	42.2566
161.015	62.5917
164.702	35.2809
168.388	72.9407
172.072	35.6952
175.755	65.7391
179.437	72.2089
183.117	62.5795
186.795	90.8723
190.472	75.535
194.148	70.2947
197.822	72.8682
201.494	78.823
205.166	88.5183
208.835	40.8509
212.504	39.254
216.17	29.4705
219.836	8.9154
223.5	22.4813
227.162	40.5376
230.823	39.6066
234.482	3.09009
238.14	41.9392
241.797	36.0031
245.452	65.7956
249.106	184.424
252.758	117.67
256.408	26.9407
260.058	22.9763
263.705	28.3394
267.352	67.0437
270.996	35.8052
274.64	60.1565
278.281	11.2837
281.922	69.2551
285.561	92.1389
289.198	146.719
292.834	202.168
296.469	279.986
300.102	176.546
303.733	58.9949
307.363	108.451
310.992	55.1592
314.619	43.6174
318.245	24.7012
321.869	66.7283
325.492	45.345
329.113	79.8943
332.733	0.870361
336.351	3.63965
339.968	102.1
343.584	207.041
347.198	370.673
350.81	740.968
354.421	1171.86
358.031	918.565
361.639	372.656
365.245	193.802
368.851	91.4517
372.454	62.2156
376.056	122.573
379.657	111.093
383.256	109.901
386.854	129.886
390.451	249.983
394.045	324.219
397.639	190.598
401.231	83.0115
404.821	36.8381
408.41	68.4319
411.998	33.9819
415.584	44.9241
419.168	8.68799
422.751	111.635
426.333	48.5042
429.913	38.2212
433.492	96.4785
437.069	161.704
440.645	227.019
444.219	243.766
447.792	170.354
451.363	112.378
454.933	87.9592
458.501	59.6311
462.068	8.45093
465.634	86.0564
469.198	5.69873
472.76	58.1538
476.321	58.3323
479.881	73.5298
483.439	132.666
486.996	32.9309
490.551	133.23
494.105	50.8206
497.657	47.3843
501.207	101.632
504.757	60.8044
508.305	114.084
511.851	112.226
515.396	204.008
518.939	381.589
522.481	412.007
526.022	269.929
529.561	182.915
533.098	145.894
536.634	53.5391
540.169	10.5054
543.702	12.5889
547.233	77.8481
550.763	79.0732
554.292	22.8208
557.819	86.6616
561.345	112.271
564.869	100.825
568.392	101.085
571.913	105.135
575.433	94.146
578.952	121.662
582.469	144.542
585.984	233.41
589.498	137.824
593.011	142.761
596.522	73.6958
600.031	110.986
603.539	140.996
607.046	98.3335
610.551	73.9331
614.055	75.3496
617.557	27.1455
621.058	14.2974
624.557	4.40283
628.055	43.7749
631.551	31.8672
635.046	8.10303
638.539	14.4028
642.031	1.41309
645.521	1.04346
649.01	93.3848
652.498	62.9727
655.984	121.875
659.468	32.1421
662.951	90.6987
666.433	34.6299
669.913	88.0581
673.392	89.1968
676.869	63.3369
680.345	108.414
683.819	120.99
687.292	111.506
690.763	172.462
694.233	307.692
697.701	426.866
701.168	878.068
704.633	1382.48
708.097	1461.97
711.56	837.002
715.021	495.856
718.48	208.904
721.938	167.353
725.395	158.594
728.85	88.8364
732.304	98.1177
735.756	135.498
739.206	166.529
742.656	69.3706
746.103	137.856
749.55	172.325
752.995	114.449
756.438	95.2519
759.88	165.034
763.32	55.9853
766.759	165.074
770.196	154.273
773.632	157.671
777.067	112.93
780.5	110.587
783.932	86.4268
787.362	171.96
790.79	30.0869
794.217	118.17
797.643	41.1309
801.067	54.8994
804.49	97.0547
807.911	87.5449
811.331	74.4356
814.749	130.735
818.166	63.8193
821.582	49.6553
824.995	57.1221
828.408	13.3184
831.819	91.3731
835.228	44.0459
838.636	63.8613
842.043	148.985
845.448	178.665
848.852	137.182
852.254	148.398
855.654	241.043
859.054	242.217
862.451	253.243
865.848	213.698
869.242	130.835
872.636	226.258
876.028	279.747
879.418	221.519
882.807	189.082
886.194	203.167
889.58	117.637
892.965	111.919
896.348	110.57
899.729	106.115
903.109	138.821
906.488	9.24414
909.865	192.324
913.241	53.6025
916.615	76.4941
919.988	247.516
923.359	199.053
926.729	112.209
930.097	52.7363
933.464	68.2793
936.829	227.106
940.193	231.015
943.556	164.727
946.917	162.464
950.276	2.82227
953.634	83.25
956.991	128.611
960.346	108.949
963.699	66.7481
967.051	45.3613
970.402	78.0303
973.751	180.228
977.099	226.633
980.445	70.2451
983.79	84.9658
987.134	123.334
990.475	86.8164
993.816	134.315
997.155	178.121
1000.49	4.84961
1003.83	166.545
1007.16	189.736
1010.5	188.801
1013.83	251.103
1017.16	214.832
1020.49	317.945
1023.81	197.451
1027.14	118.035
1030.46	153.602
1033.79	360.492
1037.11	154.4
1040.43	284.697
1043.74	325.287
1047.06	344.863
1050.38	208.385
1053.69	121.033
1057	246.893
1060.32	205.643
1063.62	200.045
1066.93	282.949
1070.24	139.541
1073.55	209.053
1076.85	180.582
1080.15	113.459
1083.45	341.607
1086.75	170.375
1090.05	180.293
1093.35	107.883
1096.64	25.4648
1099.93	200.096
1103.22	0
