Measurement: Raman, 514 nm, ccw, Raman Data Processed
Mineral: Spodumene
Rruff sample: R040050
Ideal chemistry: LiAlSi_2_O_6_
Locality: Minas Gerais, Brazil
Source: University of Arizona Mineral Museum
Description: Pale pink fragment of a single crystal, variety kunzite
Measured chemistry: (Li_0.99_Na_0.01_)Al_1.00_Si_2.00_O_6_
Pin_id: L00199
Orientation: Laser parallel to b* (0 1 0). Fiducial mark perpendicular to laser is parallel to c [0 0 1]
Raman shift (cm-1)	intensity
124.061	0
127.763	54.6807
131.464	74.7319
135.163	70.2083
138.86	67.1728
142.556	52.8433
146.251	46.221
149.944	53.5278
153.636	36.5947
157.326	15.9685
161.015	34.9119
164.702	78.4959
168.388	47.1609
172.072	45.2371
175.755	49.5076
179.437	36.9902
183.117	150.849
186.795	94.4036
190.472	125.562
194.148	109.401
197.822	50.5427
201.494	56.9053
205.166	55.4199
208.835	72.1096
212.504	9.56445
216.17	9.0791
219.836	4.09936
223.5	36.4766
227.162	94.4981
230.823	105.104
234.482	13.3367
238.14	97.6648
241.797	58.6755
245.452	48.1501
249.106	146.683
252.758	140.195
256.408	28.3679
260.058	98.8857
263.705	19.887
267.352	70.5361
270.996	79.6831
274.64	10.7952
278.281	10.0962
281.922	73.5391
285.561	115.828
289.198	114.853
292.834	212.046
296.469	218.664
300.102	141.573
303.733	43.6833
307.363	19.0566
310.992	9.06177
314.619	29.7783
318.245	19.1221
321.869	26.602
325.492	30.615
329.113	102.097
332.733	86.0584
336.351	28.7988
339.968	83.404
343.584	110.727
347.198	201.3
350.81	315.15
354.421	669.513
358.031	450.416
361.639	169.713
365.245	168.472
368.851	45.7268
372.454	46.6643
376.056	66.1223
379.657	85.529
383.256	118.85
386.854	208.645
390.451	312.455
394.045	366.057
397.639	176.789
401.231	46.0337
404.821	74.1824
408.41	69.8699
411.998	144.6
415.584	135.796
419.168	111.77
422.751	42.293
426.333	54.7905
429.913	113.284
433.492	105.654
437.069	67.0361
440.645	132.283
444.219	207.519
447.792	116.117
451.363	104.86
454.933	130.374
458.501	46.2773
462.068	95.1807
465.634	45.5654
469.198	36.1074
472.76	81.0488
476.321	2.30615
479.881	38.5532
483.439	88.394
486.996	37.3037
490.551	1.12305
494.105	20.3023
497.657	50.4829
501.207	84.4814
504.757	12.1909
508.305	76.2095
511.851	161.638
515.396	154.913
518.939	231.253
522.481	301.468
526.022	238.979
529.561	162.73
533.098	104.438
536.634	102.141
540.169	67.48
543.702	99.2944
547.233	44.0688
550.763	117.064
554.292	39.1836
557.819	153.645
561.345	14.8286
564.869	28.8721
568.392	60.2837
571.913	80.7007
575.433	157.868
578.952	138.567
582.469	60.3135
585.984	126.767
589.498	144.627
593.011	96.7856
596.522	36.0308
600.031	23.4614
603.539	97.8794
607.046	59.3603
610.551	29.9717
614.055	51.6621
617.557	50.6025
621.058	33.603
624.557	135.279
628.055	105.459
631.551	62.4639
635.046	106.766
638.539	126.309
642.031	150.894
645.521	2.39258
649.01	150.009
652.498	168.838
655.984	90.7217
659.468	130.872
662.951	45.8481
666.433	99.8057
669.913	178.657
673.392	165.292
676.869	125.518
680.345	94.7896
683.819	105.501
687.292	148.489
690.763	330.962
694.233	313.627
697.701	418.257
701.168	743.475
704.633	1443.67
708.097	1561.85
711.56	792.856
715.021	397.788
718.48	320.754
721.938	156.522
725.395	202.055
728.85	148.16
732.304	11.6709
735.756	35.7471
739.206	134.344
742.656	107.501
746.103	11.0088
749.55	39.7178
752.995	120.457
756.438	80.7861
759.88	20.251
763.32	82.918
766.759	121.041
770.196	31.2383
773.632	131.376
777.067	128.659
780.5	141.312
783.932	49.5605
787.362	46.6914
790.79	137.289
794.217	48.7744
797.643	135.82
801.067	152.841
804.49	41.1357
807.911	119.277
811.331	37.8574
814.749	23.6875
818.166	102.014
821.582	188.102
824.995	125.331
828.408	81.7041
831.819	153.31
835.228	134.054
838.636	274.375
842.043	223.065
845.448	211.31
848.852	142.816
852.254	149.347
855.654	136.476
859.054	32.6299
862.451	178.108
865.848	118.785
869.242	171.476
872.636	233.152
876.028	308.984
879.418	194.103
882.807	29.3643
886.194	179.744
889.58	215.973
892.965	73.5527
896.348	251.144
899.729	16.5273
903.109	71.168
906.488	82.6269
909.865	157.423
913.241	168.084
916.615	185.042
919.988	266.426
923.359	179.927
926.729	46.0645
930.097	2.84961
933.464	87.7871
936.829	94.7598
940.193	120.856
943.556	296.225
946.917	130.039
950.276	69.8555
953.634	137.535
956.991	60.7246
960.346	84.2715
963.699	162.881
967.051	6.94727
970.402	51.9414
973.751	131.203
977.099	150.678
980.445	223.853
983.79	15.6289
987.134	129.674
990.475	161.195
993.816	132.59
997.155	12.582
1000.49	77.6543
1003.83	16.9258
1007.16	117.191
1010.5	85.7539
1013.83	16.7207
1017.16	78.0059
1020.49	10.9863
1023.81	111.598
1027.14	122.791
1030.46	11.666
1033.79	104.627
1037.11	167.475
1040.43	200.254
1043.74	229.291
1047.06	208.195
1050.38	250.01
1053.69	150.35
1057	175.639
1060.32	186.307
1063.62	226.248
1066.93	256.31
1070.24	459.772
1073.55	487.805
1076.85	444.613
1080.15	316.115
1083.45	205.32
1086.75	186.307
1090.05	165.01
1093.35	343.316
1096.64	109.117
1099.93	78.584
1103.22	249.799
1106.52	152.779
1109.8	89.0879
1113.09	219.508
1116.38	0.011719
1119.66	164.727
1122.95	320.695
1126.23	168.531
1129.51	163.246
1132.79	262.006
1136.06	229.537
1139.34	154.76
1142.61	19.8145
1145.89	1.01953
