Measurement: Raman, 514 nm, ccw, Raman Data Processed
Mineral: Spodumene
Rruff sample: R040050
Ideal chemistry: LiAlSi_2_O_6_
Locality: Minas Gerais, Brazil
Source: University of Arizona Mineral Museum
Description: Pale pink fragment of a single crystal, variety kunzite
Measured chemistry: (Li_0.99_Na_0.01_)Al_1.00_Si_2.00_O_6_
Pin_id: L00321
Orientation: Laser parallel to (1 0 1). Fiducial mark perpendicular to laser is parallel to b [0 1 0]
Raman shift (cm-1)	intensity
106.766	0
110.475	61.0737
114.182	142.435
117.888	274.486
121.592	528.6
125.295	1223.56
128.997	2315.34
132.697	2197.52
136.395	780.403
140.092	385.547
143.788	191.587
147.482	123.745
151.175	104.091
154.866	86.6963
158.556	163.75
162.244	157.632
165.931	126.898
169.616	55.0254
173.3	35.9893
176.982	174.655
180.663	256.904
184.343	472.367
188.021	842.078
191.697	504.106
195.373	275.476
199.046	142.202
202.718	108.227
206.389	32.5278
210.058	101.94
213.726	52.8335
217.392	74.0142
221.057	143.664
224.721	232.959
228.382	518.041
232.043	314.015
235.702	112.847
239.359	95.5811
243.015	377.334
246.67	657.093
250.323	1349.85
253.975	1391.57
257.625	1365.82
261.274	1179.98
264.921	804.877
268.567	425.283
272.211	223.057
275.854	242.119
279.495	286.406
283.135	356.423
286.773	889.395
290.41	1596
294.046	2632.67
297.68	3211.42
301.312	2486.23
304.944	1089.02
308.573	399.357
312.201	144.716
315.828	164.172
319.453	237.669
323.077	499.812
326.699	712.944
330.32	786.466
333.939	380.042
337.557	284.875
341.174	397.11
344.789	1230.52
348.402	2458.25
352.014	5420.6
355.625	8201.19
359.234	4653.55
362.841	1787.41
366.447	854.11
370.052	506.966
373.655	428.674
377.257	480.925
380.857	776.886
384.456	1290.33
388.053	1658.68
391.649	2362.96
395.243	2614.14
398.836	1198.2
402.428	512.17
406.018	258.041
409.606	290.264
413.193	376.724
416.779	476.788
420.363	392.204
423.945	117.375
427.527	80.6875
431.106	164.85
434.684	444.358
438.261	921.666
441.836	1208.77
445.41	1072.66
448.982	725.323
452.553	230.773
456.123	52.001
459.691	92.9902
463.257	31.4619
466.822	28.3506
470.386	35.4248
473.948	98.6045
477.508	109.497
481.067	9.01172
484.625	15.4287
488.181	10.085
491.736	7.33594
495.289	85.5205
498.84	8.84473
502.391	165.758
505.94	186.932
509.487	336.773
513.033	405.222
516.577	920.59
520.12	1412.63
523.661	1715.19
527.201	1054.65
530.74	531.255
534.277	378.397
537.812	366.161
541.346	514.409
544.879	509.946
548.41	414.844
551.94	257.137
555.468	198.045
558.995	244.57
562.52	286.728
566.044	186.411
569.566	340.01
573.087	494.784
576.606	704.333
580.124	1005.48
583.641	1231.2
587.156	1386.51
590.669	1091.57
594.181	810.044
597.692	491.076
601.201	319.168
604.708	227.223
608.214	300.613
611.719	169.602
615.222	191.48
618.724	141.11
622.224	61.0107
625.723	144.207
629.22	110.195
632.716	58.0361
636.21	86.6475
639.703	25.1514
643.195	51.5967
646.685	11.1943
650.173	29.9785
653.66	90.9424
657.145	109.611
660.63	230.939
664.112	86.6035
667.593	226.128
671.073	21.3506
674.551	262.694
678.028	60.9815
681.503	177.044
684.977	383.132
688.449	529.315
691.92	835.725
695.389	1157.74
698.857	2173.88
702.323	4292.55
705.788	7465.51
709.252	6830.8
712.714	3265.69
716.174	1563.94
719.633	752.112
723.091	703.083
726.547	384.751
730.001	401.371
733.455	388.58
736.906	232.417
740.356	321.059
743.805	109.89
747.252	51.4453
750.698	189.895
754.142	83.6494
757.585	302.61
761.027	98.874
764.467	197.675
767.905	142.494
771.342	214.363
774.777	224.268
778.211	236.363
781.644	235.461
785.075	403.248
788.505	404.965
791.933	306.883
795.359	227.695
798.785	78.2363
802.208	48.3086
805.631	80.3398
809.051	244.934
812.471	296.961
815.888	92.0996
819.305	165.869
822.72	10.6387
826.133	20.3359
829.545	45.9551
832.956	134.207
836.365	12.1621
839.772	62.1953
843.178	299.463
846.583	117.053
849.986	192.994
853.387	106.244
856.788	358.471
860.186	251.465
863.584	162.603
866.979	176.478
870.374	164.603
873.766	135.31
877.158	218.391
880.548	189.684
883.936	181.318
887.323	361.541
890.709	345.1
894.093	208.346
897.475	242.613
900.856	266.838
904.236	46.0488
907.614	37.0117
910.99	46.0215
914.366	59.127
917.739	2.36914
921.112	68.1953
924.482	61.6816
927.852	74.2539
931.219	57.8418
934.586	189.785
937.951	161.262
941.314	55.8965
944.676	174.234
948.037	17.2578
951.396	25.1641
954.753	89.5977
958.109	2.74023
961.464	218.93
964.817	15.2168
968.169	334.463
971.519	702.939
974.867	1010.39
978.215	1236.41
981.56	792.26
984.905	436.066
988.248	249.287
991.589	397.08
994.929	218.463
998.267	85.166
1001.6	231.348
1004.94	423.465
1008.27	345.258
1011.61	513.854
1014.94	1034.79
1018.27	1746.84
1021.6	1871.14
1024.92	741.49
1028.25	253.498
1031.57	201.269
1034.89	255.26
1038.21	114.547
1041.53	152.141
1044.85	176.648
1048.17	373.027
1051.48	474.635
1054.8	459.781
1058.11	303.023
1061.42	777.189
1064.73	1632.04
1068.04	2892.31
1071.34	5058.86
1074.65	4859.3
1077.95	2965.78
1081.25	1294.58
1084.55	813.279
1087.85	458.17
1091.15	404.424
1094.44	173.293
1097.74	473.711
1101.03	840.559
1104.32	1161.81
1107.61	446.85
1110.9	293.867
1114.19	252.141
1117.47	232.283
1120.76	326.799
1124.04	274.9
1127.32	194.883
1130.6	78.5781
1133.88	84.1523
1137.16	179.26
1140.43	211.664
1143.7	141.523
1146.98	10.625
1150.25	56.209
1153.52	204.631
1156.79	296.215
1160.05	106.4
1163.32	226.221
1166.58	343.75
1169.84	373.732
1173.1	2.19922
1176.36	0
