Measurement: Raman, 514 nm, ccw, Raman Data Processed
Mineral: Spodumene
Rruff sample: R040050
Ideal chemistry: LiAlSi_2_O_6_
Locality: Minas Gerais, Brazil
Source: University of Arizona Mineral Museum
Description: Pale pink fragment of a single crystal, variety kunzite
Measured chemistry: (Li_0.99_Na_0.01_)Al_1.00_Si_2.00_O_6_
Pin_id: L00321
Orientation: Laser parallel to (1 0 1). Fiducial mark perpendicular to laser is parallel to b [0 1 0]
Raman shift (cm-1)	intensity
106.766	0
110.475	2.38916
114.182	323.847
117.888	930.918
121.592	2077.65
125.295	4151.63
128.997	8026.81
132.697	6703.08
136.395	2297.89
140.092	901.445
143.788	405.776
147.482	72.9233
151.175	71.7466
154.866	36.3843
158.556	47.1528
162.244	1.58643
165.931	20.9688
169.616	31.9648
173.3	64.2964
176.982	304.71
180.663	621.562
184.343	1282.43
188.021	2301.65
191.697	1474.18
195.373	542.887
199.046	255.701
202.718	209.594
206.389	128.539
210.058	21.3643
213.726	1.87744
217.392	22.4951
221.057	14.8657
224.721	47.3726
228.382	33.3872
232.043	28.6685
235.702	70.0249
239.359	8.13232
243.015	21.1572
246.67	54.8306
250.323	137.307
253.975	168.166
257.625	202.615
261.274	109.331
264.921	135.494
268.567	184.387
272.211	239.349
275.854	97.708
279.495	386.797
283.135	711.779
286.773	1254.67
290.41	2111.49
294.046	3309.24
297.68	3078.92
301.312	1376.53
304.944	617.664
308.573	165.972
312.201	129.524
315.828	2.41699
319.453	30.2529
323.077	90.2266
326.699	296.209
330.32	551.788
333.939	659.314
337.557	627.489
341.174	1307.81
344.789	2788.78
348.402	5613.25
352.014	11590.1
355.625	16808.5
359.234	8674.45
362.841	3089.55
366.447	1463.76
370.052	881.867
373.655	668.892
377.257	323.66
380.857	285.94
384.456	372.365
388.053	368.779
391.649	353.812
395.243	287.977
398.836	87.084
402.428	117.881
406.018	60.2383
409.606	84.1504
413.193	156.606
416.779	94.7559
420.363	171.847
423.945	180.734
427.527	312.432
431.106	647.938
434.684	1171.25
438.261	2040.36
441.836	2889.28
445.41	2424.99
448.982	1401.5
452.553	714.82
456.123	440.819
459.691	232.823
463.257	150.4
466.822	17.0195
470.386	35.5049
473.948	94.875
477.508	79.1484
481.067	183.808
484.625	72.96
488.181	68.7305
491.736	74.708
495.289	3.4707
498.84	9.22266
502.391	171.682
505.94	278.95
509.487	339.185
513.033	669.476
516.577	1235.36
520.12	2185.22
523.661	2330.68
527.201	1304.83
530.74	480.943
534.277	336.955
537.812	196.004
541.346	187.766
544.879	79.4522
548.41	232.695
551.94	9.15625
555.468	180.17
558.995	294.448
562.52	359.733
566.044	444.756
569.566	673.549
573.087	1026.09
576.606	1707.35
580.124	2429.7
583.641	3422.03
587.156	3632.44
590.669	2724.54
594.181	1842.34
597.692	1271.85
601.201	763.301
604.708	489.082
608.214	280.541
611.719	123.897
615.222	45.6309
618.724	209.805
622.224	134.379
625.723	285.184
629.22	86.2441
632.716	38.9844
636.21	2.13965
639.703	78.8555
643.195	61.2773
646.685	31.6865
650.173	51.6397
653.66	76.0684
657.145	26.4336
660.63	53.2959
664.112	157.167
667.593	260.271
671.073	113.178
674.551	186.282
678.028	273.54
681.503	396.572
684.977	558.151
688.449	1023.18
691.92	1567.75
695.389	2755.35
698.857	5536.29
702.323	10771.5
705.788	17877.6
709.252	15768.8
712.714	7408.07
716.174	3250.22
719.633	1854.37
723.091	1057.63
726.547	663.347
730.001	753.039
733.455	488.022
736.906	524.12
740.356	239.66
743.805	135.823
747.252	191.043
750.698	269.022
754.142	109.586
757.585	136.107
761.027	253.125
764.467	97.9531
767.905	194.254
771.342	295.967
774.777	212.205
778.211	211.492
781.644	166.148
785.075	111.51
788.505	47.041
791.933	122.686
795.359	271.754
798.785	19.5645
802.208	147.637
805.631	100.58
809.051	156.551
812.471	188.193
815.888	18.0742
819.305	56.6387
822.72	81.9219
826.133	105.688
829.545	142.574
832.956	176.205
836.365	187.176
839.772	82.4648
843.178	71.0547
846.583	16.9609
849.986	195.156
853.387	176.67
856.788	201.504
860.186	110.936
863.584	303.408
866.979	160.435
870.374	193.164
873.766	129.832
877.158	278.139
880.548	153.707
883.936	221.445
887.323	189.123
890.709	160.807
894.093	130.418
897.475	75.7969
900.856	46.8379
904.236	2.33008
907.614	70.8223
910.99	213.652
914.366	190.922
917.739	105.35
921.112	64.1484
924.482	70.8359
927.852	88.1562
931.219	283.353
934.586	185.869
937.951	49.5332
941.314	69.3398
944.676	115.582
948.037	72.291
951.396	235.838
954.753	112.07
958.109	205.357
961.464	434.777
964.817	477.062
968.169	911.242
971.519	1661.1
974.867	2773.81
978.215	3133.62
981.56	2450.42
984.905	1387.9
988.248	713.795
991.589	314.697
994.929	426.047
998.267	186.43
1001.6	220.086
1004.94	292.957
1008.27	428.799
1011.61	879.49
1014.94	1608.09
1018.27	3090.31
1021.6	3055.6
1024.92	1294.59
1028.25	483.381
1031.57	506.539
1034.89	145.678
1038.21	128.094
1041.53	93.5606
1044.85	109.469
1048.17	73.7246
1051.48	269.812
1054.8	261.566
1058.11	34.793
1061.42	383.336
1064.73	647.707
1068.04	1151.71
1071.34	1836.99
1074.65	1741.45
1077.95	1097.34
1081.25	587.731
1084.55	431.629
1087.85	224.91
1091.15	175.772
1094.44	206.236
1097.74	270.053
1101.03	391.254
1104.32	433.082
1107.61	356.76
1110.9	12.0879
1114.19	49.9004
1117.47	337.486
1120.76	309.221
1124.04	407.303
1127.32	219.039
1130.6	79.6445
1133.88	122.824
1137.16	210.236
1140.43	31.1484
1143.7	205.453
1146.98	237.893
1150.25	235.244
1153.52	9.84961
1156.79	245.231
1160.05	168.072
1163.32	243.574
1166.58	484.176
1169.84	339.801
1173.1	296.695
1176.36	254.297
1179.62	1.54883
