Measurement: Raman, 514 nm, ccw, Raman Data Processed
Mineral: Spodumene
Rruff sample: R040050
Ideal chemistry: LiAlSi_2_O_6_
Locality: Minas Gerais, Brazil
Source: University of Arizona Mineral Museum
Description: Pale pink fragment of a single crystal, variety kunzite
Measured chemistry: (Li_0.99_Na_0.01_)Al_1.00_Si_2.00_O_6_
Pin_id: L00199
Orientation: Laser parallel to b* (0 1 0). Fiducial mark perpendicular to laser is parallel to c [0 0 1]
Raman shift (cm-1)	intensity
106.766	0
110.475	20.4944
114.182	66.8967
117.888	206.03
121.592	364.769
125.295	632.264
128.997	1209.6
132.697	1007.1
136.395	363.272
140.092	236.603
143.788	107.164
147.482	52.6367
151.175	84.4048
154.866	91.2146
158.556	68.1831
162.244	106.11
165.931	130.355
169.616	104.79
173.3	79.3821
176.982	91.1533
180.663	101.015
184.343	261.881
188.021	424.899
191.697	312.029
195.373	143.104
199.046	62.2581
202.718	76.4465
206.389	52.6509
210.058	38.9329
213.726	21.0366
217.392	1.45435
221.057	79.0691
224.721	44.0017
228.382	140.755
232.043	119.658
235.702	77.5625
239.359	67.3279
243.015	103.43
246.67	391.179
250.323	491.671
253.975	266.658
257.625	133.404
261.274	139.849
264.921	92.7163
268.567	104.103
272.211	81.3989
275.854	3.1189
279.495	76.3423
283.135	195.521
286.773	186.572
290.41	346.245
294.046	601.716
297.68	624.133
301.312	261.489
304.944	139.78
308.573	67.9841
312.201	56.4224
315.828	18.3936
319.453	36.2888
323.077	101.441
326.699	153.296
330.32	134.208
333.939	124.817
337.557	8.64526
341.174	139.433
344.789	329.08
348.402	742.139
352.014	1578.65
355.625	2294.05
359.234	1262.55
362.841	473.622
366.447	185.306
370.052	95.8381
373.655	20.0649
377.257	55.4988
380.857	126.496
384.456	150.362
388.053	120.083
391.649	160.004
395.243	160.735
398.836	118.534
402.428	32.4839
406.018	6.30151
409.606	75.6404
413.193	19.2388
416.779	101.316
420.363	107.14
423.945	109.285
427.527	126.924
431.106	102.911
434.684	210.511
438.261	451.722
441.836	488.499
445.41	372.05
448.982	319.374
452.553	67.3091
456.123	91.2437
459.691	29.9302
463.257	26.7778
466.822	0.900879
470.386	16.7046
473.948	71.9858
477.508	23.7349
481.067	12.4839
484.625	70.0635
488.181	62.9219
491.736	51.1074
495.289	73.5239
498.84	25.853
502.391	33.7022
505.94	13.8252
509.487	17.5376
513.033	153.09
516.577	232.69
520.12	408.631
523.661	367.049
527.201	340.477
530.74	129.123
534.277	92.3423
537.812	80.3955
541.346	81.999
544.879	32.0742
548.41	5.39307
551.94	126.897
555.468	28.8389
558.995	121.167
562.52	73.4394
566.044	152.86
569.566	142.012
573.087	121.735
576.606	162.703
580.124	400.304
583.641	422.546
587.156	647.951
590.669	478.252
594.181	331.842
597.692	217.015
601.201	88.2822
604.708	162.329
608.214	2.07519
611.719	103.858
615.222	69.7505
618.724	66.4839
622.224	120.807
625.723	89.7715
629.22	12.3965
632.716	66.708
636.21	9.37549
639.703	12.9556
643.195	27.9946
646.685	48.3423
650.173	95.6211
653.66	128.12
657.145	51.6128
660.63	38.9351
664.112	9.4165
667.593	70.0898
671.073	79.9131
674.551	62.2134
678.028	142.195
681.503	172.004
684.977	88.5107
688.449	202.008
691.92	262.745
695.389	625.149
698.857	993.093
702.323	1985.76
705.788	3528.16
709.252	3365.59
712.714	1672.19
716.174	675.534
719.633	357.977
723.091	211.543
726.547	182.722
730.001	159.725
733.455	96.1313
736.906	88.9165
740.356	42.5752
743.805	76.0229
747.252	94.9609
750.698	124.439
754.142	168.391
757.585	152.739
761.027	149.396
764.467	87.6528
767.905	47.9019
771.342	148.483
774.777	176.777
778.211	83.749
781.644	102.248
785.075	7.91016
788.505	171.81
791.933	26.9121
795.359	43.1875
798.785	93.4238
802.208	54.3359
805.631	47.9287
809.051	141.433
812.471	158.001
815.888	122.236
819.305	75.1494
822.72	20.9648
826.133	133.143
829.545	139.812
832.956	102.235
836.365	25.2744
839.772	135.157
843.178	225.155
846.583	83.2344
849.986	190.395
853.387	115.416
856.788	116.448
860.186	186.79
863.584	221.302
866.979	147.693
870.374	128.02
873.766	116.047
877.158	204.369
880.548	131.823
883.936	129.805
887.323	120.534
890.709	131.654
894.093	188.882
897.475	222.782
900.856	168.167
904.236	157.458
907.614	119.121
910.99	116.051
914.366	72.29
917.739	24.9141
921.112	72.5889
924.482	9.87012
927.852	14.3935
931.219	227.819
934.586	17.0918
937.951	62.8613
941.314	104.356
944.676	16.5977
948.037	118.324
951.396	150.666
954.753	31.2227
958.109	25.2783
961.464	227.623
964.817	213.753
968.169	386.619
971.519	509.274
974.867	1012.19
978.215	888.877
981.56	857.756
984.905	364.484
988.248	243.337
991.589	171.123
994.929	147.503
998.267	24.3555
1001.6	147.619
1004.94	12.169
1008.27	107.278
1011.61	310.481
1014.94	194.922
1018.27	566.657
1021.6	666.16
1024.92	389.334
1028.25	133.977
1031.57	102.845
1034.89	48.4414
1038.21	88.6777
1041.53	145.904
1044.85	88.1836
1048.17	88.6689
1051.48	215.661
1054.8	230.74
1058.11	286.168
1061.42	291.281
1064.73	465.514
1068.04	622.965
1071.34	965.578
1074.65	897.244
1077.95	656.768
1081.25	403.525
1084.55	332.916
1087.85	227.588
1091.15	244.18
1094.44	241.506
1097.74	29.4922
1101.03	190.111
1104.32	175.074
1107.61	94.8984
1110.9	245.644
1114.19	92.7441
1117.47	21.3633
1120.76	152.834
1124.04	124.738
1127.32	0
