Measurement: Raman, 514 nm, ccw, Raman Data Processed
Mineral: Spodumene
Rruff sample: R040050
Ideal chemistry: LiAlSi_2_O_6_
Locality: Minas Gerais, Brazil
Source: University of Arizona Mineral Museum
Description: Pale pink fragment of a single crystal, variety kunzite
Measured chemistry: (Li_0.99_Na_0.01_)Al_1.00_Si_2.00_O_6_
Pin_id: L00235
Orientation: Laser parallel to a* (1 0 0). Fiducial mark perpendicular to laser is parallel to b [0 1 0]
Raman shift (cm-1)	intensity
127.763	0
131.464	19.9471
135.163	29.5094
138.86	64.0026
142.556	2.68066
146.251	20.5281
149.944	39.9784
153.636	46.2328
157.326	36.0187
161.015	64.5862
164.702	57.6881
168.388	113.586
172.072	106.352
175.755	54.2671
179.437	104.396
183.117	128.61
186.795	91.6133
190.472	75.5051
194.148	44.2937
197.822	72.5831
201.494	39.6035
205.166	69.1202
208.835	33.796
212.504	6.26929
216.17	43.2594
219.836	30.4647
223.5	19.9103
227.162	83.9523
230.823	30.9168
234.482	54.5178
238.14	123.252
241.797	66.9495
245.452	98.4878
249.106	160.139
252.758	155.833
256.408	157.606
260.058	144.003
263.705	83.1768
267.352	70.3005
270.996	84.2405
274.64	11.2742
278.281	65.1894
281.922	70.0398
285.561	189.454
289.198	329.598
292.834	484.002
296.469	792.37
300.102	744.566
303.733	428.608
307.363	239.432
310.992	117.059
314.619	127.35
318.245	48.2673
321.869	100.204
325.492	110.445
329.113	222.492
332.733	138.446
336.351	98.4629
339.968	65.5647
343.584	181.027
347.198	380.546
350.81	796.588
354.421	1380.49
358.031	1080.1
361.639	443.759
365.245	271.04
368.851	175.721
372.454	131.824
376.056	142.341
379.657	195.479
383.256	238.467
386.854	381.433
390.451	596.577
394.045	637.05
397.639	380.685
401.231	185.954
404.821	64.0542
408.41	14.8489
411.998	10.1287
415.584	17.8132
419.168	76.3372
422.751	4.75708
426.333	96.675
429.913	24.5088
433.492	77.833
437.069	207.134
440.645	264.172
444.219	247.722
447.792	216.334
451.363	105.942
454.933	50.3577
458.501	3.81397
462.068	0.57959
465.634	60.3357
469.198	29.1499
472.76	1.82422
476.321	47.0798
479.881	42.4958
483.439	68.6311
486.996	67.4206
490.551	77.1033
494.105	26.1919
497.657	78.8677
501.207	73.5669
504.757	73.9751
508.305	81.8914
511.851	203.944
515.396	207.416
518.939	374.037
522.481	413.328
526.022	258.827
529.561	240.552
533.098	195.56
536.634	117.291
540.169	153.353
543.702	103.234
547.233	145.122
550.763	60.6611
554.292	135.227
557.819	89.3408
561.345	65.5894
564.869	100.616
568.392	93.9985
571.913	148.357
575.433	19.7134
578.952	114.88
582.469	231.499
585.984	194.281
589.498	217.233
593.011	130.655
596.522	80.8706
600.031	2.14941
603.539	49.665
607.046	16.1665
610.551	49.6938
614.055	24.002
617.557	0.697266
621.058	123.707
624.557	120.149
628.055	109.409
631.551	85.0957
635.046	19.1763
638.539	42.3179
642.031	60.5225
645.521	0.165527
649.01	89.605
652.498	56.3608
655.984	17.9634
659.468	50.1699
662.951	22.7002
666.433	95.2002
669.913	43.6963
673.392	122.017
676.869	59.8096
680.345	68.9273
683.819	92.9033
687.292	72.729
690.763	80.1606
694.233	217.047
697.701	336.158
701.168	777.304
704.633	1296.87
708.097	1624.41
711.56	783.154
715.021	319.104
718.48	260.466
721.938	227.752
725.395	104.29
728.85	105.189
732.304	48.7559
735.756	96.3979
739.206	102.169
742.656	86.9614
746.103	9.75537
749.55	41.9678
752.995	33.3267
756.438	95.1494
759.88	157.455
763.32	93.1328
766.759	107.459
770.196	176.581
773.632	39.8057
777.067	204.25
780.5	151.325
783.932	238.873
787.362	105.644
790.79	88.5869
794.217	177.88
797.643	135.099
801.067	72.8428
804.49	66.2481
807.911	73.4248
811.331	137.4
814.749	122.513
818.166	15.3916
821.582	36.665
824.995	113.205
828.408	138.269
831.819	190.007
835.228	176.623
838.636	171.909
842.043	181.737
845.448	175.535
848.852	203.826
852.254	167.273
855.654	66.7236
859.054	241.951
862.451	130.381
865.848	159.598
869.242	301.947
872.636	24.1924
876.028	134.582
879.418	159.072
882.807	85.3506
886.194	219.317
889.58	200.971
892.965	244.512
896.348	170.071
899.729	123.416
903.109	246.502
906.488	119.48
909.865	158.484
913.241	155.599
916.615	135.944
919.988	67.1973
923.359	211.204
926.729	147.637
930.097	189.607
933.464	211.212
936.829	191.908
940.193	145.756
943.556	144.78
946.917	155.52
950.276	260.063
953.634	28.4639
956.991	150.432
960.346	10.1445
963.699	185.487
967.051	293.363
970.402	125.856
973.751	90.1719
977.099	179.753
980.445	98.3818
983.79	158.483
987.134	104.038
990.475	144.118
993.816	125.382
997.155	173.741
1000.49	194.59
1003.83	319.235
1007.16	7.2168
1010.5	33.8359
1013.83	198.945
1017.16	224.391
1020.49	359.644
1023.81	102.019
1027.14	57.5879
1030.46	99.4629
1033.79	46.5801
1037.11	236.662
1040.43	144.701
1043.74	16.1055
1047.06	126.336
1050.38	181.326
1053.69	264.916
1057	220.01
1060.32	114.029
1063.62	201.522
1066.93	714.801
1070.24	1045.37
1073.55	1228.55
1076.85	994.479
1080.15	559.254
1083.45	224.566
1086.75	384.598
1090.05	213.037
1093.35	307.941
1096.64	346.93
1099.93	377.213
1103.22	142.25
1106.52	233.488
1109.8	103.16
1113.09	332.703
1116.38	181.047
1119.66	77.4004
1122.95	148.379
1126.23	128.666
1129.51	262.193
1132.79	66.6973
1136.06	298.574
1139.34	151.223
1142.61	23.7871
1145.89	2.98633
1149.16	306.457
1152.43	204.81
1155.7	153.59
1158.96	238.488
1162.23	1.08203
