Measurement: Raman, 514 nm, ccw, Raman Data Processed
Mineral: Spodumene
Rruff sample: R040050
Ideal chemistry: LiAlSi_2_O_6_
Locality: Minas Gerais, Brazil
Source: University of Arizona Mineral Museum
Description: Pale pink fragment of a single crystal, variety kunzite
Measured chemistry: (Li_0.99_Na_0.01_)Al_1.00_Si_2.00_O_6_
Pin_id: L00429
Orientation: Laser parallel to c* (0 0 1). Fiducial mark perpendicular to laser is parallel to a [1 0 0]
Raman shift (cm-1)	intensity
105.529	0
109.239	47.469
112.946	6.66431
116.653	158.476
120.358	119.249
124.061	188.071
127.763	227.397
131.464	197.276
135.163	105.463
138.86	117.841
142.556	50.3894
146.251	70.0325
149.944	89.0935
153.636	56.8603
157.326	112.991
161.015	121.836
164.702	147.973
168.388	115.147
172.072	82.46
175.755	142.875
179.437	95.3611
183.117	274.883
186.795	248.505
190.472	297.212
194.148	130.901
197.822	60.0718
201.494	72.3301
205.166	17.6592
208.835	10.9612
212.504	70.4834
216.17	8.1438
219.836	40.981
223.5	132.121
227.162	191.601
230.823	180.259
234.482	73.876
238.14	242.383
241.797	413.828
245.452	719.189
249.106	1259.46
252.758	787.713
256.408	351.849
260.058	207.38
263.705	30.6643
267.352	31.9473
270.996	8.54053
274.64	58.8918
278.281	67.4482
281.922	195.313
285.561	406.17
289.198	637.631
292.834	1189.07
296.469	1487.46
300.102	1101.8
303.733	545.072
307.363	336.166
310.992	305.136
314.619	164.71
318.245	393.005
321.869	604.635
325.492	892.302
329.113	1118.38
332.733	716.381
336.351	338.202
339.968	275.49
343.584	692.452
347.198	1361.45
350.81	2482.44
354.421	4540.28
358.031	3820.26
361.639	1554.82
365.245	654.68
368.851	445.332
372.454	445.377
376.056	370.345
379.657	549.23
383.256	1049.01
386.854	1751.71
390.451	2803.32
394.045	3712.83
397.639	2658.11
401.231	1045.29
404.821	479.121
408.41	312.695
411.998	247.33
415.584	318.335
419.168	308.942
422.751	131.3
426.333	94.4241
429.913	157.927
433.492	301.258
437.069	402.886
440.645	700.144
444.219	697.175
447.792	502.994
451.363	280.698
454.933	113.001
458.501	25.0601
462.068	19.4644
465.634	17.1685
469.198	49.3765
472.76	12.9927
476.321	6.48779
479.881	7.25342
483.439	59.6191
486.996	25.1074
490.551	11.4023
494.105	33.5957
497.657	18.7939
501.207	58.8701
504.757	71.731
508.305	231.99
511.851	359.514
515.396	630.451
518.939	1138.81
522.481	1325.88
526.022	992.322
529.561	489.315
533.098	289.794
536.634	200.77
540.169	158.858
543.702	176.75
547.233	145.127
550.763	106.891
554.292	1.43262
557.819	32.6313
561.345	57.4341
564.869	48.6763
568.392	6.07861
571.913	201.427
575.433	96.5322
578.952	247.223
582.469	336.504
585.984	378.712
589.498	316.048
593.011	199.208
596.522	134.161
600.031	105.912
603.539	140.601
607.046	118.779
610.551	46.4194
614.055	91.6782
617.557	62.4053
621.058	84.0547
624.557	104.697
628.055	50.956
631.551	59.2544
635.046	34.6836
638.539	35.9551
642.031	42.8179
645.521	118.934
649.01	48.5415
652.498	100.891
655.984	18.2754
659.468	28.3335
662.951	46.188
666.433	29.0498
669.913	17.6694
673.392	149.007
676.869	82.8159
680.345	55.5938
683.819	213.602
687.292	214.033
690.763	307.382
694.233	491.028
697.701	1221.83
701.168	1988.74
704.633	3585.57
708.097	4218.41
711.56	2469.45
715.021	1092.14
718.48	586.84
721.938	440.871
725.395	221.148
728.85	192.426
732.304	168.263
735.756	189.065
739.206	171.225
742.656	154.887
746.103	198.888
749.55	167.516
752.995	200.555
756.438	157.3
759.88	193.941
763.32	187.249
766.759	42.1558
770.196	208.455
773.632	166.669
777.067	91.6641
780.5	68.1963
783.932	217.852
787.362	28.9775
790.79	51.0791
794.217	88.1963
797.643	120.717
801.067	139.383
804.49	112.44
807.911	147.651
811.331	103.625
814.749	0.618164
818.166	78.7393
821.582	114.385
824.995	113.972
828.408	103.748
831.819	60.0723
835.228	137.524
838.636	188.821
842.043	51.3662
845.448	135.795
848.852	298.512
852.254	249.602
855.654	121.031
859.054	261.116
862.451	236.786
865.848	128.701
869.242	149.723
872.636	231.42
876.028	261.72
879.418	87.1338
882.807	49.8457
886.194	195.644
889.58	222.981
892.965	94.668
896.348	134.374
899.729	171.511
903.109	97.1338
906.488	125.999
909.865	147.036
913.241	162.012
916.615	159.501
919.988	131.773
923.359	98.7305
926.729	69.1074
930.097	157.018
933.464	111.669
936.829	113.531
940.193	149.796
943.556	93.5879
946.917	208.641
950.276	86.9863
953.634	10.792
956.991	80.5
960.346	122.502
963.699	54.3066
967.051	258.152
970.402	395.211
973.751	566.941
977.099	586.133
980.445	468.542
983.79	334.246
987.134	228.058
990.475	184.183
993.816	85.4619
997.155	110.939
1000.49	6.88184
1003.83	159.763
1007.16	111.628
1010.5	306.427
1013.83	368.783
1017.16	845.106
1020.49	1172.28
1023.81	761.793
1027.14	209.915
1030.46	105.094
1033.79	47.4922
1037.11	193.109
1040.43	234.838
1043.74	235.748
1047.06	361.856
1050.38	502.088
1053.69	482.065
1057	476.641
1060.32	771.527
1063.62	1619.27
1066.93	2741.47
1070.24	5503.69
1073.55	6525.23
1076.85	4512.61
1080.15	2084.95
1083.45	1255.36
1086.75	776.6
1090.05	595.43
1093.35	464.562
1096.64	205.01
1099.93	127.475
1103.22	228.992
1106.52	109.16
1109.8	74.2637
1113.09	204.781
1116.38	34.2402
1119.66	254.201
1122.95	260.389
1126.23	306.402
1129.51	197.658
1132.79	60.5996
1136.06	24.6992
1139.34	226.387
1142.61	23.084
1145.89	205.051
1149.16	0.171875
