Measurement: Raman, 514 nm, ccw, Raman Data Processed
Mineral: Spodumene
Rruff sample: R040050
Ideal chemistry: LiAlSi_2_O_6_
Locality: Minas Gerais, Brazil
Source: University of Arizona Mineral Museum
Description: Pale pink fragment of a single crystal, variety kunzite
Measured chemistry: (Li_0.99_Na_0.01_)Al_1.00_Si_2.00_O_6_
Pin_id: L00199
Orientation: Laser parallel to b* (0 1 0). Fiducial mark perpendicular to laser is parallel to c [0 0 1]
Raman shift (cm-1)	intensity
106.766	0
110.475	5.93506
114.182	141.32
117.888	411.444
121.592	699.49
125.295	1590.8
128.997	2703.93
132.697	2046.59
136.395	700.98
140.092	354.612
143.788	157.943
147.482	69.5772
151.175	155.214
154.866	86.6919
158.556	25.1748
162.244	4.20264
165.931	85.8081
169.616	7.73926
173.3	128.003
176.982	60.5523
180.663	228.324
184.343	538.049
188.021	986.821
191.697	503.688
195.373	195.754
199.046	83.085
202.718	38.5459
206.389	79.1323
210.058	31.7822
213.726	57.8569
217.392	47.3721
221.057	90.0781
224.721	28.2017
228.382	172.6
232.043	110.363
235.702	130.252
239.359	194.129
243.015	187.961
246.67	602.744
250.323	659.474
253.975	357.755
257.625	302.754
261.274	217.62
264.921	135.838
268.567	44.4868
272.211	85.4414
275.854	97.6436
279.495	174.065
283.135	314.281
286.773	630.986
290.41	1050.79
294.046	1407.68
297.68	1307.62
301.312	629.614
304.944	234.266
308.573	11.7266
312.201	22.4253
315.828	72.3403
319.453	33.9648
323.077	76.6523
326.699	158.203
330.32	327.345
333.939	189.808
337.557	129.489
341.174	329.675
344.789	851.124
348.402	1924.26
352.014	3768.46
355.625	5063.21
359.234	2667.72
362.841	1076.41
366.447	310.543
370.052	227.493
373.655	224.23
377.257	178.878
380.857	161.436
384.456	263.897
388.053	281.256
391.649	301.289
395.243	356.728
398.836	247.815
402.428	25.7602
406.018	75.085
409.606	102.317
413.193	105.879
416.779	130.232
420.363	126.597
423.945	109.422
427.527	152.243
431.106	257.845
434.684	525.261
438.261	761.485
441.836	1011.51
445.41	838.34
448.982	478.966
452.553	220.85
456.123	213.819
459.691	66.9438
463.257	7.29932
466.822	113.636
470.386	20.4053
473.948	27.1186
477.508	103.775
481.067	5.69043
484.625	25.877
488.181	32.0791
491.736	47.8711
495.289	67.2505
498.84	12.4609
502.391	51.4531
505.94	173.565
509.487	207.576
513.033	299.452
516.577	553.178
520.12	850.552
523.661	845.191
527.201	339.626
530.74	130.279
534.277	124.716
537.812	221.061
541.346	41.0772
544.879	188.135
548.41	121.5
551.94	165.713
555.468	141.537
558.995	144.122
562.52	117.367
566.044	263.191
569.566	298.233
573.087	339.503
576.606	785.448
580.124	1031.06
583.641	1257.33
587.156	1428.26
590.669	1021.61
594.181	741.536
597.692	370.647
601.201	268.917
604.708	129.466
608.214	123.673
611.719	101.688
615.222	78.4893
618.724	115.613
622.224	175.252
625.723	103.068
629.22	7.42285
632.716	1.62793
636.21	79.7861
639.703	56.5059
643.195	119.564
646.685	66.2881
650.173	100.941
653.66	47.8389
657.145	12.1982
660.63	9.54395
664.112	74.834
667.593	205.908
671.073	72.1123
674.551	107.019
678.028	2.72168
681.503	107.066
684.977	387.932
688.449	364.724
691.92	679.893
695.389	1296.82
698.857	2623.27
702.323	4753.41
705.788	7629.42
709.252	6877.67
712.714	3099.75
716.174	1413.52
719.633	741.241
723.091	525.983
726.547	219.963
730.001	265.684
733.455	100.218
736.906	161.805
740.356	120.231
743.805	41.0166
747.252	107.685
750.698	97.4873
754.142	223.922
757.585	30.583
761.027	24.666
764.467	7.17969
767.905	93.8711
771.342	25.5469
774.777	255.975
778.211	167.99
781.644	69.9756
785.075	120.426
788.505	23.1602
791.933	220.534
795.359	208.545
798.785	85.8838
802.208	111.022
805.631	7.8418
809.051	132.471
812.471	174.582
815.888	82.9775
819.305	77.9629
822.72	253.946
826.133	247.922
829.545	150.333
832.956	182.377
836.365	135.179
839.772	168.057
843.178	202.001
846.583	238.006
849.986	198.087
853.387	272.228
856.788	110.557
860.186	307.459
863.584	147.402
866.979	248.565
870.374	286.31
873.766	279.074
877.158	241.763
880.548	204.722
883.936	250.122
887.323	197.738
890.709	116.106
894.093	47.5801
897.475	151.639
900.856	194.478
904.236	221.501
907.614	14.0947
910.99	183.921
914.366	195.442
917.739	141.22
921.112	55.1397
924.482	79.4482
927.852	157.701
931.219	58.5859
934.586	152.346
937.951	131.297
941.314	87.6856
944.676	33.6797
948.037	169.859
951.396	57.3867
954.753	206.873
958.109	296.734
961.464	381.529
964.817	454.463
968.169	540.15
971.519	1017.42
974.867	1933.87
978.215	2220.97
981.56	1676.91
984.905	905.394
988.248	468.559
991.589	225.557
994.929	114.008
998.267	236.092
1001.6	216.994
1004.94	85.3652
1008.27	168.471
1011.61	174.664
1014.94	762.871
1018.27	1208.45
1021.6	1369.74
1024.92	666.508
1028.25	392.584
1031.57	108.561
1034.89	137.781
1038.21	7.83008
1041.53	183.711
1044.85	148.623
1048.17	132.613
1051.48	140.389
1054.8	39.0664
1058.11	144.463
1061.42	374.596
1064.73	605.469
1068.04	1113.61
1071.34	1840.72
1074.65	1961.14
1077.95	1175.61
1081.25	558.824
1084.55	263.623
1087.85	309.264
1091.15	242.494
1094.44	78.0742
1097.74	432.277
1101.03	145.062
1104.32	464.93
1107.61	228.504
1110.9	153.004
1114.19	33.4219
1117.47	126.576
1120.76	41.8867
1124.04	224.629
1127.32	311.609
1130.6	323.769
1133.88	71.8809
1137.16	275.035
1140.43	4.875
1143.7	188.988
1146.98	25.1953
