Measurement: Raman, 514 nm, ccw, Raman Data Processed
Mineral: Staurolite
Rruff sample: R050079
Ideal chemistry: Fe^2+^_2_Al_9_Si_4_O_23_(OH)
Locality: Keivy, Kola Peninsula, Russia
Source: Rock Currier
Description: Brown cruciform twins
Measured chemistry: (Fe^2+^_0.77_Mg_0.23_)_2_(Al_0.99_Ti_0.01_)_9_(Si_0.99_Al_0.01_)_4_O_20_(O_0.76_(OH)_0.24_)_4_
Pin_id: L00403
Orientation: Laser parallel to -b* (0 -1 0). Fiducial mark perpendicular to laser is parallel to c [0 0 1]
Raman shift (cm-1)	intensity
180.922	0
185.065	65.893
189.207	125.983
193.346	168.456
197.484	373.257
201.619	565.539
205.753	612.95
209.884	590.272
214.014	543.444
218.141	450.437
222.267	385.631
226.391	399.735
230.512	505.512
234.632	654.11
238.749	623.36
242.865	640.796
246.979	657.295
251.09	637.891
255.2	707.642
259.308	838.627
263.414	831.065
267.517	649.649
271.619	302.934
275.719	50.851
279.817	56.043
283.913	90.435
288.007	12.063
292.099	325.021
296.189	1100.94
300.277	3084.83
304.363	6179.68
308.447	6783.49
312.529	4766.04
316.609	2671.2
320.687	1443.8
324.764	927.445
328.838	642.129
332.91	567.865
336.981	724.659
341.049	1042.52
345.116	908.838
349.18	541.166
353.243	420.085
357.304	312.909
361.362	138.445
365.419	29.577
369.474	23.727
373.527	3.729
377.578	47.486
381.627	14.9
385.674	19.866
389.719	46.713
393.762	141.573
397.804	184.5
401.843	182.524
405.881	176.6
409.916	212.629
413.95	169.625
417.981	239.6
422.011	453.565
426.039	696.532
430.065	1048.5
434.089	1549.15
438.111	2203.34
442.131	3015.9
446.149	3765.74
450.166	4011.16
454.18	3568.45
458.193	3598.3
462.203	4981.22
466.212	5366.2
470.219	3506.26
474.224	2083.38
478.227	1382.6
482.228	1232.92
486.227	1075.34
490.224	1103.88
494.22	1208.51
498.213	1337.26
502.205	1384.12
506.194	1256.07
510.182	1108.04
514.168	935.011
518.152	681.074
522.134	517.086
526.114	448.578
530.093	275.084
534.069	214.667
538.044	178.151
542.017	60.07
545.987	68.319
549.956	102.24
553.923	48.611
557.889	49.796
561.852	38.096
565.813	56.514
569.773	93.051
573.731	109.709
577.686	78.491
581.64	83.396
585.593	56.427
589.543	10.415
593.491	101.867
597.438	4.3
601.382	117.018
605.325	164.207
609.266	165.844
613.205	189.714
617.142	126.736
621.078	167.907
625.011	155.228
628.943	87.697
632.872	71.314
636.8	103.081
640.726	91.995
644.651	136.191
648.573	117.265
652.494	104.619
656.412	211.117
660.329	191.761
664.244	171.548
668.157	129.862
672.069	153.345
675.978	82.325
679.886	63.237
683.792	13.795
687.696	36.667
691.598	30.602
695.498	37.902
699.397	89.37
703.293	39.126
707.188	39.09
711.081	57.181
714.972	100.383
718.862	132.692
722.749	69.106
726.635	157.624
730.519	172.243
734.401	229.962
738.281	336.779
742.16	379.692
746.036	515.619
749.911	617.718
753.784	731.906
757.655	850.181
761.525	1007.54
765.392	1161.97
769.258	1297.46
773.122	1423.03
776.984	1483.66
780.844	1562.35
784.703	1544.11
788.56	1595.94
792.415	1680.84
796.268	1692.8
800.119	1513.81
803.969	1121.88
807.816	726.002
811.662	452.183
815.506	221.431
819.349	58.733
823.189	0.893
827.028	39.558
830.865	65.406
834.7	93.466
838.534	76.869
842.365	37.633
846.195	35.633
850.023	69.378
853.85	94.396
857.674	165.433
861.497	234.467
865.318	311.493
869.137	430.758
872.955	569.518
876.77	663.514
880.584	953.5
884.396	1386.29
888.207	1877.44
892.015	2390.39
895.822	2693.34
899.627	2823.26
903.43	2511.16
907.232	2242.04
911.032	2054.89
914.83	1975.09
918.626	2027.54
922.42	2260.32
926.213	2646.06
930.004	3189.76
933.793	3691.52
937.581	4112.44
941.366	4127.35
945.15	3778.25
948.932	3210.18
952.713	2628.33
956.491	2058.52
960.268	1681.66
964.044	1612.94
967.817	1324.14
971.589	1023.75
975.359	868.321
979.127	705.009
982.893	637.021
986.658	535.466
990.421	513.393
994.183	454.105
997.942	411.58
1001.7	430.201
1005.46	381.32
1009.21	394.93
1012.96	335.379
1016.71	301.772
1020.46	296.143
1024.21	243.59
1027.96	262.169
1031.7	217.182
1035.44	196.586
1039.18	160.521
1042.92	143.635
1046.66	146.03
1050.39	170.462
1054.13	160.85
1057.86	140.024
1061.59	117.835
1065.32	165
1069.05	116.477
1072.77	91.242
1076.49	78.635
1080.22	36.307
1083.94	16.812
1087.65	15.023
1091.37	21.221
1095.09	21.406
1098.8	4.845
1102.51	9.544
1106.22	32.169
1109.93	10.228
1113.63	1.552
1117.34	20.642
1121.04	13.833
1124.74	46.159
1128.44	9.143
1132.14	25.72
1135.84	45.729
1139.53	15.852
1143.22	24.736
1146.91	20.347
1150.61	20.683
1154.29	50.53
1157.98	114.616
1161.66	160.123
1165.35	101.726
1169.03	85.164
1172.71	31.134
1176.38	16.362
1180.06	51.796
1183.73	1.779
1187.41	56.035
1191.08	53.273
1194.75	19.19
1198.41	22.781
1202.08	6.098
1205.74	72.357
1209.41	50.522
1213.07	79.466
1216.73	49.457
1220.38	99.16
1224.04	9.831
1227.69	29.389
1231.35	108.004
1235	62.582
1238.65	90.059
1242.3	113.936
1245.94	72.235
1249.59	62.737
1253.23	89.984
1256.87	69.947
1260.51	54.115
1264.15	24.6
1267.78	63.069
1271.42	55.541
1275.05	75.49
1278.68	90.839
1282.31	42.988
1285.94	23.916
1289.56	11.047
1293.19	23.37
1296.81	32.49
1300.43	61.791
1304.05	32.263
1307.67	25.802
1311.29	34.189
1314.9	87.333
1318.52	36.165
1322.13	43.701
1325.74	25.908
1329.34	3.122
1332.95	19.93
1336.56	37.451
1340.16	84.217
1343.76	71.036
1347.36	57.586
1350.96	30.702
1354.56	39.482
1358.15	22.928
1361.74	47.736
1365.34	60.266
1368.93	3.511
1372.52	8.675
1376.1	59.699
1379.69	68.541
1383.27	61.223
1386.85	82.688
1390.43	51.001
1394.01	23.516
1397.59	24.668
1401.17	19.986
1404.74	66.521
1408.31	15.118
1411.88	19.773
1415.45	35.944
1419.02	48.627
1422.59	12.361
1426.15	33.512
1429.71	67.111
1433.28	26.384
1436.84	37.662
1440.39	20.925
1443.95	83.388
1447.5	66.934
1451.06	53.854
1454.61	96.591
1458.16	113.143
1461.71	49.397
1465.26	77.05
1468.8	86.719
1472.34	35.33
1475.89	52.37
1479.43	13.144
1482.97	38.257
1486.5	20.798
1490.04	72.91
1493.57	60.135
1497.11	102.998
1500.64	47.777
1504.17	59.004
1507.69	42.408
1511.22	47.558
1514.74	23.846
1518.27	0
