Measurement: Raman, 514 nm, ccw, Raman Data Processed
Mineral: Staurolite
Rruff sample: R050079
Ideal chemistry: Fe^2+^_2_Al_9_Si_4_O_23_(OH)
Locality: Keivy, Kola Peninsula, Russia
Source: Rock Currier
Description: Brown cruciform twins
Measured chemistry: (Fe^2+^_0.77_Mg_0.23_)_2_(Al_0.99_Ti_0.01_)_9_(Si_0.99_Al_0.01_)_4_O_20_(O_0.76_(OH)_0.24_)_4_
Pin_id: L00460
Orientation: Laser parallel to -c* (0 0 -1). Fiducial mark perpendicular to laser is parallel to a [1 0 0]
Raman shift (cm-1)	intensity
113.881	0
118.066	71.469
122.249	348.257
126.43	1502.74
130.608	2203.28
134.785	1327.16
138.959	529.835
143.131	586.065
147.301	388.986
151.469	242.731
155.635	90.48
159.799	52.073
163.961	19.685
168.121	39.123
172.278	20.825
176.434	110.655
180.587	251.366
184.739	425.942
188.888	740.738
193.035	1161.8
197.18	1822.1
201.324	2392.45
205.465	2818.04
209.603	2693.54
213.74	2322.81
217.875	1662.87
222.008	1139.92
226.139	802.59
230.267	592.017
234.394	421.429
238.518	259.644
242.641	131.539
246.761	97.813
250.879	36.425
254.996	25.21
259.11	65.76
263.222	196.516
267.332	272.203
271.44	40.976
275.546	65.332
279.65	69.579
283.752	29.887
287.852	23.351
291.95	13.188
296.046	109.489
300.14	431.691
304.231	988.123
308.321	1315.1
312.409	1044.16
316.495	605.445
320.578	361.101
324.66	245.402
328.739	198.551
332.817	119.511
336.892	130.132
340.966	126.99
345.037	164.729
349.107	223.308
353.174	479.281
357.24	830.637
361.303	681.763
365.365	439.313
369.424	419.956
373.481	418.182
377.537	326.135
381.59	183.796
385.642	149.072
389.691	133.892
393.738	351.309
397.784	539.082
401.827	625.686
405.868	352.445
409.908	313.072
413.945	279.951
417.98	304.018
422.014	371.948
426.045	606.25
430.075	999.251
434.102	1109.67
438.127	1066.91
442.151	1250.34
446.172	1558.71
450.192	1806.11
454.209	2316.47
458.225	3688.57
462.238	7655.33
466.25	13092.9
470.259	10482.6
474.267	5123.33
478.273	2659.71
482.276	1735.97
486.278	1216.91
490.278	1082.49
494.276	944.748
498.271	897.511
502.265	889.279
506.257	906.719
510.247	864.102
514.235	827.672
518.221	813.596
522.205	926.806
526.187	988.195
530.167	1024.3
534.145	1087.3
538.122	897.305
542.096	740.741
546.068	520.43
550.039	395.085
554.007	348.295
557.973	311.777
561.938	356.481
565.901	352.24
569.861	313.591
573.82	319.257
577.777	349.467
581.732	415.84
585.685	401.36
589.636	400.786
593.585	579.136
597.532	298.537
601.477	164.18
605.42	202.053
609.361	142.064
613.301	112.156
617.238	74.238
621.174	62.247
625.108	30.11
629.039	15.216
632.969	31.294
636.897	19.644
640.823	39.848
644.747	8.084
648.669	14.887
652.589	5.199
656.508	31.669
660.424	3.499
664.339	18.717
668.251	19.017
672.162	15.224
676.071	6.764
679.978	53.187
683.883	52.541
687.786	48.84
691.687	66.596
695.586	94.286
699.484	118.461
703.379	36.626
707.273	28.17
711.165	3.239
715.055	17.622
718.943	7.694
722.829	24.271
726.713	9.979
730.595	71.148
734.476	22.292
738.354	165.395
742.231	195.468
746.106	160.514
749.978	202.535
753.849	237.532
757.719	268.502
761.586	338.445
765.451	378.357
769.315	447.255
773.177	485.431
777.036	537.309
780.894	549.685
784.75	590.302
788.605	629.019
792.457	674.855
796.307	727.168
800.156	684.347
804.003	558.951
807.848	373.451
811.691	254.35
815.532	140.965
819.371	145.9
823.209	25.304
827.045	1.581
830.878	15.979
834.71	7.299
838.54	7.173
842.369	48.38
846.195	71.047
850.02	86.141
853.842	113.246
857.663	170.25
861.482	229.044
865.299	257.782
869.115	333.816
872.928	390.561
876.74	565.744
880.55	696.177
884.358	908.267
888.164	1345.82
891.969	1728.97
895.771	2176.37
899.572	2275.83
903.371	2111.35
907.168	1898.93
910.963	1533.56
914.757	1202.22
918.548	1026.92
922.338	891.662
926.126	763.449
929.912	794.287
933.697	778.205
937.479	907.203
941.26	823.28
945.039	866.427
948.816	884.012
952.591	882.639
956.365	1003.62
960.136	1558.49
963.906	5465.35
967.674	8633.94
971.441	2331.11
975.205	1000.1
978.968	680.057
982.729	436.15
986.488	269.599
990.245	320.803
994	278.292
997.754	200.416
1001.51	233.311
1005.26	157.253
1009	114.235
1012.75	134.264
1016.5	102.405
1020.24	94.638
1023.98	120.033
1027.72	157.551
1031.46	166.346
1035.19	169.72
1038.93	205.886
1042.66	461.644
1046.39	288.476
1050.12	299.558
1053.85	651.176
1057.57	404.93
1061.29	206.708
1065.02	98.432
1068.74	139.114
1072.45	139.901
1076.17	58.719
1079.88	173.323
1083.6	181.908
1087.31	97.482
1091.02	54.023
1094.72	46.455
1098.43	4.94
1102.13	11.573
1105.84	22.694
1109.54	72.792
1113.24	6.091
1116.93	67.855
1120.63	33.566
1124.32	35.404
1128.01	32.223
1131.7	6.259
1135.39	8.44
1139.08	2.822
1142.76	29.108
1146.45	59.756
1150.13	91.558
1153.81	93.58
1157.48	188.711
1161.16	372.908
1164.84	429.37
1168.51	252.588
1172.18	132.209
1175.85	56.229
1179.52	107.23
1183.18	82.965
1186.85	112.311
1190.51	122.846
1194.17	3.238
1197.83	2.701
1201.48	5.193
1205.14	109.528
1208.79	96.734
1212.44	84.177
1216.09	71.562
1219.74	140.826
1223.39	108.966
1227.03	157.212
1230.68	108.717
1234.32	122.698
1237.96	120.69
1241.6	111.294
1245.23	68.762
1248.87	110.244
1252.5	145.869
1256.13	72.861
1259.76	119.107
1263.39	37.349
1267.02	101.163
1270.64	89.646
1274.26	117.312
1277.88	72.729
1281.5	50.068
1285.12	49.412
1288.74	33.498
1292.35	4.395
1295.96	37.732
1299.57	65.007
1303.18	3.355
1306.79	34.164
1310.4	43.526
1314	131.703
1317.6	62.745
1321.2	23.595
1324.8	18.293
1328.4	14.26
1331.99	42.349
1335.59	27.229
1339.18	51.389
1342.77	90.669
1346.36	66.717
1349.95	72.89
1353.53	114.927
1357.12	108.914
1360.7	71.849
1364.28	71.784
1367.86	21.589
1371.44	8.032
1375.01	54.005
1378.59	64.714
1382.16	121.771
1385.73	120.443
1389.3	88.346
1392.87	23.285
1396.43	24.907
1399.99	98.323
1403.56	35.804
1407.12	83.053
1410.68	42.204
1414.23	97.203
1417.79	113.231
1421.34	75.558
1424.9	138.508
1428.45	10.882
1431.99	27.916
1435.54	103.347
1439.09	59.515
1442.63	29.639
1446.17	45.195
1449.71	49.288
1453.26	131.93
1456.79	142.742
1460.33	169.286
1463.86	111.654
1467.39	59.603
1470.92	58.825
1474.45	112.213
1477.98	134.668
1481.51	18.343
1485.03	67.253
1488.56	126.809
1492.08	107.885
1495.6	120.57
1499.11	113.572
1502.63	86.378
1506.14	54.245
1509.66	50.786
1513.17	47.973
1516.68	0
