Measurement: Raman, 514 nm, ccw, Raman Data Processed
Mineral: Staurolite
Rruff sample: R050079
Ideal chemistry: Fe^2+^_2_Al_9_Si_4_O_23_(OH)
Locality: Keivy, Kola Peninsula, Russia
Source: Rock Currier
Description: Brown cruciform twins
Measured chemistry: (Fe^2+^_0.77_Mg_0.23_)_2_(Al_0.99_Ti_0.01_)_9_(Si_0.99_Al_0.01_)_4_O_20_(O_0.76_(OH)_0.24_)_4_
Pin_id: L00460
Orientation: Laser parallel to -c* (0 0 -1). Fiducial mark perpendicular to laser is parallel to a [1 0 0]
Raman shift (cm-1)	intensity
111.09	0
115.277	148.578
119.461	112.592
123.643	756.774
127.823	1906.55
132.001	1824.25
136.176	761.343
140.35	582.884
144.521	662.428
148.691	603.613
152.858	404.167
157.024	276.295
161.187	108.386
165.348	18.637
169.507	17.776
173.664	21.717
177.819	85.657
181.971	129.832
186.122	289.188
190.271	471.626
194.417	779.305
198.562	1231.2
202.704	1589.7
206.844	1729.05
210.983	1568.97
215.119	1283.97
219.253	965.755
223.385	755.365
227.515	476.392
231.643	376.606
235.769	224.527
239.893	193.298
244.014	154.842
248.134	161.524
252.252	94.796
256.367	141.184
260.481	179.84
264.592	270.338
268.702	221.426
272.809	30.403
276.915	86.43
281.018	118.897
285.119	77.022
289.218	28.143
293.316	46.639
297.411	221.414
301.504	648.435
305.595	1339.09
309.684	1514.46
313.771	1054.33
317.856	672.229
321.939	483.682
326.02	353.329
330.099	297.064
334.176	275.879
338.251	296.537
342.323	320.17
346.394	350.777
350.463	352.505
354.53	561.794
358.594	646.163
362.657	510.301
366.718	391.485
370.777	395.669
374.833	384.774
378.888	318.612
382.941	314.158
386.992	340.344
391.04	483.417
395.087	743.814
399.132	740.441
403.174	616.204
407.215	489.869
411.254	409.281
415.29	321.458
419.325	257.42
423.358	272.061
427.389	376.379
431.417	462.134
435.444	630.738
439.469	796.291
443.492	1071.94
447.512	1290.46
451.531	1632.79
455.548	1857.24
459.563	2796.07
463.576	5739.24
467.587	8236.59
471.596	5460.77
475.603	2722.81
479.608	1646.32
483.611	1206.25
487.612	983.022
491.611	862.343
495.608	887.272
499.603	882.247
503.596	835.024
507.587	827.812
511.577	783.698
515.564	687.877
519.549	755.537
523.533	686.371
527.514	703.257
531.493	708.089
535.471	689.96
539.447	593.072
543.42	453.952
547.392	311.254
551.362	253.599
555.329	241.008
559.295	243.939
563.259	261.488
567.221	234.214
571.181	245.389
575.139	251.378
579.095	217.525
583.049	174.705
587.002	152.751
590.952	176.401
594.9	163.085
598.847	213.971
602.792	251.233
606.734	319.853
610.675	274.764
614.614	239.891
618.55	148.103
622.485	68.341
626.418	22.573
630.349	4.794
634.279	34.008
638.206	3.781
642.131	37.415
646.055	27.625
649.976	12.867
653.896	18.156
657.814	36.495
661.729	13.118
665.643	12.281
669.555	14.714
673.465	16.154
677.373	7.578
681.28	12.996
685.184	5.419
689.087	9.866
692.987	39.352
696.886	66.895
700.783	33.501
704.677	7.833
708.57	11.155
712.462	69.588
716.351	48.246
720.238	43.018
724.124	23.881
728.007	47.174
731.889	55.263
735.769	71.413
739.647	125.63
743.523	166.908
747.397	272.236
751.269	298.615
755.139	388.043
759.008	516.516
762.875	597.031
766.739	774.583
770.602	821.17
774.463	835.924
778.323	896.448
782.18	948.781
786.035	918.081
789.889	928.546
793.741	953.965
797.591	994.084
801.439	915.45
805.285	759.236
809.129	556.045
812.971	401.245
816.812	274.401
820.651	199.164
824.488	120.231
828.323	163.43
832.156	191.521
835.987	175.819
839.817	195.565
843.644	193.512
847.47	273.398
851.294	294.328
855.116	384.299
858.936	440.606
862.755	533.337
866.571	583.24
870.386	697.141
874.199	781.541
878.01	816.591
881.82	891.467
885.627	1071.8
889.433	1323.22
893.236	1674.7
897.038	1944.24
900.838	2045.88
904.637	1987.53
908.433	1720.24
912.228	1539.99
916.021	1427.8
919.812	1322.66
923.601	1247.58
927.388	1194.54
931.174	1135.55
934.958	1106.61
938.739	1235.72
942.52	1222.25
946.298	1078.73
950.074	959.031
953.849	840.115
957.622	702.445
961.393	673.899
965.162	691.918
968.93	630.162
972.696	561.65
976.459	487.001
980.222	423.009
983.982	369.758
987.74	317.873
991.497	284.616
995.252	244.624
999.005	237.301
1002.76	217.196
1006.51	179.998
1010.25	156.752
1014	187.54
1017.74	135.449
1021.49	139.473
1025.23	122.57
1028.96	85.779
1032.7	72.122
1036.44	57.414
1040.17	78.985
1043.9	86.238
1047.63	49.587
1051.36	28.131
1055.09	22.756
1058.81	18.08
1062.54	52.34
1066.26	88.748
1069.97	106.962
1073.69	63.234
1077.41	64.431
1081.12	43.494
1084.84	57.514
1088.55	62.702
1092.25	9.343
1095.96	5.01
1099.67	9.659
1103.37	21.789
1107.07	19.168
1110.77	41.679
1114.47	1.569
1118.16	1.294
1121.86	28.243
1125.55	11.704
1129.24	7.481
1132.93	7.161
1136.62	30.758
1140.31	17.413
1143.99	36.58
1147.67	45.736
1151.35	33.03
1155.03	118.393
1158.71	155.66
1162.39	340.775
1166.06	336.727
1169.73	132.791
1173.4	83.467
1177.07	89.456
1180.74	84.333
1184.4	54.015
1188.07	60.219
1191.73	36.906
1195.39	24.354
1199.05	22.823
1202.7	49.305
1206.36	59.116
1210.01	75.469
1213.66	74.453
1217.31	39.326
1220.96	49.178
1224.6	95.9
1228.25	75.657
1231.89	77.262
1235.53	112.045
1239.17	86.396
1242.81	81.64
1246.44	45.478
1250.08	67.796
1253.71	43.496
1257.34	55.986
1260.97	64.94
1264.6	60.885
1268.22	47.718
1271.85	43.094
1275.47	30.308
1279.09	12.534
1282.71	9.989
1286.33	0.262
1289.94	12.345
1293.56	33.482
1297.17	43.675
1300.78	28.735
1304.39	30.679
1307.99	36.556
1311.6	50.804
1315.2	6.669
1318.8	7.316
1322.4	19.898
1326	27.271
1329.6	31.607
1333.19	51.62
1336.79	44.765
1340.38	15.696
1343.97	8.444
1347.56	0.701
1351.14	5.315
1354.73	15.321
1358.31	20.076
1361.89	20.48
1365.47	31.061
1369.05	47.655
1372.63	30.189
1376.2	11.743
1379.78	49.08
1383.35	23.25
1386.92	26.234
1390.49	25.085
1394.05	35.306
1397.62	7.535
1401.18	36.599
1404.74	18.727
1408.3	6.299
1411.86	26.396
1415.42	56.094
1418.97	23.238
1422.53	26.68
1426.08	14.282
1429.63	24.2
1433.18	43.418
1436.72	34.975
1440.27	47.428
1443.81	40.544
1447.36	36.931
1450.89	20.725
1454.43	1.246
1457.97	39.429
1461.51	26.496
1465.04	19.456
1468.57	22.703
1472.1	31.31
1475.63	29.005
1479.16	28.536
1482.68	62.578
1486.21	39.123
1489.73	27.457
1493.25	1.193
1496.77	5.958
1500.29	33.302
1503.8	19.576
1507.32	23.737
1510.83	25.5
1514.34	4.972
1517.85	17.15
1521.36	29.517
