Measurement: Raman, 514 nm, ccw, Raman Data Processed
Mineral: Staurolite
Rruff sample: R050079
Ideal chemistry: Fe^2+^_2_Al_9_Si_4_O_23_(OH)
Locality: Keivy, Kola Peninsula, Russia
Source: Rock Currier
Description: Brown cruciform twins
Measured chemistry: (Fe^2+^_0.77_Mg_0.23_)_2_(Al_0.99_Ti_0.01_)_9_(Si_0.99_Al_0.01_)_4_O_20_(O_0.76_(OH)_0.24_)_4_
Pin_id: m00494
Orientation: Laser parallel to a* (1 0 0). Fiducial mark perpendicular to laser is parallel to b [0 1 0]
Raman shift (cm-1)	intensity
159.799	0
163.961	65.136
168.121	8.935
172.278	40.593
176.434	86.305
180.587	235.892
184.739	427.799
188.888	598.239
193.035	1107.9
197.18	1506.09
201.324	1964.8
205.465	1942.69
209.603	1704.68
213.74	1259.75
217.875	905.574
222.008	677.875
226.139	425.802
230.267	366.565
234.394	265.976
238.518	169.045
242.641	175.66
246.761	108.794
250.879	136.922
254.996	297.011
259.11	399.099
263.222	589.312
267.332	225.424
271.44	9.783
275.546	23.689
279.65	5.552
283.752	94.656
287.852	104.91
291.95	410.736
296.046	1148.65
300.14	2473.79
304.231	3236.17
308.321	2851.28
312.409	1527.15
316.495	848.092
320.578	387.174
324.66	289.48
328.739	166.808
332.817	148.483
336.892	77.292
340.966	175.054
345.037	230.477
349.107	425.905
353.174	841.137
357.24	876.093
361.303	844.648
365.365	777.752
369.424	783.427
373.481	515.955
377.537	255.769
381.59	105.408
385.642	367.759
389.691	49.099
393.738	67.738
397.784	43.361
401.827	225.54
405.868	118.589
409.908	176.942
413.945	84.966
417.98	168.491
422.014	404.301
426.045	617.74
430.075	995.958
434.102	1267.3
438.127	1914.12
442.151	2380.46
446.172	2616.26
450.192	2708.17
454.209	3036.87
458.225	5382.96
462.238	9475.66
466.25	7638.23
470.259	3767.07
474.267	2084.79
478.273	1488.69
482.276	1175.64
486.278	1088.89
490.278	1051.97
494.276	1207.79
498.271	1242.16
502.265	1334.48
506.257	1406.94
510.247	1512.95
514.235	1568.43
518.221	1709.42
522.205	1831.06
526.187	2118.36
530.167	2156.34
534.145	1875.08
538.122	1364.2
542.096	1029.77
546.068	811.44
550.039	622.143
554.007	531.154
557.973	466.392
561.938	467.102
565.901	497.516
569.861	544.112
573.82	456.055
577.777	384.174
581.732	385.969
585.685	294.082
589.636	198.014
593.585	183.829
597.532	153.659
601.477	135.67
605.42	145.82
609.361	111.063
613.301	37.175
617.238	29.098
621.174	16.182
625.108	46.774
629.039	19.785
632.969	5.874
636.897	3.766
640.823	8.738
644.747	23.955
648.669	9.378
652.589	43.054
656.508	11.408
660.424	18.67
664.339	40.827
668.251	83.574
672.162	114.247
676.071	144.264
679.978	185.119
683.883	138.85
687.786	53.514
691.687	65.113
695.586	23.662
699.484	31.816
703.379	22.459
707.273	59.188
711.165	32.022
715.055	7.041
718.943	40.097
722.829	101.162
726.713	181.761
730.595	276.359
734.476	380.516
738.354	532.689
742.231	678.853
746.106	708.86
749.978	833.804
753.849	934.801
757.719	1093.64
761.586	1170.14
765.451	1356.64
769.315	1465.1
773.177	1485.93
777.036	1604.46
780.894	1659.38
784.75	1792.49
788.605	1850.23
792.457	1901.87
796.307	1797.22
800.156	1512.86
804.003	1167.47
807.848	781.243
811.691	379.056
815.532	226.209
819.371	90.457
823.209	80.324
827.045	18.421
830.878	5.263
834.71	5.164
838.54	145.74
842.369	111.385
846.195	193.18
850.02	247.954
853.842	287.319
857.663	410.134
861.482	515.814
865.299	640.435
869.115	879.21
872.928	1165.66
876.74	1679.22
880.55	2381.89
884.358	3354.66
888.164	4555.53
891.969	5460.51
895.771	5944.58
899.572	5587.75
903.371	4588.02
907.168	3625.39
910.963	2829.85
914.757	2385.42
918.548	2080.08
922.338	1921.85
926.126	1872.73
929.912	1984.73
933.697	2055.92
937.479	2003.32
941.26	1925.92
945.039	1814.75
948.816	1683.54
952.591	1568.51
956.365	1557.78
960.136	1670.5
963.906	1645.09
967.674	1888.02
971.441	1721.2
975.205	1101.99
978.968	989.358
982.729	817.556
986.488	680.678
990.245	629.709
994	586.512
997.754	566.244
1001.51	606.89
1005.26	482.142
1009	436.05
1012.75	441.165
1016.5	391.38
1020.24	339.138
1023.98	313.858
1027.72	253.578
1031.46	256.985
1035.19	181.083
1038.93	156.487
1042.66	117.557
1046.39	96.171
1050.12	146.049
1053.85	129.604
1057.57	139.374
1061.29	133.151
1065.02	121.668
1068.74	47.936
1072.45	52.198
1076.17	83.276
1079.88	192.306
1083.6	131.364
1087.31	12.292
1091.02	31.837
1094.72	12.093
1098.43	14.966
1102.13	12.722
1105.84	18.924
1109.54	14.942
1113.24	3.187
1116.93	18.87
1120.63	2.801
1124.32	14.279
1128.01	56.257
1131.7	6.433
1135.39	16.122
1139.08	19.67
1142.76	9.757
1146.45	21.19
1150.13	55.998
1153.81	81.392
1157.48	147.798
1161.16	148.512
1164.84	72.99
1168.51	63.237
1172.18	35.818
1175.85	67.659
1179.52	23.227
1183.18	62.43
1186.85	70.296
1190.51	90.902
1194.17	63.598
1197.83	88.915
1201.48	73.057
1205.14	35.924
1208.79	78.551
1212.44	97.953
1216.09	109.592
1219.74	130.785
1223.39	146.81
1227.03	94.785
1230.68	158.943
1234.32	114.185
1237.96	68.201
1241.6	72.254
1245.23	106.576
1248.87	142.907
1252.5	122.836
1256.13	55.422
1259.76	75.875
1263.39	59.177
1267.02	103.092
1270.64	62.976
1274.26	79.837
1277.88	119.098
1281.5	75.588
1285.12	29.578
1288.74	59.638
1292.35	61.134
1295.96	17.839
1299.57	4.581
1303.18	47.353
1306.79	5.639
1310.4	8.613
1314	72.471
1317.6	33.09
1321.2	37.758
1324.8	29.226
1328.4	70.444
1331.99	76.835
1335.59	29.442
1339.18	42.152
1342.77	45.654
1346.36	95.861
1349.95	121.78
1353.53	43.076
1357.12	94.462
1360.7	52.817
1364.28	45.76
1367.86	64.656
1371.44	52.265
1375.01	15.843
1378.59	66.048
1382.16	50.984
1385.73	62.78
1389.3	33.74
1392.87	17.539
1396.43	22.765
1399.99	26.741
1403.56	2.814
1407.12	12.605
1410.68	62.083
1414.23	52.965
1417.79	89.96
1421.34	51.626
1424.9	24.508
1428.45	43.757
1431.99	54.976
1435.54	12.751
1439.09	40.377
1442.63	85.908
1446.17	39.06
1449.71	28.846
1453.26	34.318
1456.79	57.25
1460.33	80.994
1463.86	44.857
1467.39	54.694
1470.92	99.914
1474.45	73.4
1477.98	57.459
1481.51	60.358
1485.03	26.957
1488.56	16.291
1492.08	42.311
1495.6	0.535
1499.11	145.835
1502.63	83.036
1506.14	71.707
1509.66	31.755
1513.17	0.501
1516.68	2.847
