Measurement: Raman, 514 nm, ccw, Raman Data Processed
Mineral: Staurolite
Rruff sample: R050079
Ideal chemistry: Fe^2+^_2_Al_9_Si_4_O_23_(OH)
Locality: Keivy, Kola Peninsula, Russia
Source: Rock Currier
Description: Brown cruciform twins
Measured chemistry: (Fe^2+^_0.77_Mg_0.23_)_2_(Al_0.99_Ti_0.01_)_9_(Si_0.99_Al_0.01_)_4_O_20_(O_0.76_(OH)_0.24_)_4_
Pin_id: L00403
Orientation: Laser parallel to -b* (0 -1 0). Fiducial mark perpendicular to laser is parallel to c [0 0 1]
Raman shift (cm-1)	intensity
179.54	0
183.684	17.951
187.826	58.274
191.967	108.9
196.105	297.931
200.241	342.009
204.375	441.276
208.507	389.327
212.638	349.702
216.766	180.686
220.892	171.985
225.016	135.058
229.139	235.803
233.259	292.43
237.377	337.026
241.493	269.251
245.608	287.166
249.72	288.881
253.83	275.495
257.939	316.169
262.045	395.067
266.15	323.269
270.252	138.677
274.353	14.22
278.451	8.562
282.548	4.353
286.642	0.614
290.735	78.186
294.826	403.766
298.914	1220.11
303.001	2717.75
307.086	3574.3
311.168	2774.46
315.249	1619.66
319.328	838.354
323.405	528.951
327.48	292.49
331.553	258.42
335.624	248.432
339.693	337.852
343.76	425.851
347.826	252.233
351.889	196.308
355.95	218.711
360.01	99.004
364.067	29.815
368.123	11.887
372.176	22.318
376.228	55.179
380.277	46.777
384.325	34.933
388.371	20.394
392.415	173.756
396.457	182.946
400.497	201.484
404.535	206.848
408.571	132.085
412.605	127.208
416.638	186.227
420.668	304.173
424.697	439.051
428.723	642.863
432.748	791.027
436.77	1016.4
440.791	1339.34
444.81	1638.27
448.827	1796.25
452.842	1703.79
456.855	1891.38
460.867	2494.58
464.876	3577.78
468.883	2764.99
472.889	1530.22
476.892	940.484
480.894	834.787
484.894	685.134
488.892	702.527
492.888	748.97
496.882	801.463
500.874	824.008
504.865	772.592
508.853	677.118
512.84	603.414
516.824	622.816
520.807	451.612
524.788	376.126
528.767	350.648
532.744	281.364
536.719	301.62
540.693	212.495
544.664	179.783
548.634	167.11
552.601	228.745
556.567	279.326
560.531	275.951
564.493	256.687
568.453	313.29
572.412	309.949
576.368	300.953
580.323	322.097
584.275	275.313
588.226	180.603
592.175	128.971
596.122	124.465
600.068	131.177
604.011	182.188
607.952	256.448
611.892	235.902
615.83	214.484
619.766	244.171
623.7	226.965
627.632	219.865
631.563	249.874
635.491	255.99
639.418	262.217
643.343	330.554
647.266	321.001
651.187	296.562
655.106	408.235
659.024	426.021
662.939	347.923
666.853	248.943
670.765	103.082
674.675	69.343
678.583	32.454
682.49	18.448
686.394	94.538
690.297	2.628
694.198	23.935
698.097	95.228
701.995	57.507
705.89	65.199
709.784	108.03
713.675	133.979
717.565	177.041
721.453	217.215
725.34	335.502
729.224	343.905
733.107	423.419
736.988	556.043
740.867	644.775
744.744	704.615
748.62	849.563
752.493	948.616
756.365	1066.77
760.235	1249.03
764.103	1424.38
767.969	1630.84
771.834	1700.38
775.697	1947.01
779.558	2093.73
783.417	2262.54
787.274	2342.45
791.13	2589.46
794.983	2665.58
798.835	2502.79
802.686	2144.15
806.534	1592.64
810.38	1016.25
814.225	572.992
818.068	314.866
821.909	174.854
825.749	90.92
829.586	71.062
833.422	61.595
837.256	14.526
841.088	53.933
844.919	39.381
848.748	17.839
852.575	20.116
856.4	63.678
860.223	22.498
864.045	88.363
867.864	158.271
871.682	241.221
875.499	285.212
879.313	417.247
883.126	666.324
886.937	859.445
890.746	1180.6
894.553	1385.79
898.359	1501.01
902.163	1464.26
905.965	1453.53
909.765	1370.82
913.564	1461.42
917.361	1619.47
921.156	1852.82
924.949	2197.18
928.74	2620.55
932.53	3294.94
936.318	3711.33
940.104	3801.25
943.889	3581.37
947.672	3126.04
951.453	2567.15
955.232	2112.9
959.01	1740.51
962.785	1616.22
966.559	1504.8
970.332	1280.8
974.102	1147.63
977.871	1042.66
981.638	1010.64
985.404	957.847
989.167	935.703
992.929	923.993
996.689	923.249
1000.45	927.207
1004.2	825.795
1007.96	770.611
1011.71	702.73
1015.46	662.818
1019.21	545.865
1022.96	588.967
1026.71	525.374
1030.45	509.829
1034.19	432.611
1037.94	357.018
1041.68	293.022
1045.41	257.927
1049.15	262.189
1052.88	236.965
1056.62	220.552
1060.35	153.126
1064.08	185.769
1067.8	115.688
1071.53	144.235
1075.25	97.519
1078.97	50.008
1082.7	91.334
1086.41	22.431
1090.13	1.521
1093.85	32.454
1097.56	2.381
1101.27	44.983
1104.98	42.73
1108.69	38.153
1112.4	30.123
1116.1	6.042
1119.81	17.089
1123.51	19.707
1127.21	29.144
1130.91	20.027
1134.61	4.306
1138.3	48.602
1141.99	71.096
1145.68	27.277
1149.38	9.422
1153.06	43.443
1156.75	121.749
1160.43	204.376
1164.12	200.126
1167.8	87.759
1171.48	53.165
1175.16	36.469
1178.83	25.735
1182.51	53.929
1186.18	57.939
1189.85	78.02
1193.52	26.73
1197.19	69.598
1200.86	96.976
1204.52	92.29
1208.19	67.478
1211.85	51.818
1215.51	88.786
1219.17	103.627
1222.82	72.378
1226.48	113.352
1230.13	89.06
1233.78	68.471
1237.43	59.707
1241.08	68.893
1244.73	88.38
1248.37	71.87
1252.01	97.735
1255.66	132.319
1259.3	105.258
1262.93	88.062
1266.57	51.86
1270.21	84.118
1273.84	9.719
1277.47	33.013
1281.1	87.96
1284.73	43.604
1288.36	44.889
1291.98	51.285
1295.6	67.667
1299.23	28.704
1302.85	27.036
1306.46	34.011
1310.08	36.964
1313.7	45.896
1317.31	47.467
1320.92	90.519
1324.53	59.374
1328.14	16.974
1331.75	50.778
1335.35	18.752
1338.96	19.188
1342.56	37.75
1346.16	97.386
1349.76	79.658
1353.36	106.171
1356.95	63.278
1360.55	74.208
1364.14	42.916
1367.73	17.569
1371.32	28.656
1374.91	14.541
1378.49	36.012
1382.08	57.768
1385.66	59.689
1389.24	50.222
1392.82	95.868
1396.4	38.635
1399.97	18.757
1403.55	24.931
1407.12	5.883
1410.69	0.66
1414.26	14.825
1417.83	39.868
1421.4	29.886
1424.96	58.928
1428.53	84.74
1432.09	129.483
1435.65	56.325
1439.21	76.373
1442.76	31.967
1446.32	63.621
1449.87	48.737
1453.43	80.524
1456.98	47.211
1460.53	69.616
1464.07	36.367
1467.62	75.451
1471.16	71.168
1474.71	89.125
1478.25	53.847
1481.79	38.248
1485.32	33.865
1488.86	19.913
1492.39	7.169
1495.93	13.761
1499.46	44.127
1502.99	52.782
1506.52	51.903
1510.05	29.935
1513.57	20.39
1517.09	14.171
