Measurement: Raman, 514 nm, ccw, Raman Data Processed
Mineral: Staurolite
Rruff sample: R050079
Ideal chemistry: Fe^2+^_2_Al_9_Si_4_O_23_(OH)
Locality: Keivy, Kola Peninsula, Russia
Source: Rock Currier
Description: Brown cruciform twins
Measured chemistry: (Fe^2+^_0.77_Mg_0.23_)_2_(Al_0.99_Ti_0.01_)_9_(Si_0.99_Al_0.01_)_4_O_20_(O_0.76_(OH)_0.24_)_4_
Pin_id: L00403
Orientation: Laser parallel to -b* (0 -1 0). Fiducial mark perpendicular to laser is parallel to c [0 0 1]
Raman shift (cm-1)	intensity
182.303	0
186.446	54.741
190.587	118.989
194.726	161.951
198.862	316.582
202.997	457.968
207.13	461.646
211.261	471.41
215.39	390.811
219.517	303.828
223.642	241.819
227.765	255.542
231.886	253.182
236.005	335.992
240.122	274.167
244.237	245.499
248.35	211.198
252.461	202.419
256.57	159.042
260.677	150.504
264.782	164.614
268.885	110.239
272.986	43.536
277.085	51.468
281.182	21.701
285.278	109.307
289.371	240.207
293.462	542.751
297.552	1254.45
301.639	2829.06
305.724	4244.04
309.808	3660.77
313.889	2217.75
317.969	1214.1
322.046	588.234
326.122	351.218
330.196	158.051
334.267	99.741
338.337	25.352
342.405	10.949
346.471	16.952
350.535	55.851
354.597	161.078
358.657	176.91
362.715	133.384
366.771	103.423
370.825	62.992
374.877	5.969
378.928	80.7
382.976	0.068
387.023	11.07
391.067	19.245
395.11	48.225
399.15	107.312
403.189	145.079
407.226	186.565
411.261	189.827
415.294	174.781
419.325	339.9
423.354	621.652
427.381	922.392
431.406	972.005
435.43	948.322
439.451	927.377
443.471	1025.63
447.488	1208.08
451.504	1333.46
455.518	1498.52
459.53	2263.49
463.54	3639.38
467.548	3452.2
471.554	1886.96
475.558	1152.66
479.561	877.314
483.561	773.927
487.559	825.988
491.556	778.12
495.551	923.563
499.544	1008.24
503.535	1082.4
507.524	980.038
511.511	960.081
515.496	914.811
519.48	1005.18
523.461	1092.19
527.441	1090.53
531.418	1118.46
535.394	1084.47
539.368	866.993
543.34	798.838
547.311	755.49
551.279	767.129
555.245	881.024
559.21	886.006
563.173	1018.11
567.133	1104.81
571.092	1206.51
575.049	1286.98
579.005	1363.76
582.958	1136.54
586.909	918.315
590.859	775.098
594.807	636.928
598.753	505.012
602.697	453.044
606.639	405.308
610.579	363.637
614.518	257.004
618.454	165.409
622.389	144.856
626.322	99.347
630.253	100.886
634.182	34.475
638.109	58.118
642.035	15.183
645.958	7.366
649.88	13.715
653.8	6.988
657.718	5.112
661.634	46.542
665.549	29.493
669.461	9.588
673.372	37.212
677.281	35.051
681.188	27.878
685.093	36.842
688.997	28.766
692.898	70.363
696.798	12.209
700.696	118.979
704.592	218.061
708.486	313.373
712.378	386.174
716.269	438.778
720.158	526.461
724.045	731.289
727.93	784.262
731.813	1004.39
735.694	1089.66
739.574	1243.09
743.452	1390.67
747.328	1569.41
751.202	1795.31
755.075	2140.37
758.945	2326.59
762.814	2798.97
766.681	3421.51
770.546	3888.22
774.409	4574.09
778.271	5232.12
782.131	5795.33
785.989	6736.7
789.845	7536.24
793.699	8305.96
797.552	8244.82
801.402	7583.83
805.251	6030.01
809.098	4240.48
812.944	2694.06
816.787	1838.18
820.629	1168.5
824.469	835.005
828.307	527.8
832.144	379.034
835.978	199.485
839.811	138.519
843.642	47.032
847.472	54.088
851.299	10.013
855.125	149.04
858.949	14.775
862.771	14.459
866.591	7.684
870.41	22.35
874.227	110.586
878.042	144.044
881.855	249.701
885.667	337.589
889.476	484.68
893.284	554.954
897.09	710.4
900.895	750.02
904.698	804.809
908.499	925.77
912.298	1055.89
916.095	1386.18
919.891	1843.62
923.685	2386.21
927.477	3110.94
931.267	3855.81
935.056	4563.82
938.843	5058.95
942.628	4935.22
946.411	4180.61
950.193	3450.74
953.973	2867.09
957.751	2499.5
961.527	2304.85
965.302	2367.96
969.075	2265.78
972.846	2250.38
976.615	2227.79
980.383	2099.52
984.149	1997.42
987.913	1952.42
991.675	2003.17
995.436	1986.89
999.195	1921.38
1002.95	1899.68
1006.71	1810.48
1010.46	1701.89
1014.21	1589.35
1017.96	1392.73
1021.71	1224.3
1025.46	1212.8
1029.2	1014.54
1032.95	846.631
1036.69	692.036
1040.43	626.068
1044.17	415.936
1047.9	339.713
1051.64	279.704
1055.37	303.261
1059.1	258.186
1062.83	230.618
1066.56	213.079
1070.29	207.415
1074.01	88.916
1077.73	67.13
1081.46	100.001
1085.17	100.61
1088.89	55.229
1092.61	23.23
1096.32	2.952
1100.04	18.333
1103.75	73.421
1107.46	14.421
1111.16	54.873
1114.87	3.338
1118.57	16.454
1122.28	37.501
1125.98	118.195
1129.67	38.221
1133.37	14.798
1137.07	18.635
1140.76	13.489
1144.45	50.279
1148.14	38.639
1151.83	0.989
1155.52	8.971
1159.21	32.189
1162.89	27.253
1166.57	33.144
1170.25	4.48
1173.93	15.763
1177.61	50.255
1181.28	53.772
1184.96	28.436
1188.63	73.853
1192.3	43.371
1195.97	113.046
1199.64	90.297
1203.3	126.133
1206.97	105.294
1210.63	67.969
1214.29	84.243
1217.95	69.307
1221.6	128.207
1225.26	133.068
1228.91	122.643
1232.57	145.908
1236.21	146.497
1239.86	193.94
1243.51	137.353
1247.16	106.827
1250.8	118.241
1254.44	125.941
1258.08	137.457
1261.72	139.605
1265.36	161.237
1268.99	238.667
1272.63	133.815
1276.26	125.362
1279.89	112.571
1283.52	81.231
1287.15	73.252
1290.77	121.225
1294.4	100.306
1298.02	143.299
1301.64	106.656
1305.26	72.694
1308.88	65.765
1312.49	119.911
1316.11	58.648
1319.72	53.557
1323.33	87.679
1326.94	105.705
1330.55	45.739
1334.15	111.813
1337.76	75.865
1341.36	69.635
1344.96	147.191
1348.56	44.133
1352.16	87.347
1355.75	111.544
1359.35	75.424
1362.94	107.183
1366.53	118.926
1370.12	94.29
1373.71	60.749
1377.3	59.977
1380.88	14.296
1384.46	22.573
1388.05	11.916
1391.63	19.431
1395.2	67.671
1398.78	73.996
1402.36	77.916
1405.93	34.38
1409.5	25.229
1413.07	35.197
1416.64	52.509
1420.21	25.978
1423.78	58.242
1427.34	73.02
1430.9	46.375
1434.46	105.512
1438.02	25.437
1441.58	142.475
1445.13	49.578
1448.69	79.669
1452.24	56.306
1455.79	57.999
1459.34	41.488
1462.89	35.013
1466.44	45.504
1469.98	27.792
1473.53	79.943
1477.07	94.708
1480.61	117.135
1484.14	106.254
1487.68	66.599
1491.22	78.271
1494.75	46.041
1498.28	7.734
1501.81	69.183
1505.34	42.677
1508.87	45.458
1512.4	12.776
1515.92	0.395
1519.44	0
