Measurement: Raman, 514 nm, ccw, Raman Data Processed
Mineral: Staurolite
Rruff sample: R050079
Ideal chemistry: Fe^2+^_2_Al_9_Si_4_O_23_(OH)
Locality: Keivy, Kola Peninsula, Russia
Source: Rock Currier
Description: Brown cruciform twins
Measured chemistry: (Fe^2+^_0.77_Mg_0.23_)_2_(Al_0.99_Ti_0.01_)_9_(Si_0.99_Al_0.01_)_4_O_20_(O_0.76_(OH)_0.24_)_4_
Pin_id: m00494
Orientation: Laser parallel to a* (1 0 0). Fiducial mark perpendicular to laser is parallel to b [0 1 0]
Raman shift (cm-1)	intensity
159.799	0
163.961	51.768
168.121	53.168
172.278	197.175
176.434	46.231
180.587	35.354
184.739	143.781
188.888	149.039
193.035	331.887
197.18	357.688
201.324	472.145
205.465	425.303
209.603	291.497
213.74	396.54
217.875	250.255
222.008	239.669
226.139	135.341
230.267	100.692
234.394	106.909
238.518	12.42
242.641	118.183
246.761	104.112
250.879	126.048
254.996	126.815
259.11	142.272
263.222	223.533
267.332	157.353
271.44	36.146
275.546	74.018
279.65	180.796
283.752	242.599
287.852	350.21
291.95	801.923
296.046	1828.08
300.14	3248.09
304.231	3692.88
308.321	2548.68
312.409	1383.69
316.495	718.953
320.578	254.506
324.66	176.257
328.739	110.908
332.817	18.569
336.892	10.566
340.966	28.338
345.037	13.411
349.107	29.609
353.174	128.707
357.24	75.976
361.303	5.808
365.365	16.599
369.424	23.641
373.481	37.66
377.537	5.234
381.59	30.418
385.642	12.373
389.691	42.739
393.738	36.989
397.784	107.714
401.827	218.702
405.868	236.774
409.908	255.646
413.945	257.755
417.98	441.46
422.014	708.045
426.045	859.858
430.075	902.862
434.102	799.006
438.127	975.829
442.151	1119.22
446.172	1151.76
450.192	1119.28
454.209	1386.13
458.225	2202.04
462.238	3201.57
466.25	2474.81
470.259	1353.6
474.267	994.247
478.273	866.99
482.276	858.681
486.278	837.032
490.278	913.617
494.276	1059.61
498.271	1119.48
502.265	1048.18
506.257	1012.04
510.247	1000.54
514.235	1036.57
518.221	1069.81
522.205	1168.76
526.187	1162.21
530.167	1133.28
534.145	1023.97
538.122	817.914
542.096	783.699
546.068	756.672
550.039	749.539
554.007	818.346
557.973	894.79
561.938	1034.8
565.901	1131.43
569.861	1263.53
573.82	1231.42
577.777	1091.6
581.732	944.355
585.685	816.916
589.636	655.305
593.585	532.543
597.532	455.693
601.477	487.749
605.42	326.693
609.361	290.515
613.301	256.192
617.238	181.71
621.174	139.089
625.108	156.32
629.039	102.413
632.969	36.372
636.897	18.194
640.823	35.248
644.747	66.657
648.669	98.391
652.589	29.346
656.508	27.334
660.424	46.333
664.339	15.699
668.251	36.202
672.162	0.146
676.071	31.94
679.978	20.127
683.883	54.403
687.786	25.827
691.687	109.438
695.586	227.809
699.484	207.387
703.379	252.714
707.273	281.54
711.165	452.437
715.055	570.27
718.943	632.231
722.829	804.312
726.713	922.519
730.595	1017.86
734.476	1195.32
738.354	1367.88
742.231	1388.52
746.106	1528.27
749.978	1789.11
753.849	2063.05
757.719	2445.11
761.586	2871.53
765.451	3338.54
769.315	3847.93
773.177	4345.43
777.036	4974.06
780.894	5633.11
784.75	6405.56
788.605	6966.13
792.457	7466.62
796.307	7162.9
800.156	6127.95
804.003	4532.92
807.848	3186.44
811.691	2039.34
815.532	1363
819.371	849.449
823.209	594.739
827.045	419.674
830.878	252.91
834.71	139.748
838.54	160.675
842.369	87.562
846.195	32.642
850.02	30.106
853.842	18.333
857.663	4.182
861.482	63.526
865.299	69.382
869.115	64.388
872.928	63.568
876.74	162.932
880.55	210.481
884.358	314.191
888.164	461.066
891.969	534.088
895.771	664.254
899.572	688.567
903.371	772.029
907.168	949.635
910.963	1120.38
914.757	1289.26
918.548	1749.28
922.338	2321.42
926.126	3119.69
929.912	3646.09
933.697	4126.6
937.479	4097.44
941.26	3654.31
945.039	3168.67
948.816	2675.84
952.591	2288.15
956.365	2077.84
960.136	1958.73
963.906	1919.26
967.674	1823.57
971.441	1895.59
975.205	1816.82
978.968	1787.07
982.729	1757.13
986.488	1651.26
990.245	1701.43
994	1638.14
997.754	1686.06
1001.51	1624.6
1005.26	1509.39
1009	1433.61
1012.75	1295.67
1016.5	1171.25
1020.24	1037.4
1023.98	989.001
1027.72	821.018
1031.46	731.382
1035.19	518.057
1038.93	448.419
1042.66	389.35
1046.39	361.342
1050.12	329.254
1053.85	247.354
1057.57	206.587
1061.29	225.499
1065.02	225.553
1068.74	291.043
1072.45	120.701
1076.17	101.037
1079.88	67.391
1083.6	16.636
1087.31	55.477
1091.02	50.405
1094.72	33.617
1098.43	29.526
1102.13	6.553
1105.84	27.173
1109.54	14.424
1113.24	17.116
1116.93	41.167
1120.63	57.582
1124.32	47.351
1128.01	33.898
1131.7	54.982
1135.39	79.069
1139.08	15.238
1142.76	12.824
1146.45	14.652
1150.13	14.055
1153.81	42.335
1157.48	17.919
1161.16	88.795
1164.84	78.564
1168.51	16.041
1172.18	28.037
1175.85	6.183
1179.52	21.036
1183.18	59.907
1186.85	106.885
1190.51	118.493
1194.17	80.089
1197.83	90.536
1201.48	56.757
1205.14	59.977
1208.79	56.79
1212.44	98.507
1216.09	100.979
1219.74	132.359
1223.39	116.231
1227.03	144.166
1230.68	172.074
1234.32	148.912
1237.96	158.046
1241.6	74.976
1245.23	87.121
1248.87	103.361
1252.5	129.649
1256.13	102.421
1259.76	135.579
1263.39	108.935
1267.02	117.689
1270.64	102.169
1274.26	93.634
1277.88	114.703
1281.5	115.158
1285.12	76.041
1288.74	59.593
1292.35	64.627
1295.96	38.026
1299.57	76.615
1303.18	47.27
1306.79	2.47
1310.4	41.045
1314	91.33
1317.6	31.944
1321.2	44.972
1324.8	48.614
1328.4	72.74
1331.99	13.321
1335.59	58.159
1339.18	44.647
1342.77	122.316
1346.36	71.531
1349.95	127.259
1353.53	64.015
1357.12	100.618
1360.7	44.13
1364.28	83.406
1367.86	48.683
1371.44	17.579
1375.01	19.964
1378.59	70.97
1382.16	91.844
1385.73	100.206
1389.3	78.68
1392.87	26.887
1396.43	93.734
1399.99	37.023
1403.56	26.447
1407.12	62.419
1410.68	26.448
1414.23	30.943
1417.79	82.263
1421.34	54.87
1424.9	79.118
1428.45	45.701
1431.99	53.189
1435.54	25.022
1439.09	65.957
1442.63	20.61
1446.17	9.974
1449.71	43.75
1453.26	54.926
1456.79	115.479
1460.33	60.156
1463.86	59.485
1467.39	80.947
1470.92	111.816
1474.45	22.406
1477.98	75.681
1481.51	29.267
1485.03	18.172
1488.56	71.225
1492.08	89.942
1495.6	104.917
1499.11	142.015
1502.63	125.673
1506.14	83.681
1509.66	138.066
1513.17	86.103
1516.68	103.585
