Measurement: Raman, 514 nm, ccw, Raman Data Processed
Mineral: Staurolite
Rruff sample: R050079
Ideal chemistry: Fe^2+^_2_Al_9_Si_4_O_23_(OH)
Locality: Keivy, Kola Peninsula, Russia
Source: Rock Currier
Description: Brown cruciform twins
Measured chemistry: (Fe^2+^_0.77_Mg_0.23_)_2_(Al_0.99_Ti_0.01_)_9_(Si_0.99_Al_0.01_)_4_O_20_(O_0.76_(OH)_0.24_)_4_
Pin_id: L00460
Orientation: Laser parallel to -c* (0 0 -1). Fiducial mark perpendicular to laser is parallel to a [1 0 0]
Raman shift (cm-1)	intensity
193.035	0
197.18	27.552
201.324	75.691
205.465	103.604
209.603	68.346
213.74	87.714
217.875	125.057
222.008	184.522
226.139	247.768
230.267	293.006
234.394	328.085
238.518	487.027
242.641	569.603
246.761	601.775
250.879	625.557
254.996	677.264
259.11	766.003
263.222	851.758
267.332	707.675
271.44	428.892
275.546	121.619
279.65	11.2
283.752	70.304
287.852	34.991
291.95	147.188
296.046	692.582
300.14	2117.87
304.231	4854.22
308.321	6910.68
312.409	5444.06
316.495	3102.35
320.578	1669.97
324.66	1031.13
328.739	634.065
332.817	503.997
336.892	627.935
340.966	845.883
345.037	914.321
349.107	632.841
353.174	319.865
357.24	210.743
361.303	126.521
365.365	19.071
369.424	30.903
373.481	3.582
377.537	26.016
381.59	26.227
385.642	6.395
389.691	51.493
393.738	71.901
397.784	97.816
401.827	87.354
405.868	168.79
409.908	137.871
413.945	153.848
417.98	187.742
422.014	305.567
426.045	527.336
430.075	824.063
434.102	1188.76
438.127	1761.85
442.151	2563.07
446.172	3249.37
450.192	3426.52
454.209	3143.43
458.225	2768.84
462.238	2740.34
466.25	2964.85
470.259	2301.39
474.267	1428.96
478.273	1063.57
482.276	925.223
486.278	906.936
490.278	1009.72
494.276	1113.58
498.271	1203.51
502.265	1328.51
506.257	1268.6
510.247	1103.76
514.235	903.36
518.221	763.391
522.205	590.064
526.187	497.473
530.167	389.385
534.145	299.371
538.122	207.377
542.096	127.469
546.068	104.893
550.039	99.919
554.007	121.349
557.973	112.727
561.938	160.311
565.901	151.53
569.861	171
573.82	150.791
577.777	148.806
581.732	116.907
585.685	119.096
589.636	83.514
593.585	38.747
597.532	62.219
601.477	158.872
605.42	185.905
609.361	178.385
613.301	222.125
617.238	122.998
621.174	155.986
625.108	149.09
629.039	73.309
632.969	92.645
636.897	92.098
640.823	99.668
644.747	93.356
648.669	95.163
652.589	119.089
656.508	112.133
660.424	165.296
664.339	140.578
668.251	104.437
672.162	148.747
676.071	55.9
679.978	21.871
683.883	32.33
687.786	5.786
691.687	9.949
695.586	28.187
699.484	45.84
703.379	4.282
707.273	38.738
711.165	43.888
715.055	105.159
718.943	57.547
722.829	92.046
726.713	125.649
730.595	141.356
734.476	175.16
738.354	225.063
742.231	368.06
746.106	401.152
749.978	508.338
753.849	595.616
757.719	776.985
761.586	889.438
765.451	958.972
769.315	1204.58
773.177	1362.26
777.036	1388.02
780.894	1430.84
784.75	1500.82
788.605	1539.7
792.457	1536.76
796.307	1611.9
800.156	1526.17
804.003	1148.54
807.848	771.983
811.691	474.515
815.532	173.13
819.371	74.832
823.209	20.413
827.045	29.706
830.878	49.084
834.71	45.613
838.54	65.317
842.369	25.777
846.195	43.933
850.02	19.409
853.842	51.273
857.663	145.296
861.482	241.022
865.299	339.153
869.115	406.302
872.928	571.466
876.74	692.642
880.55	894.838
884.358	1219.05
888.164	1606.28
891.969	2010.51
895.771	2403.75
899.572	2607.99
903.371	2425.24
907.168	2255.48
910.963	2023.72
914.757	1904.94
918.548	2025.16
922.338	2103.37
926.126	2274.57
929.912	2778.74
933.697	3229.92
937.479	3648.42
941.26	3713.59
945.039	3531.15
948.816	3049.73
952.591	2576.32
956.365	2122.77
960.136	1670.37
963.906	1375.21
967.674	1185.71
971.441	927.341
975.205	893.153
978.968	720.55
982.729	587.858
986.488	516.696
990.245	427.712
994	410.834
997.754	410.41
1001.51	337.218
1005.26	377.811
1009	298.292
1012.75	303.83
1016.5	239.511
1020.24	267.8
1023.98	214.127
1027.72	209.515
1031.46	157.042
1035.19	156.681
1038.93	137.137
1042.66	154.555
1046.39	135.729
1050.12	99.898
1053.85	122.157
1057.57	121.996
1061.29	106.636
1065.02	136.525
1068.74	104.195
1072.45	82.748
1076.17	85.336
1079.88	74.714
1083.6	44.903
1087.31	9.078
1091.02	18.884
1094.72	24.031
1098.43	27.142
1102.13	16.361
1105.84	37.766
1109.54	26.217
1113.24	20.555
1116.93	14.508
1120.63	9.396
1124.32	94.13
1128.01	46.061
1131.7	5.837
1135.39	11.462
1139.08	3.225
1142.76	30.918
1146.45	4.402
1150.13	37.374
1153.81	3.243
1157.48	75.027
1161.16	72.843
1164.84	86.049
1168.51	45.094
1172.18	37.244
1175.85	4.841
1179.52	19.037
1183.18	33.535
1186.85	53.186
1190.51	37.656
1194.17	25.292
1197.83	5.526
1201.48	47.617
1205.14	69.689
1208.79	53.542
1212.44	75.479
1216.09	60.715
1219.74	60.445
1223.39	57.692
1227.03	80.256
1230.68	79.463
1234.32	69.045
1237.96	104.613
1241.6	80.127
1245.23	103.211
1248.87	101.921
1252.5	68.597
1256.13	41.962
1259.76	67.608
1263.39	49.734
1267.02	61.392
1270.64	27.383
1274.26	54.935
1277.88	59.484
1281.5	59.759
1285.12	49.941
1288.74	50.019
1292.35	26.098
1295.96	3.249
1299.57	8.86
1303.18	20.932
1306.79	17.292
1310.4	26.346
1314	15.623
1317.6	35.75
1321.2	2.189
1324.8	36.256
1328.4	24.909
1331.99	19.48
1335.59	11.932
1339.18	17.322
1342.77	48.384
1346.36	12.909
1349.95	42.395
1353.53	3.781
1357.12	54.949
1360.7	4.042
1364.28	33.186
1367.86	37.12
1371.44	40.997
1375.01	15.543
1378.59	19.81
1382.16	20.993
1385.73	6.217
1389.3	27.058
1392.87	32.463
1396.43	16.268
1399.99	32.833
1403.56	2.542
1407.12	5.119
1410.68	11.441
1414.23	15.809
1417.79	61.324
1421.34	32.325
1424.9	28.255
1428.45	12.442
1431.99	17.962
1435.54	3.148
1439.09	12.943
1442.63	62.772
1446.17	50.437
1449.71	32.626
1453.26	63.168
1456.79	43.746
1460.33	57.781
1463.86	39.596
1467.39	66.124
1470.92	27.472
1474.45	2.981
1477.98	44.462
1481.51	39.233
1485.03	45.256
1488.56	65.227
1492.08	37.952
1495.6	52.926
1499.11	35.49
1502.63	54.874
1506.14	57.253
1509.66	25.951
1513.17	67.301
1516.68	11.071
1520.19	15.776
1523.69	0
