Measurement: Raman, 514 nm, ccw, Raman Data Processed
Mineral: Staurolite
Rruff sample: R050079
Ideal chemistry: Fe^2+^_2_Al_9_Si_4_O_23_(OH)
Locality: Keivy, Kola Peninsula, Russia
Source: Rock Currier
Description: Brown cruciform twins
Measured chemistry: (Fe^2+^_0.77_Mg_0.23_)_2_(Al_0.99_Ti_0.01_)_9_(Si_0.99_Al_0.01_)_4_O_20_(O_0.76_(OH)_0.24_)_4_
Pin_id: m00494
Orientation: Laser parallel to a* (1 0 0). Fiducial mark perpendicular to laser is parallel to b [0 1 0]
Raman shift (cm-1)	intensity
159.799	0
163.961	69.886
168.121	1.714
172.278	43.375
176.434	108.479
180.587	310.155
184.739	741.402
188.888	1262.51
193.035	2053.4
197.18	2743.59
201.324	3040.11
205.465	2821.89
209.603	2245.73
213.74	1649.91
217.875	1159.18
222.008	845.123
226.139	609.457
230.267	484.553
234.394	365.985
238.518	284.188
242.641	267.492
246.761	246.517
250.879	225.333
254.996	226.97
259.11	367.343
263.222	477.533
267.332	85.662
271.44	31.53
275.546	78.606
279.65	31.988
283.752	54.726
287.852	34.543
291.95	196.284
296.046	564.147
300.14	1087.49
304.231	1428.85
308.321	1015.79
312.409	536.06
316.495	205.021
320.578	21.573
324.66	2.831
328.739	46.425
332.817	12.181
336.892	27.816
340.966	63.279
345.037	57.822
349.107	495.786
353.174	1068.25
357.24	498.07
361.303	362.252
365.365	326.757
369.424	217.564
373.481	179.754
377.537	138.929
381.59	66.3
385.642	156.451
389.691	177.879
393.738	202.155
397.784	290.3
401.827	299.711
405.868	229.685
409.908	264.831
413.945	194.694
417.98	240.269
422.014	430.753
426.045	459.373
430.075	655.596
434.102	703.316
438.127	879.646
442.151	1204.22
446.172	1611.94
450.192	2075.45
454.209	3838.69
458.225	9559.39
462.238	15258.5
466.25	8112.44
470.259	3668.02
474.267	2245.5
478.273	1633.34
482.276	1303.6
486.278	1150.78
490.278	1071.26
494.276	1047.45
498.271	974.591
502.265	857.311
506.257	1060.3
510.247	988.855
514.235	934.129
518.221	899.02
522.205	897.125
526.187	943.404
530.167	946.903
534.145	771.313
538.122	631.02
542.096	576.695
546.068	476.705
550.039	386.536
554.007	307.838
557.973	331.64
561.938	364.971
565.901	412.825
569.861	381.274
573.82	398.985
577.777	402.065
581.732	288.498
585.685	231.169
589.636	189.493
593.585	163.701
597.532	127.959
601.477	90.539
605.42	132.568
609.361	47.836
613.301	29.951
617.238	36.844
621.174	51.519
625.108	2.761
629.039	20.732
632.969	1.446
636.897	52.113
640.823	30.062
644.747	0.106
648.669	74.011
652.589	23.641
656.508	44.751
660.424	47.757
664.339	2.875
668.251	0.297
672.162	10.283
676.071	57.122
679.978	60.828
683.883	57.487
687.786	71.055
691.687	6.422
695.586	122.801
699.484	105.711
703.379	74.271
707.273	103.594
711.165	173.477
715.055	159.012
718.943	207.537
722.829	294.063
726.713	364.603
730.595	409.166
734.476	517.524
738.354	610.346
742.231	722.938
746.106	876.277
749.978	840.318
753.849	946.141
757.719	1098.28
761.586	1323.86
765.451	1405.23
769.315	1478.79
773.177	1676.33
777.036	1827.84
780.894	1921.39
784.75	2070.16
788.605	2190.32
792.457	2380.8
796.307	2258.39
800.156	2012.35
804.003	1685.73
807.848	1268.32
811.691	719.424
815.532	453.944
819.371	283.747
823.209	199.5
827.045	123.822
830.878	113.829
834.71	1.039
838.54	62.107
842.369	40.378
846.195	0.038
850.02	16.779
853.842	11.671
857.663	11.385
861.482	69.627
865.299	56.712
869.115	164.872
872.928	231.789
876.74	382.426
880.55	632.832
884.358	910.329
888.164	1230.44
891.969	1502.56
895.771	1660.3
899.572	1551.12
903.371	1390.04
907.168	1136.05
910.963	1049.19
914.757	910.429
918.548	919.762
922.338	985.196
926.126	1128.73
929.912	1334.39
933.697	1459.18
937.479	1452.11
941.26	1360.13
945.039	1109.41
948.816	1051.38
952.591	915.788
956.365	897.567
960.136	888.926
963.906	770.986
967.674	780.431
971.441	771.133
975.205	671.279
978.968	668.332
982.729	592.734
986.488	544.088
990.245	503.873
994	458.322
997.754	548.931
1001.51	500.044
1005.26	450.091
1009	439.883
1012.75	408.629
1016.5	369.423
1020.24	326.397
1023.98	322.305
1027.72	311.242
1031.46	322.037
1035.19	190.714
1038.93	125.819
1042.66	170.073
1046.39	71.635
1050.12	151.15
1053.85	126.035
1057.57	53.361
1061.29	58.01
1065.02	87.274
1068.74	103.481
1072.45	75.559
1076.17	259.559
1079.88	488.496
1083.6	231.394
1087.31	41.268
1091.02	59.213
1094.72	10.493
1098.43	44.722
1102.13	28.224
1105.84	12.957
1109.54	0.323
1113.24	36.788
1116.93	12.543
1120.63	38.029
1124.32	13.015
1128.01	42.172
1131.7	31.043
1135.39	15.826
1139.08	15.493
1142.76	2.012
1146.45	21.785
1150.13	43.251
1153.81	106.094
1157.48	137.103
1161.16	136.32
1164.84	65.451
1168.51	70.22
1172.18	47.224
1175.85	17.626
1179.52	12.48
1183.18	47.834
1186.85	57.908
1190.51	56.107
1194.17	38.016
1197.83	14.565
1201.48	51.705
1205.14	12.418
1208.79	77.328
1212.44	59.838
1216.09	97.956
1219.74	82.929
1223.39	102.815
1227.03	100.379
1230.68	118.945
1234.32	108.245
1237.96	72.51
1241.6	104.413
1245.23	77.402
1248.87	49.097
1252.5	74.692
1256.13	90.175
1259.76	128.309
1263.39	51.567
1267.02	71.315
1270.64	117.124
1274.26	78.371
1277.88	89.967
1281.5	54.716
1285.12	102.12
1288.74	42.478
1292.35	48.946
1295.96	89.973
1299.57	65.01
1303.18	4.691
1306.79	24.282
1310.4	58.645
1314	32.696
1317.6	17.446
1321.2	30.991
1324.8	57.69
1328.4	108.301
1331.99	36.672
1335.59	46.657
1339.18	36.139
1342.77	7.335
1346.36	30.531
1349.95	62.02
1353.53	39.835
1357.12	58.295
1360.7	9.626
1364.28	30.499
1367.86	79.32
1371.44	33.118
1375.01	47.511
1378.59	22.467
1382.16	50.435
1385.73	43.674
1389.3	45.577
1392.87	20.939
1396.43	72.853
1399.99	38.247
1403.56	52.66
1407.12	60.323
1410.68	21.239
1414.23	61.715
1417.79	94.242
1421.34	12.684
1424.9	61.638
1428.45	32.533
1431.99	101.683
1435.54	44.002
1439.09	38.489
1442.63	110.867
1446.17	20.293
1449.71	30.507
1453.26	38.051
1456.79	72.548
1460.33	54.485
1463.86	37.917
1467.39	68.796
1470.92	56.757
1474.45	93.962
1477.98	42.156
1481.51	64.28
1485.03	24.887
1488.56	4.591
1492.08	27.495
1495.6	14.188
1499.11	3.694
1502.63	77.35
1506.14	70.345
1509.66	61.795
1513.17	29.408
1516.68	48.216
