Measurement: Raman, 514 nm, ccw, Raman Data Processed
Mineral: Stellerite
Rruff sample: R040174
Ideal chemistry: Ca_4_(Si_28_Al_8_)O_72_28H_2_O
Locality: unknown
Source: University of Arizona Mineral Museum
Description: Parallel aggregates of thin tabular brown crystals
Measured chemistry: (Ca_3.89_Na_0.06_K_0.05_)_Σ=4_(Si_28.11_Al_7.89_)O_72_·15.18H_2_O; H_2_O estimated by difference
Pin_id: M00319
Orientation: Laser parallel to c* (0 0 1). Fiducial mark perpendicular to laser is parallel to -b [0 -1 0]
Raman shift (cm-1)	intensity
70.737	0
74.978	72.094
79.217	923.623
83.453	1482.95
87.687	3143.39
91.918	5909.76
96.147	9759.83
100.373	12375.6
104.596	13377.7
108.817	15010.3
113.035	16028.5
117.25	15900.9
121.463	17038.5
125.673	15258.5
129.881	15203.4
134.086	14545.1
138.288	15004.7
142.488	15667.8
146.686	16566
150.88	17419.7
155.072	18636.4
159.262	16996.3
163.449	13496.5
167.633	10859.3
171.815	8925.73
175.994	6655.76
180.171	5169.03
184.345	4355.17
188.517	3223.86
192.686	2314.82
196.852	1497.67
201.016	1591.83
205.177	907.088
209.336	333.377
213.492	170.652
217.646	11.133
221.797	302.037
225.946	522.109
230.092	301.84
234.235	262.461
238.376	481.098
242.514	586.738
246.65	184.492
250.783	166.379
254.914	76.75
259.043	254.18
263.168	588.055
267.291	603.918
271.412	621.219
275.53	1169.6
279.646	1788.51
283.759	1917.29
287.87	1995.84
291.978	2184.24
296.083	2352.56
300.186	2030.85
304.287	2189.12
308.385	2347.4
312.481	2424.84
316.574	2149.88
320.664	1791.72
324.752	1961.04
328.838	1599.46
332.921	1188.2
337.002	1177.34
341.08	1336.84
345.155	1136.65
349.228	946.741
353.299	1117.09
357.367	1607.65
361.433	1978.39
365.496	2219.3
369.557	3150.33
373.615	4611.46
377.671	6053.11
381.724	7029.16
385.775	8783.4
389.824	11156
393.87	13620
397.913	16788.1
401.954	21907.4
405.993	28243.7
410.029	32633.2
414.063	31680.1
418.094	27826.2
422.123	23272.6
426.149	18698.9
430.173	14179.7
434.194	11077.7
438.213	9211.98
442.23	7633.25
446.244	6252.14
450.256	5470.07
454.265	5817.49
458.272	6234.4
462.276	6480.78
466.278	6066.62
470.278	5661.93
474.275	5296.68
478.27	4900.9
482.262	5504.62
486.252	7327.87
490.24	11650.6
494.225	19333
498.207	27364.8
502.188	27997.1
506.166	19470.3
510.141	11294.9
514.114	6319.23
518.085	3422.45
522.053	2236.44
526.019	1669.2
529.982	1101.74
533.944	542.352
537.902	364.121
541.859	199.992
545.812	148.065
549.764	24.805
553.713	260.084
557.66	77.028
561.604	94.878
565.546	213.695
569.486	203.817
573.423	135.61
577.358	41.115
581.291	106.636
585.221	50.91
589.149	124.169
593.074	286.562
596.998	548.146
600.918	788.968
604.837	909.058
608.753	1218.43
612.666	1637.06
616.578	2094.93
620.487	2432.03
624.393	2358.37
628.298	2223.97
632.2	2288.79
636.099	2052.83
639.997	1666.07
643.892	1288.52
647.784	980.16
651.674	841.007
655.562	801.041
659.448	710.243
663.331	420.568
667.212	360.974
671.091	461.436
674.967	402.962
678.841	413.532
682.713	293.335
686.582	480.058
690.449	556.035
694.314	608.303
698.176	507.189
702.037	536.658
705.894	632.656
709.75	748.705
713.603	803.265
717.454	746.097
721.303	737.713
725.149	675.357
728.993	932.976
732.835	986.327
736.674	878.951
740.511	777.956
744.346	968.266
748.179	1036.55
752.009	1217.02
755.837	1359.32
759.663	1433.55
763.486	1474.94
767.307	1773.56
771.126	2182.15
774.943	2459.23
778.757	2847.99
782.569	3194.6
786.379	3739.35
790.187	4053.14
793.992	4375.61
797.795	4587.47
801.596	4939.1
805.394	5109.52
809.19	5088.95
812.984	4025.98
816.776	2800.05
820.566	1662.44
824.353	1004.69
828.138	758.161
831.92	485.013
835.701	402.025
839.479	267.082
843.255	160.047
847.029	157.96
850.801	176.186
854.57	209.278
858.337	54.187
862.102	42.822
865.864	82.644
869.625	79.685
873.383	35.862
877.139	74.046
880.892	51.593
884.644	115.141
888.393	47.318
892.14	59.837
895.885	8.137
899.628	43.587
903.368	56.489
907.106	26.12
910.842	30.264
914.576	4.112
918.308	55.08
922.037	74.665
925.764	96.866
929.489	29.335
933.212	10.936
936.932	57.124
940.651	186.88
944.367	97.35
948.081	172.537
951.793	45.447
955.502	62.097
959.21	120.513
962.915	187.724
966.618	245.77
970.319	237.68
974.018	307.468
977.714	428.143
981.409	611.727
985.101	846.027
988.791	974.529
992.479	1144.57
996.164	1295.33
999.848	1430.58
1003.53	1690.49
1007.21	1919.34
1010.88	2050.98
1014.56	2138.99
1018.23	2246.48
1021.9	2337.66
1025.57	2316.06
1029.24	2362.32
1032.9	2504.97
1036.56	2579.12
1040.22	2701.73
1043.88	2493.84
1047.54	2397.52
1051.19	2370.91
1054.84	2275.12
1058.49	2119.32
1062.14	2087.63
1065.78	1936.91
1069.42	2045.45
1073.07	2004.89
1076.7	2170.43
1080.34	2529.7
1083.97	2900.18
1087.61	3590.85
1091.24	4061.31
1094.86	4322.46
1098.49	4572.38
1102.11	4823.82
1105.73	5015.68
1109.35	5257.96
1112.97	5410.39
1116.59	5562.91
1120.2	5535.74
1123.81	5278.32
1127.42	5151.48
1131.03	4865.1
1134.63	4718.64
1138.23	4700.7
1141.83	4559.73
1145.43	4386.14
1149.03	4254.7
1152.62	4403.74
1156.21	3724.3
1159.8	3470.54
1163.39	3254.18
1166.98	2949.47
1170.56	2578.68
1174.14	2391.46
1177.72	2082.2
1181.3	1676.63
1184.87	1486.04
1188.45	1307.2
1192.02	1120.1
1195.59	1096.58
1199.15	944.738
1202.72	685.07
1206.28	508.608
1209.84	371.61
1213.4	188.23
1216.96	135.138
1220.51	198.505
1224.06	345.454
1227.61	343.462
1231.16	201.513
1234.71	130.163
1238.25	115.115
1241.8	4.125
1245.34	50.468
1248.87	126.821
1252.41	92.11
1255.94	136.113
1259.47	134.844
1263	193.456
1266.53	24.497
1270.06	53.182
1273.58	0.966
1277.1	66.753
1280.62	15.986
1284.14	80.332
1287.66	42.576
1291.17	213.067
1294.68	53.36
1298.19	71.326
1301.7	87.584
1305.2	0.582
1308.71	58.604
1312.21	4.201
1315.71	110.641
1319.2	197.325
1322.7	110.334
1326.19	118.096
1329.68	103.736
1333.17	2.337
1336.66	13.825
1340.15	119.604
1343.63	54.178
1347.11	118.572
1350.59	129.685
1354.07	199.87
1357.54	254.607
1361.02	141.16
1364.49	77.14
1367.96	53.757
1371.42	109.25
1374.89	110.017
1378.35	94.747
1381.81	167.14
1385.27	320.848
1388.73	326.518
1392.18	245.559
1395.64	353.094
1399.09	210.012
1402.54	207.567
1405.98	233.432
1409.43	94.479
1412.87	144.725
1416.32	163.974
1419.75	190.989
1423.19	240.709
1426.63	234.143
1430.06	358.741
1433.49	285.455
1436.92	239.148
1440.35	223.886
1443.78	115.193
1447.2	58.381
1450.62	97.414
1454.04	32.482
1457.46	165.049
1460.87	182.256
1464.29	178.604
1467.7	280.979
1471.11	299.796
1474.52	355.611
1477.92	190.075
1481.33	168.697
1484.73	65.199
1488.13	12.657
1491.53	26.58
1494.92	39.448
1498.32	0.141
