Measurement: Raman, 514 nm, ccw, Raman Data Processed
Mineral: Stellerite
Rruff sample: R040174
Ideal chemistry: Ca_4_(Si_28_Al_8_)O_72_28H_2_O
Locality: unknown
Source: University of Arizona Mineral Museum
Description: Parallel aggregates of thin tabular brown crystals
Measured chemistry: (Ca_3.89_Na_0.06_K_0.05_)_Σ=4_(Si_28.11_Al_7.89_)O_72_·15.18H_2_O; H_2_O estimated by difference
Pin_id: M00192
Orientation: Laser parallel to (1 0 1). Fiducial mark perpendicular to laser is parallel to b [0 1 0]
Raman shift (cm-1)	intensity
88.496	0
92.678	130.528
96.858	533.047
101.036	1010.36
105.212	1789.9
109.387	2230.07
113.559	3248.53
117.729	4023.46
121.897	4349.15
126.063	4128.46
130.228	3624.96
134.39	3155.44
138.55	2924.7
142.709	2970.96
146.865	3222.84
151.019	3516.19
155.171	3232.55
159.322	2837.54
163.47	2333.93
167.617	1851.55
171.761	1670.59
175.904	1191.6
180.044	815.165
184.183	501.126
188.319	319.138
192.454	88.788
196.586	170.238
200.717	318.23
204.846	235.769
208.972	293.07
213.097	110.104
217.22	83.155
221.341	386.726
225.46	560.193
229.577	671.154
233.692	846.534
237.805	856.963
241.916	796.99
246.025	858.75
250.132	931.948
254.237	987.881
258.34	1152.45
262.442	1571.77
266.541	1992.82
270.639	2484.51
274.734	2816.11
278.828	2990.19
282.919	2958.05
287.009	2397.44
291.097	1975.6
295.183	1772.86
299.266	1499.45
303.348	1365.55
307.428	1330.53
311.507	1351.62
315.583	1308.25
319.657	1356.81
323.729	1330.29
327.8	1216.87
331.868	1173.8
335.935	1251.07
339.999	1318.65
344.062	1326.5
348.123	1424.61
352.182	1692.93
356.239	1988.28
360.294	2405.44
364.347	2816.56
368.398	3801.11
372.448	4699
376.495	5822.88
380.54	7311.5
384.584	9402.65
388.626	12446.5
392.666	16237.4
396.704	21094.8
400.74	26092.6
404.774	28394.6
408.806	26923.3
412.836	22318.7
416.865	17854.4
420.891	14165.2
424.916	11297.3
428.939	9088.26
432.959	7739.04
436.978	6869.68
440.996	6500.18
445.011	6569.13
449.024	7050.77
453.036	7840.88
457.045	8090.89
461.053	7300.8
465.059	5730.62
469.063	4690.35
473.065	4090.02
477.065	4229.7
481.063	5389.41
485.06	7659.14
489.054	12158.9
493.047	15248.9
497.038	13068.4
501.027	7968.46
505.014	4158.63
508.999	2428.65
512.982	1329.3
516.964	780.467
520.944	481.538
524.921	215.597
528.897	99.446
532.871	46.771
536.844	172.3
540.814	108.648
544.783	55.842
548.749	43.314
552.714	141.282
556.677	20.21
560.638	60.23
564.597	29.754
568.555	69.675
572.511	1.147
576.464	228.253
580.416	167.171
584.366	215.889
588.315	234.536
592.261	393.009
596.206	601.313
600.148	799.501
604.089	1157.52
608.028	1405.33
611.965	1562.95
615.901	1760.38
619.834	1777.63
623.766	1554.67
627.696	1311.5
631.624	1168.12
635.551	934.521
639.475	840.689
643.398	576.622
647.318	532.31
651.237	447.759
655.155	412.955
659.07	199.07
662.984	247.984
666.895	233.913
670.805	170.378
674.713	357.621
678.62	290.089
682.524	187.506
686.427	259.211
690.328	247.97
694.227	302.519
698.124	270.923
702.02	257.553
705.913	249.222
709.805	379.877
713.695	365.023
717.584	484.135
721.47	328.902
725.355	269.758
729.238	343.68
733.119	414.349
736.998	434.058
740.876	414.583
744.752	297.685
748.626	295.877
752.498	325.381
756.368	420.33
760.237	309.273
764.104	415.866
767.969	351.465
771.832	417.872
775.693	482.33
779.553	656.676
783.411	540.235
787.267	393.728
791.122	416.77
794.974	518.979
798.825	490.716
802.674	462.75
806.522	314.007
810.367	144.612
814.211	224.192
818.053	103.747
821.893	102.726
825.732	40.435
829.568	17.909
833.403	15.179
837.236	117.283
841.068	3.046
844.898	77.729
848.726	62.229
852.552	13.266
856.376	71.226
860.199	34.85
864.02	58.926
867.839	22.572
871.656	56.176
875.472	70.546
879.286	32.408
883.098	55.015
886.909	106.771
890.717	21.528
894.524	19.862
898.33	40.801
902.133	61.451
905.935	81.815
909.735	31.85
913.533	18.427
917.33	111.049
921.124	110.276
924.918	179.253
928.709	87.974
932.499	216.47
936.286	64.748
940.073	22.812
943.857	170.669
947.64	268.347
951.421	355.846
955.2	333.172
958.978	220.32
962.753	205.012
966.527	262.801
970.3	287.806
974.071	369.787
977.84	343.56
981.607	375.891
985.372	491.292
989.136	555.973
992.898	700.932
996.659	629.111
1000.42	721.01
1004.17	708.211
1007.93	762.669
1011.68	751.757
1015.43	713.828
1019.18	715.278
1022.93	896.941
1026.68	949.072
1030.42	913.331
1034.17	989.273
1037.91	1010.68
1041.65	883.701
1045.39	1018.24
1049.12	1009.32
1052.86	954.959
1056.59	961.062
1060.33	967.074
1064.06	900.388
1067.78	867.375
1071.51	1034.02
1075.23	1119.7
1078.96	1406.49
1082.68	1483.62
1086.4	1770.5
1090.12	2077.28
1093.83	2195.46
1097.55	2423.76
1101.26	2601.95
1104.97	2809.45
1108.68	3028.12
1112.39	2946.64
1116.1	3014.79
1119.8	3123.89
1123.5	3009.25
1127.2	3041.22
1130.9	2961.53
1134.6	2890.08
1138.3	2789.67
1141.99	2679.93
1145.69	2782.15
1149.38	2683.2
1153.07	2753.62
1156.76	2649.19
1160.44	2517.54
1164.13	2418.6
1167.81	2092.8
1171.49	1835.77
1175.17	1591.29
1178.85	1281.75
1182.52	1338.07
1186.2	1171.42
1189.87	1017.08
1193.54	841.934
1197.21	652.624
1200.88	573.437
1204.55	403.992
1208.21	389.829
1211.88	346.735
1215.54	325.955
1219.2	317.185
1222.86	355.693
1226.51	304.983
1230.17	272.673
1233.82	262.136
1237.47	170.722
1241.12	128.183
1244.77	245.797
1248.42	242.638
1252.06	88.968
1255.71	184.806
1259.35	140.823
1262.99	5.964
1266.63	50.293
1270.26	84.604
1273.9	137.688
1277.53	199.96
1281.16	253.258
1284.8	134.95
1288.42	19.188
1292.05	10.733
1295.68	119.773
1299.3	18.91
1302.92	72.953
1306.55	34.396
1310.16	11.276
1313.78	127.413
1317.4	112.644
1321.01	32.938
1324.62	62.933
1328.24	33.584
1331.85	76.449
1335.45	121.874
1339.06	139.036
1342.66	59.446
1346.27	279.439
1349.87	173.73
1353.47	387.456
1357.07	180.79
1360.66	213.713
1364.26	245.514
1367.85	126.029
1371.44	305.468
1375.04	345.049
1378.62	453.086
1382.21	438.707
1385.8	575.637
1389.38	561.895
1392.96	378.207
1396.54	329.238
1400.12	192.48
1403.7	201.52
1407.28	270.145
1410.85	159.551
1414.42	232.787
1417.99	319.379
1421.56	307.607
1425.13	517.689
1428.7	329.844
1432.26	339.111
1435.83	116.154
1439.39	301.758
1442.95	167.865
1446.51	239.951
1450.06	272.678
1453.62	189.566
1457.17	117.723
1460.73	435.537
1464.28	477.471
1467.83	208.688
1471.37	177.6
1474.92	133.078
1478.46	152.961
1482.01	52.137
1485.55	0
