Measurement: Raman, 514 nm, ccw, Raman Data Processed
Mineral: Stellerite
Rruff sample: R040174
Ideal chemistry: Ca_4_(Si_28_Al_8_)O_72_28H_2_O
Locality: unknown
Source: University of Arizona Mineral Museum
Description: Parallel aggregates of thin tabular brown crystals
Measured chemistry: (Ca_3.89_Na_0.06_K_0.05_)_Σ=4_(Si_28.11_Al_7.89_)O_72_·15.18H_2_O; H_2_O estimated by difference
Pin_id: M00484
Orientation: Laser parallel to a* (1 0 0). Fiducial mark perpendicular to laser is parallel to b [0 1 0]
Raman shift (cm-1)	intensity
182.803	0
186.94	50.034
191.076	2.402
195.209	102.239
199.34	58.554
203.47	84.968
207.597	99.718
211.722	253.558
215.846	196.588
219.967	212.834
224.087	219.006
228.204	222.228
232.32	309.171
236.434	282.26
240.545	261.54
244.655	209.629
248.763	192.738
252.869	130.75
256.973	134.398
261.075	27.974
265.175	12.222
269.273	18.009
273.369	20.89
277.463	55.632
281.556	13.546
285.646	52.124
289.734	3.251
293.821	64.049
297.905	160.957
301.988	231.41
306.069	254.283
310.147	299.401
314.224	398.369
318.299	384.479
322.372	264.431
326.443	189.076
330.512	167.69
334.579	134.311
338.645	179.507
342.708	158.418
346.769	183.281
350.829	197.357
354.887	404.356
358.942	426.65
362.996	573.903
367.048	668.595
371.098	910.866
375.146	1246.36
379.192	1580.23
383.236	1853.94
387.279	2227.36
391.319	2710.2
395.358	3366.51
399.394	4269.51
403.429	4855.2
407.462	4934.9
411.493	4442.81
415.522	3512.1
419.549	2860.29
423.575	2261.59
427.598	1786.6
431.619	1468.25
435.639	1195.7
439.657	1006.82
443.673	1066.22
447.687	1222.99
451.699	1479.41
455.709	1569.38
459.717	1482.07
463.724	1252.87
467.728	967.674
471.731	842.288
475.732	875.202
479.731	972.33
483.728	1405.92
487.723	2110.82
491.716	2857.3
495.708	2733.45
499.697	1789.85
503.685	994.299
507.671	525.629
511.655	339.678
515.637	221.38
519.617	185.755
523.596	153.542
527.572	125.258
531.547	137.406
535.52	144.065
539.491	11.142
543.46	4.552
547.427	82.635
551.393	123.99
555.356	135.652
559.318	110.321
563.278	119.95
567.236	74.084
571.192	121.604
575.147	84.516
579.099	107.694
583.05	95.003
586.999	117.338
590.946	129.104
594.891	109.726
598.834	133.017
602.776	169.297
606.715	172.291
610.653	357.797
614.589	404.345
618.523	426.887
622.456	387.391
626.386	320.3
630.315	321.228
634.242	276.539
638.167	214.77
642.09	239.92
646.012	193.993
649.931	103.995
653.849	115.926
657.765	151.902
661.679	95.808
665.592	146.766
669.502	99.729
673.411	36.155
677.318	53.541
681.223	5.167
685.126	50.767
689.028	20.451
692.927	8.464
696.825	47.634
700.721	4.262
704.616	66.863
708.508	12.629
712.399	23.009
716.288	102.582
720.175	94.298
724.06	67.026
727.944	97.284
731.825	125.951
735.705	101.578
739.584	137.613
743.46	96.09
747.334	109.029
751.207	126.513
755.078	99.672
758.947	215.757
762.815	172.358
766.68	278.22
770.544	224.619
774.406	257.884
778.267	226.856
782.125	249.729
785.982	288.317
789.837	325.686
793.69	306.854
797.542	308.743
801.391	312.456
805.239	318.987
809.085	223.221
812.93	124.365
816.772	124.309
820.613	26.912
824.452	130.294
828.29	57.308
832.125	64.569
835.959	36.436
839.791	20.363
843.621	18.733
847.45	40.425
851.277	23.427
855.102	28.967
858.925	7.957
862.746	7.44
866.566	0.938
870.384	7.474
874.2	50.905
878.015	20.541
881.828	53.51
885.639	42.125
889.448	7.641
893.256	0.781
897.061	45.408
900.865	36.698
904.668	38.229
908.468	71.343
912.267	131.465
916.064	11.199
919.86	208.011
923.653	19.697
927.445	113.248
931.236	92.681
935.024	60.991
938.811	134.184
942.596	51.265
946.379	85.234
950.161	67.098
953.94	63.86
957.719	115.52
961.495	171.084
965.27	117.354
969.043	100.607
972.814	173.205
976.583	198.522
980.351	248.438
984.117	257.53
987.882	265.39
991.644	327.795
995.405	277.505
999.165	308.803
1002.92	299.291
1006.68	359.677
1010.43	275.489
1014.18	289.377
1017.93	284.307
1021.68	315.638
1025.43	383.729
1029.18	362.394
1032.92	349.764
1036.66	323.104
1040.4	311.548
1044.14	315.822
1047.88	280.328
1051.62	400.206
1055.35	314.951
1059.08	322.17
1062.81	302.323
1066.54	271.423
1070.27	253.76
1073.99	263.788
1077.72	263.542
1081.44	323.946
1085.16	408.202
1088.88	390.026
1092.59	452.555
1096.31	458.153
1100.02	484.884
1103.73	511.569
1107.44	526.287
1111.15	518.038
1114.86	559.733
1118.57	594.205
1122.27	557.418
1125.97	628.451
1129.67	569.502
1133.37	615.327
1137.07	578.626
1140.76	509.301
1144.45	459.771
1148.15	584.259
1151.84	519.444
1155.53	500.546
1159.21	588.03
1162.9	584.561
1166.58	482.738
1170.26	463.819
1173.94	493.339
1177.62	530.65
1181.3	388.103
1184.97	380.552
1188.65	354.049
1192.32	386.637
1195.99	302.884
1199.66	261.185
1203.33	200.014
1206.99	197.224
1210.65	160.916
1214.32	71.661
1217.98	117.275
1221.64	167.563
1225.29	188.018
1228.95	144.125
1232.6	16.836
1236.26	29.58
1239.91	107.425
1243.56	48.183
1247.2	47.708
1250.85	113.354
1254.49	90.15
1258.13	76.867
1261.78	77.752
1265.41	78.078
1269.05	73.403
1272.69	149.666
1276.32	49.809
1279.95	64.519
1283.59	40.283
1287.21	63.539
1290.84	5.714
1294.47	76.046
1298.09	6.152
1301.72	39.54
1305.34	16.542
1308.96	7.547
1312.58	2.178
1316.19	19.742
1319.81	19.772
1323.42	13.487
1327.03	33.503
1330.64	6.755
1334.25	24.247
1337.86	82.988
1341.46	26.999
1345.07	39.195
1348.67	42.381
1352.27	79.76
1355.87	57.967
1359.46	1.013
1363.06	88.901
1366.65	57.649
1370.25	12.822
1373.84	134.744
1377.43	6.976
1381.02	110.211
1384.6	114.337
1388.18	146.612
1391.77	75.702
1395.35	80.549
1398.93	241.339
1402.51	110.359
1406.08	124.13
1409.66	87.041
1413.23	86.778
1416.8	109.998
1420.37	123.643
1423.94	147.443
1427.51	201.265
1431.08	176.102
1434.64	119.013
1438.2	130.027
1441.76	118.064
1445.32	128.23
1448.88	83.742
1452.43	97.833
1455.99	176.167
1459.54	138.195
1463.09	121.526
1466.64	132.448
1470.19	134.688
1473.74	213.745
1477.28	144.446
1480.83	95.542
1484.37	108.555
1487.91	130.531
1491.45	95.64
1494.98	104.774
1498.52	44.256
1502.05	138.867
1505.59	79.274
1509.12	125.029
1512.65	99.448
1516.17	164.777
1519.7	163.983
1523.23	109.029
1526.75	7.722
