Measurement: Raman, 514 nm, ccw, Raman Data Processed
Mineral: Stellerite
Rruff sample: R040174
Ideal chemistry: Ca_4_(Si_28_Al_8_)O_72_28H_2_O
Locality: unknown
Source: University of Arizona Mineral Museum
Description: Parallel aggregates of thin tabular brown crystals
Measured chemistry: (Ca_3.89_Na_0.06_K_0.05_)_Σ=4_(Si_28.11_Al_7.89_)O_72_·15.18H_2_O; H_2_O estimated by difference
Pin_id: M00192
Orientation: Laser parallel to (1 0 1). Fiducial mark perpendicular to laser is parallel to b [0 1 0]
Raman shift (cm-1)	intensity
87.101	0
91.284	141.655
95.465	201.635
99.644	445.916
103.82	730.681
107.995	931.712
112.168	1293.44
116.339	1618.53
120.508	1596.31
124.675	1596.96
128.84	1765.89
133.003	1965.3
137.164	2250.7
141.323	2283.1
145.48	2837.55
149.635	3140.93
153.788	2957.28
157.939	2492.7
162.088	2090.6
166.235	1645.38
170.38	1267.92
174.523	1055.18
178.664	794.112
182.803	572.366
186.94	307.734
191.076	115.967
195.209	12.862
199.34	136.745
203.47	132.176
207.597	164.624
211.722	110.008
215.846	11.544
219.967	125.912
224.087	168.504
228.204	296.889
232.32	334.103
236.434	280.382
240.545	148.41
244.655	99.009
248.763	109.12
252.869	72.81
256.973	117.523
261.075	41.039
265.175	271.582
269.273	404.45
273.369	505.183
277.463	648.598
281.556	616.6
285.646	536.778
289.734	548.068
293.821	474.662
297.905	457.695
301.988	472.263
306.069	395.367
310.147	426.582
314.224	526.836
318.299	458.702
322.372	398.588
326.443	298.542
330.512	326.55
334.579	439.594
338.645	437.66
342.708	450.744
346.769	624.851
350.829	614.966
354.887	736.981
358.942	1281.34
362.996	1085.42
367.048	1334.38
371.098	1742.09
375.146	2058.74
379.192	2698.12
383.236	3228.75
387.279	4253.41
391.319	5484
395.358	7133.77
399.394	8891.68
403.429	10174.6
407.462	9943.34
411.493	8770.05
415.522	7072.76
419.549	5589.97
423.575	4394.12
427.598	3438.59
431.619	2791.19
435.639	2254.64
439.657	1976.53
443.673	1945.89
447.687	1974.03
451.699	2168.95
455.709	2290.67
459.717	2347.19
463.724	2025.5
467.728	1683.63
471.731	1470.57
475.732	1528.37
479.731	1996.05
483.728	3073.22
487.723	4849.03
491.716	7228.38
495.708	7088.48
499.697	4778.77
503.685	2699.09
507.671	1466.96
511.655	961.823
515.637	596.435
519.617	385.417
523.596	220.896
527.572	106.035
531.547	99.866
535.52	72.351
539.491	11.458
543.46	74.799
547.427	74.338
551.393	58.878
555.356	28.301
559.318	49.396
563.278	57.428
567.236	62.59
571.192	20.457
575.147	86.932
579.099	2.328
583.05	33.341
586.999	128.054
590.946	163.545
594.891	133.854
598.834	307.958
602.776	474.951
606.715	533.767
610.653	639.375
614.589	673.767
618.523	686.967
622.456	739.987
626.386	627.79
630.315	508.375
634.242	359.736
638.167	261.874
642.09	266.789
646.012	312.479
649.931	173.937
653.849	116.148
657.765	59.095
661.679	89.769
665.592	55.162
669.502	40.399
673.411	28.897
677.318	75.515
681.223	100.56
685.126	153.614
689.028	233.649
692.927	187.62
696.825	188.749
700.721	165.813
704.616	240.875
708.508	273.961
712.399	234.395
716.288	324.036
720.175	260.532
724.06	388.072
727.944	276.716
731.825	247.142
735.705	192.699
739.584	271.304
743.46	273.132
747.334	293.341
751.207	292.54
755.078	354.127
758.947	429.08
762.815	512.246
766.68	560.837
770.544	476.73
774.406	531.167
778.267	682.839
782.125	587.279
785.982	851.189
789.837	969.884
793.69	908.392
797.542	874.833
801.391	979.732
805.239	908.064
809.085	800.229
812.93	467.825
816.772	348.4
820.613	174.766
824.452	245.931
828.29	186.649
832.125	89.294
835.959	18.031
839.791	13.024
843.621	50.861
847.45	82.433
851.277	19.493
855.102	12.548
858.925	17.6
862.746	67.439
866.566	29.023
870.384	12.709
874.2	2.925
878.015	25.579
881.828	116.322
885.639	21.383
889.448	35.316
893.256	42.002
897.061	14.59
900.865	51.29
904.668	28.781
908.468	39.579
912.267	46.23
916.064	44.634
919.86	118.913
923.653	55.917
927.445	62.057
931.236	63.892
935.024	110.627
938.811	93.267
942.596	83.82
946.379	3.709
950.161	44.671
953.94	105.975
957.719	112.215
961.495	103.413
965.27	202.571
969.043	194.697
972.814	138.776
976.583	235.576
980.351	313.908
984.117	476.629
987.882	429.517
991.644	501.656
995.405	430.347
999.165	545.64
1002.92	563.793
1006.68	674.842
1010.43	676.349
1014.18	554.783
1017.93	685.046
1021.68	757.881
1025.43	819.447
1029.18	781.178
1032.92	755.702
1036.66	794.147
1040.4	787.869
1044.14	741.981
1047.88	675.341
1051.62	736.297
1055.35	820.717
1059.08	727.446
1062.81	770.689
1066.54	615.421
1070.27	580.842
1073.99	623.6
1077.72	597.398
1081.44	832.82
1085.16	1018.29
1088.88	1024.03
1092.59	1110.08
1096.31	1235.39
1100.02	1241.17
1103.73	1407.4
1107.44	1393.56
1111.15	1410.73
1114.86	1587.34
1118.57	1461.64
1122.27	1690.26
1125.97	1537.72
1129.67	1354.33
1133.37	1320.91
1137.07	1323.6
1140.76	1102.54
1144.45	1189.89
1148.15	1220.99
1151.84	1178.98
1155.53	1026.61
1159.21	1094.46
1162.9	941.515
1166.58	902.401
1170.26	899.626
1173.94	868.869
1177.62	625.92
1181.3	606.281
1184.97	527.577
1188.65	557.256
1192.32	543.098
1195.99	382.377
1199.66	372.578
1203.33	285.251
1206.99	256.342
1210.65	222.842
1214.32	93.604
1217.98	159.728
1221.64	187.479
1225.29	144.749
1228.95	200.358
1232.6	225.447
1236.26	51.673
1239.91	156.412
1243.56	211.319
1247.2	185.703
1250.85	160.03
1254.49	14.29
1258.13	200.133
1261.78	272.856
1265.41	36.467
1269.05	169.866
1272.69	143.385
1276.32	36.385
1279.95	129.052
1283.59	171.214
1287.21	162.854
1290.84	44.021
1294.47	44.638
1298.09	64.809
1301.72	85.176
1305.34	94.018
1308.96	3.113
1312.58	118.106
1316.19	40.241
1319.81	48.209
1323.42	145.716
1327.03	62.792
1330.64	119.467
1334.25	54.255
1337.86	88.434
1341.46	6.915
1345.07	38.091
1348.67	176.535
1352.27	190.84
1355.87	264.822
1359.46	90.229
1363.06	15.913
1366.65	53.406
1370.25	142.445
1373.84	141.408
1377.43	34.298
1381.02	156.444
1384.6	157.863
1388.18	274.508
1391.77	223.245
1395.35	220.225
1398.93	306.842
1402.51	166.817
1406.08	273.24
1409.66	235.713
1413.23	134.287
1416.8	226.682
1420.37	235.336
1423.94	177.893
1427.51	330.519
1431.08	320.79
1434.64	317.797
1438.2	270.589
1441.76	279.809
1445.32	351.521
1448.88	237.565
1452.43	152.751
1455.99	225.379
1459.54	189.087
1463.09	252.371
1466.64	311.934
1470.19	192.516
1473.74	370.912
1477.28	249.965
1480.83	210.403
1484.37	192.798
1487.91	216.001
1491.45	79.496
1494.98	42.826
1498.52	56.382
1502.05	190.984
1505.59	67.028
1509.12	144.205
1512.65	222.793
1516.17	173.708
1519.7	247.67
1523.23	187.453
1526.75	0
