Measurement: Raman, 514 nm, ccw, Raman Data Processed
Mineral: Stellerite
Rruff sample: R040174
Ideal chemistry: Ca_4_(Si_28_Al_8_)O_72_28H_2_O
Locality: unknown
Source: University of Arizona Mineral Museum
Description: Parallel aggregates of thin tabular brown crystals
Measured chemistry: (Ca_3.89_Na_0.06_K_0.05_)_Σ=4_(Si_28.11_Al_7.89_)O_72_·15.18H_2_O; H_2_O estimated by difference
Pin_id: M00319
Orientation: Laser parallel to c* (0 0 1). Fiducial mark perpendicular to laser is parallel to -b [0 -1 0]
Raman shift (cm-1)	intensity
82.042	0
86.276	312.678
90.508	3056.48
94.738	6683.07
98.964	9542.86
103.188	11539.3
107.41	11992.2
111.629	13327
115.845	14480.9
120.059	15506.7
124.27	14454.5
128.479	12464.6
132.685	13988.1
136.888	16313.9
141.089	19727.2
145.287	25151.5
149.482	29519.1
153.675	31377.5
157.866	30801.5
162.054	27708.7
166.239	22020.2
170.422	16516.7
174.602	13251.7
178.779	10235.6
182.954	7539.23
187.127	6068.27
191.296	5082.01
195.464	4049.76
199.628	2680.96
203.79	2145.12
207.95	1671.35
212.107	888.789
216.262	367.174
220.414	206.459
224.563	16.613
228.71	552.406
232.854	640.645
236.996	618.395
241.135	528.209
245.272	591.076
249.406	437.091
253.538	105.757
257.667	75.803
261.793	272.396
265.917	379.336
270.039	566.543
274.158	587.08
278.274	959.599
282.388	2073.35
286.5	2887.79
290.609	3331.78
294.715	4164.49
298.819	4905.98
302.92	5726.47
307.019	5846.15
311.116	6105.15
315.21	6033.56
319.301	5581.14
323.39	4544.56
327.476	3891.72
331.56	3803.12
335.642	3721.58
339.721	2759.06
343.797	2626.72
347.871	2534.82
351.942	2593.31
356.011	2362.12
360.078	2841.23
364.142	3730.61
368.204	4650.19
372.263	6099.92
376.319	8269.76
380.374	10729.7
384.425	12749.1
388.474	14685
392.521	17667.1
396.566	22501.7
400.607	28177.5
404.647	33998.1
408.684	39810.1
412.718	42294
416.75	38466.5
420.78	30842.8
424.807	24474.1
428.832	19962.1
432.854	15906.2
436.874	11937.4
440.891	9386.8
444.906	7944.74
448.919	7222.08
452.929	6178.83
456.937	5664.99
460.942	5810.58
464.945	6435.6
468.945	6330.06
472.943	6263.95
476.939	6867.3
480.932	8530.08
484.922	11532.4
488.911	17084.2
492.897	27925.6
496.88	45056.8
500.861	52409.9
504.84	42029.1
508.816	24490.5
512.79	14204.3
516.761	8589.56
520.731	5497.84
524.697	3614.87
528.662	2340.36
532.623	1764.03
536.583	1216.63
540.54	686.85
544.495	335.945
548.447	254.024
552.397	141.895
556.345	20.181
560.29	262.592
564.233	315.19
568.173	8.593
572.111	61.805
576.047	136.38
579.98	230.759
583.911	88
587.84	94.834
591.766	296.989
595.69	308.593
599.612	579.734
603.531	1000.45
607.448	1470.79
611.362	1950.66
615.274	2350.09
619.184	2799.06
623.091	3307.57
626.997	3435.66
630.899	2943.3
634.8	2530.47
638.698	2097.17
642.593	1883.44
646.487	1539.25
650.378	2314.57
654.267	761.383
658.153	513.667
662.037	584.41
665.919	392.579
669.798	227.108
673.675	158.933
677.55	89.002
681.423	155.253
685.293	243.741
689.161	165.493
693.026	247.528
696.889	376.21
700.75	462.895
704.609	550.354
708.465	498.102
712.319	479.961
716.171	527.803
720.02	540.319
723.867	513.036
727.712	409.93
731.554	480.329
735.395	596.927
739.232	571.75
743.068	962.475
746.901	998.383
750.732	1074.45
754.561	1245.25
758.388	1600.35
762.212	1885.97
766.034	2334.58
769.853	2724.88
773.671	3206.37
777.486	4060.56
781.299	5023.56
785.109	5871.81
788.918	6919.86
792.724	7498.88
796.527	8378.22
800.329	9895.59
804.128	11279.4
807.925	11761.7
811.72	10083.7
815.512	7053.54
819.303	4431.01
823.091	2834.38
826.876	1946.67
830.66	1263.7
834.441	841.015
838.22	713.871
841.997	460.02
845.771	390.823
849.544	332.028
853.314	94.073
857.081	155.368
860.847	142.152
864.61	38.124
868.371	61.765
872.13	18.756
875.887	35.879
879.641	44.607
883.394	67.874
887.144	50.579
890.891	33.714
894.637	4.502
898.38	14.191
902.122	39.434
905.86	47.318
909.597	27.131
913.332	6.949
917.064	84.215
920.794	46.064
924.522	48.881
928.248	39.749
931.971	8.792
935.693	40.343
939.412	40.438
943.129	48.974
946.843	44.922
950.556	1.357
954.266	145.816
957.974	71.639
961.68	111.114
965.384	135.271
969.086	197.15
972.785	308.82
976.482	403.305
980.177	580.647
983.87	585.863
987.561	851.993
991.25	966.993
994.936	1236.63
998.62	1324.26
1002.3	1569.96
1005.98	1777.93
1009.66	1991.08
1013.34	2069.23
1017.01	2161.72
1020.68	2450.84
1024.35	2600.05
1028.02	2769.39
1031.68	2728.36
1035.34	2686.82
1039	2684.66
1042.66	2649.26
1046.32	2696.62
1049.97	2601.77
1053.62	2567.49
1057.27	2470.16
1060.92	2444.5
1064.57	2296.52
1068.21	2348.73
1071.85	2251.13
1075.49	2642.44
1079.13	2920.09
1082.76	3283.14
1086.4	3819.63
1090.03	4328.56
1093.65	4869.79
1097.28	5294.3
1100.9	5730.45
1104.53	5996.58
1108.15	6282.52
1111.77	6439.51
1115.38	6467.68
1118.99	6465.86
1122.61	6403.81
1126.22	6182.14
1129.82	5842.73
1133.43	5484.39
1137.03	5233.04
1140.63	4873.93
1144.23	4603.76
1147.83	4345.08
1151.42	4366.9
1155.02	4008.05
1158.61	3721.16
1162.19	3412.31
1165.78	3123.93
1169.37	2831.03
1172.95	2597.28
1176.53	2528.2
1180.11	2100.58
1183.68	1828.01
1187.26	1659.79
1190.83	1445.07
1194.4	1133.36
1197.96	1016.72
1201.53	729.848
1205.09	589.233
1208.65	514.922
1212.21	470.429
1215.77	342.896
1219.33	337.894
1222.88	273.72
1226.43	193.042
1229.98	205.51
1233.53	194.597
1237.07	174.691
1240.61	102.812
1244.15	61.694
1247.69	135.391
1251.23	133.092
1254.77	108.402
1258.3	49.604
1261.83	79.687
1265.36	45.305
1268.88	5.989
1272.41	63.758
1275.93	22.942
1279.45	26.59
1282.97	22.615
1286.48	37.079
1290	44.799
1293.51	30.117
1297.02	10.283
1300.53	7.802
1304.04	16.981
1307.54	6.952
1311.04	48.118
1314.54	18.697
1318.04	3.812
1321.54	18.326
1325.03	51.102
1328.52	1.713
1332.01	23.019
1335.5	88.413
1338.98	43.882
1342.47	54.835
1345.95	65.593
1349.43	14.645
1352.91	39.397
1356.38	12.257
1359.86	55.219
1363.33	9.837
1366.8	105.63
1370.27	121.25
1373.73	115.619
1377.2	137.133
1380.66	182.389
1384.12	139.524
1387.58	164.451
1391.03	173.641
1394.49	153.124
1397.94	134.665
1401.39	183.781
1404.84	183.571
1408.28	263.126
1411.73	183.208
1415.17	138.205
1418.61	119.307
1422.05	110.708
1425.48	120.344
1428.92	133.49
1432.35	219.208
1435.78	165.257
1439.21	173.175
1442.63	146.414
1446.06	233.046
1449.48	146.636
1452.9	197.182
1456.32	156.04
1459.73	114.061
1463.15	22.57
1466.56	14.097
1469.97	56.491
1473.38	34.323
1476.79	144.207
1480.19	49.191
1483.6	101.746
1486.99	174.071
1490.39	75.727
1493.79	21.218
1497.19	36.478
1500.58	0.796
1503.97	0
