Measurement: Raman, 514 nm, ccw, Raman Data Processed
Mineral: Stellerite
Rruff sample: R040174
Ideal chemistry: Ca_4_(Si_28_Al_8_)O_72_28H_2_O
Locality: unknown
Source: University of Arizona Mineral Museum
Description: Parallel aggregates of thin tabular brown crystals
Measured chemistry: (Ca_3.89_Na_0.06_K_0.05_)_Σ=4_(Si_28.11_Al_7.89_)O_72_·15.18H_2_O; H_2_O estimated by difference
Pin_id: M00319
Orientation: Laser parallel to c* (0 0 1). Fiducial mark perpendicular to laser is parallel to -b [0 -1 0]
Raman shift (cm-1)	intensity
83.453	0
87.687	167.725
91.918	1173.83
96.147	2659.72
100.373	3452.72
104.596	4183.77
108.817	5341.25
113.035	7263.81
117.25	9045.71
121.463	11172
125.673	10880.8
129.881	10277.7
134.086	8920.59
138.288	7726.09
142.488	7251.22
146.686	6665.42
150.88	6607.34
155.072	6869.64
159.262	6748.46
163.449	5811.24
167.633	4805.96
171.815	4186.55
175.994	3493.49
180.171	2516.4
184.345	1983.97
188.517	1554.93
192.686	898.061
196.852	422.475
201.016	407.229
205.177	121.048
209.336	336.865
213.492	354.531
217.646	328.07
221.797	251.416
225.946	367.44
230.092	338.163
234.235	3.533
238.376	37.814
242.514	226.564
246.65	451.6
250.783	1092.07
254.914	1442.99
259.043	1620.79
263.168	2449.54
267.291	3147.02
271.412	3681.75
275.53	4712.83
279.646	5610.03
283.759	6012.8
287.87	5700.08
291.978	5321.69
296.083	4908.32
300.186	4160.76
304.287	3529.15
308.385	3092.84
312.481	3079.45
316.574	2886.36
320.664	2693.9
324.752	2974.24
328.838	2940.11
332.921	2774.19
337.002	2597.57
341.08	2670.58
345.155	2783.19
349.228	2764.78
353.299	2770.36
357.367	3188.97
361.433	3826.94
365.496	4342.08
369.557	4982.46
373.615	6204.74
377.671	7824.78
381.724	9275.33
385.775	11359.3
389.824	14365.3
393.87	18470.8
397.913	23423.9
401.954	30287
405.993	38802.9
410.029	46099.5
414.063	45982.9
418.094	39670.6
422.123	32448.9
426.149	26330.8
430.173	20561.9
434.194	16238.9
438.213	13451.8
442.23	11882.2
446.244	10971.1
450.256	10309.1
454.265	10676.2
458.272	12172.5
462.276	13138
466.278	12332.8
470.278	10157
474.275	8330.62
478.27	6923.76
482.262	6716.58
486.252	7519.15
490.24	10421.6
494.225	16603.8
498.207	23506
502.188	23808.3
506.166	16221.4
510.141	9415.12
514.114	5300.78
518.085	2905.74
522.053	1647.25
526.019	1107.62
529.982	775.919
533.944	436.954
537.902	129.643
541.859	46.591
545.812	71.233
549.764	117.488
553.713	3.598
557.66	91.424
561.604	236.082
565.546	140.515
569.486	25.211
573.423	0.306
577.358	136.027
581.291	136.226
585.221	31.989
589.149	17.203
593.074	4.685
596.998	177.567
600.918	550.659
604.837	902.615
608.753	1304.59
612.666	1646.29
616.578	2047.86
620.487	2589.3
624.393	2720.6
628.298	2341.76
632.2	2192.78
636.099	1833.67
639.997	1514.41
643.892	1135
647.784	829.424
651.674	502.675
655.562	383.743
659.448	387.615
663.331	192.496
667.212	20.377
671.091	32.385
674.967	18.493
678.841	38.298
682.713	44.109
686.582	41.966
690.449	18.449
694.314	107.21
698.176	72.87
702.037	146.331
705.894	103.229
709.75	93.644
713.603	305.491
717.454	407.128
721.303	383.243
725.149	451.855
728.993	440.932
732.835	544.277
736.674	432.688
740.511	432.091
744.346	403.123
748.179	436.104
752.009	448.24
755.837	539.025
759.663	460.299
763.486	494.18
767.307	482.586
771.126	571.296
774.943	662.812
778.757	655.835
782.569	698.883
786.379	732.117
790.187	759.429
793.992	774.226
797.795	813.652
801.596	733.533
805.394	728.742
809.19	592.14
812.984	503.601
816.776	376.094
820.566	248.747
824.353	132.805
828.138	101.658
831.92	76.441
835.701	5.592
839.479	57.335
843.255	62.733
847.029	75.212
850.801	22.061
854.57	3.686
858.337	29.721
862.102	31.741
865.864	75.573
869.625	51.116
873.383	15.883
877.139	60.618
880.892	12.204
884.644	11.475
888.393	61.302
892.14	40.258
895.885	44.629
899.628	136.713
903.368	141.03
907.106	123.473
910.842	94.406
914.576	91.686
918.308	186.616
922.037	105.073
925.764	247.068
929.489	91.624
933.212	206.74
936.932	144.433
940.651	139.707
944.367	104.581
948.081	241.055
951.793	215.157
955.502	181.902
959.21	201.308
962.915	252.385
966.618	204.744
970.319	262.219
974.018	345.058
977.714	363.591
981.409	509.685
985.101	559.603
988.791	649.576
992.479	776.358
996.164	772.129
999.848	867.408
1003.53	1035.17
1007.21	1086.44
1010.88	1096.53
1014.56	1171.07
1018.23	1190.56
1021.9	1259.83
1025.57	1361.89
1029.24	1368.18
1032.9	1486.87
1036.56	1358.47
1040.22	1526.51
1043.88	1545.07
1047.54	1514.63
1051.19	1548.45
1054.84	1483.07
1058.49	1419.57
1062.14	1519
1065.78	1493.73
1069.42	1638.84
1073.07	1738.47
1076.7	1928.83
1080.34	2338.69
1083.97	2685.07
1087.61	3286.05
1091.24	3626.83
1094.86	3857.95
1098.49	4319.64
1102.11	4631.76
1105.73	4803.93
1109.35	5012.92
1112.97	5048.15
1116.59	5160.67
1120.2	5253.2
1123.81	5145.82
1127.42	5039.09
1131.03	4984.45
1134.63	4718.8
1138.23	4812.74
1141.83	4670.07
1145.43	4682.03
1149.03	4628.64
1152.62	4510.39
1156.21	4365.13
1159.8	4238.34
1163.39	3872.14
1166.98	3386.09
1170.56	2978.55
1174.14	2584.68
1177.72	2179.19
1181.3	1851.4
1184.87	1598.47
1188.45	1514.03
1192.02	1153.11
1195.59	1017.03
1199.15	777.456
1202.72	635.72
1206.28	544.423
1209.84	391.403
1213.4	295.74
1216.96	305.846
1220.51	175.116
1224.06	144.439
1227.61	212.162
1231.16	97.072
1234.71	117.459
1238.25	101.748
1241.8	53.336
1245.34	18.527
1248.87	43.414
1252.41	78.06
1255.94	74.917
1259.47	53.233
1263	64.156
1266.53	31.984
1270.06	21.656
1273.58	19.476
1277.1	31.288
1280.62	23.853
1284.14	15.63
1287.66	13.587
1291.17	65.897
1294.68	40.667
1298.19	40.68
1301.7	69.021
1305.2	94.831
1308.71	16.063
1312.21	10.183
1315.71	12.322
1319.2	83.1
1322.7	99.708
1326.19	63.867
1329.68	78.653
1333.17	18.082
1336.66	16.154
1340.15	3.089
1343.63	44.314
1347.11	4.445
1350.59	100.743
1354.07	91.196
1357.54	107.351
1361.02	127.109
1364.49	12.555
1367.96	88.788
1371.42	29.106
1374.89	25.15
1378.35	46.429
1381.81	77.971
1385.27	130.504
1388.73	145.614
1392.18	143.244
1395.64	194.139
1399.09	169.301
1402.54	123.057
1405.98	141.625
1409.43	130.96
1412.87	141.922
1416.32	134.672
1419.75	55.859
1423.19	99.062
1426.63	115.109
1430.06	169.518
1433.49	89.231
1436.92	130.575
1440.35	90.208
1443.78	119.691
1447.2	59.484
1450.62	124.182
1454.04	6.959
1457.46	12.759
1460.87	71.987
1464.29	27.045
1467.7	82.18
1471.11	56.974
1474.52	114.877
1477.92	119.44
1481.33	0.764
1484.73	10.238
1488.13	67.628
1491.53	35.643
1494.92	74.614
1498.32	2.714
1501.71	101.34
