Measurement: Raman, 514 nm, ccw, Raman Data Processed
Mineral: Stellerite
Rruff sample: R040174
Ideal chemistry: Ca_4_(Si_28_Al_8_)O_72_28H_2_O
Locality: unknown
Source: University of Arizona Mineral Museum
Description: Parallel aggregates of thin tabular brown crystals
Measured chemistry: (Ca_3.89_Na_0.06_K_0.05_)_Σ=4_(Si_28.11_Al_7.89_)O_72_·15.18H_2_O; H_2_O estimated by difference
Pin_id: M00484
Orientation: Laser parallel to a* (1 0 0). Fiducial mark perpendicular to laser is parallel to b [0 1 0]
Raman shift (cm-1)	intensity
203.47	0
207.597	75.582
211.722	384.398
215.846	682.276
219.967	1016.87
224.087	1383.07
228.204	1575.35
232.32	1651.21
236.434	1582.33
240.545	1079.68
244.655	719.203
248.763	448.622
252.869	191.033
256.973	177.834
261.075	97.448
265.175	21.737
269.273	111.888
273.369	183.376
277.463	183.044
281.556	173.593
285.646	73.146
289.734	18.038
293.821	57.161
297.905	57.044
301.988	46.746
306.069	163.523
310.147	198.119
314.224	155.937
318.299	122.307
322.372	164.889
326.443	182.03
330.512	223.538
334.579	297.148
338.645	220.142
342.708	309.805
346.769	389.142
350.829	475.174
354.887	470.983
358.942	590.662
362.996	852.701
367.048	1010.59
371.098	1469.15
375.146	1894.83
379.192	2357.51
383.236	2983.92
387.279	3737.59
391.319	4890.64
395.358	6309.08
399.394	7832.7
403.429	9214.73
407.462	8935.97
411.493	7865.66
415.522	6464.22
419.549	4996.83
423.575	3786.55
427.598	3099.73
431.619	2488.01
435.639	2054.92
439.657	1750.26
443.673	1749.18
447.687	2059.31
451.699	2339.21
455.709	2527.84
459.717	2458.72
463.724	2155.06
467.728	1667.88
471.731	1380.47
475.732	1319.09
479.731	1691.24
483.728	2560.98
487.723	4041.42
491.716	5651.97
495.708	5663.17
499.697	3765.33
503.685	2065.78
507.671	1219.08
511.655	678.677
515.637	614.555
519.617	236.092
523.596	85.425
527.572	74.854
531.547	45.283
535.52	23.741
539.491	135.973
543.46	85.956
547.427	56.577
551.393	19.653
555.356	22.348
559.318	91.483
563.278	42.523
567.236	177.06
571.192	182.756
575.147	214.504
579.099	305.203
583.05	340.446
586.999	331.841
590.946	261.396
594.891	308.654
598.834	271.781
602.776	379.495
606.715	488.783
610.653	658.908
614.589	689.718
618.523	739.429
622.456	788.992
626.386	767.371
630.315	675.519
634.242	586.427
638.167	520.09
642.09	450.511
646.012	339.677
649.931	297.595
653.849	207.256
657.765	162.636
661.679	163.749
665.592	118.635
669.502	67.922
673.411	94.861
677.318	89.596
681.223	77.56
685.126	78.25
689.028	90.12
692.927	160.479
696.825	89.522
700.721	40.519
704.616	111.728
708.508	105.897
712.399	85.08
716.288	103.913
720.175	169.961
724.06	228.45
727.944	178.79
731.825	120.727
735.705	179.011
739.584	164.136
743.46	159.211
747.334	244.422
751.207	134.046
755.078	176.448
758.947	225.643
762.815	230.066
766.68	255.328
770.544	218.125
774.406	315.525
778.267	370.645
782.125	388.326
785.982	480.593
789.837	519.655
793.69	514.991
797.542	442.013
801.391	477.796
805.239	469.343
809.085	349.224
812.93	195.093
816.772	198.262
820.613	48.016
824.452	87.968
828.29	139.473
832.125	48.703
835.959	5.392
839.791	76.499
843.621	1.157
847.45	49.521
851.277	11.041
855.102	21.274
858.925	24.702
862.746	45.97
866.566	23.895
870.384	44.792
874.2	45.093
878.015	9.575
881.828	73.229
885.639	29.631
889.448	38.017
893.256	12.461
897.061	40.535
900.865	8.564
904.668	3.482
908.468	49.831
912.267	96.092
916.064	101.149
919.86	103.955
923.653	49.704
927.445	73.277
931.236	52.658
935.024	87.854
938.811	5.873
942.596	101.71
946.379	81.387
950.161	99.906
953.94	42.273
957.719	146.488
961.495	172.561
965.27	220.468
969.043	204.282
972.814	256.254
976.583	229.204
980.351	351.12
984.117	383.759
987.882	387.23
991.644	495.416
995.405	421.686
999.165	487.396
1002.92	532.081
1006.68	626.284
1010.43	589.643
1014.18	605.42
1017.93	632.649
1021.68	513.622
1025.43	613.195
1029.18	657.31
1032.92	650.251
1036.66	600.762
1040.4	670.535
1044.14	629.168
1047.88	636.816
1051.62	575.32
1055.35	540.606
1059.08	553.733
1062.81	585.202
1066.54	554.582
1070.27	558.666
1073.99	571.312
1077.72	630.396
1081.44	797.309
1085.16	759.591
1088.88	930.5
1092.59	979.062
1096.31	1002.59
1100.02	1140.36
1103.73	1151.93
1107.44	1234.62
1111.15	1308.45
1114.86	1344.48
1118.57	1365.67
1122.27	1331.28
1125.97	1400.3
1129.67	1318.54
1133.37	1354.79
1137.07	1298.9
1140.76	1244.27
1144.45	1230.98
1148.15	1155.7
1151.84	1364.17
1155.53	1123.38
1159.21	1209.35
1162.9	1173.51
1166.58	1163.01
1170.26	1126.87
1173.94	1117.18
1177.62	934.233
1181.3	858.039
1184.97	757.887
1188.65	728.027
1192.32	702.411
1195.99	588.562
1199.66	578.078
1203.33	484.127
1206.99	362.133
1210.65	245.729
1214.32	162.817
1217.98	178.571
1221.64	195.615
1225.29	234.426
1228.95	99.773
1232.6	217.536
1236.26	54.798
1239.91	51.748
1243.56	36.773
1247.2	79.211
1250.85	122.395
1254.49	86.738
1258.13	85.859
1261.78	3.064
1265.41	44.047
1269.05	75.904
1272.69	56.706
1276.32	47.415
1279.95	58.362
1283.59	64.537
1287.21	76.922
1290.84	24.917
1294.47	3.668
1298.09	19.596
1301.72	17.495
1305.34	44.667
1308.96	23.389
1312.58	4.613
1316.19	4.622
1319.81	41.004
1323.42	1.087
1327.03	61.246
1330.64	21.986
1334.25	19.519
1337.86	39.247
1341.46	32.687
1345.07	14.624
1348.67	89.798
1352.27	94.983
1355.87	83.933
1359.46	18.655
1363.06	143.113
1366.65	3.374
1370.25	83.43
1373.84	106.315
1377.43	18.017
1381.02	41.681
1384.6	66.183
1388.18	91.222
1391.77	151.731
1395.35	73.02
1398.93	126.601
1402.51	139.273
1406.08	155.172
1409.66	133.156
1413.23	130.841
1416.8	108.661
1420.37	143.061
1423.94	134.281
1427.51	34.5
1431.08	42.894
1434.64	106.748
1438.2	190.959
1441.76	80.881
1445.32	14.941
1448.88	122.64
1452.43	104.614
1455.99	9.35
1459.54	31.566
1463.09	92.858
1466.64	112.123
1470.19	140.42
1473.74	140.143
1477.28	114.797
1480.83	148.034
1484.37	107.976
1487.91	57.838
1491.45	60.191
1494.98	162.865
1498.52	56.502
1502.05	59.386
1505.59	47.734
1509.12	63.01
1512.65	72.158
1516.17	92.953
1519.7	158.773
1523.23	124.853
1526.75	90.652
1530.27	0
