Measurement: Raman, 514 nm, ccw, Raman Data Processed
Mineral: Stellerite
Rruff sample: R040174
Ideal chemistry: Ca_4_(Si_28_Al_8_)O_72_28H_2_O
Locality: unknown
Source: University of Arizona Mineral Museum
Description: Parallel aggregates of thin tabular brown crystals
Measured chemistry: (Ca_3.89_Na_0.06_K_0.05_)_Σ=4_(Si_28.11_Al_7.89_)O_72_·15.18H_2_O; H_2_O estimated by difference
Pin_id: M00484
Orientation: Laser parallel to a* (1 0 0). Fiducial mark perpendicular to laser is parallel to b [0 1 0]
Raman shift (cm-1)	intensity
101.036	0
105.212	141.178
109.387	788.652
113.559	1481.09
117.729	2003.35
121.897	2341.3
126.063	2250.67
130.228	2207.35
134.39	1967.98
138.55	1770.47
142.709	1837.52
146.865	2050.48
151.019	2236.07
155.171	2373.8
159.322	2627.88
163.47	2289.78
167.617	1820.99
171.761	1648.09
175.904	1311.92
180.044	1044.44
184.183	694.146
188.319	589.631
192.454	248.396
196.586	20.735
200.717	73.524
204.846	127.157
208.972	6.628
213.097	179.256
217.22	87.125
221.341	69.174
225.46	28.507
229.577	77.218
233.692	32.697
237.805	148.024
241.916	86.013
246.025	188.585
250.132	252.706
254.237	413.62
258.34	447.055
262.442	723.406
266.541	1020.05
270.639	1414.27
274.734	1884.74
278.828	2048.63
282.919	2068.66
287.009	1904.52
291.097	1569.03
295.183	1448.67
299.266	1301.21
303.348	1169.93
307.428	1004.8
311.507	1116.83
315.583	1046.35
319.657	1087.65
323.729	1084.74
327.8	1162.61
331.868	1090.75
335.935	1139.05
339.999	1058.42
344.062	1190.2
348.123	1337.25
352.182	1466.98
356.239	1560.92
360.294	1934.49
364.347	2081.63
368.398	2672.15
372.448	3288.16
376.495	4035.43
380.54	5248.34
384.584	6384.24
388.626	8327.18
392.666	10696.2
396.704	14059.5
400.74	17600.9
404.774	20327.6
408.806	20367.7
412.836	17500.6
416.865	14045.8
420.891	10773.6
424.916	8692.99
428.939	6905.17
432.959	5701.21
436.978	5046.53
440.996	4650.76
445.011	4583.95
449.024	4836.14
453.036	5447.39
457.045	5787.74
461.053	5386.04
465.059	4451.64
469.063	3435
473.065	2958.35
477.065	2940.91
481.063	3583.69
485.06	4676.71
489.054	7429.66
493.047	10712
497.038	10134.5
501.027	6756.95
505.014	3670.19
508.999	2044.73
512.982	1123.83
516.964	641.101
520.944	326.564
524.921	275.825
528.897	143.817
532.871	127.693
536.844	54.41
540.814	128.59
544.783	109.953
548.749	90.527
552.714	24.383
556.677	31.564
560.638	72.286
564.597	42.9
568.555	60.682
572.511	89.366
576.464	39.394
580.416	161.815
584.366	194.384
588.315	263.76
592.261	223.854
596.206	449.099
600.148	507.097
604.089	748.589
608.028	840.398
611.965	1098.39
615.901	1272.34
619.834	1391.15
623.766	1391.05
627.696	1064.77
631.624	958.395
635.551	725.983
639.475	536.525
643.398	368.018
647.318	371.462
651.237	155.855
655.155	237.32
659.07	120.147
662.984	179.679
666.895	54.113
670.805	54.66
674.713	50.895
678.62	34.188
682.524	12.119
686.427	56.497
690.328	8.847
694.227	10.235
698.124	126.344
702.02	205.941
705.913	49.443
709.805	100.602
713.695	81.833
717.584	193.256
721.47	207.753
725.355	279.476
729.238	237.047
733.119	211.593
736.998	205.386
740.876	174.984
744.752	243.419
748.626	120.777
752.498	138.982
756.368	202.602
760.237	167.584
764.104	314.803
767.969	218.873
771.832	213.367
775.693	208.282
779.553	213.665
783.411	430.724
787.267	230.012
791.122	306.038
794.974	290.741
798.825	318.369
802.674	298.798
806.522	254.02
810.367	164.613
814.211	153.217
818.053	9.023
821.893	9.922
825.732	45.126
829.568	18.671
833.403	12.251
837.236	88.242
841.068	55.793
844.898	2.218
848.726	48.896
852.552	22.812
856.376	10.616
860.199	113.209
864.02	0.041
867.839	45.602
871.656	18.933
875.472	76.248
879.286	4.193
883.098	84.242
886.909	347.58
890.717	113.251
894.524	92.097
898.33	43.105
902.133	6.681
905.935	71.378
909.735	96.432
913.533	158.146
917.33	121.529
921.124	106.039
924.918	134.212
928.709	104.158
932.499	165.726
936.286	277.216
940.073	484.442
943.857	172.428
947.64	164.533
951.421	207.695
955.2	210.976
958.978	182.026
962.753	459.451
966.527	426.479
970.3	106.229
974.071	283.072
977.84	275.51
981.607	307.442
985.372	388.097
989.136	329.207
992.898	339.963
996.659	452.054
1000.42	493.531
1004.17	537.035
1007.93	479.83
1011.68	482.826
1015.43	567.431
1019.18	514.661
1022.93	577.35
1026.68	613.102
1030.42	580.906
1034.17	658.678
1037.91	696.903
1041.65	686.193
1045.39	663.887
1049.12	590.562
1052.86	588.018
1056.59	658.561
1060.33	727.509
1064.06	650.943
1067.78	550.403
1071.51	742.761
1075.23	799.53
1078.96	909.284
1082.68	1062.12
1086.4	1332.15
1090.12	1472.28
1093.83	1602.62
1097.55	1733.6
1101.26	1863.91
1104.97	2063.8
1108.68	2165.11
1112.39	2215.69
1116.1	2286.71
1119.8	2200.42
1123.5	2110.54
1127.2	2111.54
1130.9	2131.49
1134.6	2113.12
1138.3	2094.68
1141.99	2156.5
1145.69	2179.79
1149.38	2022.67
1153.07	1945.18
1156.76	1921.93
1160.44	1827.77
1164.13	1920.63
1167.81	1553.89
1171.49	1469.82
1175.17	1175.89
1178.85	1028.62
1182.52	821.322
1186.2	760.836
1189.87	707.856
1193.54	666.534
1197.21	622.415
1200.88	391.746
1204.55	454.576
1208.21	323.682
1211.88	242.351
1215.54	184.956
1219.2	175.495
1222.86	205.19
1226.51	251.688
1230.17	239.283
1233.82	103.347
1237.47	175.3
1241.12	13.273
1244.77	95.904
1248.42	173.336
1252.06	68.132
1255.71	121.866
1259.35	43.65
1262.99	50.23
1266.63	111.387
1270.26	27.609
1273.9	23.554
1277.53	4.256
1281.16	76.747
1284.8	90.867
1288.42	82.094
1292.05	64.485
1295.68	53.172
1299.3	44.666
1302.92	45.943
1306.55	70.405
1310.16	29.486
1313.78	109.268
1317.4	88.252
1321.01	47.781
1324.62	91.407
1328.24	24.707
1331.85	64.367
1335.45	149.934
1339.06	68.056
1342.66	66.654
1346.27	74.323
1349.87	64.958
1353.47	95.268
1357.07	45.258
1360.66	94.951
1364.26	65.843
1367.85	75.034
1371.44	44.015
1375.04	42.622
1378.62	71.215
1382.21	109.523
1385.8	197.131
1389.38	155.457
1392.96	116.24
1396.54	230.103
1400.12	133.704
1403.7	136.551
1407.28	228.444
1410.85	100.181
1414.42	128.704
1417.99	152.936
1421.56	217.987
1425.13	335.246
1428.7	221.337
1432.26	291.841
1435.83	200.67
1439.39	197.232
1442.95	116.969
1446.51	181.906
1450.06	123.711
1453.62	133.35
1457.17	134.222
1460.73	203.796
1464.28	220.995
1467.83	195.721
1471.37	313.864
1474.92	230.546
1478.46	286.508
1482.01	170.783
1485.55	157.131
1489.09	156.326
1492.63	196.288
1496.16	56.126
1499.7	26.175
1503.23	57.032
1506.76	258.928
1510.29	132.809
1513.82	118.523
1517.35	156.648
1520.88	61.935
1524.4	142.99
1527.92	141.406
1531.44	198.014
