Measurement: Raman, 514 nm, ccw, Raman Data Processed
Mineral: Stellerite
Rruff sample: R040174
Ideal chemistry: Ca_4_(Si_28_Al_8_)O_72_28H_2_O
Locality: unknown
Source: University of Arizona Mineral Museum
Description: Parallel aggregates of thin tabular brown crystals
Measured chemistry: (Ca_3.89_Na_0.06_K_0.05_)_Σ=4_(Si_28.11_Al_7.89_)O_72_·15.18H_2_O; H_2_O estimated by difference
Pin_id: M00192
Orientation: Laser parallel to (1 0 1). Fiducial mark perpendicular to laser is parallel to b [0 1 0]
Raman shift (cm-1)	intensity
80.125	0
84.311	467.825
88.496	914.232
92.678	1397.63
96.858	1864.72
101.036	2097.12
105.212	2671.86
109.387	2593.92
113.559	2762.59
117.729	2437.38
121.897	2284.06
126.063	2724.59
130.228	3416.68
134.39	4734.22
138.55	6850.75
142.709	9248.67
146.865	10784.6
151.019	11007.3
155.171	10072.7
159.322	8533.98
163.47	6856.12
167.617	5369.35
171.761	4281.09
175.904	3376.24
180.044	2691.99
184.183	2129.59
188.319	1698.64
192.454	1068.76
196.586	809.682
200.717	511.106
204.846	342.515
208.972	63.581
213.097	25.701
217.22	34.692
221.341	95.202
225.46	315.351
229.577	225.901
233.692	247.811
237.805	172.589
241.916	150.949
246.025	9.157
250.132	117.196
254.237	101.004
258.34	58.153
262.442	296.814
266.541	406.084
270.639	385.237
274.734	753.899
278.828	1161.92
282.919	1569.05
287.009	1834.74
291.097	2058.81
295.183	2521.49
299.266	2652.99
303.348	2863.46
307.428	3043.03
311.507	2951.52
315.583	2607.93
319.657	2240.66
323.729	2169.26
327.8	1824.85
331.868	1799.71
335.935	1624.42
339.999	1559.03
344.062	1583.61
348.123	1598.14
352.182	1682.69
356.239	1867.27
360.294	2501.95
364.347	2976.66
368.398	4131.39
372.448	5033.17
376.495	6106.4
380.54	7150.31
384.584	8279.89
388.626	10184.1
392.666	12419.8
396.704	15667
400.74	18830.1
404.774	20192.4
408.806	18717.7
412.836	15937.4
416.865	12841.3
420.891	10213
424.916	7892.52
428.939	6135.94
432.959	4948.85
436.978	4180.94
440.996	3642.69
445.011	3094.09
449.024	3025.16
453.036	3185.92
457.045	3406.38
461.053	3366.57
465.059	3256.49
469.063	3286.16
473.065	3865.58
477.065	4704.78
481.063	7083.79
485.06	10882.7
489.054	17991.5
493.047	23900.2
497.038	19909.6
501.027	12099.8
505.014	6720.13
508.999	4163.6
512.982	2515.41
516.964	1641.75
520.944	1203
524.921	944.306
528.897	699.474
532.871	381.046
536.844	156.691
540.814	247.538
544.783	117.584
548.749	106.987
552.714	107.863
556.677	68.802
560.638	30.621
564.597	87.679
568.555	35.32
572.511	62.698
576.464	20.89
580.416	30.273
584.366	41.212
588.315	161.95
592.261	212.566
596.206	273.123
600.148	523.541
604.089	783.863
608.028	984.065
611.965	1314.13
615.901	1434.04
619.834	1473.85
623.766	1433.51
627.696	1233
631.624	1092.32
635.551	861.478
639.475	650.463
643.398	459.285
647.318	337.949
651.237	186.461
655.155	109.464
659.07	82.857
662.984	0.701
666.895	51.763
670.805	24.75
674.713	21.698
678.62	87.503
682.524	16.75
686.427	48.376
690.328	6.219
694.227	18.858
698.124	165.886
702.02	162.116
705.913	95.749
709.805	236.52
713.695	235.371
717.584	351.675
721.47	165.083
725.355	68.275
729.238	302.494
733.119	421.741
736.998	490.978
740.876	590.767
744.752	523.989
748.626	472.352
752.498	792.317
756.368	906.917
760.237	1000.04
764.104	1170.35
767.969	1370.34
771.832	1622.53
775.693	2150.8
779.553	2478.92
783.411	3016.01
787.267	3112.95
791.122	3449.54
794.974	3895.59
798.825	4473.56
802.674	4611.01
806.522	4175.73
810.367	3061.18
814.211	1851.71
818.053	1104.67
821.893	817.188
825.732	558.338
829.568	315.443
833.403	215.272
837.236	301.37
841.068	168.473
844.898	104.27
848.726	79.021
852.552	118.233
856.376	117.017
860.199	6.425
864.02	135.636
867.839	4.559
871.656	23.325
875.472	88.304
879.286	39.363
883.098	77.688
886.909	14.632
890.717	46.848
894.524	10.694
898.33	12.01
902.133	24.931
905.935	51.539
909.735	7.865
913.533	13.888
917.33	19.671
921.124	35.235
924.918	20.582
928.709	14.315
932.499	40.605
936.286	45.372
940.073	29.996
943.857	74.48
947.64	138.832
951.421	213.013
955.2	127.034
958.978	50.903
962.753	214.675
966.527	238.365
970.3	211.994
974.071	475.621
977.84	279.355
981.607	513.213
985.372	457.261
989.136	660.976
992.898	714.7
996.659	837.707
1000.42	950.875
1004.17	811.78
1007.93	942.883
1011.68	915.201
1015.43	1032.15
1019.18	1128.14
1022.93	1188.65
1026.68	1315.57
1030.42	1335.73
1034.17	1175.79
1037.91	1270.85
1041.65	1341.59
1045.39	1304.86
1049.12	1305.15
1052.86	1182.32
1056.59	1267.46
1060.33	1127.44
1064.06	1138.83
1067.78	982.776
1071.51	1136.83
1075.23	1178.24
1078.96	1372.79
1082.68	1548.35
1086.4	1904.04
1090.12	2030.24
1093.83	2226.09
1097.55	2442.04
1101.26	2515.93
1104.97	2719.97
1108.68	2926.1
1112.39	2822.28
1116.1	2868.93
1119.8	2920.25
1123.5	2775.9
1127.2	2690.64
1130.9	2503.46
1134.6	2494.79
1138.3	2351.91
1141.99	2206.12
1145.69	2023.98
1149.38	1882.47
1153.07	1911.56
1156.76	1823.92
1160.44	1532.74
1164.13	1495.21
1167.81	1265.55
1171.49	1263.45
1175.17	1189.2
1178.85	1125.65
1182.52	1078.86
1186.2	1020.7
1189.87	915.891
1193.54	753.467
1197.21	616.433
1200.88	648.35
1204.55	551.533
1208.21	409.724
1211.88	351.131
1215.54	341.42
1219.2	278.342
1222.86	304.682
1226.51	250.896
1230.17	297.352
1233.82	86.101
1237.47	141.707
1241.12	227.187
1244.77	212.021
1248.42	336.732
1252.06	220.912
1255.71	215.009
1259.35	168.989
1262.99	112.91
1266.63	26.701
1270.26	111.271
1273.9	44.878
1277.53	127.857
1281.16	70.622
1284.8	192.771
1288.42	64.53
1292.05	15.571
1295.68	16.021
1299.3	5.868
1302.92	15.157
1306.55	173.955
1310.16	12.404
1313.78	170.432
1317.4	17.968
1321.01	94.943
1324.62	28.414
1328.24	7.625
1331.85	93.217
1335.45	81.69
1339.06	2.818
1342.66	56.846
1346.27	210.389
1349.87	133.413
1353.47	106.053
1357.07	168.307
1360.66	190.173
1364.26	131.69
1367.85	123.025
1371.44	163.944
1375.04	204.616
1378.62	276.683
1382.21	146.388
1385.8	316.088
1389.38	395.324
1392.96	256.575
1396.54	294.705
1400.12	261.654
1403.7	236.672
1407.28	296.188
1410.85	169.102
1414.42	181.494
1417.99	420.937
1421.56	416.48
1425.13	484.814
1428.7	484.961
1432.26	465.06
1435.83	278.786
1439.39	469.178
1442.95	272.793
1446.51	412.906
1450.06	355.041
1453.62	333.596
1457.17	331.801
1460.73	521.227
1464.28	452.02
1467.83	441.951
1471.37	429.934
1474.92	322.451
1478.46	216.77
1482.01	310.654
1485.55	406.852
1489.09	215.176
1492.63	294.812
1496.16	364.387
1499.7	373.988
1503.23	193.498
1506.76	384.221
1510.29	216.689
1513.82	130.516
1517.35	24.145
1520.88	42.256
1524.4	132.672
1527.92	45.27
1531.44	29.975
