Measurement: Raman, 514 nm, ccw, Raman Data Processed
Mineral: Stellerite
Rruff sample: R040174
Ideal chemistry: Ca_4_(Si_28_Al_8_)O_72_28H_2_O
Locality: unknown
Source: University of Arizona Mineral Museum
Description: Parallel aggregates of thin tabular brown crystals
Measured chemistry: (Ca_3.89_Na_0.06_K_0.05_)_Σ=4_(Si_28.11_Al_7.89_)O_72_·15.18H_2_O; H_2_O estimated by difference
Pin_id: L00419
Orientation: Laser parallel to -b* (0 -1 0). Fiducial mark perpendicular to laser is parallel to -c [0 0 -1]
Raman shift (cm-1)	intensity
97.628	0
101.812	389.613
105.994	1502.98
110.174	2626.49
114.351	3797.65
118.527	4273.06
122.701	3869.58
126.873	3568.27
131.042	3655.61
135.21	3625.53
139.376	4315.38
143.539	4959.25
147.701	5889.06
151.861	6203.56
156.018	5943.04
160.174	5018.79
164.327	4036.34
168.479	3135.46
172.628	2558.55
176.776	2084.78
180.922	1657.05
185.065	1311.62
189.207	1157.7
193.346	919.959
197.484	652.627
201.619	556.91
205.753	402.479
209.884	369.414
214.014	247.487
218.141	76.46
222.267	123.496
226.391	45.979
230.512	43.911
234.632	43.704
238.749	153.41
242.865	232.84
246.979	141.393
251.09	30.045
255.2	79.45
259.308	109.522
263.414	128.564
267.517	119.026
271.619	188.67
275.719	133.006
279.817	24.417
283.913	44.08
288.007	37.23
292.099	59.077
296.189	171.208
300.277	193.37
304.363	355.256
308.447	644.735
312.529	907.43
316.609	1177.6
320.687	1207.24
324.764	1166.4
328.838	1035.01
332.91	832.532
336.981	798.368
341.049	692.876
345.116	546.27
349.18	528.309
353.243	618.922
357.304	708.51
361.362	747.773
365.419	1097.04
369.474	1596.31
373.527	1945.52
377.578	2485.52
381.627	2886.57
385.674	3358.93
389.719	4010.13
393.762	4857.84
397.804	6213.63
401.843	7661.81
405.881	9527.17
409.916	10611.9
413.95	10024.5
417.981	8676.31
422.011	7012.59
426.039	5688.22
430.065	4631.89
434.089	3523.23
438.111	2820.97
442.131	2382.39
446.149	1997.77
450.166	2009.8
454.18	2000.8
458.193	2233.91
462.203	2158.24
466.212	1932.38
470.219	1806.13
474.224	1739.48
478.227	1882.44
482.228	2565.01
486.227	3637.19
490.224	5638.99
494.22	8080.42
498.213	9141.49
502.205	6692.56
506.194	4044.73
510.182	2317.44
514.168	1609.11
518.152	1013.52
522.134	657.889
526.114	468.747
530.093	382.871
534.069	232.911
538.044	185.543
542.017	36.902
545.987	172.784
549.956	108.644
553.923	337.633
557.889	147.676
561.852	44.737
565.813	83.55
569.773	0.216
573.731	95.865
577.686	192.015
581.64	157.585
585.593	321.94
589.543	185.981
593.491	369.839
597.438	303.768
601.382	467.797
605.325	661.789
609.266	695.655
613.205	989.342
617.142	1032.76
621.078	1165.89
625.011	1338.71
628.943	1191.22
632.872	903.456
636.8	865.365
640.726	676.959
644.651	668.233
648.573	639.181
652.494	419.812
656.412	320.111
660.329	140.092
664.244	189.762
668.157	159.091
672.069	48.038
675.978	26.553
679.886	105.396
683.792	102.225
687.696	129.173
691.598	45.769
695.498	31.928
699.397	73.922
703.293	76.677
707.188	93.356
711.081	94.386
714.972	64.912
718.862	11.711
722.749	54.953
726.635	162.952
730.519	275.169
734.401	126.746
738.281	205.517
742.16	189.735
746.036	322.705
749.911	366.776
753.784	461.042
757.655	612.66
761.525	712.879
765.392	837.593
769.258	1048.14
773.122	1089.11
776.984	1251.5
780.844	1582.98
784.703	1995.85
788.56	2084.22
792.415	2303.18
796.268	2461.16
800.119	2709.3
803.969	2497.19
807.816	2103.38
811.662	1389.25
815.506	997.465
819.349	546.012
823.189	419.039
827.028	350.949
830.865	280.129
834.7	242.139
838.534	242.128
842.365	241.462
846.195	91.378
850.023	9.736
853.85	179.617
857.674	119.491
861.497	37.348
865.318	116.886
869.137	104.673
872.955	174.683
876.77	33.62
880.584	65.652
884.396	9.336
888.207	128.246
892.015	95.178
895.822	15.96
899.627	67.108
903.43	88.052
907.232	28.764
911.032	9.261
914.83	212.998
918.626	59.762
922.42	30.309
926.213	60.555
930.004	31.009
933.793	78.364
937.581	2.434
941.366	136.576
945.15	14.531
948.932	25.764
952.713	102.885
956.491	151.451
960.268	209.922
964.044	188.332
967.817	156.631
971.589	15.221
975.359	12.854
979.127	200.906
982.893	148.984
986.658	267.275
990.421	455.469
994.183	343.949
997.942	472.074
1001.7	669.236
1005.46	636.965
1009.21	642.691
1012.96	661.186
1016.71	460.207
1020.46	628.891
1024.21	817.74
1027.96	984.273
1031.7	817.961
1035.44	854.305
1039.18	793.502
1042.92	802.285
1046.66	808.398
1050.39	886.344
1054.13	863.055
1057.86	779.055
1061.59	727.596
1065.32	767.834
1069.05	512.662
1072.77	699.955
1076.49	716.719
1080.22	794.793
1083.94	1023.75
1087.65	1008.94
1091.37	919.662
1095.09	1170.93
1098.8	1167.22
1102.51	1178.17
1106.22	1617.49
1109.93	1598.62
1113.63	1690.26
1117.34	1767.8
1121.04	1813.17
1124.74	2074.61
1128.44	1795.88
1132.14	1798.39
1135.84	1721.49
1139.53	2094.3
1143.22	1930.38
1146.91	1593.08
1150.61	1545.41
1154.29	1436.33
1157.98	1423.48
1161.66	1373.72
1165.35	1397.76
1169.03	1511.08
1172.71	1093.71
1176.38	816.102
1180.06	698.324
1183.73	690.432
1187.41	885.953
1191.08	661.064
1194.75	560.242
1198.41	256.557
1202.08	549.867
1205.74	302.297
1209.41	128.523
1213.07	271.029
1216.73	332.475
1220.38	452.166
1224.04	491.104
1227.69	422.441
1231.35	245.799
1235	129.051
1238.65	220.213
1242.3	248.992
1245.94	238.053
1249.59	517.883
1253.23	436.771
1256.87	485.137
1260.51	373.879
1264.15	262.004
1267.78	30.514
1271.42	200.154
1275.05	158.004
1278.68	17.201
1282.31	123.5
1285.94	131.352
1289.56	95.609
1293.19	199.781
1296.81	194.33
1300.43	62.482
1304.05	80.078
1307.67	31.572
1311.29	32.809
1314.9	43.58
1318.52	243.893
1322.13	293.707
1325.74	182.971
1329.34	51.613
1332.95	150.338
1336.56	82.994
1340.16	186.248
1343.76	79.861
1347.36	175.488
1350.96	200.645
1354.56	365.322
1358.15	99.607
1361.74	284.258
1365.34	658.152
1368.93	138.412
1372.52	114.008
1376.1	45.125
1379.69	108.635
1383.27	481.748
1386.85	474.396
1390.43	335.729
1394.01	537.029
1397.59	744.5
1401.17	340.451
1404.74	171.98
1408.31	96.549
1411.88	3.975
1415.45	163.393
1419.02	264.889
1422.59	326.381
1426.15	630.828
1429.71	514.111
1433.28	446.803
1436.84	321.887
1440.39	308.256
1443.95	254.529
1447.5	213.387
1451.06	502.289
1454.61	650.094
1458.16	807.955
1461.71	942.564
1465.26	858.938
1468.8	1011.71
1472.34	791.088
1475.89	629.584
1479.43	289.031
1482.97	273.445
1486.5	467.775
1490.04	111.723
1493.57	197.514
1497.11	226.658
1500.64	268.838
1504.17	415.27
1507.69	378.77
1511.22	404.461
1514.74	0
