Measurement: Raman, 514 nm, ccw, Raman Data Processed
Mineral: Stellerite
Rruff sample: R040174
Ideal chemistry: Ca_4_(Si_28_Al_8_)O_72_28H_2_O
Locality: unknown
Source: University of Arizona Mineral Museum
Description: Parallel aggregates of thin tabular brown crystals
Measured chemistry: (Ca_3.89_Na_0.06_K_0.05_)_Σ=4_(Si_28.11_Al_7.89_)O_72_·15.18H_2_O; H_2_O estimated by difference
Pin_id: L00419
Orientation: Laser parallel to -b* (0 -1 0). Fiducial mark perpendicular to laser is parallel to -c [0 0 -1]
Raman shift (cm-1)	intensity
94.838	0
99.023	197.843
103.206	591.085
107.387	1923.1
111.566	3692.44
115.744	5066.33
119.919	5003.11
124.092	5203.59
128.263	4896.44
132.432	4144.3
136.599	3752.97
140.764	3454.75
144.927	3197.46
149.088	2909.26
153.247	2720.15
157.404	2570.37
161.559	2130.37
165.711	1890.41
169.862	1560.66
174.011	1211.37
178.158	1077.52
182.303	941.999
186.446	763.866
190.587	463.074
194.726	551.7
198.862	467.591
202.997	317.723
207.13	249.545
211.261	352.889
215.39	477.604
219.517	553.562
223.642	610.624
227.765	558.567
231.886	567.183
236.005	406.443
240.122	206.548
244.237	337.786
248.35	80.467
252.461	144.286
256.57	49.302
260.677	56.138
264.782	16.815
268.885	209.807
272.986	50.96
277.085	158.608
281.182	203.889
285.278	307.532
289.371	140.193
293.462	92.077
297.552	73.371
301.639	5.867
305.724	265.573
309.808	595.552
313.889	775.6
317.969	925.696
322.046	915.848
326.122	1066.05
330.196	906.308
334.267	846.604
338.337	786.931
342.405	677.25
346.471	577.401
350.535	536.504
354.597	814.382
358.657	890.987
362.715	867.035
366.771	1283.13
370.825	1570.15
374.877	1998.56
378.928	2576.73
382.976	3157.5
387.023	3856.65
391.067	4731.74
395.11	5941.38
399.15	7712.05
403.189	9873.17
407.226	11953.4
411.261	12632.1
415.294	11433.9
419.325	9636.39
423.354	7778.83
427.381	6200.77
431.406	5095.9
435.43	4299.31
439.451	3728.2
443.471	3378.3
447.488	3453.66
451.504	3758.8
455.518	4341.82
459.53	4641.09
463.54	4158.96
467.548	3363.55
471.554	2667.88
475.558	2208.44
479.561	2235.68
483.561	2379.16
487.559	3262.34
491.556	4645.22
495.551	6047.79
499.544	5600.04
503.535	3761.98
507.524	2203.84
511.511	1195.27
515.496	867.476
519.48	471.164
523.461	425.826
527.441	348.447
531.418	131.743
535.394	183.821
539.368	53.73
543.34	68.785
547.311	111.792
551.279	145.496
555.245	42.541
559.21	0.223
563.173	3.221
567.133	22.412
571.092	72.023
575.049	211.391
579.005	25.193
582.958	37.844
586.909	109.998
590.859	91.855
594.807	343.656
598.753	424.701
602.697	445.707
606.639	566.719
610.579	607.859
614.518	898.863
618.454	969.812
622.389	900.533
626.322	850.893
630.253	900.863
634.182	900.486
638.109	859.719
642.035	688.555
645.958	526.982
649.88	475.006
653.8	602.621
657.718	529.832
661.634	416.711
665.549	303.219
669.461	293.209
673.372	192.738
677.281	194.508
681.188	161.57
685.093	108.953
688.997	357.711
692.898	119.98
696.798	284.205
700.696	2.51
704.592	113.051
708.486	193.66
712.378	173.293
716.269	78.328
720.158	155.197
724.045	117.635
727.93	254.346
731.813	117.426
735.694	176.789
739.574	117.799
743.452	92.734
747.328	241.678
751.202	450.396
755.075	307.553
758.945	234.154
762.814	320.443
766.681	346.512
770.546	307.594
774.409	356.703
778.271	631.76
782.131	666.582
785.989	606.021
789.845	730.768
793.699	856.357
797.552	719.885
801.402	643.125
805.251	476.082
809.098	498.764
812.944	501.174
816.787	511.699
820.629	263.311
824.469	5.975
828.307	55.504
832.144	143.436
835.978	39.527
839.811	41.592
843.642	125.023
847.472	29.23
851.299	44.57
855.125	139.781
858.949	336.865
862.771	221.812
866.591	19.564
870.41	13.357
874.227	235.02
878.042	22.529
881.855	100.602
885.667	98.592
889.476	6.492
893.284	15.611
897.09	2.271
900.895	30.703
904.698	178.4
908.499	126.711
912.298	224.938
916.095	144.652
919.891	61.23
923.685	409.266
927.477	137.092
931.267	154.85
935.056	47.416
938.843	19.785
942.628	52.258
946.411	265.205
950.193	182.666
953.973	180.123
957.751	77.59
961.527	305.072
965.302	187.426
969.075	59.873
972.846	157.191
976.615	299.643
980.383	75.359
984.149	375.137
987.913	320.152
991.675	495.002
995.436	427.197
999.195	592.619
1002.95	799.039
1006.71	326.984
1010.46	425.635
1014.21	684.641
1017.96	823.203
1021.71	881.902
1025.46	817.023
1029.2	586.164
1032.95	571.504
1036.69	451.545
1040.43	851.096
1044.17	899.936
1047.9	930.408
1051.64	848
1055.37	767.91
1059.1	908.98
1062.83	690.404
1066.56	531.932
1070.29	933.475
1074.01	949.768
1077.73	647.867
1081.46	672.066
1085.17	662.822
1088.89	711.467
1092.61	1142.41
1096.32	1065.53
1100.04	1158.62
1103.75	1232.24
1107.46	1085.47
1111.16	1159.73
1114.87	1204.96
1118.57	1568.22
1122.28	1444.94
1125.98	1350.05
1129.67	1431.65
1133.37	1458.12
1137.07	1532.54
1140.76	1359.24
1144.45	1146.58
1148.14	1368.84
1151.83	1742.17
1155.52	1757.24
1159.21	1390.24
1162.89	1437.6
1166.57	1153.93
1170.25	1169.97
1173.93	1399.63
1177.61	1465.57
1181.28	1504.35
1184.96	1370.63
1188.63	1285.72
1192.3	943.363
1195.97	755.031
1199.64	751.291
1203.3	774.801
1206.97	707.76
1210.63	764.436
1214.29	669.049
1217.95	434.148
1221.6	272.6
1225.26	29.932
1228.91	317.121
1232.57	649.217
1236.21	663.959
1239.86	524.725
1243.51	674.15
1247.16	543.416
1250.8	283.793
1254.44	53.574
1258.08	192.916
1261.72	291.805
1265.36	410.15
1268.99	698.162
1272.63	514.787
1276.26	761.807
1279.89	648.248
1283.52	145.734
1287.15	9.205
1290.77	16.727
1294.4	83.678
1298.02	138.49
1301.64	480.049
1305.26	300.164
1308.88	109.146
1312.49	227.506
1316.11	34.699
1319.72	62.422
1323.33	11.086
1326.94	254.74
1330.55	309.898
1334.15	34.369
1337.76	388.119
1341.36	381.121
1344.96	153.389
1348.56	165.08
1352.16	13.727
1355.75	36.949
1359.35	17.195
1362.94	237.074
1366.53	326.689
1370.12	25.945
1373.71	495.893
1377.3	584.014
1380.88	580.854
1384.46	491.764
1388.05	481.672
1391.63	160.078
1395.2	266.523
1398.78	273.518
1402.36	504.637
1405.93	821.047
1409.5	723.834
1413.07	868.129
1416.64	848.379
1420.21	437.311
1423.78	125.996
1427.34	237.57
1430.9	148.578
1434.46	230.59
1438.02	385.875
1441.58	827.785
1445.13	845.785
1448.69	1170.15
1452.24	924.758
1455.79	1159.13
1459.34	905.586
1462.89	861.02
1466.44	605.508
1469.98	480.621
1473.53	400.98
1477.07	172.391
1480.61	866.605
1484.14	792.613
1487.68	743.98
1491.22	925.59
1494.75	658.684
1498.28	545.012
1501.81	476.23
1505.34	383.082
1508.87	87.844
1512.4	24.789
1515.92	164.383
1519.44	0
