Measurement: Raman, 514 nm, ccw, Raman Data Processed
Mineral: Stellerite
Rruff sample: R040174
Ideal chemistry: Ca_4_(Si_28_Al_8_)O_72_28H_2_O
Locality: unknown
Source: University of Arizona Mineral Museum
Description: Parallel aggregates of thin tabular brown crystals
Measured chemistry: (Ca_3.89_Na_0.06_K_0.05_)_Σ=4_(Si_28.11_Al_7.89_)O_72_·15.18H_2_O; H_2_O estimated by difference
Pin_id: L00419
Orientation: Laser parallel to -b* (0 -1 0). Fiducial mark perpendicular to laser is parallel to -c [0 0 -1]
Raman shift (cm-1)	intensity
101.812	0
105.994	523.975
110.174	1846.87
114.351	3201.06
118.527	4369.31
122.701	4622.12
126.873	4425.73
131.042	4062.61
135.21	3207.76
139.376	2696.94
143.539	2109.48
147.701	1953.98
151.861	1574.19
156.018	1485.54
160.174	1104.53
164.327	950.022
168.479	822.758
172.628	573.132
176.776	411.549
180.922	148.404
185.065	137.095
189.207	2.261
193.346	85.644
197.484	3.898
201.619	34.386
205.753	23.292
209.884	111.851
214.014	321.537
218.141	431.945
222.267	542.939
226.391	717.351
230.512	696.053
234.632	477.251
238.749	227.841
242.865	168.522
246.979	149.636
251.09	181.185
255.2	202.985
259.308	205.332
263.414	127.954
267.517	74.941
271.619	166.82
275.719	200.299
279.817	210.188
283.913	108.438
288.007	165.939
292.099	183.233
296.189	159.192
300.277	271.424
304.363	473.451
308.447	1075.22
312.529	1176.38
316.609	1686.21
320.687	1704.71
324.764	1752.61
328.838	1620.04
332.91	1417.02
336.981	1323.58
341.049	1289.74
345.116	1415.52
349.18	1120.61
353.243	1313.69
357.304	1318.52
361.362	1572.18
365.419	1809.15
369.474	2242.39
373.527	2953.67
377.578	3480.07
381.627	4215.79
385.674	5082.64
389.719	6188.38
393.762	7707.96
397.804	9911.05
401.843	12743.4
405.881	15714.1
409.916	17452.7
413.95	16492.4
417.981	13726.5
422.011	11282.5
426.039	9217.37
430.065	7464
434.089	6017.82
438.111	5206.77
442.131	4653.11
446.149	4601.15
450.166	5073.54
454.18	5877.06
458.193	6761.85
462.203	6344.09
466.212	5185.92
470.219	4227.34
474.224	3378.36
478.227	3048.99
482.228	3229.24
486.227	3819.13
490.224	5318.65
494.22	7196.77
498.213	7606.61
502.205	5375.05
506.194	3173.14
510.182	1860.88
514.168	1138.31
518.152	705.93
522.134	504.483
526.114	391.881
530.093	289.229
534.069	2.508
538.044	44.92
542.017	23.169
545.987	9.978
549.956	49.721
553.923	25.984
557.889	51.421
561.852	45.859
565.813	120.656
569.773	136.161
573.731	3.714
577.686	98.646
581.64	49.792
585.593	121.167
589.543	112.035
593.491	193.607
597.438	331.101
601.382	546.035
605.325	647.712
609.266	749.64
613.205	864.876
617.142	1083.78
621.078	1195.66
625.011	1227.27
628.943	1258.64
632.872	789.767
636.8	960.651
640.726	821.286
644.651	701.663
648.573	661.787
652.494	491.66
656.412	571.284
660.329	400.969
664.244	380.31
668.157	289.912
672.069	159.682
675.978	239.084
679.886	153.962
683.792	297.923
687.696	44.361
691.598	171.881
695.498	88.823
699.397	218.36
703.293	306.677
707.188	97.361
711.081	180.562
714.972	251.053
718.862	41.354
722.749	204.431
726.635	176.6
730.519	125.711
734.401	184.088
738.281	203.73
742.16	281.84
746.036	147.756
749.911	210.908
753.784	316.174
757.655	259.434
761.525	213.326
765.392	335.143
769.258	398.238
773.122	376.352
776.984	338.371
780.844	371.498
784.703	624.498
788.56	556.291
792.415	558.85
796.268	609.75
800.119	670.438
803.969	590.914
807.816	361.184
811.662	211.248
815.506	111.111
819.349	141.391
823.189	59.488
827.028	81.012
830.865	9.906
834.7	87.705
838.534	54.934
842.365	31.535
846.195	61.428
850.023	155.299
853.85	70.252
857.674	56.246
861.497	78.111
865.318	93.854
869.137	89.639
872.955	55.074
876.77	60.811
880.584	143.035
884.396	92.777
888.207	8.734
892.015	114.902
895.822	39.52
899.627	25.945
903.43	14.969
907.232	46.57
911.032	51.953
914.83	47.258
918.626	12.492
922.42	112.354
926.213	112.582
930.004	7.463
933.793	282.281
937.581	107.006
941.366	38.334
945.15	56.248
948.932	70.799
952.713	175.332
956.491	119.85
960.268	64.359
964.044	138.881
967.817	32.924
971.589	22.598
975.359	130.896
979.127	174.428
982.893	57.59
986.658	276.01
990.421	200.398
994.183	250.465
997.942	310.635
1001.7	663.168
1005.46	567.496
1009.21	420.385
1012.96	265.381
1016.71	271.141
1020.46	386.762
1024.21	718.641
1027.96	767.283
1031.7	574.439
1035.44	463.438
1039.18	649.197
1042.92	543.258
1046.66	635.551
1050.39	701.33
1054.13	577.934
1057.86	533.352
1061.59	600.633
1065.32	558.064
1069.05	495.527
1072.77	576.936
1076.49	714.785
1080.22	793.23
1083.94	900.277
1087.65	937.182
1091.37	643.922
1095.09	742.652
1098.8	1021.6
1102.51	1070.81
1106.22	1570.16
1109.93	1480
1113.63	1383.94
1117.34	1633.84
1121.04	1502
1124.74	1971.68
1128.44	1711.68
1132.14	1689.15
1135.84	1730.31
1139.53	1911.34
1143.22	1958.75
1146.91	1724.34
1150.61	1788.57
1154.29	1640.84
1157.98	1896.61
1161.66	1880.86
1165.35	2044.72
1169.03	1646.46
1172.71	1577.3
1176.38	1538.8
1180.06	1610.5
1183.73	1492.05
1187.41	1534.56
1191.08	1287.07
1194.75	1232.19
1198.41	914.998
1202.08	886.254
1205.74	606.939
1209.41	461.914
1213.07	511.061
1216.73	672.033
1220.38	582.484
1224.04	546.637
1227.69	533.812
1231.35	344.75
1235	233.211
1238.65	222.705
1242.3	510.736
1245.94	468.232
1249.59	657.256
1253.23	575.287
1256.87	483.664
1260.51	350.408
1264.15	238.484
1267.78	45.537
1271.42	301.141
1275.05	248.447
1278.68	273.631
1282.31	378.252
1285.94	462.701
1289.56	256.834
1293.19	159.264
1296.81	231.221
1300.43	197.457
1304.05	67.094
1307.67	172.389
1311.29	141.025
1314.9	309.176
1318.52	286.787
1322.13	193.855
1325.74	50.357
1329.34	36.256
1332.95	91.531
1336.56	123.824
1340.16	79.9
1343.76	183.281
1347.36	395.838
1350.96	517.9
1354.56	519.439
1358.15	100.637
1361.74	102.834
1365.34	26.975
1368.93	207.127
1372.52	131.596
1376.1	31.455
1379.69	353.031
1383.27	744.314
1386.85	634.139
1390.43	628.227
1394.01	486.93
1397.59	144.793
1401.17	352.816
1404.74	108.328
1408.31	311.439
1411.88	284.635
1415.45	395.406
1419.02	583.912
1422.59	701.217
1426.15	717.531
1429.71	556.318
1433.28	674.48
1436.84	435.395
1440.39	290.781
1443.95	342.703
1447.5	289.01
1451.06	515.178
1454.61	657.701
1458.16	1027.15
1461.71	1136.22
1465.26	1182.12
1468.8	879.326
1472.34	767.871
1475.89	548.352
1479.43	264.125
1482.97	309.973
1486.5	168.93
1490.04	99
1493.57	359.459
1497.11	361.441
1500.64	576.643
1504.17	535.268
1507.69	487.984
1511.22	494.002
1514.74	326.932
1518.27	215.711
