Measurement: Raman, 514 nm, ccw, Raman Data Processed
Mineral: Stilbite-Ca
Rruff sample: R050012
Ideal chemistry: NaCa_4_(Si_27_Al_9_)O_72_28H_2_O
Locality: Harborville, Nova Scotia, Canada
Source: University of Arizona Mineral Museum
Description: Globular aggregate of thin tabular white single crystals
Measured chemistry: (Na_1.50_K_0.03_)_Σ=1.53_Ca_4.15_(Si_26.17_Al_9.83_)O_72_·27.91H_2_O; H_2_O estimated by difference
Pin_id: M00353
Orientation: Laser parallel to a* (1 0 0). Fiducial mark perpendicular to laser is parallel to b [0 1 0]
Raman shift (cm-1)	intensity
85.664	0
89.863	31.034
94.059	184.279
98.254	515.989
102.446	949.039
106.637	1535.81
110.825	2019.93
115.011	2430.88
119.195	2850.25
123.377	2990.78
127.556	2831.14
131.734	2506.69
135.909	2059.12
140.083	1815.85
144.254	1473.58
148.423	1238.49
152.59	1101.69
156.755	948.241
160.918	953.173
165.078	858.542
169.237	781.385
173.393	628.033
177.548	557.408
181.7	497.868
185.85	398.452
189.998	307.771
194.144	246.187
198.288	135.27
202.429	96.972
206.569	124.252
210.707	166.07
214.842	175.39
218.976	207.15
223.107	280.272
227.236	337.737
231.363	350.546
235.488	318.838
239.611	277.715
243.732	172.141
247.851	129.251
251.967	114.863
256.082	44.811
260.195	14.647
264.305	17.598
268.414	95.513
272.52	126.546
276.624	127.975
280.726	91.949
284.827	32.57
288.925	9.145
293.021	12.208
297.115	86.588
301.207	218.203
305.296	363.972
309.384	470.887
313.47	562.946
317.554	650.143
321.635	583.097
325.715	562.928
329.792	463.504
333.868	448.192
337.941	436.992
342.013	378.823
346.082	465.194
350.15	441.142
354.215	481.037
358.278	551.07
362.339	693.236
366.399	864.525
370.456	1184.93
374.511	1405.26
378.564	1889.15
382.615	2254.52
386.664	2678.1
390.711	3315.89
394.756	4173.66
398.799	5407
402.84	6657.27
406.879	7646.97
410.916	7741.45
414.951	7130.92
418.983	6031.6
423.014	5121.23
427.043	4413.25
431.07	3676.72
435.095	3203.53
439.118	2779.16
443.138	2617.21
447.157	2721.21
451.174	3244.14
455.189	3564.33
459.202	3679.99
463.212	3098.65
467.221	2533.3
471.228	2113.95
475.233	1743.58
479.236	1690.19
483.237	1874.78
487.235	2292.36
491.232	3085.9
495.227	3445.42
499.22	3041.9
503.211	1964.35
507.2	1091.78
511.187	594.179
515.172	408.565
519.155	267.588
523.136	139.283
527.115	82.624
531.092	39.965
535.067	8.741
539.04	23.482
543.011	3.098
546.98	42.014
550.947	5.214
554.913	12.462
558.876	2.93
562.837	34.472
566.797	62.496
570.754	2.271
574.709	29.818
578.663	57.178
582.614	46.442
586.564	87.646
590.511	158.853
594.457	175.169
598.401	219.637
602.343	257.223
606.282	372.881
610.22	431.518
614.156	442.084
618.09	429.563
622.022	440.953
625.952	470.252
629.88	428.46
633.807	361.576
637.731	375.598
641.653	325.523
645.574	327.353
649.492	338.087
653.409	192.722
657.323	222.256
661.236	188.049
665.147	176.583
669.056	176.148
672.963	133.56
676.868	101.273
680.771	151.293
684.672	139.715
688.571	94.561
692.468	111.611
696.364	79.616
700.257	116.96
704.149	104.428
708.038	103.387
711.926	78.338
715.812	105.306
719.696	92.518
723.578	116.629
727.458	91.225
731.336	108.738
735.213	121.505
739.087	80.221
742.96	102.958
746.83	96.36
750.699	120.402
754.566	135.536
758.431	123.922
762.294	150.141
766.155	158.026
770.014	197.578
773.872	202.936
777.727	214.298
781.581	250.558
785.433	299.709
789.282	280.711
793.13	268.54
796.977	204.333
800.821	206.222
804.663	150.741
808.504	77.16
812.342	57.479
816.179	51.695
820.014	65.513
823.847	5.808
827.678	17.688
831.507	35.452
835.334	29.095
839.16	9.602
842.983	47.041
846.805	2.817
850.625	12.117
854.443	20.11
858.259	35.608
862.074	2.651
865.886	13.041
869.697	11.491
873.506	27.867
877.313	9.587
881.118	6.952
884.921	16.351
888.722	23.183
892.522	10.815
896.319	14.455
900.115	44.625
903.909	18.707
907.701	7.651
911.492	3.5
915.28	19.281
919.067	32.999
922.852	38.66
926.635	43.269
930.416	4.827
934.195	58.334
937.973	12.795
941.748	70.21
945.522	46.585
949.294	71.919
953.064	59.211
956.832	47.469
960.599	98.693
964.364	135.82
968.127	118.6
971.888	108.614
975.647	126.876
979.404	100.934
983.16	179.5
986.914	239.424
990.666	188.678
994.416	228.372
998.164	200.274
1001.91	239.493
1005.65	200.346
1009.4	270.677
1013.14	217.837
1016.88	294.526
1020.62	269.643
1024.35	275.175
1028.09	250.834
1031.82	281.422
1035.55	294.405
1039.28	269.903
1043	293.319
1046.73	290.801
1050.45	294.016
1054.17	266.731
1057.89	262.992
1061.61	298.12
1065.33	365.249
1069.04	377.485
1072.75	380.918
1076.46	466.44
1080.17	488.756
1083.88	561.348
1087.59	667.874
1091.29	749.512
1094.99	790.168
1098.69	853.82
1102.39	849.681
1106.09	918.437
1109.78	930.524
1113.47	928.022
1117.16	1001.59
1120.85	1015.52
1124.54	1007.46
1128.23	1001.34
1131.91	901.251
1135.59	957.469
1139.27	1014.06
1142.95	965.25
1146.63	993.646
1150.3	995.87
1153.98	948.627
1157.65	970.467
1161.32	914.192
1164.99	929.477
1168.65	873.202
1172.32	826.43
1175.98	693.087
1179.64	641.724
1183.3	562.39
1186.96	478.73
1190.62	353.167
1194.27	317.834
1197.92	213.832
1201.57	233.701
1205.22	191.591
1208.87	112.547
1212.51	70.177
1216.16	74.866
1219.8	64.81
1223.44	84.34
1227.08	50.156
1230.72	43.899
1234.35	96.47
1237.98	32.032
1241.62	46.553
1245.25	15.269
1248.87	58.8
1252.5	6.298
1256.12	62.81
1259.75	82.589
1263.37	82.27
1266.99	76.698
1270.61	75.966
1274.22	32.178
1277.84	17.478
1281.45	19.017
1285.06	8.095
1288.67	27.141
1292.28	19.592
1295.88	52.254
1299.49	1.152
1303.09	14.383
1306.69	5.198
1310.29	1.194
1313.89	5.557
1317.48	19.651
1321.08	19.747
1324.67	18.257
1328.26	3.379
1331.85	68.364
1335.44	68.016
1339.02	7.598
1342.61	11.112
1346.19	10.626
1349.77	24.004
1353.35	58.845
1356.92	55.519
1360.5	15.282
1364.07	46.521
1367.64	22.584
1371.21	1.818
1374.78	42.469
1378.35	41.565
1381.91	67.57
1385.48	37.96
1389.04	68.679
1392.6	96.45
1396.16	52.846
1399.71	70.417
1403.27	119.072
1406.82	71.819
1410.38	70.813
1413.92	48.497
1417.47	11.511
1421.02	14.111
1424.57	72.027
1428.11	6.375
1431.65	95.282
1435.19	85.986
1438.73	98.143
1442.27	76.65
1445.8	92.651
1449.33	155.049
1452.87	87.456
1456.4	22.14
1459.92	30.881
1463.45	66.986
1466.98	70.222
1470.5	98.175
1474.02	80.655
1477.54	42.864
1481.06	82.385
1484.58	98.976
1488.09	46.408
1491.61	87.927
1495.12	44.79
1498.63	60.379
1502.14	0.531
1505.64	83.546
1509.15	49.473
1512.65	49.771
1516.15	22.09
1519.66	0
