Measurement: Raman, 514 nm, ccw, Raman Data Processed
Mineral: Stilbite-Ca
Rruff sample: R050012
Ideal chemistry: NaCa_4_(Si_27_Al_9_)O_72_28H_2_O
Locality: Harborville, Nova Scotia, Canada
Source: University of Arizona Mineral Museum
Description: Globular aggregate of thin tabular white single crystals
Measured chemistry: (Na_1.50_K_0.03_)_Σ=1.53_Ca_4.15_(Si_26.17_Al_9.83_)O_72_·27.91H_2_O; H_2_O estimated by difference
Pin_id: M00488
Orientation: Laser parallel to (-1 0 -1). Fiducial mark perpendicular to laser is parallel to -b [0 -1 0]
Raman shift (cm-1)	intensity
84.264	0
88.463	17.227
92.661	354.995
96.856	1333.75
101.049	2589.43
105.24	3905.61
109.429	5098.34
113.616	6394.07
117.8	6751.92
121.983	6642.16
126.163	6978.63
130.342	7369.09
134.518	7669.86
138.692	8462.1
142.864	9298.91
147.034	10137.4
151.201	11060.3
155.367	10846.4
159.53	9925.77
163.692	8368.28
167.851	6903.93
172.008	5639.78
176.163	4695.23
180.316	3708.29
184.467	3077.75
188.616	2565.17
192.762	2114.82
196.907	1646.94
201.049	1403.44
205.189	1120.22
209.328	955.187
213.464	665.226
217.598	637.212
221.73	540.959
225.86	448.386
229.988	434.443
234.113	363.274
238.237	469.652
242.359	434.975
246.478	463.958
250.595	405.057
254.711	261.967
258.824	95.397
262.935	14.969
267.044	93.556
271.151	185.377
275.256	297.168
279.359	274.72
283.46	239.406
287.559	125.396
291.656	13.797
295.75	136.332
299.843	226.824
303.933	356.447
308.022	625.123
312.108	817.802
316.193	832.019
320.275	825.981
324.355	746.391
328.434	520.62
332.51	431.626
336.584	407.257
340.656	332.851
344.726	299.414
348.794	294.531
352.86	355.769
356.924	573.729
360.986	822.46
365.046	1162.95
369.104	1710.18
373.159	2381.13
377.213	3091.46
381.265	3800.28
385.315	4529.45
389.362	5457.6
393.408	6790.37
397.451	8490.84
401.493	10708.6
405.533	12947.8
409.57	13916.4
413.606	13109.9
417.639	11352.1
421.671	9322.14
425.7	7669.26
429.728	6111.38
433.753	4835.62
437.777	3740.76
441.798	3161.85
445.818	2667.52
449.835	2474.8
453.851	2686.42
457.864	2849.83
461.876	2825.45
465.885	2386.27
469.893	2459.26
473.898	2432.4
477.902	2886.68
481.903	3955.08
485.903	6044.59
489.9	9435.18
493.896	13175.8
497.889	13536.6
501.881	9667.31
505.87	5858.1
509.858	3409.02
513.844	2004.09
517.827	1236.44
521.809	892.285
525.789	559.1
529.766	290.411
533.742	137.586
537.716	15.113
541.688	33.487
545.657	44.426
549.625	126.601
553.591	78.362
557.555	81.124
561.517	90.175
565.477	25.579
569.435	19.63
573.391	53.699
577.345	82.636
581.297	155.322
585.248	283.785
589.196	363.099
593.142	416.369
597.086	547.729
601.029	701.566
604.969	890.952
608.908	1110.61
612.844	1201.1
616.779	1250.33
620.712	1382.28
624.642	1373.95
628.571	1256.33
632.498	1225.39
636.423	1080.14
640.346	966.571
644.267	820.667
648.186	752.434
652.103	650.84
656.019	463.876
659.932	426.536
663.843	284.815
667.753	244.705
671.66	216.166
675.566	222.846
679.47	196.64
683.372	214.704
687.271	119.233
691.169	165.207
695.065	216.022
698.96	157.535
702.852	221.478
706.742	219.065
710.631	188.308
714.517	154.659
718.402	229.763
722.284	251.484
726.165	267.55
730.044	239.335
733.921	369.975
737.796	406.983
741.669	414.372
745.54	591.171
749.41	747.106
753.277	618.074
757.143	863.416
761.006	978.273
764.868	1184.14
768.728	1345.45
772.586	1678.24
776.442	2085.97
780.297	2511.31
784.149	2936.57
787.999	3110.15
791.848	3225.03
795.695	3042.89
799.54	2968.63
803.382	2749.74
807.224	2193.45
811.063	1596.69
814.9	1001.51
818.736	784.911
822.569	530.597
826.401	363.712
830.231	313.791
834.059	163.491
837.885	228.702
841.709	190.639
845.532	115.617
849.352	95.833
853.171	64.848
856.988	104.792
860.803	87.234
864.616	97.047
868.427	27.926
872.236	52.745
876.044	29.363
879.849	22.413
883.653	30.627
887.455	3.997
891.255	21.289
895.054	31.697
898.85	39.99
902.645	51.596
906.438	17.547
910.229	25.819
914.018	29.605
917.805	17.207
921.59	26.724
925.374	11.577
929.156	33.894
932.936	40.123
936.714	20.854
940.49	37.944
944.264	22.557
948.037	9.976
951.808	67.208
955.577	41.267
959.344	165.193
963.109	125.998
966.872	153.686
970.634	236.269
974.394	229.771
978.152	268.212
981.908	417.593
985.663	433.205
989.415	503.162
993.166	537.354
996.915	695.324
1000.66	895.263
1004.41	929.277
1008.15	906.041
1011.89	847.829
1015.63	886.006
1019.37	1003.95
1023.11	1046.46
1026.84	1090.2
1030.57	1070.21
1034.31	1069.64
1038.03	1008.1
1041.76	1077.87
1045.49	937.135
1049.21	1059.06
1052.93	1058.31
1056.65	1083.08
1060.37	1064.49
1064.09	998.937
1067.8	1043.73
1071.52	1108.57
1075.23	1258.02
1078.94	1443.31
1082.64	1647.08
1086.35	1778.82
1090.05	1956.55
1093.76	2052.74
1097.46	2210.53
1101.16	2369.47
1104.85	2493.47
1108.55	2516.74
1112.24	2584.96
1115.93	2486.27
1119.62	2460.9
1123.31	2404.59
1127	2355.03
1130.68	2142.29
1134.37	2155.72
1138.05	1820.42
1141.72	1756.71
1145.4	1674.04
1149.08	1442.55
1152.75	1380.33
1156.42	1340.57
1160.1	1172.19
1163.76	1010.96
1167.43	846.09
1171.1	687.157
1174.76	680.461
1178.42	583.516
1182.08	529.411
1185.74	420.068
1189.4	409.447
1193.05	312.878
1196.7	261.918
1200.36	162.568
1204.01	100.786
1207.65	58.007
1211.3	46.92
1214.94	117.34
1218.59	50.809
1222.23	65.856
1225.87	43.5
1229.5	0.719
1233.14	48.069
1236.77	26.032
1240.41	100.694
1244.04	62.342
1247.66	57.054
1251.29	82.913
1254.92	82.722
1258.54	38.592
1262.16	5.739
1265.78	42.173
1269.4	58.252
1273.02	93.686
1276.63	59.99
1280.25	61.155
1283.86	60.065
1287.47	24.898
1291.08	57.409
1294.68	15.306
1298.29	68.211
1301.89	63.673
1305.49	42.421
1309.09	63
1312.69	78.456
1316.29	119.8
1319.88	80.995
1323.47	10.019
1327.06	29.127
1330.65	29.478
1334.24	25.987
1337.83	13.313
1341.41	0.5
1344.99	60.519
1348.57	92.38
1352.15	27.096
1355.73	35.691
1359.31	32.321
1362.88	68.544
1366.45	12.865
1370.02	7.876
1373.59	32.026
1377.16	17.914
1380.73	114.694
1384.29	164.156
1387.85	150.191
1391.41	125.11
1394.97	106.977
1398.53	113.613
1402.09	77.892
1405.64	68.555
1409.19	137.62
1412.74	71.229
1416.29	125.871
1419.84	111.802
1423.38	174.026
1426.93	118.213
1430.47	185.585
1434.01	197.312
1437.55	206.526
1441.09	250.469
1444.62	249.625
1448.16	195.965
1451.69	240.154
1455.22	239.747
1458.75	273.843
1462.28	219.166
1465.8	237.693
1469.33	211.208
1472.85	236.492
1476.37	214.362
1479.89	173.299
1483.4	55.831
1486.92	88.857
1490.43	85.969
1493.95	207.438
1497.46	125.663
1500.97	131.932
1504.47	184.255
1507.98	138.073
1511.48	155.423
1514.99	122.796
1518.49	4.433
