Measurement: Raman, 514 nm, ccw, Raman Data Processed
Mineral: Stilbite-Ca
Rruff sample: R050012
Ideal chemistry: NaCa_4_(Si_27_Al_9_)O_72_28H_2_O
Locality: Harborville, Nova Scotia, Canada
Source: University of Arizona Mineral Museum
Description: Globular aggregate of thin tabular white single crystals
Measured chemistry: (Na_1.50_K_0.03_)_Σ=1.53_Ca_4.15_(Si_26.17_Al_9.83_)O_72_·27.91H_2_O; H_2_O estimated by difference
Pin_id: M00467
Orientation: Laser parallel to c* (0 0 1). Fiducial mark perpendicular to laser is parallel to -a [-1 0 0]
Raman shift (cm-1)	intensity
80.062	0
84.264	7.686
88.463	67.609
92.661	273.914
96.856	737.638
101.049	1090.04
105.24	1324.19
109.429	1412.66
113.616	1610.65
117.8	1489.69
121.983	1474.91
126.163	1316.8
130.342	1398.78
134.518	1329.76
138.692	1584.94
142.864	1811.96
147.034	2093.92
151.201	2243.89
155.367	2309.91
159.53	2107
163.692	1700.21
167.851	1452.23
172.008	1192.92
176.163	902.02
180.316	733.86
184.467	600.718
188.616	534.153
192.762	393.5
196.907	299.178
201.049	262.159
205.189	223.417
209.328	111.931
213.464	133.672
217.598	153.59
221.73	76.658
225.86	41.872
229.988	64.226
234.113	93.772
238.237	30.621
242.359	90.836
246.478	87.602
250.595	81.406
254.711	55.22
258.824	11.151
262.935	3.842
267.044	10.92
271.151	85.275
275.256	31.388
279.359	61.342
283.46	75.224
287.559	24.032
291.656	42.265
295.75	1.339
299.843	40.099
303.933	68.574
308.022	114.088
312.108	176.64
316.193	183.23
320.275	111.856
324.355	142.516
328.434	93.208
332.51	70.933
336.584	62.674
340.656	65.326
344.726	105.686
348.794	103.729
352.86	91.713
356.924	187.74
360.986	208.83
365.046	213.007
369.104	314.253
373.159	496.561
377.213	684.917
381.265	681.137
385.315	881.291
389.362	1147.06
393.408	1376.96
397.451	1580.27
401.493	1945.37
405.533	2517.61
409.57	2643.86
413.606	2407.54
417.639	2054.85
421.671	1811.62
425.7	1524.25
429.728	1156.3
433.753	839.286
437.777	764.614
441.798	670.874
445.818	479.209
449.835	440.683
453.851	459.428
457.864	503.639
461.876	485.167
465.885	433.666
469.893	409.136
473.898	496.575
477.902	569.981
481.903	696.355
485.903	1107.69
489.9	1850
493.896	2633.26
497.889	2533.49
501.881	1663.68
505.87	1041.83
509.858	650.092
513.844	383.469
517.827	229.784
521.809	199.653
525.789	136.504
529.766	99.533
533.742	63.438
537.716	0.13
541.688	25.584
545.657	37.887
549.625	11.166
553.591	35.108
557.555	6.714
561.517	0.015
565.477	28.333
569.435	17.32
573.391	6.62
577.345	30.246
581.297	62.757
585.248	113.187
589.196	15.528
593.142	35.865
597.086	152.25
601.029	192.695
604.969	178.208
608.908	216.467
612.844	256.115
616.779	291.689
620.712	400.098
624.642	409.472
628.571	300.776
632.498	310.016
636.423	279.207
640.346	263.352
644.267	185.427
648.186	227.438
652.103	189.373
656.019	184.23
659.932	164.018
663.843	49.732
667.753	29.365
671.66	12.912
675.566	37.362
679.47	29.756
683.372	3.017
687.271	8.989
691.169	32.903
695.065	54.947
698.96	43.554
702.852	10.432
706.742	2.697
710.631	8.558
714.517	0.805
718.402	52.911
722.284	37.392
726.165	37.212
730.044	29.668
733.921	75.555
737.796	100.4
741.669	82.196
745.54	62.647
749.41	106.689
753.277	165.316
757.143	150.908
761.006	177.514
764.868	180.847
768.728	258.667
772.586	335.748
776.442	466.995
780.297	555.167
784.149	586.725
787.999	607.245
791.848	605.159
795.695	658.097
799.54	593.753
803.382	549.422
807.224	384.001
811.063	264.542
814.9	207.753
818.736	190.115
822.569	138.15
826.401	56.825
830.231	65.086
834.059	69.273
837.885	91.562
841.709	120.102
845.532	84.347
849.352	58.55
853.171	44.691
856.988	109.516
860.803	178.222
864.616	99.288
868.427	70.826
872.236	20.536
876.044	9.898
879.849	37.9
883.653	26.689
887.455	16.521
891.255	29.266
895.054	17.01
898.85	18.242
902.645	52.435
906.438	31.061
910.229	58.656
914.018	38.202
917.805	5.289
921.59	44.181
925.374	0.392
929.156	36.958
932.936	59.244
936.714	6.5
940.49	40.286
944.264	20.162
948.037	11.907
951.808	25.977
955.577	77.025
959.344	34.059
963.109	14.922
966.872	28.064
970.634	50.051
974.394	84.034
978.152	93.01
981.908	81.995
985.663	68.932
989.415	74.911
993.166	88.979
996.915	135.072
1000.66	245.179
1004.41	215.273
1008.15	159.386
1011.89	125.507
1015.63	171.649
1019.37	252.805
1023.11	224.829
1026.84	232.7
1030.57	189.796
1034.31	175.637
1038.03	163.53
1041.76	171.68
1045.49	191.04
1049.21	217.069
1052.93	260.046
1056.65	215.639
1060.37	186.923
1064.09	164.109
1067.8	182.095
1071.52	280.638
1075.23	273.006
1078.94	322.544
1082.64	348.93
1086.35	343.362
1090.05	325.231
1093.76	348.259
1097.46	418.636
1101.16	459.053
1104.85	448.456
1108.55	459.88
1112.24	367.554
1115.93	370.116
1119.62	387.878
1123.31	455.408
1127	487.962
1130.68	413.465
1134.37	336.021
1138.05	293.674
1141.72	255.261
1145.4	265.774
1149.08	193.398
1152.75	218.908
1156.42	218.415
1160.1	166.917
1163.76	176.435
1167.43	116.927
1171.1	39.227
1174.76	31.002
1178.42	76.516
1182.08	117.398
1185.74	119.55
1189.4	160.387
1193.05	57.66
1196.7	87.994
1200.36	7.795
1204.01	32.757
1207.65	9.78
1211.3	80.089
1214.94	119.568
1218.59	80.081
1222.23	39.521
1225.87	14.239
1229.5	38.824
1233.14	0.481
1236.77	20.891
1240.41	57.222
1244.04	93.823
1247.66	37.107
1251.29	81.479
1254.92	35.72
1258.54	4.953
1262.16	18.832
1265.78	24.543
1269.4	61.708
1273.02	120.86
1276.63	114.956
1280.25	83.037
1283.86	89.075
1287.47	62.021
1291.08	21.907
1294.68	57.67
1298.29	74.348
1301.89	88.984
1305.49	94.576
1309.09	110.125
1312.69	137.635
1316.29	100.081
1319.88	78.465
1323.47	10.747
1327.06	33.042
1330.65	8.082
1334.24	0.15
1337.83	52.158
1341.41	69.114
1344.99	31.748
1348.57	113.518
1352.15	35.674
1355.73	56.407
1359.31	26.605
1362.88	43.096
1366.45	57.718
1370.02	39.038
1373.59	47.219
1377.16	103.98
1380.73	126.452
1384.29	108.227
1387.85	81.938
1391.41	84.943
1394.97	62.418
1398.53	65.854
1402.09	95.076
1405.64	2.998
1409.19	86.321
1412.74	104.612
1416.29	63.968
1419.84	102.265
1423.38	131.665
1426.93	53.912
1430.47	44.734
1434.01	119.171
1437.55	97.476
1441.09	134.25
1444.62	139.391
1448.16	190.306
1451.69	284.908
1455.22	229.9
1458.75	233.065
1462.28	210.01
1465.8	183.338
1469.33	105.702
1472.85	119.814
1476.37	61.048
1479.89	90.955
1483.4	19.877
1486.92	104.725
1490.43	102.463
1493.95	114.922
1497.46	138.737
1500.97	78.448
1504.47	108.075
1507.98	100.813
1511.48	17.274
1514.99	0.785
