Measurement: Raman, 514 nm, ccw, Raman Data Processed
Mineral: Stilbite-Ca
Rruff sample: R050012
Ideal chemistry: NaCa_4_(Si_27_Al_9_)O_72_28H_2_O
Locality: Harborville, Nova Scotia, Canada
Source: University of Arizona Mineral Museum
Description: Globular aggregate of thin tabular white single crystals
Measured chemistry: (Na_1.50_K_0.03_)_Σ=1.53_Ca_4.15_(Si_26.17_Al_9.83_)O_72_·27.91H_2_O; H_2_O estimated by difference
Pin_id: M00431
Orientation: Laser parallel to -b* (0 -1 0). Fiducial mark perpendicular to laser is parallel to c [0 0 1]
Raman shift (cm-1)	intensity
77.26	0
81.463	308.38
85.664	24.048
89.863	1075.57
94.059	2662.44
98.254	4227.9
102.446	5400.71
106.637	6204.52
110.825	7204.65
115.011	7087.34
119.195	6930.02
123.377	6800.66
127.556	6639.12
131.734	6575.94
135.909	6698.48
140.083	6724.04
144.254	7002.72
148.423	7204.48
152.59	6918.64
156.755	6505.14
160.918	5463.93
165.078	4503.09
169.237	4142.47
173.393	3099.68
177.548	2661.43
181.7	2485.91
185.85	1985.95
189.998	1619.8
194.144	1584.44
198.288	1260.66
202.429	918.402
206.569	998.711
210.707	1088.81
214.842	710.895
218.976	583.609
223.107	647.516
227.236	492.633
231.363	469.289
235.488	438.002
239.611	398.572
243.732	313.145
247.851	377.846
251.967	338.754
256.082	205.191
260.195	95.062
264.305	42.312
268.414	117.281
272.52	59.695
276.624	1.752
280.726	141.82
284.827	0.77
288.925	151.236
293.021	55.811
297.115	122.021
301.207	282.484
305.296	247.721
309.384	133.65
313.47	280.229
317.554	537.42
321.635	245.186
325.715	63.492
329.792	112.326
333.868	71.68
337.941	111.406
342.013	68.686
346.082	211.434
350.15	231.672
354.215	442.27
358.278	143.379
362.339	225.039
366.399	1038.82
370.456	1251.46
374.511	1082.35
378.564	1742.73
382.615	2336.26
386.664	2536.9
390.711	3299.74
394.756	4033.61
398.799	5629.52
402.84	6608.81
406.879	7325.41
410.916	7289.75
414.951	6420.62
418.983	5376.85
423.014	4097.74
427.043	3497.52
431.07	3030.47
435.095	2344.03
439.118	1791.15
443.138	1541.74
447.157	1615.58
451.174	1706.99
455.189	1378.69
459.202	1429.91
463.212	1446.21
467.221	1293.48
471.228	1410.7
475.233	1227.84
479.236	1714.9
483.237	2701.86
487.235	4038.95
491.232	5615.67
495.227	6202.09
499.22	5365.49
503.211	3569.27
507.2	1809.13
511.187	1098.07
515.172	973.846
519.155	732.102
523.136	255.078
527.115	255.697
531.092	401.49
535.067	236.814
539.04	325.285
543.011	131.484
546.98	276.627
550.947	209.504
554.913	574.664
558.876	236.656
562.837	250.918
566.797	127.885
570.754	246.1
574.709	243.898
578.663	52
582.614	18.898
586.564	197.627
590.511	472.877
594.457	638.01
598.401	281.816
602.343	415.428
606.282	1018.6
610.22	1061.48
614.156	834.037
618.09	846.262
622.022	1438.08
625.952	1199.5
629.88	1290.56
633.807	711.146
637.731	561.289
641.653	691.098
645.574	1170.43
649.492	1049.24
653.409	187.729
657.323	445.715
661.236	733.211
665.147	680.225
669.056	617.236
672.963	165.375
676.868	99.363
680.771	404.785
684.672	826.662
688.571	578.115
692.468	132.699
696.364	67.822
700.257	795.684
704.149	780.264
708.038	294.096
711.926	195.387
715.812	243.225
719.696	354.598
723.578	1102.96
727.458	1034.06
731.336	204.027
735.213	47.641
739.087	701.553
742.96	960.777
746.83	971.543
750.699	582.912
754.566	367.42
758.431	654.561
762.294	1327.75
766.155	1655.85
770.014	1395.24
773.872	1087.59
777.727	1420.49
781.581	1987.5
785.433	2548.3
789.282	2188.23
793.13	1722.42
796.977	1675.32
800.821	1744.82
804.663	2147.98
808.504	1743.27
812.342	739.834
816.179	571.865
820.014	566.684
823.847	849.469
827.678	1232.56
831.507	653.279
835.334	455.104
839.16	85.514
842.983	447.297
846.805	906.506
850.625	644.24
854.443	522.316
858.259	392.787
862.074	10.119
865.886	367.783
869.697	958.74
873.506	858.75
877.313	9.029
881.118	277.438
884.921	152.48
888.722	720.836
892.522	981.748
896.319	771.41
900.115	181.602
903.909	1.301
907.701	241.629
911.492	691.889
915.28	1082.01
919.067	742.551
922.852	2.199
926.635	28.195
930.416	138.705
934.195	890.314
937.973	1169.04
941.748	757.557
945.522	74.277
949.294	16.486
953.064	181.092
956.832	778.387
960.599	1035.54
964.364	1112.56
968.127	579.336
971.888	184.076
975.647	111.617
979.404	755.49
983.16	891.576
986.914	1197.89
990.666	765.719
994.416	191.668
998.164	27.398
1001.91	692.719
1005.65	1038.23
1009.4	1473.78
1013.14	1387.98
1016.88	953.908
1020.62	429.059
1024.35	714.916
1028.09	1296.71
1031.82	2003.59
1035.55	1529.14
1039.28	1204.73
1043	823.434
1046.73	872.119
1050.45	562.818
1054.17	1010.22
1057.89	1666.57
1061.61	1467.92
1065.33	1021.39
1069.04	746.178
1072.75	603.324
1076.46	936.98
1080.17	1434.92
1083.88	2286.14
1087.59	2371
1091.29	1416.72
1094.99	1141.53
1098.69	1056.39
1102.39	1102.37
1106.09	2223.48
1109.78	2928.07
1113.47	2742.78
1117.16	2083.82
1120.85	1356.66
1124.54	1401.6
1128.23	1026.58
1131.91	1619.1
1135.59	2244.77
1139.27	2479.64
1142.95	2294.12
1146.63	1678
1150.3	923.666
1153.98	528.242
1157.65	851.969
1161.32	1197.91
1164.99	2231.86
1168.65	1865.08
1172.32	1500.83
1175.98	744.02
1179.64	206.779
1183.3	69.967
1186.96	485.051
1190.62	1008.09
1194.27	1190.79
1197.92	1218.07
1201.57	1320.04
1205.22	512.582
1208.87	295.057
1212.51	241.363
1216.16	798.463
1219.8	1100.97
1223.44	1379.25
1227.08	1978.22
1230.72	1401.61
1234.35	705.865
1237.98	96.398
1241.62	141.26
1245.25	629.156
1248.87	775.424
1252.5	1632.04
1256.12	2308.7
1259.75	1792.53
1263.37	1317.68
1266.99	343.789
1270.61	515.531
1274.22	47.881
1277.84	287.27
1281.45	1372.95
1285.06	2239.64
1288.67	1942.89
1292.28	1915.89
1295.88	1510.42
1299.49	892.49
1303.09	163.889
1306.69	513.932
1310.29	1273.58
1313.89	1692.91
1317.48	2291.3
1321.08	2399.42
1324.67	2217.17
1328.26	1312.04
1331.85	1177.61
1335.44	569.172
1339.02	40.145
1342.61	466.836
1346.19	1196.72
1349.77	2168.95
1353.35	2631.48
1356.92	1967.09
1360.5	1968.53
1364.07	1349.67
1367.64	385.152
1371.21	313.176
1374.78	489.863
1378.35	411.668
1381.91	1351.98
1385.48	1838.54
1389.04	2555.59
1392.6	2871.95
1396.16	2189.74
1399.71	1884.53
1403.27	858.336
1406.82	351.77
1410.38	155.484
1413.92	229.227
1417.47	930.438
1421.02	1703.95
1424.57	2352.88
1428.11	2967.42
1431.65	3150.64
1435.19	2514.09
1438.73	1990.68
1442.27	1124.16
1445.8	522.613
1449.33	911.387
1452.87	926.621
1456.4	1607.99
1459.92	1537.97
1463.45	2551.52
1466.98	3173.41
1470.5	3759.64
1474.02	2730.71
1477.54	1901.61
1481.06	1651.06
1484.58	823.895
1488.09	228.727
1491.61	222.145
1495.12	565.566
1498.63	1227.74
1502.14	1417.43
1505.64	1766.31
1509.15	2341.1
1512.65	2640.39
