Measurement: Raman, 514 nm, ccw, Raman Data Processed
Mineral: Stilbite-Ca
Rruff sample: R050012
Ideal chemistry: NaCa_4_(Si_27_Al_9_)O_72_28H_2_O
Locality: Harborville, Nova Scotia, Canada
Source: University of Arizona Mineral Museum
Description: Globular aggregate of thin tabular white single crystals
Measured chemistry: (Na_1.50_K_0.03_)_Σ=1.53_Ca_4.15_(Si_26.17_Al_9.83_)O_72_·27.91H_2_O; H_2_O estimated by difference
Pin_id: M00467
Orientation: Laser parallel to c* (0 0 1). Fiducial mark perpendicular to laser is parallel to -a [-1 0 0]
Raman shift (cm-1)	intensity
91.262	0
95.458	2.232
99.652	127.33
103.843	310.384
108.033	447.33
112.22	511.439
116.406	789.246
120.589	731.108
124.77	672.557
128.949	658.624
133.126	538.143
137.301	437.802
141.473	303.365
145.644	290.542
149.812	294.896
153.979	216.173
158.143	248.569
162.305	236.535
166.465	189.77
170.623	140.826
174.778	110.875
178.932	129.723
183.083	79.824
187.233	32.496
191.38	24.427
195.525	35.908
199.669	4.582
203.81	9.14
207.949	39.172
212.085	37.713
216.22	4.161
220.353	12.736
224.483	29.932
228.612	67.629
232.738	69.693
236.863	42.035
240.985	11.959
245.105	10.61
249.223	18.091
253.339	12.362
257.453	14.062
261.565	20.252
265.675	10.556
269.783	26.009
273.888	7.031
277.992	5.651
282.093	60.123
286.193	61.265
290.29	92.714
294.386	74.503
298.479	174.67
302.57	236.208
306.659	264.089
310.746	335.194
314.831	410.43
318.914	347.726
322.995	331.476
327.074	304.84
331.151	335.781
335.226	298.135
339.299	285.947
343.37	298.021
347.438	339.331
351.505	295.639
355.57	318.392
359.632	354.809
363.693	441.783
367.751	541.503
371.808	567.986
375.862	713.296
379.914	876.731
383.965	1016.44
388.013	1137.63
392.06	1426.11
396.104	1868.13
400.146	2203.51
404.186	2438.24
408.225	2694.68
412.261	2819.43
416.295	2515
420.327	1987.99
424.357	1659.42
428.386	1474.77
432.412	1285.44
436.436	1020.01
440.458	914.231
444.478	949.09
448.496	1033.73
452.513	1135.01
456.527	1283.07
460.539	1294.96
464.549	1249.12
468.557	919.191
472.563	749.159
476.567	686.031
480.57	746.817
484.57	725.528
488.568	919.168
492.564	1200.74
496.558	1489.26
500.551	1143.72
504.541	658.142
508.529	372.531
512.515	235.031
516.5	217.447
520.482	94.932
524.462	101.804
528.441	54.938
532.417	34.116
536.391	40.634
540.364	20.133
544.334	0.038
548.303	24.991
552.269	32.829
556.234	7.298
560.197	2.93
564.157	4.373
568.116	28.255
572.073	16.771
576.027	5.623
579.98	29.306
583.931	35.04
587.88	46.884
591.827	68.774
595.772	54.658
599.715	80.584
603.656	106.464
607.595	135.208
611.532	144.978
615.468	140.735
619.401	189.486
623.332	214.219
627.262	198.934
631.189	144.631
635.115	120.311
639.039	101.978
642.96	152.641
646.88	126.296
650.798	96.936
654.714	89.561
658.628	82.172
662.54	73.044
666.45	53.716
670.358	33.284
674.264	16.905
678.169	42.494
682.071	56.265
685.972	31.168
689.87	12.754
693.767	25.467
697.662	11.233
701.555	11.648
705.446	12.574
709.335	14.256
713.222	6.572
717.107	4.886
720.99	50.432
724.872	34.058
728.751	39.677
732.629	2.382
736.504	5.273
740.378	50.519
744.25	49.689
748.12	12.399
751.988	5.273
755.854	20.957
759.719	45.812
763.581	59.536
767.442	53.861
771.3	38.815
775.157	49.381
779.012	80.972
782.865	95.489
786.716	103.996
790.565	69.448
794.413	56.147
798.258	79.794
802.102	59.254
805.943	61.157
809.783	55.817
813.621	28.025
817.457	30.195
821.292	34.322
825.124	31.269
828.954	33.199
832.783	9.195
836.61	6.697
840.435	44.917
844.258	27.276
848.079	6.417
851.898	37.961
855.715	26.508
859.531	47.98
863.345	42.544
867.157	8.576
870.967	27.023
874.775	22.664
878.581	20.786
882.386	25.197
886.188	7.14
889.989	43.696
893.788	32.525
897.585	24.658
901.38	3.64
905.174	31.692
908.965	2.795
912.755	21.93
916.543	4.1
920.329	15.244
924.113	24.358
927.895	6.45
931.676	25.52
935.454	38.573
939.231	8.606
943.006	3.379
946.78	20.389
950.551	1.437
954.32	15.496
958.088	21.415
961.854	42.332
965.618	15.201
969.38	20.829
973.141	12.647
976.9	25.511
980.656	78.317
984.411	72.999
988.165	75.545
991.916	77.135
995.665	92.19
999.413	119.559
1003.16	140.399
1006.9	109.254
1010.65	104.151
1014.39	124.059
1018.12	89.754
1021.86	86.584
1025.6	110.419
1029.33	119.75
1033.06	134.128
1036.79	90.67
1040.52	90.942
1044.25	114.846
1047.97	62.369
1051.69	68.259
1055.41	145.247
1059.13	152.232
1062.85	138.426
1066.57	61.416
1070.28	119.615
1073.99	142.369
1077.7	157.412
1081.41	203.492
1085.12	259.573
1088.82	227.629
1092.52	229.473
1096.22	205.065
1099.92	241.236
1103.62	255.456
1107.32	368.542
1111.01	382.771
1114.7	313.999
1118.39	292.051
1122.08	307.36
1125.77	326.586
1129.45	332.833
1133.14	348.639
1136.82	375.914
1140.5	333.488
1144.18	317.784
1147.85	286.093
1151.53	312.417
1155.2	322.737
1158.87	338.093
1162.54	361.579
1166.21	374.167
1169.88	387.54
1173.54	297.31
1177.2	257.678
1180.86	205.804
1184.52	206.276
1188.18	139.855
1191.83	128.338
1195.49	110.496
1199.14	83.289
1202.79	47.145
1206.44	7.856
1210.08	3.236
1213.73	16.739
1217.37	8.476
1221.01	15.29
1224.65	17.717
1228.29	23.165
1231.93	5.752
1235.56	13.291
1239.19	1.259
1242.83	3.768
1246.46	1.374
1250.08	14.469
1253.71	34.25
1257.33	73.675
1260.96	39.537
1264.58	19.927
1268.19	17.57
1271.81	12.893
1275.43	20.459
1279.04	44.758
1282.65	5.086
1286.27	28.344
1289.87	30.572
1293.48	19.759
1297.09	38.91
1300.69	16.004
1304.29	2.071
1307.89	0.884
1311.49	32.14
1315.09	26.132
1318.68	54.062
1322.28	32.948
1325.87	30.789
1329.46	9.591
1333.05	21.358
1336.63	3.908
1340.22	30.788
1343.8	7.447
1347.38	10.061
1350.96	4.409
1354.54	20.939
1358.12	21.792
1361.69	16.709
1365.26	55.744
1368.83	25.196
1372.4	2.639
1375.97	5.302
1379.54	20.099
1383.1	16.345
1386.66	46.441
1390.23	44.471
1393.79	73.49
1397.34	40.503
1400.9	18.783
1404.45	35.347
1408.01	7.25
1411.56	53.102
1415.11	3.408
1418.66	59.582
1422.2	35.256
1425.75	64.699
1429.29	46.263
1432.83	55.088
1436.37	82.45
1439.91	98.688
1443.44	119.465
1446.98	97.297
1450.51	103.092
1454.04	71.996
1457.57	100.716
1461.1	80.997
1464.63	98.501
1468.15	109
1471.67	80.84
1475.19	19.693
1478.71	98.615
1482.23	76.748
1485.75	46.75
1489.26	64.138
1492.78	19.289
1496.29	0.988
1499.8	17.969
1503.31	33.343
1506.81	75.72
1510.32	65.205
1513.82	79.703
1517.32	0
