Measurement: Raman, 514 nm, ccw, Raman Data Processed
Mineral: Stilbite-Ca
Rruff sample: R050012
Ideal chemistry: NaCa_4_(Si_27_Al_9_)O_72_28H_2_O
Locality: Harborville, Nova Scotia, Canada
Source: University of Arizona Mineral Museum
Description: Globular aggregate of thin tabular white single crystals
Measured chemistry: (Na_1.50_K_0.03_)_Σ=1.53_Ca_4.15_(Si_26.17_Al_9.83_)O_72_·27.91H_2_O; H_2_O estimated by difference
Pin_id: M00488
Orientation: Laser parallel to (-1 0 -1). Fiducial mark perpendicular to laser is parallel to -b [0 -1 0]
Raman shift (cm-1)	intensity
89.863	0
94.059	79.191
98.254	580.098
102.446	1270.41
106.637	2115.38
110.825	2705.12
115.011	3482.18
119.195	3798.53
123.377	4182.93
127.556	4170.49
131.734	4368.28
135.909	4331.47
140.083	4496.11
144.254	4513.69
148.423	5003.35
152.59	4885.09
156.755	4638.87
160.918	4134.63
165.078	3482.3
169.237	3001.98
173.393	2418.18
177.548	1964.73
181.7	1575.65
185.85	1182.64
189.998	984.229
194.144	682.587
198.288	468.157
202.429	382.266
206.569	215.918
210.707	270.021
214.842	257.486
218.976	286.685
223.107	315.008
227.236	382.797
231.363	415.765
235.488	362.576
239.611	253.443
243.732	240.352
247.851	153.981
251.967	57.031
256.082	99.959
260.195	104.537
264.305	210.398
268.414	136.59
272.52	177.483
276.624	110.918
280.726	107.39
284.827	32.261
288.925	26.213
293.021	44.152
297.115	48.466
301.207	10.913
305.296	194.977
309.384	215.591
313.47	188.721
317.554	346.334
321.635	290.398
325.715	181.885
329.792	201.075
333.868	145.003
337.941	132.549
342.013	41.847
346.082	174.524
350.15	173.019
354.215	212.748
358.278	254.821
362.339	432.254
366.399	754.027
370.456	1121.94
374.511	1529.48
378.564	1983.49
382.615	2527.96
386.664	3119.23
390.711	4077.37
394.756	5240.92
398.799	7075.97
402.84	8741.62
406.879	10091.6
410.916	10234.8
414.951	9327.11
418.983	7662.5
423.014	6279.9
427.043	5061.25
431.07	4038.82
435.095	3252.82
439.118	2779.24
443.138	2525.01
447.157	2473.44
451.174	2775.55
455.189	2895.49
459.202	2960.95
463.212	2567.28
467.221	2150.58
471.228	1834.78
475.233	1627.86
479.236	1989.81
483.237	2468.63
487.235	3856.29
491.232	5873.79
495.227	7589.12
499.22	7034.27
503.211	4539.29
507.2	2666.69
511.187	1536.54
515.172	932.036
519.155	616.13
523.136	346.789
527.115	221.532
531.092	148.335
535.067	78.537
539.04	49.119
543.011	70.583
546.98	72.105
550.947	15.074
554.913	11.643
558.876	21.543
562.837	39.354
566.797	90.979
570.754	5.714
574.709	103.088
578.663	187.989
582.614	221.764
586.564	190.545
590.511	308.291
594.457	401.948
598.401	473.445
602.343	595.744
606.282	664.757
610.22	826.446
614.156	868.783
618.09	871.766
622.022	1007.38
625.952	924.619
629.88	803.473
633.807	735.945
637.731	700.023
641.653	620.703
645.574	525.983
649.492	498.859
653.409	382.331
657.323	346.395
661.236	285.047
665.147	320.28
669.056	223.119
672.963	174.532
676.868	204.171
680.771	173.375
684.672	234.059
688.571	174.035
692.468	215.385
696.364	148.896
700.257	222.542
704.149	237.02
708.038	144.819
711.926	233.817
715.812	262.508
719.696	232.943
723.578	264.797
727.458	221.718
731.336	279.634
735.213	274.234
739.087	261.414
742.96	359.062
746.83	404.475
750.699	480.512
754.566	509.917
758.431	534.039
762.294	682.211
766.155	723.111
770.014	878.575
773.872	943.753
777.727	1100.3
781.581	1179.25
785.433	1444.47
789.282	1426.63
793.13	1425.23
796.977	1445.46
800.821	1231.21
804.663	1117.81
808.504	895.906
812.342	598.644
816.179	451.848
820.014	254.491
823.847	210.389
827.678	135.13
831.507	93.945
835.334	45.9
839.16	63.232
842.983	53.492
846.805	24.471
850.625	78.352
854.443	90.256
858.259	22.036
862.074	69.406
865.886	21.955
869.697	34.885
873.506	5.599
877.313	28.098
881.118	14.806
884.921	26.652
888.722	82.798
892.522	29.385
896.319	5.253
900.115	21.353
903.909	14.277
907.701	11.635
911.492	34.186
915.28	8.716
919.067	4.428
922.852	22.32
926.635	10.325
930.416	5.52
934.195	91.561
937.973	9.454
941.748	67.207
945.522	81.835
949.294	128.341
953.064	47.734
956.832	116.02
960.599	78.766
964.364	80.293
968.127	198.306
971.888	205.293
975.647	212.175
979.404	285.697
983.16	297.585
986.914	462.251
990.666	439.396
994.416	608.711
998.164	581.488
1001.91	829.619
1005.65	655.02
1009.4	751.081
1013.14	814.83
1016.88	772.608
1020.62	841.493
1024.35	892.108
1028.09	842.76
1031.82	823.821
1035.55	855.724
1039.28	858.045
1043	860.625
1046.73	878.896
1050.45	810.141
1054.17	797.101
1057.89	829.646
1061.61	802.1
1065.33	746.398
1069.04	808.14
1072.75	947.181
1076.46	1020.96
1080.17	1079.09
1083.88	1262.07
1087.59	1429.21
1091.29	1528.22
1094.99	1588.07
1098.69	1672.99
1102.39	1771.3
1106.09	1899.44
1109.78	1841.65
1113.47	1829.03
1117.16	1967.55
1120.85	1966.96
1124.54	1969.65
1128.23	1804.97
1131.91	1781.57
1135.59	1648.14
1139.27	1693.13
1142.95	1610.4
1146.63	1579.62
1150.3	1464.28
1153.98	1344.52
1157.65	1309.39
1161.32	1069.31
1164.99	934.728
1168.65	746.623
1172.32	668.616
1175.98	624.542
1179.64	472.684
1183.3	410.588
1186.96	403.968
1190.62	317.775
1194.27	123.352
1197.92	145.992
1201.57	230.535
1205.22	153.314
1208.87	116.646
1212.51	194.373
1216.16	61.641
1219.8	136.841
1223.44	48.595
1227.08	101.487
1230.72	9.81
1234.35	46.758
1237.98	85.682
1241.62	108.303
1245.25	58.979
1248.87	137.61
1252.5	34.983
1256.12	93.371
1259.75	94.05
1263.37	105.298
1266.99	24.018
1270.61	130.523
1274.22	54.149
1277.84	66.435
1281.45	17.272
1285.06	34.794
1288.67	14.958
1292.28	67.912
1295.88	9.796
1299.49	8.659
1303.09	37.57
1306.69	30.519
1310.29	7.773
1313.89	54.314
1317.48	27.874
1321.08	48.828
1324.67	37.454
1328.26	34.071
1331.85	84.01
1335.44	45.857
1339.02	20.475
1342.61	74.889
1346.19	63.092
1349.77	35.106
1353.35	36.913
1356.92	71.062
1360.5	84.056
1364.07	16.353
1367.64	13.393
1371.21	103.138
1374.78	89.256
1378.35	139.819
1381.91	163.17
1385.48	86.199
1389.04	75.116
1392.6	89.179
1396.16	72.198
1399.71	130.08
1403.27	100.248
1406.82	154.522
1410.38	212.467
1413.92	76.753
1417.47	97.905
1421.02	167.19
1424.57	64.657
1428.11	78.247
1431.65	65.47
1435.19	182.651
1438.73	266.373
1442.27	294.848
1445.8	258.068
1449.33	327.267
1452.87	321.335
1456.4	273.921
1459.92	161.624
1463.45	249.455
1466.98	143.669
1470.5	138.158
1474.02	72.309
1477.54	81.773
1481.06	92.722
1484.58	134.229
1488.09	117.019
1491.61	160.699
1495.12	156.471
1498.63	43.538
1502.14	50.39
1505.64	41.986
1509.15	2.183
1512.65	0.24
