Measurement: Raman, 514 nm, ccw, Raman Data Processed
Mineral: Stilbite-Ca
Rruff sample: R050012
Ideal chemistry: NaCa_4_(Si_27_Al_9_)O_72_28H_2_O
Locality: Harborville, Nova Scotia, Canada
Source: University of Arizona Mineral Museum
Description: Globular aggregate of thin tabular white single crystals
Measured chemistry: (Na_1.50_K_0.03_)_Σ=1.53_Ca_4.15_(Si_26.17_Al_9.83_)O_72_·27.91H_2_O; H_2_O estimated by difference
Pin_id: M00353
Orientation: Laser parallel to a* (1 0 0). Fiducial mark perpendicular to laser is parallel to b [0 1 0]
Raman shift (cm-1)	intensity
80.062	0
84.264	6.205
88.463	33.867
92.661	340.739
96.856	847.336
101.049	1425.42
105.24	1872.62
109.429	2081.1
113.616	2410.73
117.8	2383.68
121.983	2367.12
126.163	2392.2
130.342	2232.16
134.518	2245.7
138.692	2163.9
142.864	2126.15
147.034	2133.38
151.201	2170.56
155.367	2148.65
159.53	2080.66
163.692	1884.58
167.851	1804.58
172.008	1671.04
176.163	1465.2
180.316	1272.04
184.467	1065.96
188.616	833.653
192.762	654.017
196.907	534.67
201.049	472.946
205.189	547.814
209.328	578.246
213.464	715.208
217.598	915.661
221.73	1066.56
225.86	1246.93
229.988	1286.93
234.113	1169.7
238.237	922.333
242.359	736.635
246.478	469.966
250.595	307.287
254.711	153.665
258.824	45.184
262.935	5.106
267.044	29.898
271.151	77.041
275.256	8.517
279.359	30.325
283.46	26.672
287.559	59.568
291.656	53.091
295.75	52.308
299.843	11.262
303.933	0.963
308.022	68.589
312.108	129.387
316.193	138.419
320.275	187.67
324.355	236.127
328.434	180.778
332.51	174.615
336.584	170.636
340.656	258.745
344.726	240.917
348.794	223.137
352.86	241.339
356.924	271.585
360.986	293.994
365.046	371.414
369.104	494.884
373.159	653.367
377.213	855.182
381.265	1120.21
385.315	1390.13
389.362	1727.87
393.408	2260.8
397.451	2995.61
401.493	3775.1
405.533	4755.49
409.57	5021.75
413.606	4673.69
417.639	3873.71
421.671	3329
425.7	2705.19
429.728	2238.9
433.753	1882.16
437.777	1605.87
441.798	1473.95
445.818	1462.43
449.835	1508.13
453.851	1723.74
457.864	1787.53
461.876	1495.45
465.885	1250.01
469.893	945.505
473.898	837.99
477.902	839.461
481.903	901.91
485.903	1276.33
489.9	1850.73
493.896	2434.09
497.889	2381.41
501.881	1557.68
505.87	920.922
509.858	561.234
513.844	284.089
517.827	146.274
521.809	139.901
525.789	77.641
529.766	0.603
533.742	3.825
537.716	0.485
541.688	37.497
545.657	25.56
549.625	21.287
553.591	14.978
557.555	43.452
561.517	25.55
565.477	67.328
569.435	0.033
573.391	6.448
577.345	70.74
581.297	57.932
585.248	113.934
589.196	117.927
593.142	145.793
597.086	219.518
601.029	275.17
604.969	288.743
608.908	279.229
612.844	349.648
616.779	346.029
620.712	370.324
624.642	361.503
628.571	323.545
632.498	343.446
636.423	294.204
640.346	280.819
644.267	273.288
648.186	197.609
652.103	221.78
656.019	184.801
659.932	135.671
663.843	113.389
667.753	113.058
671.66	74.819
675.566	94.512
679.47	89.053
683.372	76.748
687.271	70.425
691.169	72.172
695.065	76.215
698.96	80.998
702.852	108.805
706.742	72.466
710.631	80.056
714.517	80.671
718.402	138.189
722.284	59.905
726.165	73.949
730.044	104.154
733.921	121.373
737.796	112.288
741.669	65.178
745.54	123.082
749.41	107.521
753.277	125.183
757.143	170.962
761.006	187.809
764.868	173.152
768.728	215.335
772.586	241.055
776.442	295.538
780.297	359.918
784.149	379.16
787.999	377.273
791.848	374.353
795.695	341.165
799.54	285.799
803.382	254.312
807.224	180.719
811.063	130.53
814.9	91.157
818.736	98.165
822.569	63.957
826.401	38.882
830.231	35.511
834.059	27.462
837.885	18.965
841.709	14.381
845.532	11.675
849.352	10.957
853.171	12.298
856.988	20.05
860.803	13.812
864.616	25.592
868.427	0.234
872.236	6.097
876.044	21.727
879.849	33.427
883.653	10.12
887.455	28.627
891.255	21.031
895.054	8.314
898.85	10.366
902.645	2.192
906.438	10.041
910.229	11.974
914.018	0.993
917.805	11.084
921.59	9.736
925.374	53.481
929.156	46.172
932.936	47.809
936.714	58.396
940.49	13.933
944.264	18.422
948.037	55.864
951.808	27.268
955.577	26.641
959.344	29.978
963.109	28.285
966.872	88.568
970.634	120.829
974.394	130.912
978.152	129.679
981.908	158.408
985.663	142.07
989.415	179.525
993.166	226.552
996.915	224.12
1000.66	290.532
1004.41	274.751
1008.15	223.171
1011.89	269.603
1015.63	254.445
1019.37	322.206
1023.11	309.249
1026.84	291.039
1030.57	297.801
1034.31	301.897
1038.03	296.428
1041.76	274.122
1045.49	308.925
1049.21	323.209
1052.93	346.752
1056.65	357.22
1060.37	299.704
1064.09	240.561
1067.8	321.987
1071.52	370.241
1075.23	400.56
1078.94	455.851
1082.64	476.27
1086.35	514.585
1090.05	555.857
1093.76	581.119
1097.46	632.556
1101.16	701.856
1104.85	720.446
1108.55	732.147
1112.24	743.041
1115.93	701.495
1119.62	723.376
1123.31	740.963
1127	757.664
1130.68	707.329
1134.37	741.945
1138.05	727.934
1141.72	705.663
1145.4	702.183
1149.08	654.382
1152.75	621.249
1156.42	570.179
1160.1	592.094
1163.76	496.44
1167.43	443.247
1171.1	381.516
1174.76	374.94
1178.42	338.201
1182.08	278.343
1185.74	275.762
1189.4	228.544
1193.05	178.917
1196.7	116.499
1200.36	41.624
1204.01	40.536
1207.65	60.947
1211.3	93.28
1214.94	68.957
1218.59	70.213
1222.23	18.867
1225.87	28.009
1229.5	3.776
1233.14	14.859
1236.77	41.196
1240.41	41.336
1244.04	37.526
1247.66	1.783
1251.29	36.92
1254.92	9.077
1258.54	18.059
1262.16	12.055
1265.78	11.861
1269.4	31.283
1273.02	10.536
1276.63	37.627
1280.25	8.9
1283.86	47.664
1287.47	3.365
1291.08	4.991
1294.68	8.576
1298.29	19.117
1301.89	12.546
1305.49	7.932
1309.09	10.353
1312.69	4.521
1316.29	15.369
1319.88	7.869
1323.47	23.03
1327.06	0.984
1330.65	7.959
1334.24	27.839
1337.83	4.634
1341.41	31.448
1344.99	30.175
1348.57	40.805
1352.15	23.364
1355.73	20.897
1359.31	9.442
1362.88	24.864
1366.45	33.003
1370.02	28.297
1373.59	43.495
1377.16	15.562
1380.73	69.223
1384.29	37.026
1387.85	49.634
1391.41	32.473
1394.97	40.46
1398.53	42.611
1402.09	36.796
1405.64	52.969
1409.19	17.827
1412.74	41.637
1416.29	73.634
1419.84	54.212
1423.38	66.967
1426.93	46.503
1430.47	53.364
1434.01	59.797
1437.55	33.837
1441.09	66.661
1444.62	52.139
1448.16	65.356
1451.69	93.223
1455.22	39.02
1458.75	75.337
1462.28	68.104
1465.8	83.668
1469.33	21.775
1472.85	43.955
1476.37	54.916
1479.89	13.974
1483.4	20.169
1486.92	36.568
1490.43	87.898
1493.95	71.14
1497.46	46.268
1500.97	69.918
1504.47	60.015
1507.98	64.027
1511.48	36.659
1514.99	4.879
1518.49	1.174
1521.99	0
