Measurement: Raman, 514 nm, ccw, Raman Data Processed
Mineral: Stilbite-Ca
Rruff sample: R050012
Ideal chemistry: NaCa_4_(Si_27_Al_9_)O_72_28H_2_O
Locality: Harborville, Nova Scotia, Canada
Source: University of Arizona Mineral Museum
Description: Globular aggregate of thin tabular white single crystals
Measured chemistry: (Na_1.50_K_0.03_)_Σ=1.53_Ca_4.15_(Si_26.17_Al_9.83_)O_72_·27.91H_2_O; H_2_O estimated by difference
Pin_id: M00467
Orientation: Laser parallel to c* (0 0 1). Fiducial mark perpendicular to laser is parallel to -a [-1 0 0]
Raman shift (cm-1)	intensity
80.062	0
84.264	16.909
88.463	22.967
92.661	78.965
96.856	284.624
101.049	559.562
105.24	709.959
109.429	804.406
113.616	1088.75
117.8	1073.07
121.983	973.06
126.163	910.978
130.342	853.311
134.518	755.459
138.692	704.01
142.864	682.702
147.034	644.704
151.201	638.139
155.367	636.091
159.53	567.733
163.692	475.242
167.851	420.723
172.008	427.4
176.163	360.525
180.316	278.214
184.467	246.382
188.616	237.167
192.762	182.278
196.907	135.268
201.049	102.292
205.189	68.36
209.328	34.455
213.464	49.547
217.598	58.602
221.73	43.608
225.86	34.566
229.988	51.499
234.113	66.463
238.237	16.46
242.359	8.436
246.478	15.414
250.595	55.805
254.711	37.663
258.824	24.06
262.935	21.34
267.044	19.665
271.151	19.973
275.256	6.301
279.359	28.703
283.46	18.237
287.559	8.878
291.656	3.393
295.75	35.56
299.843	66.601
303.933	64.526
308.022	96.349
312.108	139.075
316.193	145.714
320.275	121.27
324.355	116.748
328.434	129.15
332.51	86.41
336.584	83.468
340.656	100.268
344.726	118.814
348.794	119.054
352.86	105.17
356.924	128.241
360.986	197.29
365.046	212.315
369.104	262.313
373.159	331.459
377.213	374.34
381.265	422.498
385.315	533.955
389.362	656.438
393.408	810.715
397.451	977.131
401.493	1146.73
405.533	1421.82
409.57	1557.79
413.606	1425.61
417.639	1215.61
421.671	1025.46
425.7	915.659
429.728	756.926
433.753	598.53
437.777	502.076
441.798	469.256
445.818	447.984
449.835	485.539
453.851	519.158
457.864	652.297
461.876	582.039
465.885	463.813
469.893	381.535
473.898	350.214
477.902	352.833
481.903	389.392
485.903	478.891
489.9	719.332
493.896	958.715
497.889	893.065
501.881	634.434
505.87	355.014
509.858	217.242
513.844	159.698
517.827	133.857
521.809	81.651
525.789	74.434
529.766	28.726
533.742	25.821
537.716	6.345
541.688	0.389
545.657	0.424
549.625	18.734
553.591	16.234
557.555	3.505
561.517	19.213
565.477	32.257
569.435	1.368
573.391	8.957
577.345	6.761
581.297	36.388
585.248	36.082
589.196	61.214
593.142	44.349
597.086	53.466
601.029	52.623
604.969	83.771
608.908	109.924
612.844	103.069
616.779	121.205
620.712	141.299
624.642	150.571
628.571	141.339
632.498	108.288
636.423	63.078
640.346	102.056
644.267	121.891
648.186	81.684
652.103	113.427
656.019	87.119
659.932	60.76
663.843	76.344
667.753	43.067
671.66	15.363
675.566	53.039
679.47	36.375
683.372	6.611
687.271	10.32
691.169	1.417
695.065	42.559
698.96	31.254
702.852	1.416
706.742	2.926
710.631	14.208
714.517	19.066
718.402	52.271
722.284	13.584
726.165	14.503
730.044	19.129
733.921	38.262
737.796	35.366
741.669	48.626
745.54	34.711
749.41	29.064
753.277	39.688
757.143	48.607
761.006	57.695
764.868	51.721
768.728	75.264
772.586	79.305
776.442	144.217
780.297	151.048
784.149	163.267
787.999	137.078
791.848	131.534
795.695	101.25
799.54	134.372
803.382	122.921
807.224	121.418
811.063	49.842
814.9	45.137
818.736	57.126
822.569	50.581
826.401	38.217
830.231	34.694
834.059	49.808
837.885	53.14
841.709	54.17
845.532	62.586
849.352	61.199
853.171	48.036
856.988	48.363
860.803	39.753
864.616	12.766
868.427	20.886
872.236	14.542
876.044	22.532
879.849	36.198
883.653	3.037
887.455	13.702
891.255	19.419
895.054	25.585
898.85	11.776
902.645	7.82
906.438	31.479
910.229	36.079
914.018	12.691
917.805	28.71
921.59	0.814
925.374	4.304
929.156	14.779
932.936	6.755
936.714	0.316
940.49	2.107
944.264	17.486
948.037	25.122
951.808	37.189
955.577	47.488
959.344	39.78
963.109	29.062
966.872	27.335
970.634	15.605
974.394	72.671
978.152	68.821
981.908	73.06
985.663	44.342
989.415	69.643
993.166	87.949
996.915	83.262
1000.66	105.056
1004.41	113.846
1008.15	75.166
1011.89	75.494
1015.63	110.764
1019.37	90.992
1023.11	131.281
1026.84	146.538
1030.57	125.903
1034.31	86.995
1038.03	96.886
1041.76	99.646
1045.49	73.83
1049.21	109.423
1052.93	137.821
1056.65	103.326
1060.37	96.383
1064.09	38.332
1067.8	78.005
1071.52	121.669
1075.23	147.934
1078.94	145.344
1082.64	188.497
1086.35	180.062
1090.05	200.037
1093.76	220.714
1097.46	215.718
1101.16	253.237
1104.85	249.208
1108.55	248.785
1112.24	190.458
1115.93	195.085
1119.62	213.701
1123.31	272.028
1127	289.031
1130.68	234.613
1134.37	243.227
1138.05	230.225
1141.72	174.115
1145.4	216.724
1149.08	192.332
1152.75	198.919
1156.42	220.624
1160.1	230.277
1163.76	207.044
1167.43	165.697
1171.1	128.315
1174.76	141.882
1178.42	123.394
1182.08	111.487
1185.74	92.042
1189.4	113.166
1193.05	56.125
1196.7	72.73
1200.36	2.065
1204.01	8.165
1207.65	22.402
1211.3	39.942
1214.94	52.474
1218.59	58.425
1222.23	58.027
1225.87	24.697
1229.5	2.304
1233.14	0.182
1236.77	0.368
1240.41	13.163
1244.04	20.656
1247.66	46.101
1251.29	33.6
1254.92	10.113
1258.54	36.557
1262.16	10.11
1265.78	39.484
1269.4	37.006
1273.02	51.334
1276.63	46.822
1280.25	24.568
1283.86	1.752
1287.47	23.904
1291.08	20.023
1294.68	30.116
1298.29	16.186
1301.89	8.211
1305.49	0.817
1309.09	33.114
1312.69	63.005
1316.29	86.872
1319.88	21.71
1323.47	18.495
1327.06	33.24
1330.65	15.931
1334.24	22.587
1337.83	24.215
1341.41	66.818
1344.99	52.356
1348.57	44.532
1352.15	28.091
1355.73	20.07
1359.31	8.402
1362.88	8.13
1366.45	25.914
1370.02	26.725
1373.59	47.926
1377.16	72.001
1380.73	59.49
1384.29	85.618
1387.85	34.238
1391.41	58.127
1394.97	9.139
1398.53	15.683
1402.09	2.953
1405.64	44.476
1409.19	24.338
1412.74	29.871
1416.29	44.718
1419.84	62.39
1423.38	64.003
1426.93	27.666
1430.47	74.41
1434.01	43.18
1437.55	40.462
1441.09	91.22
1444.62	99.071
1448.16	123.094
1451.69	126.903
1455.22	138.7
1458.75	171.131
1462.28	125.319
1465.8	118.455
1469.33	94.458
1472.85	77.619
1476.37	65.317
1479.89	66.049
1483.4	17.049
1486.92	22.269
1490.43	89.63
1493.95	97.276
1497.46	89.586
1500.97	101.524
1504.47	101.295
1507.98	88.026
1511.48	63.041
1514.99	25.038
1518.49	0
