Measurement: Raman, 514 nm, ccw, Raman Data Processed
Mineral: Stilbite-Ca
Rruff sample: R050012
Ideal chemistry: NaCa_4_(Si_27_Al_9_)O_72_28H_2_O
Locality: Harborville, Nova Scotia, Canada
Source: University of Arizona Mineral Museum
Description: Globular aggregate of thin tabular white single crystals
Measured chemistry: (Na_1.50_K_0.03_)_Σ=1.53_Ca_4.15_(Si_26.17_Al_9.83_)O_72_·27.91H_2_O; H_2_O estimated by difference
Pin_id: M00431
Orientation: Laser parallel to -b* (0 -1 0). Fiducial mark perpendicular to laser is parallel to c [0 0 1]
Raman shift (cm-1)	intensity
85.664	0
89.863	65.848
94.059	380.094
98.254	723.188
102.446	1222.27
106.637	1658.46
110.825	2216.24
115.011	2499.3
119.195	2636.11
123.377	2691.3
127.556	2720.54
131.734	2542.85
135.909	2424.48
140.083	2257.67
144.254	2103.5
148.423	2089.08
152.59	1929.82
156.755	1823.28
160.918	1580.03
165.078	1323.03
169.237	1074.26
173.393	867.82
177.548	631.434
181.7	519.487
185.85	348.395
189.998	256.951
194.144	132.179
198.288	78.18
202.429	27.673
206.569	29.066
210.707	61.135
214.842	57.818
218.976	83.647
223.107	49.571
227.236	6.977
231.363	12.085
235.488	94.243
239.611	43.157
243.732	34.568
247.851	82.292
251.967	12.391
256.082	9.963
260.195	40.327
264.305	106.488
268.414	156.867
272.52	246.677
276.624	322.919
280.726	364.477
284.827	399.969
288.925	458.869
293.021	365.892
297.115	328.087
301.207	278.547
305.296	285.345
309.384	314.44
313.47	311.371
317.554	335.694
321.635	354.515
325.715	342.26
329.792	301.076
333.868	232.325
337.941	281.076
342.013	267.516
346.082	313.774
350.15	342.882
354.215	370.844
358.278	453.871
362.339	587.967
366.399	672.427
370.456	942.917
374.511	1125.16
378.564	1403.9
382.615	1719.06
386.664	2151.78
390.711	2783.74
394.756	3637.69
398.799	4771.27
402.84	5741.68
406.879	6371.56
410.916	5972.33
414.951	5122.93
418.983	4139.04
423.014	3321.48
427.043	2751.14
431.07	2264.3
435.095	2006.21
439.118	1815.11
443.138	1781.69
447.157	1884.96
451.174	2077.92
455.189	2182.59
459.202	2063.97
463.212	1760.92
467.221	1357.38
471.228	1035.81
475.233	1004.02
479.236	1112.99
483.237	1434.95
487.235	2253.61
491.232	3056.55
495.227	3397.91
499.22	2656.52
503.211	1669.38
507.2	952.844
511.187	552.8
515.172	395.77
519.155	205.086
523.136	169.08
527.115	126.839
531.092	81.473
535.067	17.575
539.04	7.955
543.011	92.185
546.98	61.521
550.947	48.286
554.913	44.362
558.876	67.549
562.837	81.304
566.797	63.99
570.754	89.913
574.709	85.533
578.663	58.303
582.614	130.172
586.564	115.853
590.511	112.202
594.457	179.325
598.401	213.144
602.343	335.748
606.282	411.209
610.22	422.516
614.156	491.672
618.09	530.667
622.022	592.507
625.952	477.194
629.88	403.736
633.807	308.166
637.731	360.477
641.653	324.691
645.574	296.778
649.492	265.719
653.409	199.52
657.323	91.177
661.236	32.677
665.147	30.011
669.056	30.345
672.963	27.402
676.868	37.436
680.771	0.96
684.672	24.399
688.571	2.692
692.468	5.065
696.364	4.093
700.257	34.127
704.149	31.607
708.038	28.424
711.926	84.065
715.812	50.242
719.696	58.356
723.578	65.902
727.458	156.713
731.336	141.002
735.213	65.386
739.087	88.908
742.96	96.01
746.83	76.875
750.699	90.953
754.566	110.38
758.431	123.261
762.294	220.722
766.155	193.503
770.014	243.381
773.872	258.296
777.727	343.945
781.581	413.194
785.433	483.684
789.282	375.08
793.13	375.66
796.977	399.759
800.821	380.626
804.663	333.27
808.504	177.565
812.342	153.33
816.179	128.371
820.014	107.734
823.847	17.97
827.678	103.899
831.507	1.694
835.334	28.267
839.16	7.867
842.983	69.525
846.805	26.758
850.625	44.379
854.443	169.743
858.259	137.451
862.074	91.828
865.886	15.993
869.697	90.454
873.506	37.355
877.313	30.825
881.118	8.34
884.921	41.036
888.722	2.1
892.522	34.718
896.319	11.426
900.115	2.109
903.909	33.897
907.701	59.727
911.492	35.534
915.28	44.059
919.067	25.564
922.852	21.998
926.635	21.362
930.416	26.662
934.195	2.898
937.973	29.021
941.748	9.999
945.522	31.167
949.294	12.496
953.064	15.079
956.832	73.611
960.599	75.098
964.364	84.541
968.127	41.948
971.888	69.318
975.647	19.167
979.404	24.703
983.16	87.043
986.914	176.649
990.666	174.625
994.416	260.567
998.164	357.089
1001.91	386.118
1005.65	298.5
1009.4	312.865
1013.14	308.244
1016.88	380.38
1020.62	372.377
1024.35	365.113
1028.09	373.318
1031.82	342.673
1035.55	303.236
1039.28	304.381
1043	288.322
1046.73	377.022
1050.45	359.778
1054.17	357.339
1057.89	333.36
1061.61	310.322
1065.33	287.19
1069.04	338.891
1072.75	443.188
1076.46	522.753
1080.17	629.239
1083.88	626.312
1087.59	622.111
1091.29	694.618
1094.99	722.227
1098.69	745.928
1102.39	784.37
1106.09	927.084
1109.78	878.914
1113.47	893.94
1117.16	938.195
1120.85	899.725
1124.54	835.888
1128.23	810.868
1131.91	801.169
1135.59	847.452
1139.27	879.882
1142.95	824.794
1146.63	832.934
1150.3	740.888
1153.98	698.177
1157.65	683.335
1161.32	538.835
1164.99	450.811
1168.65	366.769
1172.32	270.709
1175.98	198.715
1179.64	156.86
1183.3	115.996
1186.96	85.22
1190.62	80.468
1194.27	42.927
1197.92	51.715
1201.57	70.561
1205.22	82.585
1208.87	43.954
1212.51	51.985
1216.16	20.084
1219.8	46.632
1223.44	68.522
1227.08	11.237
1230.72	34.413
1234.35	103.131
1237.98	47.76
1241.62	5.348
1245.25	76.934
1248.87	64.49
1252.5	44.03
1256.12	91.601
1259.75	91.511
1263.37	61.847
1266.99	21.749
1270.61	88.482
1274.22	68.513
1277.84	6.098
1281.45	45.039
1285.06	94.073
1288.67	45.931
1292.28	88.962
1295.88	43.389
1299.49	47.987
1303.09	2.531
1306.69	75.005
1310.29	88.428
1313.89	148.804
1317.48	124.128
1321.08	117.382
1324.67	28.58
1328.26	2.398
1331.85	39.477
1335.44	40.739
1339.02	18.073
1342.61	79.459
1346.19	44.295
1349.77	87.714
1353.35	116.045
1356.92	117.322
1360.5	127.139
1364.07	34.958
1367.64	35.546
1371.21	3.772
1374.78	70.914
1378.35	49.092
1381.91	114.536
1385.48	152.775
1389.04	146.211
1392.6	85.228
1396.16	149.339
1399.71	104.131
1403.27	72.211
1406.82	46.9
1410.38	67.272
1413.92	66.407
1417.47	70.145
1421.02	85.487
1424.57	120.056
1428.11	103.243
1431.65	226.561
1435.19	267.461
1438.73	277.774
1442.27	322.912
1445.8	296.836
1449.33	356.498
1452.87	397.583
1456.4	494.528
1459.92	359.777
1463.45	360.288
1466.98	285.797
1470.5	292.251
1474.02	223.346
1477.54	147.914
1481.06	112.625
1484.58	93.135
1488.09	61.284
1491.61	47.122
1495.12	44.929
1498.63	67.69
1502.14	86.813
1505.64	18.825
1509.15	73.936
1512.65	54.675
1516.15	45.396
