Measurement: Raman, 514 nm, ccw, Raman Data Processed
Mineral: Stilbite-Ca
Rruff sample: R050012
Ideal chemistry: NaCa_4_(Si_27_Al_9_)O_72_28H_2_O
Locality: Harborville, Nova Scotia, Canada
Source: University of Arizona Mineral Museum
Description: Globular aggregate of thin tabular white single crystals
Measured chemistry: (Na_1.50_K_0.03_)_Σ=1.53_Ca_4.15_(Si_26.17_Al_9.83_)O_72_·27.91H_2_O; H_2_O estimated by difference
Pin_id: M00488
Orientation: Laser parallel to (-1 0 -1). Fiducial mark perpendicular to laser is parallel to -b [0 -1 0]
Raman shift (cm-1)	intensity
89.863	0
94.059	69.957
98.254	975.103
102.446	2103.05
106.637	3416.65
110.825	4694.07
115.011	5995.51
119.195	7099.33
123.377	8106.22
127.556	8375.03
131.734	8159.85
135.909	7420.47
140.083	6536.05
144.254	5758.58
148.423	5558.73
152.59	5340.37
156.755	4840.01
160.918	4243.52
165.078	3441.87
169.237	3004.89
173.393	2353.26
177.548	1821.93
181.7	1402.25
185.85	974.961
189.998	560.279
194.144	148.199
198.288	1.36
202.429	148.505
206.569	353.467
210.707	176.435
214.842	77.481
218.976	204.464
223.107	28.035
227.236	182.229
231.363	257.671
235.488	174.017
239.611	203.088
243.732	125.787
247.851	281.742
251.967	109.923
256.082	73.82
260.195	64.337
264.305	197.45
268.414	147.394
272.52	572.104
276.624	840.345
280.726	1071.36
284.827	1124.65
288.925	1049.66
293.021	786.046
297.115	563.721
301.207	492.6
305.296	386.774
309.384	393.652
313.47	355.081
317.554	405.684
321.635	366.511
325.715	298.19
329.792	100.804
333.868	84.284
337.941	188.561
342.013	33.58
346.082	159.326
350.15	275.787
354.215	312.931
358.278	540.727
362.339	768.38
366.399	1341.92
370.456	1888.9
374.511	2678.98
378.564	3696.96
382.615	4887.44
386.664	6398.12
390.711	8587.95
394.756	11395.6
398.799	15331.9
402.84	19310.9
406.879	22204.8
410.916	22103.7
414.951	19317.2
418.983	15920.4
423.014	12700.8
427.043	10348.7
431.07	8513.33
435.095	7438.17
439.118	6573.2
443.138	6458.36
447.157	6623.6
451.174	7588.88
455.189	8144.19
459.202	7979.49
463.212	6734.77
467.221	5319.99
471.228	4125.14
475.233	3490.19
479.236	3525.16
483.237	4450.03
487.235	6424.78
491.232	9419.41
495.227	11823.9
499.22	10518.2
503.211	6750.55
507.2	3844.46
511.187	2118.57
515.172	1053.1
519.155	647.182
523.136	263.156
527.115	202.918
531.092	79.767
535.067	121.412
539.04	28.902
543.011	113.966
546.98	104.077
550.947	134.854
554.913	96.735
558.876	30.212
562.837	11.814
566.797	103.486
570.754	93.479
574.709	314.326
578.663	406.46
582.614	447.576
586.564	515.174
590.511	596.506
594.457	869.74
598.401	939.168
602.343	1255.65
606.282	1383.74
610.22	1541.18
614.156	1738.2
618.09	1874.68
622.022	1930.61
625.952	1800.99
629.88	1590.81
633.807	1345.08
637.731	1238.77
641.653	1200.36
645.574	1172.52
649.492	1107.5
653.409	940.891
657.323	758.965
661.236	586.752
665.147	542.092
669.056	567.464
672.963	503.794
676.868	430.976
680.771	485.431
684.672	346.463
688.571	448.449
692.468	414.288
696.364	345.011
700.257	274.919
704.149	341.795
708.038	110.862
711.926	298.854
715.812	287.747
719.696	150.338
723.578	258.692
727.458	285.519
731.336	310.632
735.213	240.921
739.087	244.938
742.96	228.633
746.83	243.415
750.699	225.529
754.566	405.687
758.431	287.01
762.294	423.052
766.155	477.373
770.014	467.692
773.872	576.482
777.727	543.876
781.581	562.983
785.433	792.842
789.282	855.955
793.13	828.083
796.977	702.976
800.821	540.228
804.663	464.271
808.504	403.072
812.342	265.846
816.179	200.746
820.014	71.037
823.847	0.57
827.678	35.939
831.507	149.703
835.334	181.637
839.16	146.564
842.983	41.346
846.805	34.644
850.625	43.694
854.443	166.118
858.259	216.993
862.074	104.589
865.886	6.187
869.697	26.966
873.506	46.542
877.313	94.045
881.118	40.41
884.921	57.987
888.722	94.805
892.522	41.212
896.319	53.024
900.115	147.854
903.909	138.844
907.701	34.249
911.492	21.371
915.28	43.371
919.067	9.065
922.852	56.405
926.635	45.547
930.416	17.49
934.195	66.743
937.973	32.783
941.748	20.202
945.522	143.427
949.294	242.43
953.064	123.299
956.832	54.046
960.599	50.688
964.364	113.854
968.127	244.425
971.888	183.113
975.647	149.395
979.404	238.729
983.16	173.416
986.914	384.213
990.666	472.479
994.416	560.753
998.164	579.111
1001.91	883.483
1005.65	642.155
1009.4	671.435
1013.14	761.17
1016.88	790.033
1020.62	857.015
1024.35	869.258
1028.09	826.884
1031.82	793.279
1035.55	829.583
1039.28	892.897
1043	1008.65
1046.73	944.46
1050.45	927.75
1054.17	893.821
1057.89	806.082
1061.61	945.049
1065.33	1025.08
1069.04	1225.07
1072.75	1365.12
1076.46	1534.94
1080.17	1974.56
1083.88	1872.47
1087.59	2156.33
1091.29	2207.05
1094.99	2462.97
1098.69	2504.11
1102.39	2584.82
1106.09	2856.29
1109.78	2647.78
1113.47	2667.9
1117.16	2949.51
1120.85	2758.43
1124.54	2959.9
1128.23	2791.8
1131.91	2743.45
1135.59	2596.18
1139.27	2688.83
1142.95	2803.28
1146.63	2809.97
1150.3	2692.91
1153.98	2360.07
1157.65	2192.95
1161.32	1746.47
1164.99	1487.4
1168.65	1169.49
1172.32	1105.06
1175.98	1012.02
1179.64	872.315
1183.3	697.076
1186.96	656.942
1190.62	337.605
1194.27	216.439
1197.92	339.429
1201.57	399.936
1205.22	292.818
1208.87	229.623
1212.51	182.235
1216.16	239.864
1219.8	82.151
1223.44	104.059
1227.08	136.304
1230.72	98.608
1234.35	223.524
1237.98	196.818
1241.62	168.162
1245.25	39.599
1248.87	130.689
1252.5	42.004
1256.12	103.065
1259.75	184.213
1263.37	105.207
1266.99	205.881
1270.61	286.511
1274.22	176.904
1277.84	3.109
1281.45	26.341
1285.06	24.498
1288.67	65.963
1292.28	82.12
1295.88	189.91
1299.49	107.383
1303.09	104.599
1306.69	161.507
1310.29	128.028
1313.89	25.721
1317.48	59.762
1321.08	64.148
1324.67	38.905
1328.26	24.074
1331.85	160.342
1335.44	54.421
1339.02	278.156
1342.61	121.618
1346.19	24.789
1349.77	42.361
1353.35	60.318
1356.92	37.248
1360.5	105.099
1364.07	177.201
1367.64	150.306
1371.21	172.607
1374.78	254.88
1378.35	337.174
1381.91	235.098
1385.48	82.179
1389.04	159.039
1392.6	95.333
1396.16	201.744
1399.71	256.963
1403.27	338.678
1406.82	516.766
1410.38	343.753
1413.92	293.86
1417.47	222.401
1421.02	206.409
1424.57	87.497
1428.11	114.069
1431.65	218.289
1435.19	417.324
1438.73	483.695
1442.27	579.538
1445.8	763.319
1449.33	627.749
1452.87	651.346
1456.4	643.838
1459.92	494.479
1463.45	363.945
1466.98	302.168
1470.5	251.539
1474.02	392.667
1477.54	335.906
1481.06	419.601
1484.58	523.923
1488.09	338.778
1491.61	414.785
1495.12	352.978
1498.63	293.359
1502.14	106.426
1505.64	16.419
1509.15	26.706
1512.65	1.105
1516.15	0
