Measurement: Raman, 514 nm, ccw, Raman Data Processed
Mineral: Stilbite-Ca
Rruff sample: R050012
Ideal chemistry: NaCa_4_(Si_27_Al_9_)O_72_28H_2_O
Locality: Harborville, Nova Scotia, Canada
Source: University of Arizona Mineral Museum
Description: Globular aggregate of thin tabular white single crystals
Measured chemistry: (Na_1.50_K_0.03_)_Σ=1.53_Ca_4.15_(Si_26.17_Al_9.83_)O_72_·27.91H_2_O; H_2_O estimated by difference
Pin_id: M00353
Orientation: Laser parallel to a* (1 0 0). Fiducial mark perpendicular to laser is parallel to b [0 1 0]
Raman shift (cm-1)	intensity
80.062	0
84.264	55.804
88.463	4.162
92.661	290.89
96.856	799.967
101.049	1304.8
105.24	1698.66
109.429	1940.8
113.616	2305.95
117.8	2446.65
121.983	2468.92
126.163	2576.05
130.342	2498.54
134.518	2444.57
138.692	2489.57
142.864	2576.36
147.034	2763.81
151.201	2984.82
155.367	2986.3
159.53	2730.22
163.692	2282.57
167.851	1890.49
172.008	1729.18
176.163	1328.89
180.316	1033.17
184.467	891.438
188.616	662.967
192.762	486.968
196.907	375.686
201.049	282.196
205.189	255.474
209.328	171.492
213.464	141.216
217.598	212.611
221.73	205.656
225.86	175.33
229.988	190.752
234.113	200.357
238.237	187.235
242.359	151.247
246.478	91.773
250.595	78.385
254.711	10.186
258.824	3.399
262.935	81.085
267.044	86.562
271.151	74.037
275.256	44.637
279.359	29.549
283.46	13.453
287.559	45.007
291.656	44.152
295.75	30.828
299.843	43.993
303.933	19.616
308.022	67.673
312.108	87.14
316.193	122.996
320.275	159.219
324.355	206.789
328.434	212.686
332.51	173.898
336.584	161.398
340.656	217.047
344.726	159.908
348.794	239.06
352.86	237.49
356.924	298.195
360.986	395.166
365.046	510.388
369.104	717.968
373.159	951.357
377.213	1360.25
381.265	1656.38
385.315	2135.47
389.362	2842.51
393.408	3684.15
397.451	4767.96
401.493	6068.64
405.533	7561.39
409.57	8014.41
413.606	7446.15
417.639	6301.76
421.671	5175.98
425.7	4238.42
429.728	3399.64
433.753	2787.73
437.777	2484.61
441.798	2204.08
445.818	2156.74
449.835	2288.49
453.851	2441.04
457.864	2501.94
461.876	2186.91
465.885	1662.87
469.893	1374.93
473.898	1210.97
477.902	1175.17
481.903	1475.33
485.903	2008.5
489.9	3009.68
493.896	4207.86
497.889	4056.03
501.881	2800.2
505.87	1648.35
509.858	929.478
513.844	501.621
517.827	280.161
521.809	160.25
525.789	70.538
529.766	25.883
533.742	12.674
537.716	43.015
541.688	57.476
545.657	36.274
549.625	36.267
553.591	32.097
557.555	29.404
561.517	21.101
565.477	0.851
569.435	52.571
573.391	95.165
577.345	84.645
581.297	102.672
585.248	141.294
589.196	191.518
593.142	270.675
597.086	313.737
601.029	382.769
604.969	439.487
608.908	482.155
612.844	549.686
616.779	601.072
620.712	591.31
624.642	544.404
628.571	508.341
632.498	465.121
636.423	462.741
640.346	402.196
644.267	311.483
648.186	302.605
652.103	293.558
656.019	249.337
659.932	191.942
663.843	174.371
667.753	156.623
671.66	133.802
675.566	156.059
679.47	141.306
683.372	107.695
687.271	106.528
691.169	114.953
695.065	137.745
698.96	121.312
702.852	99.911
706.742	109.263
710.631	118.774
714.517	144.327
718.402	132.579
722.284	165.654
726.165	124.953
730.044	135.066
733.921	204.613
737.796	168.205
741.669	158.957
745.54	203.955
749.41	208.109
753.277	262.244
757.143	296.174
761.006	312.771
764.868	335.268
768.728	381.837
772.586	481.021
776.442	537.544
780.297	628.167
784.149	668.929
787.999	677.537
791.848	672.692
795.695	618.728
799.54	529.871
803.382	466.92
807.224	328.546
811.063	245.046
814.9	187.425
818.736	139.682
822.569	109.822
826.401	52.674
830.231	53.23
834.059	23.87
837.885	35.727
841.709	22.797
845.532	13.465
849.352	7.568
853.171	20.33
856.988	15.348
860.803	0.717
864.616	15.862
868.427	6.398
872.236	2.306
876.044	15.417
879.849	10.967
883.653	2.779
887.455	2.658
891.255	13.65
895.054	9.762
898.85	6.554
902.645	3.286
906.438	0.675
910.229	15.857
914.018	16.316
917.805	7.296
921.59	37.016
925.374	15.263
929.156	37.439
932.936	23.548
936.714	18.601
940.49	35.594
944.264	36.65
948.037	21.439
951.808	6.291
955.577	49.108
959.344	43.893
963.109	74.645
966.872	64.364
970.634	87.047
974.394	134.699
978.152	181.106
981.908	175.344
985.663	191.176
989.415	219.995
993.166	271.437
996.915	268.307
1000.66	309.937
1004.41	312.756
1008.15	341.532
1011.89	367.953
1015.63	358.329
1019.37	408.043
1023.11	425.358
1026.84	395.126
1030.57	393.222
1034.31	373.977
1038.03	434.218
1041.76	419.268
1045.49	396.365
1049.21	421.334
1052.93	468.325
1056.65	432.402
1060.37	386.58
1064.09	426.838
1067.8	467.785
1071.52	466.18
1075.23	556.357
1078.94	598.245
1082.64	625.751
1086.35	696.058
1090.05	764.459
1093.76	801.16
1097.46	890.194
1101.16	924.556
1104.85	981.024
1108.55	979.463
1112.24	979.313
1115.93	980.997
1119.62	985.69
1123.31	1006.74
1127	960.558
1130.68	969.358
1134.37	962.427
1138.05	860.567
1141.72	806.883
1145.4	817.52
1149.08	747.39
1152.75	699.275
1156.42	637.333
1160.1	570.368
1163.76	477.868
1167.43	382.323
1171.1	321.022
1174.76	293.116
1178.42	250.371
1182.08	228.165
1185.74	189.135
1189.4	161.849
1193.05	126.15
1196.7	113.712
1200.36	56.323
1204.01	66.677
1207.65	48.094
1211.3	53.214
1214.94	5.446
1218.59	32.324
1222.23	32.509
1225.87	18.043
1229.5	4.24
1233.14	24.503
1236.77	12.751
1240.41	28.82
1244.04	23.024
1247.66	30.086
1251.29	13.927
1254.92	18.049
1258.54	21.957
1262.16	19.808
1265.78	3.363
1269.4	17.436
1273.02	25.173
1276.63	13.062
1280.25	6.265
1283.86	21.69
1287.47	2.587
1291.08	35.093
1294.68	3.567
1298.29	16.757
1301.89	15.971
1305.49	17.12
1309.09	60.203
1312.69	37.213
1316.29	27.152
1319.88	37.033
1323.47	12.138
1327.06	22.394
1330.65	11.26
1334.24	7.167
1337.83	37.341
1341.41	24.802
1344.99	15.173
1348.57	13.968
1352.15	5.88
1355.73	14.958
1359.31	3.61
1362.88	27.509
1366.45	14.562
1370.02	49.554
1373.59	12.402
1377.16	11.191
1380.73	27.569
1384.29	58.482
1387.85	16.924
1391.41	31.985
1394.97	45.75
1398.53	54.614
1402.09	56.237
1405.64	67.823
1409.19	75.355
1412.74	59.908
1416.29	30.368
1419.84	62.171
1423.38	57.393
1426.93	26.587
1430.47	45.399
1434.01	38.725
1437.55	12.899
1441.09	40.573
1444.62	27.652
1448.16	51.564
1451.69	82.976
1455.22	52.737
1458.75	34.852
1462.28	29.929
1465.8	48.834
1469.33	29.208
1472.85	41.011
1476.37	39.048
1479.89	8.839
1483.4	26.858
1486.92	74.872
1490.43	31.842
1493.95	35.801
1497.46	23.061
1500.97	45.285
1504.47	47.102
1507.98	50.209
1511.48	34.016
1514.99	0.122
