Measurement: Raman, 514 nm, ccw, Raman Data Processed
Mineral: Stilbite-Ca
Rruff sample: R050012
Ideal chemistry: NaCa_4_(Si_27_Al_9_)O_72_28H_2_O
Locality: Harborville, Nova Scotia, Canada
Source: University of Arizona Mineral Museum
Description: Globular aggregate of thin tabular white single crystals
Measured chemistry: (Na_1.50_K_0.03_)_Σ=1.53_Ca_4.15_(Si_26.17_Al_9.83_)O_72_·27.91H_2_O; H_2_O estimated by difference
Pin_id: M00431
Orientation: Laser parallel to -b* (0 -1 0). Fiducial mark perpendicular to laser is parallel to c [0 0 1]
Raman shift (cm-1)	intensity
84.264	0
88.463	272.352
92.661	776.076
96.856	1610.75
101.049	2283.96
105.24	3300.5
109.429	4173.74
113.616	5332.97
117.8	5505.52
121.983	5694.22
126.163	5665.56
130.342	5372.14
134.518	4922.47
138.692	4582.73
142.864	3990.16
147.034	3637.04
151.201	3535.49
155.367	3097.29
159.53	2731.99
163.692	2315.61
167.851	1869.93
172.008	1547.53
176.163	1118.65
180.316	887.326
184.467	639.563
188.616	462.287
192.762	318.956
196.907	98.161
201.049	38.438
205.189	47.524
209.328	242.544
213.464	247.497
217.598	149.248
221.73	117.016
225.86	170.072
229.988	68.348
234.113	22.204
238.237	59.13
242.359	180.415
246.478	107.072
250.595	213.163
254.711	335.136
258.824	410.238
262.935	483.932
267.044	704.084
271.151	923.011
275.256	1143.32
279.359	1350.89
283.46	1320.39
287.559	1445.34
291.656	1318.79
295.75	1187.02
299.843	1152.31
303.933	1046.62
308.022	967.581
312.108	998.921
316.193	1041.48
320.275	924.147
324.355	870.118
328.434	823.803
332.51	749.562
336.584	696.613
340.656	710.125
344.726	735.248
348.794	847.041
352.86	855.941
356.924	1090.94
360.986	1298.11
365.046	1520.79
369.104	1858.14
373.159	2293.48
377.213	2815.38
381.265	3446.22
385.315	4517.14
389.362	5892.03
393.408	7731.89
397.451	9969.15
401.493	12395.3
405.533	14674.3
409.57	14552.5
413.606	13012.6
417.639	10492.9
421.671	8391.92
425.7	6895.6
429.728	5667.85
433.753	4901.08
437.777	4444.22
441.798	4446.7
445.818	4518.52
449.835	5019.7
453.851	5550.28
457.864	5430.28
461.876	4679.72
465.885	3608.62
469.893	2825.01
473.898	2348.92
477.902	2425.96
481.903	3028.55
485.903	4376.16
489.9	6211.8
493.896	7486.57
497.889	6610.99
501.881	4264.95
505.87	2517.09
509.858	1462.06
513.844	766.176
517.827	520.282
521.809	307.896
525.789	212.735
529.766	166.423
533.742	73.772
537.716	59.497
541.688	70.938
545.657	44.649
549.625	87.981
553.591	93.834
557.555	1.394
561.517	6.584
565.477	19.672
569.435	92.426
573.391	77.812
577.345	202.73
581.297	220.878
585.248	231.946
589.196	419.542
593.142	492.952
597.086	568.327
601.029	779.526
604.969	851.188
608.908	1019.27
612.844	994.938
616.779	1143.38
620.712	1204.62
624.642	1311.65
628.571	1129.45
632.498	879.09
636.423	785.65
640.346	723.034
644.267	757.194
648.186	712.134
652.103	557.86
656.019	384.377
659.932	295.893
663.843	171.412
667.753	146.016
671.66	30.248
675.566	59.275
679.47	59.062
683.372	69.352
687.271	19.61
691.169	3.97
695.065	3.629
698.96	9.991
702.852	24.798
706.742	26.964
710.631	50.79
714.517	5.728
718.402	46.317
722.284	14.191
726.165	162.884
730.044	107.992
733.921	35.43
737.796	30.848
741.669	89.674
745.54	102.284
749.41	100.61
753.277	128.753
757.143	101.833
761.006	133.968
764.868	154.255
768.728	196.189
772.586	283.671
776.442	304.222
780.297	336.756
784.149	444.003
787.999	592.951
791.848	564.226
795.695	526.077
799.54	349.071
803.382	289.616
807.224	250.258
811.063	227.513
814.9	181.657
818.736	107.955
822.569	126.281
826.401	115.272
830.231	105.275
834.059	110.588
837.885	54.258
841.709	144.969
845.532	170.146
849.352	134.728
853.171	235.64
856.988	272.792
860.803	266.259
864.616	185.049
868.427	142.7
872.236	67.51
876.044	86.151
879.849	115.205
883.653	100.635
887.455	25.93
891.255	63.107
895.054	49.099
898.85	185.939
902.645	49.936
906.438	48.951
910.229	4.441
914.018	0.283
917.805	8.985
921.59	46.773
925.374	65.232
929.156	23.064
932.936	28.264
936.714	75.713
940.49	62.006
944.264	44.298
948.037	67.938
951.808	84.458
955.577	3.877
959.344	70.19
963.109	26.396
966.872	85.287
970.634	73.616
974.394	80.875
978.152	14.034
981.908	162.058
985.663	121.901
989.415	223.863
993.166	359.013
996.915	471.654
1000.66	754.263
1004.41	453.021
1008.15	397.768
1011.89	377.518
1015.63	500.27
1019.37	506.838
1023.11	678.179
1026.84	583.412
1030.57	553.562
1034.31	553.548
1038.03	582.554
1041.76	650.767
1045.49	587.599
1049.21	534.868
1052.93	525.001
1056.65	613.067
1060.37	596.263
1064.09	662.88
1067.8	727.218
1071.52	768.724
1075.23	931.468
1078.94	1038.56
1082.64	1166.53
1086.35	1293.31
1090.05	1428.91
1093.76	1485.26
1097.46	1629.94
1101.16	1648.96
1104.85	1717.39
1108.55	1832.64
1112.24	1862.48
1115.93	1955.47
1119.62	1934.11
1123.31	1961.14
1127	1875.73
1130.68	1773.38
1134.37	1782.46
1138.05	1811.82
1141.72	1830.18
1145.4	1959.74
1149.08	1913.01
1152.75	1656.28
1156.42	1447.56
1160.1	1242.79
1163.76	989.005
1167.43	832.203
1171.1	684.389
1174.76	623.564
1178.42	488.729
1182.08	465.368
1185.74	231.869
1189.4	181.099
1193.05	150.5
1196.7	199.886
1200.36	122.102
1204.01	32.262
1207.65	74.159
1211.3	79.007
1214.94	15.407
1218.59	28.9
1222.23	60.146
1225.87	240.143
1229.5	215.055
1233.14	202.994
1236.77	200.151
1240.41	57.183
1244.04	40.21
1247.66	23.777
1251.29	4.573
1254.92	74.769
1258.54	45.731
1262.16	91.043
1265.78	167.969
1269.4	265.509
1273.02	157.586
1276.63	6.194
1280.25	45.808
1283.86	81.658
1287.47	12.527
1291.08	205.157
1294.68	201.78
1298.29	165.217
1301.89	282.531
1305.49	256.792
1309.09	168.021
1312.69	221.221
1316.29	84.387
1319.88	153.509
1323.47	76.583
1327.06	62.575
1330.65	105.426
1334.24	81.213
1337.83	137.933
1341.41	103.581
1344.99	64.809
1348.57	16.715
1352.15	61.364
1355.73	74.021
1359.31	48.284
1362.88	208.779
1366.45	249.911
1370.02	221.182
1373.59	149.082
1377.16	18.354
1380.73	116.143
1384.29	78.479
1387.85	118.082
1391.41	138.408
1394.97	44.901
1398.53	144.728
1402.09	160.977
1405.64	163.511
1409.19	126.613
1412.74	145.595
1416.29	8.377
1419.84	45.618
1423.38	88.583
1426.93	70.632
1430.47	255.528
1434.01	445.267
1437.55	556.929
1441.09	762.823
1444.62	785.699
1448.16	750.229
1451.69	791.624
1455.22	751.299
1458.75	625.729
1462.28	546.804
1465.8	326.19
1469.33	365
1472.85	389.331
1476.37	454.817
1479.89	377.755
1483.4	296.881
1486.92	317.031
1490.43	253.06
1493.95	128.223
1497.46	50.744
1500.97	17.707
1504.47	17.943
1507.98	14.952
1511.48	39.684
1514.99	156.49
1518.49	98.565
