Measurement: Raman, 514.5, ccw, Raman Data Processed
Mineral: Strontiohurlbutite
Rruff sample: R141104
Ideal chemistry: SrBe_2_(PO_4_)_2_
Locality: Nanping No. 31 pegmatite, Fujian province, southeastern China
Source: Can Rao
Description: Light blue platy subhedral-to-anhedral crystals. Associated with quartz, muscovite, beryl, hurlbutite, hydroxylherderite, apatite-group minerals,  and phenakite. Data from Rao et al (2014)
Measured chemistry: (Sr_0.81_Ca_0.05_Ba_0.01_)_Î£=0.87_Be_2.02_P_2.05_O_8_; Be content determined using SIMS with a CamecaIMS-4F ion microprobe
Raman shift (cm-1)	intensity
108.85	0
113.01	182.407
117.17	85.424
121.34	3.04725
125.5	12.779
129.66	295.812
133.82	547.736
137.98	721.593
142.14	862.001
146.3	1550.61
150.46	1787.98
154.62	1064.13
158.78	544.884
162.94	591.435
167.1	1051.1
171.26	2039.68
175.42	4320.38
179.58	3134.9
183.74	1161.15
187.9	406.004
192.07	464.791
196.23	613.261
200.39	3345.13
204.55	8151.42
208.71	1885.18
212.87	217.01
217.03	195.149
221.19	3.89083
225.35	5.0603
229.51	6.68118
233.67	247.876
237.83	1015.05
241.99	1216.69
246.15	2073.17
250.31	947.956
254.47	411.38
258.63	732.62
262.8	463.965
266.96	8.08572
271.12	5.31758
275.28	4.57951
279.44	426.503
283.6	885.374
287.76	158.865
291.92	6.11069
296.08	0.239264
300.24	0.052321
304.4	1.12149
308.56	0.583508
312.72	3.58932
316.88	0.46103
321.04	339.776
325.2	1403.35
329.36	2692.48
333.53	2108.14
337.69	2785.64
341.85	5101.58
346.01	3491.75
350.17	1110.52
354.33	414.151
358.49	193.365
362.65	42.9635
366.81	0.460403
370.97	0.281659
375.13	0.477272
379.29	0.0181
383.45	48.6739
387.61	314.591
391.77	1370.85
395.93	1457.05
400.09	233.071
404.26	2.3034
408.42	42.1859
412.58	341.303
416.74	1404.47
420.9	3784.79
425.06	2195.13
429.22	677.549
433.38	1259.1
437.54	3364.88
441.7	5386.55
445.86	2374.54
450.02	209.533
454.18	3.19958
458.34	2.97576
462.5	2.82213
466.66	466.436
470.82	353.002
474.99	0.173146
479.15	0.107602
483.31	0.074223
487.47	811.731
491.63	2738.6
495.79	1592.08
499.95	27.8094
504.11	8.02916
508.27	0.268511
512.43	0.096337
516.59	169.212
520.75	0.18937
524.91	41.5825
529.07	1498.22
533.23	1296.95
537.39	958.331
541.55	1520.25
545.72	3852.91
549.88	9523.42
554.04	5848.18
558.2	1462.22
562.36	939.688
566.52	1927.45
570.68	4495.1
574.84	11750.7
579	6972.7
583.16	4166.85
587.32	6974.35
591.48	3378.79
595.64	865.77
599.8	590.561
603.96	2398.88
608.12	1157.54
612.28	127.144
616.45	49.2393
620.61	23.5716
624.77	2.95471
628.93	0.464181
633.09	1.83728
637.25	3.59955
641.41	4.09109
645.57	0.201763
649.73	4.51204
653.89	0.069563
658.05	4.40737
662.21	0.067029
666.37	0.057287
670.53	167.761
674.69	119.66
678.85	322.931
683.01	515.855
687.18	853.415
691.34	908.21
695.5	784.117
699.66	726.972
703.82	661.719
707.98	760.174
712.14	746.056
716.3	552.168
720.46	770.409
724.62	712.234
728.78	534.31
732.94	530.913
737.1	634.873
741.26	672.964
745.42	881.346
749.58	940.99
753.74	1159
757.9	938.154
762.07	1164.22
766.23	1242.37
770.39	1183.73
774.55	1274.39
778.71	1238.14
782.87	1158.22
787.03	1268.69
791.19	1088.15
795.35	1125.04
799.51	1118.85
803.67	1155.99
807.83	1010.64
811.99	835.884
816.15	592.629
820.31	604.068
824.47	517.749
828.63	412.876
832.8	292.318
836.96	161.073
841.12	126.098
845.28	180.232
849.44	134.671
853.6	308.606
857.76	408.113
861.92	265.775
866.08	129.52
870.24	136.233
874.4	4.03018
878.56	2.8548
882.72	2.18769
886.88	0.09579
891.04	4.45835
895.2	4.08695
899.36	0.114999
903.53	4.72881
907.69	0.245018
911.85	6.2417
916.01	6.5639
920.17	6.84774
924.33	2.73913
928.49	5.73647
932.65	7.93255
936.81	0.932205
940.97	6.87793
945.13	0.843405
949.29	5.19779
953.45	197.612
957.61	355.154
961.77	355.795
965.93	754.627
970.09	693.268
974.26	604.708
978.42	1029.58
982.58	1559.84
986.74	2055.76
990.9	2957.7
995.06	4384.59
999.22	6473.88
1003.3	10094.7
1007.5	15654.6
1011.7	24560.2
1015.8	37092.3
1020	50358.5
1024.1	51105.4
1028.3	34619.4
1032.5	20627
1036.6	14177.8
1040.8	11059.5
1044.9	7564.49
1049.1	5507.87
1053.3	5253.91
1057.4	3913.32
1061.6	3332.57
1065.7	2342.54
1069.9	1792.13
1074.1	2908.97
1078.2	3075.07
1082.4	2078.52
1086.5	1287.58
1090.7	1364.2
1094.9	2188.06
1099	2797.37
1103.2	1028.26
1107.3	507.131
1111.5	763.386
1115.7	1176.59
1119.8	604.644
1124	147.46
1128.2	475.376
1132.3	2168.29
1136.5	2629.23
1140.6	598.966
1144.8	311.03
1149	546.346
1153.1	532.978
1157.3	551.78
1161.4	29.2321
1165.6	1.00225
1169.8	271.494
1173.9	1219.88
1178.1	2477.93
1182.2	1595.56
1186.4	84.8097
1190.6	40.782
1194.7	53.4216
1198.9	58.5608
1203	48.4823
1207.2	87.3341
1211.4	97.6926
1215.5	59.8339
1219.7	58.1074
1223.8	45.5446
1228	27.1165
1232.2	19.6366
1236.3	29.3537
1240.5	13.3461
1244.6	5.7792
1248.8	2.31167
1253	1.20179
1257.1	0.654128
1261.3	0.819541
1265.5	0.199001
1269.6	0.391746
1273.8	1.29191
1277.9	1.11958
1282.1	7.8519
1286.3	3.07899
1290.4	3.25216
1294.6	4.00898
1298.7	4.44237
1302.9	4.15808
1307.1	0.411234
1311.2	4.69154
1315.4	7.1339
1319.5	0.421928
1323.7	4.37379
1327.9	0.289291
1332	10.1388
1336.2	2.65721
1340.3	11.9308
1344.5	7.22311
1348.7	0.247672
1352.8	1.0029
1357	14.1633
1361.1	1.63988
1365.3	2.40787
1369.5	12.9942
1373.6	180.244
