Measurement: Raman, 514 nm, ccw, Raman Data Processed
Mineral: Strontianite
Rruff sample: R040037
Ideal chemistry: SrCO_3_
Locality: Alston Moor, Cumbria, England
Source: University of Arizona Mineral Museum
Description: Group of tan colored crystals
Measured chemistry: (Sr_0.91_Ca_0.09_)_Î£=1_CO_3_; CO_2_ estimated by difference
Pin_id: L00367
Orientation: Laser parallel to -a* (-1 0 0). Fiducial mark perpendicular to laser is parallel to -b [0 -1 0]
Raman shift (cm-1)	intensity
91.981	0
96.161	36.132
100.34	282.883
104.516	536.865
108.691	455.662
112.864	593.024
117.034	805.875
121.203	706.56
125.369	889.75
129.534	1229.76
133.696	2133.55
137.857	3881.58
142.016	8104.2
146.172	15912.3
150.327	19852.5
154.48	10806.2
158.63	4686.36
162.779	2560.47
166.926	1907.1
171.07	1924.11
175.213	2993.41
179.354	4812.26
183.493	5753.89
187.63	3751.97
191.765	1642.67
195.898	884.158
200.029	647.666
204.158	343.809
208.285	225.221
212.41	226.92
216.533	443.323
220.654	335.911
224.773	164.125
228.891	111.633
233.006	293.577
237.119	533.426
241.231	665.073
245.34	787.78
249.448	746.361
253.553	487.5
257.657	303.235
261.758	234.731
265.858	241.194
269.956	45.48
274.052	19.468
278.146	52.831
282.237	23.35
286.327	106.236
290.416	65.27
294.502	21.844
298.586	44.961
302.668	23.545
306.749	21.119
310.827	10.449
314.903	23.324
318.978	73.238
323.051	29.337
327.121	67.185
331.19	6.387
335.257	30.891
339.322	14.009
343.385	65.079
347.446	38.944
351.505	18.898
355.563	27.217
359.618	51.215
363.672	13.881
367.723	43.587
371.773	74.63
375.821	108.481
379.866	17.336
383.91	57.282
387.952	129
391.992	83.35
396.031	6.517
400.067	119.445
404.101	198.399
408.134	80.328
412.165	165.935
416.193	79.036
420.22	23.39
424.245	82.44
428.268	237.021
432.289	70.228
436.309	164.624
440.326	124.522
444.342	150.213
448.355	164.239
452.367	188.441
456.377	183.728
460.385	114.338
464.391	105.624
468.395	117.46
472.398	81.804
476.398	97.2
480.397	42.768
484.394	69.328
488.389	88.178
492.382	95.405
496.373	63.023
500.362	79.455
504.349	84.2
508.335	107.678
512.319	88.655
516.3	81.295
520.28	70.69
524.259	38.603
528.235	112.352
532.209	28.429
536.182	176.374
540.152	73.898
544.121	24.39
548.088	98.814
552.053	115.42
556.017	168.014
559.978	153.298
563.938	60.601
567.895	74.818
571.851	2.668
575.805	8.185
579.758	6.016
583.708	61.095
587.657	109.043
591.603	48.353
595.548	129.646
599.491	74.811
603.432	67.188
607.372	69.577
611.309	45.666
615.245	122.704
619.179	139.695
623.111	179.695
627.041	60.11
630.97	73.1
634.896	149.89
638.821	101.433
642.744	101.514
646.665	105.353
650.584	130.218
654.502	123.611
658.418	32.731
662.331	148.777
666.244	12.906
670.154	38.117
674.062	22.327
677.969	118.857
681.874	153.508
685.777	159.528
689.678	152.725
693.577	350.229
697.475	1651.83
701.371	1528.93
705.265	806.185
709.157	185.354
713.047	340.77
716.936	72.009
720.823	141.873
724.708	30.875
728.591	84.057
732.472	111.381
736.352	19.031
740.23	65.571
744.106	86.499
747.98	139.086
751.853	68.259
755.723	119.01
759.592	62.041
763.459	120.425
767.325	150.485
771.188	82.396
775.05	33.637
778.91	91.834
782.768	112.241
786.625	94.869
790.479	65.273
794.332	0.524
798.183	35.628
802.033	128.735
805.88	61.889
809.726	53.267
813.57	4.257
817.413	47.89
821.253	82.907
825.092	32.155
828.929	52.559
832.764	5.629
836.598	159.866
840.429	68.922
844.259	47.32
848.088	120.983
851.914	92.359
855.739	257.215
859.562	86.926
863.383	22.311
867.203	156.638
871.02	55.745
874.836	35.643
878.65	145.505
882.463	43.665
886.274	167.572
890.083	42.073
893.89	115.943
897.695	37.139
901.499	120.098
905.301	13.851
909.102	144.752
912.9	158.041
916.697	171.521
920.492	38.603
924.285	125.68
928.077	126.595
931.867	82.013
935.655	95.511
939.442	78.892
943.226	141.157
947.009	336.774
950.791	218.787
954.57	18.291
958.348	219.187
962.124	129.529
965.899	4.635
969.671	23.263
973.442	121.716
977.211	115.202
980.979	166.266
984.745	96.367
988.509	18.975
992.271	97.497
996.032	236.787
999.791	5.241
1003.55	114.229
1007.3	219.562
1011.06	162.209
1014.81	161.956
1018.56	191.435
1022.31	257.594
1026.06	122.031
1029.8	277.281
1033.55	254.48
1037.29	321.793
1041.03	253.925
1044.77	187.941
1048.5	354.096
1052.24	562.565
1055.97	377.154
1059.7	407.395
1063.43	551.739
1067.16	1414.86
1070.89	8474.36
1074.61	45811.6
1078.34	5468.26
1082.06	945.583
1085.78	432.628
1089.5	296.567
1093.21	184.986
1096.93	157.78
1100.64	260.474
1104.35	57.138
1108.06	184.857
1111.77	132.964
1115.48	108.379
1119.18	40.795
1122.89	110.311
1126.59	7.11
1130.29	86.267
1133.99	101.782
1137.68	103.946
1141.38	156.689
1145.07	15.573
1148.76	54.195
1152.45	117.861
1156.14	170.345
1159.83	66.268
1163.51	129.16
1167.19	15
1170.88	54.895
1174.56	152.837
1178.23	50.98
1181.91	98.437
1185.59	110.804
1189.26	117.642
1192.93	179.858
1196.6	186.727
1200.27	225.533
1203.94	81.828
1207.6	194.699
1211.27	207.486
1214.93	148.877
1218.59	321.746
1222.25	225.594
1225.9	250.149
1229.56	341.606
1233.21	101.263
1236.86	164.897
1240.51	268.781
1244.16	252.284
1247.81	231.689
1251.45	114.71
1255.1	260.537
1258.74	295.691
1262.38	182.615
1266.02	123.642
1269.66	246.09
1273.29	175.928
1276.93	187.642
1280.56	127.196
1284.19	115.728
1287.82	5.01
1291.45	106.691
1295.07	34.726
1298.7	83.4
1302.32	110.84
1305.94	69.564
1309.56	38.838
1313.18	25.194
1316.8	73.312
1320.41	20.982
1324.02	60.537
1327.63	47.727
1331.24	50.729
1334.85	49.678
1338.46	225.518
1342.06	27.617
1345.67	162.188
1349.27	297.131
1352.87	97.391
1356.47	11.594
1360.07	74.48
1363.66	187.914
1367.25	186.348
1370.85	108.186
1374.44	217.898
1378.03	200.666
1381.61	193.475
1385.2	297.602
1388.78	242.033
1392.37	149.689
1395.95	262.229
1399.53	383.783
1403.1	248.236
1406.68	295.334
1410.26	428.555
1413.83	247.223
1417.4	369.846
1420.97	216.541
1424.54	332.863
1428.1	296.107
1431.67	265.447
1435.23	254.646
1438.8	406.238
1442.36	431.639
1445.91	644.387
1449.47	1574.38
1453.03	971.479
1456.58	346.572
1460.13	389.129
1463.68	274.859
1467.23	583.201
1470.78	370.932
1474.33	506.34
1477.87	310.111
1481.42	426.141
1484.96	259.5
1488.5	195.416
1492.04	225.32
1495.57	294.322
1499.11	342.664
1502.64	139.861
1506.17	213.984
1509.71	162.629
1513.23	211.004
1516.76	205.564
1520.29	323.064
1523.81	0.875
