Measurement: Raman, 514 nm, ccw, Raman Data Processed
Mineral: Strontianite
Rruff sample: R040037
Ideal chemistry: SrCO_3_
Locality: Alston Moor, Cumbria, England
Source: University of Arizona Mineral Museum
Description: Group of tan colored crystals
Measured chemistry: (Sr_0.91_Ca_0.09_)_Î£=1_CO_3_; CO_2_ estimated by difference
Pin_id: L00091
Orientation: Laser parallel to -b* (0 -1 0). Fiducial mark perpendicular to laser is parallel to -c [0 0 -1]
Raman shift (cm-1)	intensity
85.009	0
89.193	52.23
93.375	92.133
97.554	308.983
101.732	833.719
105.908	612.796
110.082	650.254
114.254	994.694
118.424	517.703
122.592	228.377
126.758	236.889
130.922	240.007
135.083	344.062
139.243	505.263
143.401	813.41
147.557	1189.13
151.711	860.644
155.863	702.429
160.013	743.892
164.161	662.021
168.308	823.729
172.452	1263.36
176.594	1400.03
180.734	1783.86
184.872	1695.98
189.008	809.636
193.143	388.723
197.275	145.031
201.405	124.441
205.534	167.207
209.66	108.704
213.784	64.457
217.907	21.337
222.027	71.927
226.146	25.672
230.263	61.745
234.377	171.21
238.49	275.873
242.601	362.89
246.709	670.685
250.816	770.638
254.921	567.042
259.024	529.599
263.125	452.935
267.224	270.584
271.321	98.722
275.416	129.539
279.51	54.671
283.601	51.927
287.69	2.495
291.778	31.716
295.863	62.947
299.947	64.304
304.029	49.861
308.108	33.548
312.186	12.615
316.262	33.341
320.336	13.379
324.408	22.144
328.478	5.934
332.546	5.185
336.612	13.127
340.677	27.073
344.739	16.674
348.799	21.657
352.858	14.51
356.915	53.322
360.969	36.673
365.022	66.348
369.073	75.597
373.122	52.807
377.169	41.01
381.215	21.91
385.258	53.441
389.299	57.685
393.339	8.759
397.376	22.8
401.412	7.019
405.446	33.303
409.478	3.247
413.508	122.154
417.536	23.145
421.562	1.015
425.586	57.053
429.609	49.791
433.629	29.868
437.648	92.938
441.665	5.708
445.68	55.156
449.693	15.574
453.704	43.974
457.713	71.329
461.721	122.552
465.726	61.132
469.73	52.73
473.731	22.668
477.731	71.421
481.729	79.34
485.725	31.175
489.72	54.162
493.712	1.943
497.703	45.999
501.691	76.901
505.678	46.553
509.663	19.314
513.646	27.749
517.627	75.908
521.607	19.816
525.584	52.518
529.56	71.346
533.534	57.844
537.506	45.701
541.476	56.456
545.444	75.197
549.41	97.89
553.375	51.521
557.337	45.672
561.298	58.159
565.257	49.153
569.214	94.031
573.17	113.837
577.123	4.619
581.075	44.291
585.024	27.383
588.972	130.53
592.918	74.499
596.863	65.282
600.805	36.362
604.746	57.004
608.685	72.68
612.621	9.854
616.557	80.885
620.49	7.438
624.421	62.168
628.351	75.317
632.279	77.077
636.205	23.47
640.129	77.546
644.051	37.307
647.972	46.269
651.89	104.828
655.807	11.61
659.722	87.529
663.636	120.585
667.547	57.057
671.457	62.935
675.365	60.117
679.271	102.245
683.175	135.59
687.077	111.931
690.978	349.155
694.877	1696.46
698.774	2799.57
702.669	1140.36
706.562	329.387
710.454	164.478
714.344	186.578
718.232	133.288
722.118	99.735
726.002	44.487
729.885	143.437
733.766	24.62
737.645	2.789
741.522	26.759
745.397	65.727
749.271	95.293
753.143	134.646
757.013	110.328
760.881	18.234
764.748	50.166
768.613	54.053
772.476	66.189
776.337	31.196
780.196	95.579
784.054	47.017
787.91	92.386
791.764	29.805
795.616	55.541
799.467	10.806
803.316	40.17
807.163	41.979
811.008	12.909
814.851	16.539
818.693	45.773
822.533	95.827
826.371	149.174
830.208	101.509
834.042	86.865
837.875	64.108
841.706	64.48
845.536	2.294
849.363	75.912
853.189	13.141
857.013	45.28
860.836	36.37
864.656	32.428
868.475	69.668
872.292	117.664
876.108	43.086
879.922	55.021
883.733	21.991
887.544	61.238
891.352	24.221
895.159	76.774
898.964	81.511
902.767	122.359
906.568	120.14
910.368	78.913
914.166	105.449
917.962	134.085
921.757	75.828
925.55	65.517
929.341	71.818
933.13	58.334
936.918	83.07
940.703	96.765
944.488	75.145
948.27	43.583
952.051	37.119
955.83	67.455
959.607	102.434
963.383	84.018
967.156	54.145
970.928	12.457
974.699	29.905
978.468	115.717
982.234	30.649
986	88.825
989.763	11.859
993.525	88.082
997.285	84.699
1001.04	30.351
1004.8	47.841
1008.55	89.683
1012.31	112.337
1016.06	118.026
1019.81	51.864
1023.56	182.868
1027.31	121.27
1031.05	107.566
1034.79	126.121
1038.53	188.586
1042.27	208.796
1046.01	256.183
1049.75	422.435
1053.48	397.303
1057.22	334.554
1060.95	419.313
1064.68	992.409
1068.4	4158.06
1072.13	45296.7
1075.86	14340.9
1079.58	1442.86
1083.3	468.33
1087.02	302.869
1090.74	197.442
1094.45	198.946
1098.17	134.835
1101.88	167.156
1105.59	52.305
1109.3	45.95
1113.01	130.162
1116.71	73.531
1120.42	101.325
1124.12	156.119
1127.82	21.499
1131.52	24.94
1135.22	117.08
1138.91	9.797
1142.61	15.583
1146.3	103.452
1149.99	54.073
1153.68	3.27
1157.37	48.853
1161.06	46.012
1164.74	73.493
1168.42	33.087
1172.1	11.149
1175.78	13.587
1179.46	26.637
1183.14	73.103
1186.81	141.407
1190.48	36.072
1194.15	183.271
1197.83	79.775
1201.49	203.46
1205.16	132.418
1208.82	159.038
1212.49	96.791
1216.15	17.408
1219.81	21.278
1223.46	150.134
1227.12	8.245
1230.78	116.652
1234.43	103.717
1238.08	87.116
1241.73	140.656
1245.38	72.978
1249.03	209.184
1252.67	118.732
1256.31	24.768
1259.95	37.229
1263.6	40.075
1267.23	132.8
1270.87	77.389
1274.51	28.054
1278.14	43.652
1281.77	94.587
1285.4	68.401
1289.03	61.17
1292.66	85.774
1296.28	32.835
1299.91	18.31
1303.53	49.104
1307.15	105.241
1310.77	23.246
1314.38	34.559
1318	60.591
1321.61	79.867
1325.23	53.389
1328.84	54.942
1332.45	126.537
1336.06	17.381
1339.66	51.037
1343.27	63.815
1346.87	100.987
1350.47	86.578
1354.07	148.211
1357.67	140.768
1361.26	89.629
1364.86	13.926
1368.45	199.435
1372.04	22.707
1375.63	89.644
1379.22	156.078
1382.81	78.711
1386.39	42.074
1389.98	210.597
1393.56	144.071
1397.14	87.469
1400.72	48.734
1404.3	117.575
1407.87	187.688
1411.45	151.457
1415.02	112.158
1418.59	189.093
1422.16	178.618
1425.73	186.322
1429.29	163.552
1432.86	144.194
1436.42	273.188
1439.98	334.855
1443.54	256.369
1447.1	347.998
1450.66	351.482
1454.21	255.113
1457.77	273.401
1461.32	176.244
1464.87	136.389
1468.42	69.698
1471.96	88.456
1475.51	88.119
1479.06	85.145
1482.6	66.898
1486.14	145.576
1489.68	83.319
1493.22	167.311
1496.75	64.708
1500.29	30.756
1503.82	8.362
1507.35	113.551
1510.88	75.249
1514.41	16.455
1517.94	10.038
1521.46	0
