Measurement: Raman, 514 nm, ccw, Raman Data Processed
Mineral: Strontianite
Rruff sample: R040037
Ideal chemistry: SrCO_3_
Locality: Alston Moor, Cumbria, England
Source: University of Arizona Mineral Museum
Description: Group of tan colored crystals
Measured chemistry: (Sr_0.91_Ca_0.09_)_Î£=1_CO_3_; CO_2_ estimated by difference
Pin_id: L00119
Orientation: Laser parallel to -c* (0 0 -1). Fiducial mark perpendicular to laser is parallel to a [1 0 0]
Raman shift (cm-1)	intensity
87.798	0
91.981	45.615
96.161	320.295
100.34	727.338
104.516	588.873
108.691	776.871
112.864	1138.53
117.034	764.285
121.203	434.006
125.369	366.241
129.534	320.655
133.696	395.13
137.857	457.053
142.016	750.278
146.172	1179.68
150.327	940.266
154.48	758.582
158.63	661.26
162.779	825.228
166.926	921.455
171.07	1344.62
175.213	1581.76
179.354	2205.97
183.493	2553.52
187.63	1504.62
191.765	644.682
195.898	434.236
200.029	230.749
204.158	194.775
208.285	194.512
212.41	183.63
216.533	197.903
220.654	99.312
224.773	168.189
228.891	110.813
233.006	226.951
237.119	249.628
241.231	460.582
245.34	854.238
249.448	900.816
253.553	844.687
257.657	733.117
261.758	753.971
265.858	406.247
269.956	259.901
274.052	108.275
278.146	26.791
282.237	125.391
286.327	55.523
290.416	60.936
294.502	32.507
298.586	16.944
302.668	44.396
306.749	33.143
310.827	3.881
314.903	37.938
318.978	14.981
323.051	0.92
327.121	2.465
331.19	21.477
335.257	67.218
339.322	4.083
343.385	47.333
347.446	10.226
351.505	62.226
355.563	3.783
359.618	17.188
363.672	12.477
367.723	15.692
371.773	19.889
375.821	55.255
379.866	35.338
383.91	12.916
387.952	56.01
391.992	53.872
396.031	96.245
400.067	28.18
404.101	72.053
408.134	3.025
412.165	63.179
416.193	43.954
420.22	36.941
424.245	62.579
428.268	90.219
432.289	79.272
436.309	49.368
440.326	31.493
444.342	15.583
448.355	1.551
452.367	24.075
456.377	21.728
460.385	43.459
464.391	62.513
468.395	26.487
472.398	105.928
476.398	88.722
480.397	151.462
484.394	73.496
488.389	37.158
492.382	100.561
496.373	109.18
500.362	117.096
504.349	127.247
508.335	110.216
512.319	67.054
516.3	138.039
520.28	60.204
524.259	25.223
528.235	103.326
532.209	42.884
536.182	37.737
540.152	88.106
544.121	54.416
548.088	80.688
552.053	52.857
556.017	102.502
559.978	22.727
563.938	68.086
567.895	79.137
571.851	61.922
575.805	89.169
579.758	28.249
583.708	19.688
587.657	136.442
591.603	118.951
595.548	100.852
599.491	155.122
603.432	77.634
607.372	38.936
611.309	71.868
615.245	62.97
619.179	112.932
623.111	63.478
627.041	79.137
630.97	152.921
634.896	10.262
638.821	137.285
642.744	32.175
646.665	105.895
650.584	22.296
654.502	81.915
658.418	99.374
662.331	55.93
666.244	94.301
670.154	49.836
674.062	69.681
677.969	12.93
681.874	203.177
685.777	145.098
689.678	325.16
693.577	1601.8
697.475	3907.87
701.371	2699.74
705.265	627.836
709.157	267.738
713.047	40.869
716.936	85.206
720.823	34.278
724.708	26.79
728.591	10.417
732.472	3.503
736.352	151.754
740.23	41.3
744.106	120.238
747.98	35.501
751.853	36.268
755.723	103.695
759.592	65.957
763.459	62.383
767.325	18.89
771.188	36.229
775.05	65.763
778.91	2.843
782.768	64.983
786.625	16.477
790.479	63.04
794.332	54.875
798.183	33.383
802.033	43.629
805.88	86.393
809.726	5.495
813.57	7.011
817.413	2.485
821.253	37.668
825.092	85.921
828.929	124.659
832.764	90.028
836.598	186.512
840.429	113.491
844.259	110.488
848.088	31.443
851.914	108.267
855.739	127.08
859.562	34.824
863.383	138.8
867.203	93.521
871.02	65.59
874.836	74.712
878.65	70.494
882.463	50.95
886.274	23.229
890.083	66.858
893.89	63.801
897.695	140.865
901.499	172.53
905.301	86.492
909.102	29.202
912.9	95.706
916.697	38.075
920.492	156.825
924.285	97.274
928.077	149.418
931.867	49.292
935.655	41.275
939.442	116.971
943.226	161.751
947.009	185.758
950.791	143.231
954.57	141.709
958.348	82.435
962.124	117.599
965.899	77.712
969.671	115.641
973.442	49.936
977.211	12.025
980.979	16.959
984.745	75.591
988.509	125.93
992.271	82.979
996.032	233.923
999.791	297.359
1003.55	127.964
1007.3	138.732
1011.06	148.312
1014.81	68.001
1018.56	71.843
1022.31	146.178
1026.06	150.854
1029.8	278.69
1033.55	357.729
1037.29	168.091
1041.03	164.03
1044.77	270.519
1048.5	525.951
1052.24	384.108
1055.97	439.582
1059.7	457.167
1063.43	554.947
1067.16	2211.32
1070.89	16901.3
1074.61	34783.2
1078.34	1938.26
1082.06	394.421
1085.78	298.504
1089.5	221.804
1093.21	248.688
1096.93	117.705
1100.64	120.667
1104.35	66.249
1108.06	104.632
1111.77	23.438
1115.48	87.6
1119.18	0.268
1122.89	99.688
1126.59	210.019
1130.29	221.817
1133.99	27.225
1137.68	147.024
1141.38	55.826
1145.07	36.376
1148.76	20.293
1152.45	45.73
1156.14	21.872
1159.83	234.689
1163.51	122.091
1167.19	124.311
1170.88	89.773
1174.56	215.239
1178.23	116.005
1181.91	103.132
1185.59	154.666
1189.26	219.359
1192.93	94.931
1196.6	253.533
1200.27	230.685
1203.94	279.937
1207.6	84.379
1211.27	268.279
1214.93	185.897
1218.59	158.205
1222.25	110.093
1225.9	215.693
1229.56	229.175
1233.21	226.911
1236.86	337.906
1240.51	292.335
1244.16	130.355
1247.81	71.445
1251.45	91.695
1255.1	162.727
1258.74	149.578
1262.38	48.933
1266.02	167.507
1269.66	183.135
1273.29	93.357
1276.93	0.678
1280.56	224.176
1284.19	234.427
1287.82	136.993
1291.45	165.314
1295.07	46.417
1298.7	57.508
1302.32	118.527
1305.94	16.394
1309.56	142.224
1313.18	76.953
1316.8	48.603
1320.41	30.896
1324.02	106.665
1327.63	35.752
1331.24	229.173
1334.85	144.084
1338.46	6.561
1342.06	31.522
1345.67	109.9
1349.27	22.528
1352.87	12.11
1356.47	225.987
1360.07	333.754
1363.66	338.255
1367.25	219.352
1370.85	159.834
1374.44	166.102
1378.03	77.316
1381.61	102.602
1385.2	160.171
1388.78	179.72
1392.37	186.39
1395.95	191.143
1399.53	132.4
1403.1	260.567
1406.68	193.344
1410.26	221.892
1413.83	246.825
1417.4	110.546
1420.97	257.017
1424.54	207.347
1428.1	301.284
1431.67	338.976
1435.23	399.286
1438.8	383.776
1442.36	268.737
1445.91	329.074
1449.47	179.738
1453.03	388.659
1456.58	318.03
1460.13	450.562
1463.68	339.084
1467.23	169.575
1470.78	416.859
1474.33	266.733
1477.87	106.265
1481.42	157.476
1484.96	285.939
1488.5	127.687
1492.04	271.074
1495.57	123.459
1499.11	21.309
1502.64	49.584
1506.17	71.829
1509.71	130.02
1513.23	212.191
1516.76	206.224
1520.29	0
