Measurement: Raman, 514 nm, ccw, Raman Data Processed
Mineral: Strontianite
Rruff sample: R040037
Ideal chemistry: SrCO_3_
Locality: Alston Moor, Cumbria, England
Source: University of Arizona Mineral Museum
Description: Group of tan colored crystals
Measured chemistry: (Sr_0.91_Ca_0.09_)_Î£=1_CO_3_; CO_2_ estimated by difference
Pin_id: L00119
Orientation: Laser parallel to -c* (0 0 -1). Fiducial mark perpendicular to laser is parallel to a [1 0 0]
Raman shift (cm-1)	intensity
93.375	0
97.554	134.958
101.732	343.209
105.908	337.51
110.082	412.258
114.254	564.093
118.424	234.603
122.592	208.08
126.758	228.902
130.922	258.008
135.083	316.527
139.243	309.739
143.401	443.068
147.557	628.194
151.711	450.932
155.863	348.479
160.013	302.524
164.161	421.647
168.308	581.684
172.452	866.5
176.594	1211.03
180.734	2250.59
184.872	2706.3
189.008	1363.41
193.143	637.192
197.275	341.162
201.405	220.818
205.534	192.287
209.66	182.376
213.784	106.278
217.907	97.421
222.027	84.425
226.146	56.839
230.263	35.445
234.377	129.152
238.49	112.042
242.601	322.701
246.709	510.636
250.816	581.6
254.921	599.085
259.024	892.359
263.125	823.298
267.224	400.795
271.321	245.818
275.416	193.228
279.51	90.055
283.601	50.218
287.69	40.279
291.778	8.876
295.863	13.4
299.947	38.217
304.029	24.065
308.108	61.076
312.186	4.671
316.262	6.191
320.336	12.495
324.408	29.648
328.478	51.656
332.546	11.103
336.612	45.708
340.677	31.961
344.739	13.708
348.799	39.239
352.858	20.868
356.915	18.396
360.969	57.432
365.022	67.41
369.073	38.929
373.122	1.586
377.169	55.212
381.215	8.587
385.258	31.517
389.299	42.929
393.339	38.257
397.376	23.989
401.412	39.15
405.446	13.822
409.478	67.499
413.508	34.935
417.536	34.157
421.562	12.928
425.586	27.07
429.609	13.482
433.629	8.308
437.648	57.849
441.665	20.352
445.68	71.305
449.693	29.836
453.704	14.176
457.713	23.467
461.721	51.986
465.726	43.937
469.73	173.379
473.731	112.68
477.731	110.537
481.729	66.261
485.725	112.619
489.72	8.723
493.712	14.91
497.703	59.081
501.691	22.777
505.678	102.778
509.663	87.277
513.646	93.074
517.627	40.891
521.607	83.932
525.584	86.76
529.56	104.368
533.534	18.354
537.506	39.729
541.476	148.453
545.444	92.542
549.41	92.519
553.375	40.425
557.337	67.252
561.298	80.783
565.257	72.662
569.214	54.378
573.17	135.829
577.123	29.148
581.075	25.301
585.024	72.222
588.972	75.959
592.918	57.315
596.863	42.871
600.805	65.869
604.746	132.413
608.685	173.008
612.621	22.787
616.557	124.983
620.49	10.346
624.421	171.361
628.351	31.102
632.279	45.056
636.205	179.288
640.129	115.818
644.051	124.067
647.972	56.278
651.89	171.33
655.807	61.581
659.722	108.984
663.636	149.732
667.547	62.235
671.457	52.772
675.365	96.184
679.271	127.744
683.175	137.744
687.077	88.088
690.978	376.699
694.877	1568.55
698.774	3874.99
702.669	1573.63
706.562	414.041
710.454	105.463
714.344	62.985
718.232	101.056
722.118	132.222
726.002	169.752
729.885	116.19
733.766	60.458
737.645	105.627
741.522	112.024
745.397	76.215
749.271	34.058
753.143	106.007
757.013	158.778
760.881	20.569
764.748	2.061
768.613	59.256
772.476	126.384
776.337	103.325
780.196	104.569
784.054	82.24
787.91	63.856
791.764	29.633
795.616	41.088
799.467	67.9
803.316	108.339
807.163	42.698
811.008	101.495
814.851	60.82
818.693	32.477
822.533	63.086
826.371	20.279
830.208	15.436
834.042	14.696
837.875	155.125
841.706	91.487
845.536	68.894
849.363	65.356
853.189	24.996
857.013	119.072
860.836	128.1
864.656	14.191
868.475	109.085
872.292	60.195
876.108	102.955
879.922	136.451
883.733	26.038
887.544	157.842
891.352	134.215
895.159	58.823
898.964	138.352
902.767	31.804
906.568	120.278
910.368	87.539
914.166	190.313
917.962	99.674
921.757	123.357
925.55	137.173
929.341	128.949
933.13	62.713
936.918	153.389
940.703	39.637
944.488	79.611
948.27	57.197
952.051	86.653
955.83	143.38
959.607	93.55
963.383	125.792
967.156	62.485
970.928	106.938
974.699	185.153
978.468	176.644
982.234	271.494
986	112.459
989.763	54.774
993.525	42.892
997.285	164.356
1001.04	0.501
1004.8	171.7
1008.55	140.838
1012.31	75.288
1016.06	123.062
1019.81	121.039
1023.56	236.372
1027.31	210.37
1031.05	178.444
1034.79	202.141
1038.53	222.502
1042.27	209.175
1046.01	257.323
1049.75	285.966
1053.48	329.572
1057.22	320.674
1060.95	459.311
1064.68	829.478
1068.4	3517.88
1072.13	36030.2
1075.86	12348.3
1079.58	970.054
1083.3	480.708
1087.02	288.211
1090.74	166.193
1094.45	163.284
1098.17	30.523
1101.88	173.178
1105.59	77.312
1109.3	125.778
1113.01	7.21
1116.71	21.767
1120.42	48.221
1124.12	156.748
1127.82	13.224
1131.52	80.23
1135.22	42.704
1138.91	28.803
1142.61	5.624
1146.3	48.207
1149.99	76.689
1153.68	25.023
1157.37	56.151
1161.06	6.061
1164.74	100.36
1168.42	113.622
1172.1	51.821
1175.78	55.099
1179.46	50.349
1183.14	67.778
1186.81	123.226
1190.48	191.721
1194.15	154.365
1197.83	149.724
1201.49	267.79
1205.16	117.282
1208.82	141.255
1212.49	180.412
1216.15	185.675
1219.81	150.895
1223.46	190.925
1227.12	207.899
1230.78	105.573
1234.43	213.617
1238.08	154.429
1241.73	102.113
1245.38	187.74
1249.03	179.09
1252.67	229.051
1256.31	37.451
1259.95	69.343
1263.6	125.726
1267.23	86.305
1270.87	145.098
1274.51	77.616
1278.14	106.623
1281.77	190.161
1285.4	59.691
1289.03	50.186
1292.66	78.309
1296.28	108.64
1299.91	108.339
1303.53	8.95
1307.15	119.727
1310.77	18.273
1314.38	135.17
1318	2.271
1321.61	32.38
1325.23	19.572
1328.84	115.366
1332.45	27.212
1336.06	17.202
1339.66	39.443
1343.27	11.663
1346.87	161.696
1350.47	191.512
1354.07	177.925
1357.67	190.069
1361.26	58.957
1364.86	67.188
1368.45	131.921
1372.04	200.875
1375.63	208.689
1379.22	85.897
1382.81	147.638
1386.39	106.366
1389.98	233.063
1393.56	185.789
1397.14	188.894
1400.72	192.046
1404.3	178.922
1407.87	175.67
1411.45	213.171
1415.02	197.591
1418.59	260.18
1422.16	204.961
1425.73	223.922
1429.29	197.643
1432.86	108.55
1436.42	235.297
1439.98	291.787
1443.54	311.325
1447.1	326.625
1450.66	323.317
1454.21	342.551
1457.77	297.105
1461.32	206.23
1464.87	111.333
1468.42	285.701
1471.96	285.461
1475.51	133.403
1479.06	80.736
1482.6	190.08
1486.14	95.551
1489.68	108.249
1493.22	226.531
1496.75	23.597
1500.29	163.492
1503.82	150.499
1507.35	132.626
1510.88	130.386
1514.41	4.562
1517.94	123.146
1521.46	0
