Measurement: Raman, 514 nm, ccw, Raman Data Processed
Mineral: Strontianite
Rruff sample: R040037
Ideal chemistry: SrCO_3_
Locality: Alston Moor, Cumbria, England
Source: University of Arizona Mineral Museum
Description: Group of tan colored crystals
Measured chemistry: (Sr_0.91_Ca_0.09_)_Î£=1_CO_3_; CO_2_ estimated by difference
Pin_id: L00367
Orientation: Laser parallel to -a* (-1 0 0). Fiducial mark perpendicular to laser is parallel to -b [0 -1 0]
Raman shift (cm-1)	intensity
82.218	0
86.404	0.407
90.587	51.019
94.768	117.109
98.947	183.784
103.124	269.18
107.3	397.678
111.473	763.036
115.644	1268.87
119.813	745.279
123.981	443.6
128.146	443.244
132.309	499.686
136.47	560.631
140.63	773.082
144.787	1132.76
148.942	1586.56
153.096	1235.47
157.247	839.946
161.396	691.859
165.544	743.177
169.689	967.472
173.833	1375.84
177.974	1329.46
182.114	1424.41
186.251	1617.78
190.387	1011.52
194.52	508.25
198.652	347.35
202.782	241.486
206.909	207.37
211.035	207.885
215.159	138.085
219.281	129.432
223.4	123.693
227.518	134.101
231.634	148.598
235.748	178.169
239.86	380.673
243.97	539.107
248.079	936.571
252.185	1053.71
256.289	653.831
260.391	507.172
264.492	447.256
268.59	251.702
272.687	174.216
276.781	114.205
280.874	106.013
284.964	14.806
289.053	34.926
293.14	57.292
297.225	49.898
301.308	19.923
305.389	16.399
309.468	5.581
313.545	19.213
317.62	52.918
321.693	25.671
325.765	31.654
329.834	17.343
333.902	6.359
337.967	28.635
342.031	18.12
346.093	18.964
350.153	20.638
354.21	8.052
358.267	9.511
362.321	20.917
366.373	51.593
370.423	27.337
374.471	31.6
378.518	51.406
382.563	11.908
386.605	4.511
390.646	7.256
394.685	2.073
398.722	34.793
402.757	21.081
406.79	14.467
410.821	55.314
414.851	84.337
418.878	56.329
422.904	9.807
426.927	6.777
430.949	47.964
434.969	22.187
438.987	71.74
443.003	15.044
447.018	10.314
451.03	21.579
455.041	58.181
459.049	25.077
463.056	48
467.061	86.417
471.064	93.353
475.065	16.96
479.064	44.101
483.062	24.069
487.057	25.428
491.051	32.518
495.043	45.54
499.032	81.57
503.02	28.4
507.007	19.478
510.991	42.747
514.973	60.166
518.954	94.917
522.933	33.186
526.91	57.943
530.885	116.626
534.858	47.946
538.829	47.167
542.799	93.756
546.766	10.623
550.732	33.96
554.696	69.894
558.658	52.963
562.618	19.198
566.576	44.297
570.533	38.506
574.488	56.753
578.44	25.908
582.391	9.33
586.341	57.717
590.288	108.145
594.233	30.928
598.177	82.849
602.119	57.667
606.059	46.547
609.997	72.223
613.933	40.571
617.868	70.756
621.801	44.034
625.731	86.68
629.66	40.642
633.588	13.491
637.513	53
641.437	85.819
645.358	22.637
649.278	45.99
653.196	82.715
657.113	73.489
661.027	72.731
664.94	48.99
668.851	21.53
672.76	47.611
676.667	30.816
680.572	88.963
684.476	83.854
688.378	87.678
692.278	451.279
696.176	2193.38
700.072	2319.44
703.967	1076.88
707.86	271.627
711.751	90.191
715.64	109.255
719.527	62.803
723.413	30.141
727.297	68.251
731.179	56.628
735.059	15.635
738.937	56.484
742.814	65.018
746.689	31.969
750.562	11.633
754.433	9.482
758.303	22.243
762.17	40.899
766.036	8.42
769.901	40.284
773.763	23.615
777.624	27.875
781.482	91.836
785.339	89.929
789.195	76.203
793.048	102.296
796.9	86.503
800.75	55.18
804.598	28.853
808.445	42.272
812.289	42.283
816.132	16.206
819.973	11.202
823.813	73.276
827.65	26.188
831.486	24.85
835.32	58.555
839.152	95.758
842.983	69.468
846.812	0.344
850.639	17.9
854.464	24.642
858.288	18.393
862.11	66.893
865.93	44.36
869.748	35.8
873.564	26.25
877.379	24.561
881.192	32.984
885.004	47.164
888.813	111.033
892.621	110.356
896.427	53.941
900.232	102.14
904.034	57.081
907.835	36.008
911.634	69.666
915.432	85.462
919.227	103.496
923.021	46.612
926.813	37.694
930.604	24.504
934.393	43.643
938.18	56.756
941.965	77.845
945.749	61.731
949.53	66.479
953.311	44.496
957.089	13.251
960.866	43.031
964.641	67.896
968.414	74.543
972.185	24.341
975.955	86.315
979.723	12.091
983.49	103.483
987.254	55.831
991.017	79.12
994.779	139.341
998.538	58.735
1002.3	11.608
1006.05	18.71
1009.81	111.602
1013.56	129.533
1017.31	108.981
1021.06	117.39
1024.81	78.614
1028.55	126.92
1032.3	116.473
1036.04	134.304
1039.78	211.977
1043.52	183.707
1047.26	285.447
1050.99	457.21
1054.73	304.169
1058.46	299.794
1062.19	429.888
1065.92	1085.54
1069.65	4799.84
1073.37	48940.9
1077.1	13822.8
1080.82	1513.7
1084.54	413.525
1088.26	244.383
1091.97	142.166
1095.69	222.699
1099.4	59.051
1103.12	158.466
1106.83	128.806
1110.54	102.403
1114.24	62.51
1117.95	68.73
1121.65	44.353
1125.35	105.318
1129.06	10.509
1132.75	41.981
1136.45	78.421
1140.15	2.65
1143.84	10.196
1147.53	17.7
1151.22	36.258
1154.91	50.674
1158.6	52.64
1162.28	14.633
1165.97	78.118
1169.65	68.176
1173.33	38.138
1177.01	45.328
1180.69	45.627
1184.36	51.884
1188.04	93.261
1191.71	67.702
1195.38	5.324
1199.05	52.853
1202.71	69.749
1206.38	95.725
1210.04	55.355
1213.71	63.134
1217.37	126.195
1221.03	98.589
1224.68	100.74
1228.34	64.446
1231.99	40.953
1235.65	91.453
1239.3	73.763
1242.95	141.757
1246.59	172.033
1250.24	136.781
1253.88	84.9
1257.53	39.918
1261.17	35.376
1264.81	104.235
1268.45	100.645
1272.08	101.101
1275.72	11.65
1279.35	69.955
1282.98	51.639
1286.61	14.071
1290.24	19.256
1293.87	86.059
1297.49	24.699
1301.11	99.093
1304.73	39.308
1308.36	63.098
1311.97	27.83
1315.59	89.417
1319.2	33.538
1322.82	10.026
1326.43	25.131
1330.04	15.644
1333.65	51.27
1337.26	9.612
1340.86	51.173
1344.47	14.837
1348.07	5.457
1351.67	95.569
1355.27	48.068
1358.87	113.011
1362.46	60.435
1366.06	25.518
1369.65	102.581
1373.24	89.306
1376.83	69.341
1380.42	42.84
1384	89.534
1387.59	42.621
1391.17	103.792
1394.75	108.965
1398.33	79.883
1401.91	118.54
1405.49	64.343
1409.06	48.634
1412.64	84
1416.21	173.066
1419.78	201.111
1423.35	149.687
1426.91	30.858
1430.48	33.837
1434.05	169.2
1437.61	224.223
1441.17	199.261
1444.73	184.36
1448.29	396.248
1451.84	379.355
1455.4	276.974
1458.95	228.529
1462.5	145.312
1466.05	120.879
1469.6	120.25
1473.15	61.409
1476.69	110.105
1480.24	94.047
1483.78	153.608
1487.32	52.205
1490.86	46.08
1494.39	135.696
1497.93	52.839
1501.46	149.691
1505	52.496
1508.53	97.234
1512.06	71.129
1515.59	9.107
1519.11	229.367
1522.64	0
