Measurement: Raman, 514 nm, ccw, Raman Data Processed
Mineral: Strontianite
Rruff sample: R040037
Ideal chemistry: SrCO_3_
Locality: Alston Moor, Cumbria, England
Source: University of Arizona Mineral Museum
Description: Group of tan colored crystals
Measured chemistry: (Sr_0.91_Ca_0.09_)_Î£=1_CO_3_; CO_2_ estimated by difference
Pin_id: L00091
Orientation: Laser parallel to -b* (0 -1 0). Fiducial mark perpendicular to laser is parallel to -c [0 0 -1]
Raman shift (cm-1)	intensity
90.587	0
94.768	41.087
98.947	379.06
103.124	684.569
107.3	408.439
111.473	528.17
115.644	778.94
119.813	556.177
123.981	610.321
128.146	697.352
132.309	1160.56
136.47	1729.66
140.63	3589.86
144.787	6975.29
148.942	9203.82
153.096	4988.26
157.247	2408.62
161.396	1808.05
165.544	1729.02
169.689	2300.68
173.833	4351.81
177.974	7630.61
182.114	10058.3
186.251	6646.62
190.387	2697.6
194.52	1196.17
198.652	701.342
202.782	437.652
206.909	294.7
211.035	251.561
215.159	255.161
219.281	204.112
223.4	166.438
227.518	169.709
231.634	413.325
235.748	804.461
239.86	1146.41
243.97	1282.64
248.079	1188.43
252.185	667.179
256.289	431.009
260.391	391.333
264.492	232.298
268.59	60.938
272.687	43.856
276.781	16.25
280.874	3.913
284.964	22.159
289.053	73.428
293.14	2.462
297.225	65.195
301.308	13.26
305.389	16.833
309.468	30.749
313.545	9.333
317.62	6.056
321.693	27.467
325.765	39.013
329.834	42.432
333.902	87.062
337.967	36.68
342.031	2.279
346.093	36.553
350.153	15.225
354.21	19.952
358.267	0.15
362.321	73.089
366.373	80.969
370.423	82.612
374.471	105.121
378.518	30.451
382.563	59.594
386.605	89.642
390.646	8.736
394.685	33.898
398.722	54.596
402.757	173.201
406.79	123.774
410.821	78.152
414.851	120.474
418.878	119.948
422.904	96
426.927	208.847
430.949	98.18
434.969	150.842
438.987	31.838
443.003	132.826
447.018	58.876
451.03	89.525
455.041	153.411
459.049	84.06
463.056	127.15
467.061	152.163
471.064	6.388
475.065	57.021
479.064	112.072
483.062	83.279
487.057	93.491
491.051	103.673
495.043	35.282
499.032	101.156
503.02	12.031
507.007	99.908
510.991	155.874
514.973	86.714
518.954	57.324
522.933	116.576
526.91	90.797
530.885	113.389
534.858	107.74
538.829	156.667
542.799	74.713
546.766	93.585
550.732	69.748
554.696	115.919
558.658	147.926
562.618	76.318
566.576	126.448
570.533	142.57
574.488	98.975
578.44	67.643
582.391	146.448
586.341	81.313
590.288	11.993
594.233	78.147
598.177	124.111
602.119	89.822
606.059	101.148
609.997	108.396
613.933	51.328
617.868	142.569
621.801	85.707
625.731	17.905
629.66	2.944
633.588	128.293
637.513	49.12
641.437	113.154
645.358	88.894
649.278	135.047
653.196	85.634
657.113	20.994
661.027	67.799
664.94	61.881
668.851	158.366
672.76	167.914
676.667	116.156
680.572	28.231
684.476	153.614
688.378	210.808
692.278	175.594
696.176	1623.47
700.072	1870.23
703.967	696.746
707.86	218.754
711.751	593.152
715.64	96.351
719.527	162.637
723.413	57.455
727.297	56.227
731.179	13.9
735.059	1.855
738.937	93.419
742.814	97.036
746.689	33.642
750.562	160.7
754.433	14.554
758.303	1.095
762.17	85.545
766.036	118.951
769.901	105.836
773.763	2.113
777.624	214.954
781.482	8.132
785.339	133.802
789.195	32.453
793.048	53.92
796.9	97.56
800.75	105.948
804.598	68.808
808.445	33.943
812.289	46.739
816.132	81.567
819.973	5.004
823.813	132.418
827.65	125.798
831.486	2.088
835.32	101.711
839.152	73.6
842.983	100.129
846.812	84.722
850.639	82.294
854.464	91.779
858.288	65.203
862.11	26.42
865.93	52.915
869.748	1.182
873.564	197.172
877.379	123.896
881.192	113.569
885.004	156.736
888.813	55.804
892.621	136.682
896.427	93.074
900.232	61.7
904.034	58.477
907.835	186.566
911.634	94.647
915.432	166.978
919.227	104.287
923.021	153.457
926.813	159.519
930.604	68.107
934.393	230.256
938.18	98.233
941.965	14.462
945.749	127.156
949.53	213.889
953.311	29.942
957.089	161.326
960.866	18.965
964.641	31.837
968.414	47.062
972.185	150.023
975.955	130.131
979.723	94.771
983.49	25.06
987.254	17.489
991.017	89.509
994.779	163.151
998.538	193.606
1002.3	166.208
1006.05	204.671
1009.81	366.113
1013.56	189.854
1017.31	274.199
1021.06	262.282
1024.81	190.54
1028.55	167.205
1032.3	241.814
1036.04	256.551
1039.78	268.506
1043.52	311.78
1047.26	382.726
1050.99	563.163
1054.73	246.134
1058.46	488.036
1062.19	448.447
1065.92	1197.94
1069.65	6400.62
1073.37	44689.3
1077.1	4816.96
1080.82	843.318
1084.54	282.177
1088.26	129.061
1091.97	190.024
1095.69	137.695
1099.4	301.055
1103.12	94.243
1106.83	218.197
1110.54	49.952
1114.24	171.776
1117.95	114.64
1121.65	91.482
1125.35	16.613
1129.06	75.305
1132.75	44.394
1136.45	30.521
1140.15	80.916
1143.84	143.079
1147.53	89.483
1151.22	7.5
1154.91	217.252
1158.6	115.184
1162.28	12.157
1165.97	21.294
1169.65	163.309
1173.33	122.222
1177.01	79.324
1180.69	72.554
1184.36	138.361
1188.04	110.173
1191.71	341.538
1195.38	46.264
1199.05	310.603
1202.71	231.655
1206.38	333.571
1210.04	199.116
1213.71	244.195
1217.37	262.041
1221.03	198.229
1224.68	305.12
1228.34	251.245
1231.99	247.995
1235.65	243.94
1239.3	318.032
1242.95	248.18
1246.59	224.394
1250.24	293.522
1253.88	151.045
1257.53	319.895
1261.17	131.871
1264.81	148.074
1268.45	268.129
1272.08	85.67
1275.72	236.061
1279.35	155.342
1282.98	111.506
1286.61	139.617
1290.24	226.34
1293.87	46.09
1297.49	22.93
1301.11	139.42
1304.73	24.141
1308.36	27.219
1311.97	47.021
1315.59	26.123
1319.2	165.545
1322.82	79.68
1326.43	111.445
1330.04	100.277
1333.65	75.021
1337.26	11.992
1340.86	173.352
1344.47	81.115
1348.07	156.404
1351.67	73.016
1355.27	62.096
1358.87	143.496
1362.46	116.842
1366.06	100.172
1369.65	90.531
1373.24	183.775
1376.83	159.062
1380.42	245.814
1384	367.537
1387.59	302.797
1391.17	149.596
1394.75	340.143
1398.33	361.547
1401.91	196.535
1405.49	322.348
1409.06	398.568
1412.64	202.551
1416.21	328.084
1419.78	161.781
1423.35	179.945
1426.91	133.242
1430.48	230.711
1434.05	221.914
1437.61	315.492
1441.17	351.141
1444.73	314.809
1448.29	831.143
1451.84	618.24
1455.4	525.248
1458.95	378.934
1462.5	251.949
1466.05	567.965
1469.6	415.848
1473.15	193.645
1476.69	201.387
1480.24	318.654
1483.78	305.947
1487.32	224.215
1490.86	233.051
1494.39	239.361
1497.93	305.928
1501.46	51.631
1505	114.527
1508.53	105.221
1512.06	168.77
1515.59	266.432
1519.11	123.701
