Measurement: Raman, 514 nm, ccw, Raman Data Processed
Mineral: Strontianite
Rruff sample: R040037
Ideal chemistry: SrCO_3_
Locality: Alston Moor, Cumbria, England
Source: University of Arizona Mineral Museum
Description: Group of tan colored crystals
Measured chemistry: (Sr_0.91_Ca_0.09_)_Î£=1_CO_3_; CO_2_ estimated by difference
Pin_id: L00091
Orientation: Laser parallel to -b* (0 -1 0). Fiducial mark perpendicular to laser is parallel to -c [0 0 -1]
Raman shift (cm-1)	intensity
100.34	0
104.516	31.479
108.691	73.954
112.864	123.032
117.034	229.936
121.203	254.558
125.369	380.604
129.534	491.821
133.696	775.765
137.857	1285.72
142.016	2267.31
146.172	4250.04
150.327	4144.61
154.48	2328.61
158.63	1967.17
162.779	1480.76
166.926	885.343
171.07	939.771
175.213	1515.91
179.354	2463.71
183.493	2408.11
187.63	1082.6
191.765	545.104
195.898	289.829
200.029	238.809
204.158	196.564
208.285	73.826
212.41	162.482
216.533	190.978
220.654	63.269
224.773	117.014
228.891	107.989
233.006	140.159
237.119	201.701
241.231	388.265
245.34	336.133
249.448	152.246
253.553	79.587
257.657	160.262
261.758	94.878
265.858	64.707
269.956	70.213
274.052	8.108
278.146	14.553
282.237	148.264
286.327	86.064
290.416	112.406
294.502	21.197
298.586	104.349
302.668	77.825
306.749	28.595
310.827	1.421
314.903	51.779
318.978	6.707
323.051	8.994
327.121	4.015
331.19	134.99
335.257	22.115
339.322	88.847
343.385	42.214
347.446	39.733
351.505	48.305
355.563	60.032
359.618	41.207
363.672	109.007
367.723	128.897
371.773	19.159
375.821	34.188
379.866	87.78
383.91	8.645
387.952	19.764
391.992	30.06
396.031	163.255
400.067	61.474
404.101	53.85
408.134	74.244
412.165	57.566
416.193	132.448
420.22	21.172
424.245	113.198
428.268	60.727
432.289	60.897
436.309	80.801
440.326	10.765
444.342	56.748
448.355	104.982
452.367	163.938
456.377	108.74
460.385	106.577
464.391	92.467
468.395	55.914
472.398	227.255
476.398	68.837
480.397	50.775
484.394	62.522
488.389	131.471
492.382	131.39
496.373	25.993
500.362	49.477
504.349	73.314
508.335	96.174
512.319	45.866
516.3	89.07
520.28	201.937
524.259	187.688
528.235	171.424
532.209	147.256
536.182	133.286
540.152	33.186
544.121	10.549
548.088	36.082
552.053	132.585
556.017	269.072
559.978	118.536
563.938	71.077
567.895	196.48
571.851	92.417
575.805	34.769
579.758	187.073
583.708	46.766
587.657	105.86
591.603	68.628
595.548	67.845
599.491	80.552
603.432	46.158
607.372	104.04
611.309	154.392
615.245	173.212
619.179	60.817
623.111	18.508
627.041	131.138
630.97	234.738
634.896	95.673
638.821	112.812
642.744	82.099
646.665	140.179
650.584	36.887
654.502	171.856
658.418	211.688
662.331	69.763
666.244	167.756
670.154	90.746
674.062	93.706
677.969	8.116
681.874	185.033
685.777	122.912
689.678	74.766
693.577	259.611
697.475	85.27
701.371	333.603
705.265	348.062
709.157	290.471
713.047	108.203
716.936	49.225
720.823	26.177
724.708	53.382
728.591	150.047
732.472	119.351
736.352	141.442
740.23	85.431
744.106	122.96
747.98	135.613
751.853	23.223
755.723	63.832
759.592	42.218
763.459	58.354
767.325	64.772
771.188	39.388
775.05	141.999
778.91	110.738
782.768	53.35
786.625	0.891
790.479	99.597
794.332	133.27
798.183	86.957
802.033	24.45
805.88	189.598
809.726	30.179
813.57	146.5
817.413	45.18
821.253	5.906
825.092	64.309
828.929	39.132
832.764	53.732
836.598	166.305
840.429	130.288
844.259	151.358
848.088	18.592
851.914	155.867
855.739	360.216
859.562	161.645
863.383	102.108
867.203	158.602
871.02	175.279
874.836	28.796
878.65	179.58
882.463	101.852
886.274	86.727
890.083	98.656
893.89	163.706
897.695	68.396
901.499	123.284
905.301	246.492
909.102	127.771
912.9	178.053
916.697	191.075
920.492	156.393
924.285	181.789
928.077	146.511
931.867	110.09
935.655	143.707
939.442	123.361
943.226	59.11
947.009	130.75
950.791	225.612
954.57	216.579
958.348	76.816
962.124	162.847
965.899	225.503
969.671	182.634
973.442	44.817
977.211	54.62
980.979	41.917
984.745	89.546
988.509	294.148
992.271	158.067
996.032	241.328
999.791	281.429
1003.55	216.623
1007.3	193.836
1011.06	185.151
1014.81	148.999
1018.56	106.955
1022.31	178.494
1026.06	247.367
1029.8	200.277
1033.55	263.201
1037.29	274.243
1041.03	182.551
1044.77	287.33
1048.5	492.971
1052.24	468.591
1055.97	394.581
1059.7	403.984
1063.43	539.444
1067.16	1968.91
1070.89	13454.5
1074.61	26229.5
1078.34	1859.28
1082.06	512.313
1085.78	390.207
1089.5	213.173
1093.21	91.948
1096.93	178.224
1100.64	95.615
1104.35	240.611
1108.06	99.854
1111.77	57.774
1115.48	186.557
1119.18	0.762
1122.89	75.893
1126.59	7.604
1130.29	155.012
1133.99	55.225
1137.68	61.855
1141.38	35.609
1145.07	77.382
1148.76	107.847
1152.45	12.841
1156.14	28.521
1159.83	152.855
1163.51	38.038
1167.19	69.689
1170.88	98.006
1174.56	196.693
1178.23	164.186
1181.91	130.213
1185.59	150.803
1189.26	146.096
1192.93	0.76
1196.6	234.943
1200.27	186.291
1203.94	323.371
1207.6	12.139
1211.27	250.82
1214.93	122.645
1218.59	186.129
1222.25	200.084
1225.9	143.139
1229.56	212.926
1233.21	268.158
1236.86	447.246
1240.51	350.002
1244.16	133.715
1247.81	92.074
1251.45	178.152
1255.1	220.695
1258.74	256.686
1262.38	276.264
1266.02	125.205
1269.66	10.918
1273.29	65.916
1276.93	82.969
1280.56	188.32
1284.19	97.613
1287.82	151.445
1291.45	182.281
1295.07	186.252
1298.7	108.252
1302.32	22.545
1305.94	82.822
1309.56	158.668
1313.18	1.652
1316.8	139.844
1320.41	10.189
1324.02	112.15
1327.63	71.926
1331.24	151.148
1334.85	31.619
1338.46	84.047
1342.06	131.281
1345.67	23.338
1349.27	86.59
1352.87	211.984
1356.47	275.857
1360.07	280.002
1363.66	455.418
1367.25	321.014
1370.85	130.143
1374.44	344.633
1378.03	258.18
1381.61	295.191
1385.2	176.094
1388.78	140.506
1392.37	319.828
1395.95	404.824
1399.53	292.416
1403.1	225.441
1406.68	182.787
1410.26	246.721
1413.83	338.037
1417.4	209.674
1420.97	436.148
1424.54	325.932
1428.1	380.064
1431.67	288.902
1435.23	484.033
1438.8	379.484
1442.36	422.844
1445.91	699.84
1449.47	645.059
1453.03	438.596
1456.58	382.867
1460.13	468.428
1463.68	516.781
1467.23	244.072
1470.78	318.031
1474.33	409.846
1477.87	313.449
1481.42	269.514
1484.96	273.127
1488.5	227.637
1492.04	385.424
1495.57	441.041
1499.11	98.674
1502.64	0.111
1506.17	114.881
1509.71	142.15
1513.23	170.545
1516.76	70.055
