Measurement: Raman, 514 nm, ccw, Raman Data Processed
Mineral: Strontianite
Rruff sample: R040037
Ideal chemistry: SrCO_3_
Locality: Alston Moor, Cumbria, England
Source: University of Arizona Mineral Museum
Description: Group of tan colored crystals
Measured chemistry: (Sr_0.91_Ca_0.09_)_Î£=1_CO_3_; CO_2_ estimated by difference
Pin_id: L00367
Orientation: Laser parallel to -a* (-1 0 0). Fiducial mark perpendicular to laser is parallel to -b [0 -1 0]
Raman shift (cm-1)	intensity
107.3	0
111.473	12.537
115.644	183.694
119.813	182.056
123.981	319.26
128.146	507.868
132.309	712.846
136.47	1186.74
140.63	1664.97
144.787	3170.36
148.942	4484.12
153.096	3366.77
157.247	2408.93
161.396	2096.74
165.544	1337.51
169.689	879.871
173.833	1003.25
177.974	1478.77
182.114	2027.24
186.251	1477.54
190.387	782.53
194.52	426.068
198.652	216.036
202.782	233.78
206.909	258.294
211.035	206.456
215.159	143.004
219.281	196.771
223.4	186.855
227.518	55.62
231.634	180.261
235.748	269.918
239.86	330.989
243.97	275.193
248.079	187.904
252.185	161.979
256.289	139.189
260.391	118.9
264.492	180.935
268.59	137.314
272.687	57.896
276.781	193.373
280.874	20.7
284.964	122.577
289.053	23.282
293.14	41.124
297.225	114.466
301.308	97.632
305.389	43.356
309.468	50.525
313.545	144.248
317.62	78.185
321.693	83.163
325.765	111.654
329.834	34.124
333.902	72.111
337.967	38.519
342.031	105.27
346.093	168.253
350.153	11.472
354.21	53.307
358.267	82.921
362.321	51.628
366.373	34.55
370.423	94.62
374.471	20.855
378.518	239.233
382.563	85.68
386.605	64.194
390.646	145.825
394.685	58.591
398.722	32.496
402.757	107.525
406.79	97.64
410.821	80.84
414.851	183.157
418.878	26.179
422.904	153.881
426.927	107.701
430.949	41.456
434.969	46.294
438.987	109.367
443.003	3.466
447.018	190.052
451.03	126.504
455.041	7.333
459.049	103.82
463.056	258.725
467.061	197.775
471.064	256.182
475.065	4.11
479.064	101.092
483.062	57.57
487.057	51.055
491.051	1.342
495.043	44.378
499.032	70.737
503.02	86.636
507.007	30.111
510.991	14.485
514.973	106.441
518.954	215.045
522.933	222.564
526.91	103.956
530.885	343.646
534.858	211.689
538.829	206.158
542.799	189.915
546.766	87.692
550.732	221.499
554.696	165.386
558.658	342.891
562.618	223.506
566.576	251.391
570.533	212.293
574.488	216.193
578.44	44.262
582.391	15.142
586.341	41.005
590.288	237.742
594.233	252.563
598.177	159.365
602.119	100.856
606.059	350.598
609.997	140.373
613.933	10.575
617.868	259.141
621.801	37.307
625.731	266.123
629.66	17.508
633.588	75.885
637.513	192.982
641.437	198.009
645.358	37.731
649.278	73.969
653.196	5.382
657.113	81.092
661.027	98.332
664.94	194.013
668.851	46.715
672.76	59.854
676.667	201.884
680.572	20.427
684.476	161.438
688.378	107.756
692.278	134.227
696.176	81.895
700.072	333.303
703.967	105.697
707.86	304.02
711.751	112.711
715.64	174.047
719.527	334.391
723.413	52.725
727.297	360.051
731.179	245.367
735.059	55.922
738.937	129.967
742.814	157.219
746.689	86.51
750.562	69.727
754.433	83.908
758.303	157.979
762.17	61.166
766.036	13.525
769.901	160.869
773.763	282.059
777.624	126.189
781.482	291.4
785.339	64.182
789.195	120.883
793.048	339.123
796.9	59.182
800.75	156.125
804.598	324.471
808.445	283.512
812.289	147.008
816.132	208.467
819.973	241.957
823.813	238.969
827.65	226.611
831.486	215.352
835.32	18.502
839.152	136.441
842.983	147.537
846.812	16.244
850.639	236.027
854.464	376.367
858.288	206.768
862.11	341.215
865.93	92.695
869.748	308.275
873.564	331.914
877.379	43.605
881.192	280.367
885.004	229.771
888.813	282.908
892.621	244.873
896.427	211.912
900.232	93.043
904.034	368.094
907.835	397.334
911.634	145.625
915.432	430.977
919.227	471.061
923.021	171.596
926.813	260.199
930.604	206.877
934.393	174.645
938.18	387.52
941.965	338.965
945.749	108.229
949.53	365.32
953.311	301.801
957.089	157.982
960.866	295.492
964.641	305.791
968.414	235.953
972.185	112.781
975.955	279.834
979.723	237.652
983.49	253.854
987.254	309.697
991.017	326.23
994.779	173.436
998.538	404.617
1002.3	81.254
1006.05	197.531
1009.81	398.818
1013.56	233.969
1017.31	451.512
1021.06	240.795
1024.81	594.705
1028.55	348.348
1032.3	371.559
1036.04	305.482
1039.78	410.545
1043.52	504.928
1047.26	575.359
1050.99	413.344
1054.73	423.049
1058.46	497.35
1062.19	686.836
1065.92	966.379
1069.65	3795.54
1073.37	36749.4
1077.1	10642.9
1080.82	1310.25
1084.54	677.643
1088.26	388.459
1091.97	196.971
1095.69	425.562
1099.4	195.617
1103.12	363.979
1106.83	119.08
1110.54	286.764
1114.24	244.176
1117.95	125.678
1121.65	86.121
1125.35	151.113
1129.06	16.885
1132.75	170.812
1136.45	386.973
1140.15	27.188
1143.84	49.779
1147.53	63.848
1151.22	44.17
1154.91	7.561
1158.6	42.109
1162.28	6.311
1165.97	191.051
1169.65	69.035
1173.33	36.24
1177.01	247.105
1180.69	177.275
1184.36	278.982
1188.04	269.377
1191.71	287.57
1195.38	259.832
1199.05	100.037
1202.71	521.184
1206.38	329.58
1210.04	202.91
1213.71	305.52
1217.37	193.381
1221.03	75.178
1224.68	290.156
1228.34	112.066
1231.99	291.51
1235.65	151.596
1239.3	241.184
1242.95	392.191
1246.59	425.279
1250.24	381.957
1253.88	595.211
1257.53	457.781
1261.17	121.352
1264.81	156.938
1268.45	115.012
1272.08	83.842
1275.72	201.631
1279.35	139.592
1282.98	236.121
1286.61	114.32
1290.24	46.594
1293.87	18.611
1297.49	0.088
1301.11	82.699
1304.73	110.309
1308.36	192.525
1311.97	84.307
1315.59	64.635
1319.2	28.691
1322.82	29.756
1326.43	189.785
1330.04	10.857
1333.65	48.939
1337.26	124.455
1340.86	84.521
1344.47	84.977
1348.07	234.949
1351.67	361.188
1355.27	220.566
1358.87	202.307
1362.46	130.477
1366.06	350.398
1369.65	304.5
1373.24	193.541
1376.83	202.922
1380.42	286.498
1384	450.352
1387.59	196.973
1391.17	416.111
1394.75	542.682
1398.33	254.602
1401.91	452.49
1405.49	383.738
1409.06	443.039
1412.64	534.738
1416.21	546.391
1419.78	464.809
1423.35	237.562
1426.91	400.725
1430.48	428.908
1434.05	415.438
1437.61	660.043
1441.17	559.393
1444.73	586.664
1448.29	1275.03
1451.84	1222.72
1455.4	875.346
1458.95	654.725
1462.5	439.545
1466.05	225.977
1469.6	428.631
1473.15	345.193
1476.69	446.246
1480.24	471.029
1483.78	497.463
1487.32	353.27
1490.86	297.686
1494.39	557.27
1497.93	280.676
1501.46	87.207
1505	177.998
1508.53	304.951
1512.06	468.412
1515.59	9.902
1519.11	168.672
1522.64	0
