Measurement: Raman, 514 nm, ccw, Raman Data Processed
Mineral: Strontianite
Rruff sample: R040037
Ideal chemistry: SrCO_3_
Locality: Alston Moor, Cumbria, England
Source: University of Arizona Mineral Museum
Description: Group of tan colored crystals
Measured chemistry: (Sr_0.91_Ca_0.09_)_Î£=1_CO_3_; CO_2_ estimated by difference
Pin_id: L00119
Orientation: Laser parallel to -c* (0 0 -1). Fiducial mark perpendicular to laser is parallel to a [1 0 0]
Raman shift (cm-1)	intensity
83.614	0
87.798	12.137
91.981	146.387
96.161	523.165
100.34	1191.64
104.516	879.599
108.691	767.2
112.864	906.91
117.034	612.539
121.203	337.663
125.369	274.227
129.534	404.332
133.696	305.199
137.857	426.453
142.016	572.88
146.172	885.156
150.327	845.292
154.48	713.983
158.63	791.932
162.779	826.024
166.926	877.194
171.07	1147.46
175.213	1684.89
179.354	2216.69
183.493	2294.13
187.63	1181.79
191.765	517.586
195.898	376.951
200.029	271.894
204.158	137.362
208.285	128.44
212.41	118.377
216.533	133.19
220.654	73.332
224.773	89.296
228.891	107.791
233.006	217.308
237.119	274.275
241.231	464.407
245.34	677.43
249.448	724.098
253.553	550.648
257.657	523.978
261.758	558.564
265.858	361.821
269.956	214.617
274.052	57.888
278.146	88.901
282.237	119.049
286.327	115.249
290.416	34.635
294.502	39.167
298.586	54.375
302.668	0.509
306.749	27.244
310.827	17.962
314.903	16.049
318.978	22.695
323.051	64.347
327.121	60.688
331.19	1.599
335.257	0.928
339.322	24.173
343.385	19.586
347.446	67.364
351.505	9.079
355.563	2.884
359.618	3.097
363.672	7.873
367.723	0.239
371.773	16.774
375.821	66.33
379.866	74.645
383.91	26.26
387.952	2.077
391.992	9.478
396.031	97.186
400.067	55.581
404.101	60.475
408.134	33.021
412.165	4.512
416.193	49.821
420.22	73.637
424.245	37.179
428.268	65.471
432.289	51.757
436.309	45.302
440.326	5.336
444.342	69.389
448.355	18.988
452.367	87.188
456.377	41.038
460.385	3.47
464.391	9.161
468.395	0.759
472.398	63.712
476.398	17.876
480.397	75.049
484.394	80.802
488.389	61.819
492.382	54.908
496.373	47.022
500.362	7.155
504.349	39.674
508.335	67.959
512.319	127.123
516.3	84.636
520.28	92.972
524.259	44.711
528.235	39.912
532.209	116.328
536.182	46.797
540.152	49.672
544.121	52.45
548.088	96.453
552.053	73.709
556.017	60.031
559.978	41.301
563.938	33.178
567.895	86.517
571.851	71.444
575.805	92.398
579.758	190.54
583.708	110.178
587.657	118.553
591.603	2.748
595.548	117.908
599.491	99.955
603.432	132.984
607.372	113.69
611.309	81.712
615.245	127.513
619.179	73.913
623.111	54.925
627.041	131.694
630.97	200.351
634.896	16.06
638.821	27.237
642.744	46.885
646.665	133.593
650.584	13.961
654.502	176.635
658.418	119.222
662.331	44.071
666.244	157.15
670.154	60.009
674.062	73.278
677.969	40.251
681.874	61.404
685.777	127.802
689.678	262.867
693.577	1322.62
697.475	2922.49
701.371	2271.86
705.265	613.281
709.157	302.897
713.047	145.842
716.936	29.69
720.823	129.132
724.708	107.863
728.591	203.589
732.472	63.939
736.352	52.894
740.23	23.501
744.106	105.846
747.98	55.455
751.853	63.796
755.723	10.965
759.592	68.162
763.459	97.293
767.325	62.238
771.188	90.655
775.05	113.805
778.91	108.527
782.768	42.121
786.625	43.99
790.479	82.553
794.332	71.265
798.183	12.342
802.033	15.781
805.88	144.512
809.726	45.986
813.57	151.434
817.413	71.404
821.253	66.917
825.092	26.062
828.929	9.617
832.764	82.597
836.598	64.445
840.429	178.081
844.259	174.001
848.088	20.929
851.914	128.461
855.739	134.948
859.562	89.38
863.383	100.722
867.203	68.247
871.02	123.052
874.836	61.189
878.65	85.135
882.463	35.212
886.274	21.211
890.083	37.406
893.89	86.323
897.695	142.837
901.499	87.25
905.301	20.009
909.102	108.139
912.9	94.743
916.697	5.37
920.492	95.094
924.285	89.596
928.077	45.108
931.867	58.459
935.655	69.753
939.442	57.04
943.226	69.437
947.009	120.347
950.791	129.536
954.57	196.018
958.348	6.267
962.124	0.844
965.899	57.754
969.671	53.06
973.442	97.048
977.211	70.187
980.979	60.614
984.745	56.782
988.509	108.55
992.271	123.51
996.032	131.194
999.791	199.308
1003.55	104.421
1007.3	163.212
1011.06	219.606
1014.81	8.811
1018.56	29.441
1022.31	1041.08
1026.06	184.14
1029.8	142.154
1033.55	75.18
1037.29	142.534
1041.03	157.145
1044.77	183.503
1048.5	492.67
1052.24	378.02
1055.97	336.84
1059.7	392.392
1063.43	579.874
1067.16	2286.13
1070.89	16806.5
1074.61	37674.9
1078.34	2074.94
1082.06	481.633
1085.78	181.044
1089.5	197.092
1093.21	96.996
1096.93	96.079
1100.64	72.125
1104.35	171.665
1108.06	65.659
1111.77	7.004
1115.48	86.545
1119.18	122.446
1122.89	98.36
1126.59	149.099
1130.29	117.244
1133.99	44.011
1137.68	135.525
1141.38	46.283
1145.07	121.631
1148.76	26.92
1152.45	79.783
1156.14	80.968
1159.83	58.877
1163.51	120.362
1167.19	30.09
1170.88	71.594
1174.56	129.197
1178.23	42.679
1181.91	62.6
1185.59	109.246
1189.26	82.537
1192.93	147.73
1196.6	153.028
1200.27	110.151
1203.94	289.665
1207.6	35.952
1211.27	191.046
1214.93	144.264
1218.59	149.557
1222.25	77.57
1225.9	132.471
1229.56	52.442
1233.21	92.014
1236.86	155.188
1240.51	60.632
1244.16	158.791
1247.81	251.563
1251.45	131.536
1255.1	45.557
1258.74	165.205
1262.38	159.591
1266.02	183.461
1269.66	47.043
1273.29	120.235
1276.93	97.926
1280.56	88.706
1284.19	105.385
1287.82	22.609
1291.45	46.486
1295.07	132.749
1298.7	37.332
1302.32	75.742
1305.94	103.038
1309.56	82.1
1313.18	86.079
1316.8	87.049
1320.41	36.264
1324.02	1.585
1327.63	6.361
1331.24	98.464
1334.85	56.349
1338.46	30.308
1342.06	154.612
1345.67	107.65
1349.27	95.115
1352.87	220.886
1356.47	206.896
1360.07	231.731
1363.66	174.691
1367.25	194.472
1370.85	207.926
1374.44	273.931
1378.03	0.511
1381.61	97.928
1385.2	117.733
1388.78	116.94
1392.37	175.639
1395.95	183.63
1399.53	267.554
1403.1	256.258
1406.68	159.033
1410.26	123.915
1413.83	224.404
1417.4	229.43
1420.97	276.07
1424.54	144.033
1428.1	282.293
1431.67	331.505
1435.23	380.473
1438.8	450.15
1442.36	388.2
1445.91	292.611
1449.47	184.163
1453.03	221.78
1456.58	295.079
1460.13	395.288
1463.68	262.974
1467.23	286.433
1470.78	312.983
1474.33	330.245
1477.87	259.083
1481.42	190.166
1484.96	206.328
1488.5	190.809
1492.04	193.107
1495.57	328.013
1499.11	85.802
1502.64	107.544
1506.17	20.616
1509.71	181.487
1513.23	112.164
1516.76	49.955
1520.29	24.937
