Measurement: Raman, 514 nm, ccw, Raman Data Processed
Mineral: Sulphur
Rruff sample: R050006
Ideal chemistry: S
Locality: San Felipe, Mexicali, Baja California Norte, Mexico
Source: Eugene Schlepp
Description: Yellow single crystal
Measured chemistry: S_1.00_
Pin_id: L00477
Orientation: Laser parallel to -b* (0 -1 0). Fiducial mark perpendicular to laser is parallel to -c [0 0 -1]
Raman shift (cm-1)	intensity
52.261	0
56.477	14.46
60.691	17.901
64.903	29.435
69.112	6.961
73.319	6.279
77.525	0.938
81.728	34.767
85.929	185.981
90.128	698.432
94.324	735.059
98.519	455.67
102.712	500.024
106.902	598.972
111.09	642.428
115.277	722.336
119.461	715.651
123.643	708.352
127.823	657.799
132.001	667.114
136.176	720.68
140.35	1003.24
144.521	3127.77
148.691	11599.3
152.858	11644.9
157.024	8896.59
161.187	3321.4
165.348	1248.35
169.507	669.425
173.664	446.647
177.819	377.011
181.971	402.247
186.122	553.158
190.271	697.934
194.417	992.669
198.562	1072.56
202.704	723.039
206.844	903.257
210.983	2885.93
215.119	19841.9
219.253	34268.3
223.385	23653.7
227.515	4586.28
231.643	1331.07
235.769	911.068
239.893	920.233
244.014	1150.81
248.134	2012.52
252.252	765.443
256.367	311.538
260.481	171.789
264.592	145.19
268.702	139.741
272.809	168.422
276.915	172.011
281.018	149.175
285.119	138.234
289.218	121.392
293.316	123.657
297.411	139.005
301.504	135.839
305.595	117.908
309.684	86.462
313.771	77.086
317.856	83.781
321.939	70.558
326.02	52.412
330.099	13.334
334.176	6.315
338.251	3.653
342.323	37.584
346.394	17.508
350.463	2.416
354.53	16.302
358.594	17.18
362.657	4.92
366.718	42.965
370.777	48.978
374.833	61.995
378.888	80.061
382.941	113.198
386.992	141.627
391.04	165.666
395.087	171.016
399.132	187.438
403.174	232.928
407.215	369.49
411.254	659.114
415.29	803.796
419.325	722.555
423.358	971.489
427.389	1463.9
431.417	2308.98
435.444	2936.55
439.469	3170.72
443.492	2392.3
447.512	991.627
451.531	641.148
455.548	749.013
459.563	1624.33
463.576	4458.55
467.587	11984.8
471.596	29165.1
475.603	47815.4
479.608	20186.2
483.611	6260.89
487.612	2640.5
491.611	1418.89
495.608	954.593
499.603	755.041
503.596	554.148
507.587	420.124
511.577	334.084
515.564	328.26
519.549	314.234
523.533	288.794
527.514	269.019
531.493	227.323
535.471	206.87
539.447	208.468
543.42	174.918
547.392	201.612
551.362	183.207
555.329	173.995
559.295	129.892
563.259	77.596
567.221	14.36
571.181	29.12
575.139	13.671
579.095	11.786
583.049	13.831
587.002	17.149
590.952	0.284
594.9	2.146
598.847	16.398
602.792	0.352
606.734	5.627
610.675	6.148
614.614	15.659
618.55	30.282
622.485	36.152
626.418	28.735
630.349	28.117
634.279	12.499
638.206	11.732
642.131	7.405
646.055	12.057
649.976	33.603
653.896	53.68
657.814	67.75
661.729	53.832
665.643	39.945
669.555	40.074
673.465	12.223
677.373	1.387
681.28	28.545
685.184	25.694
689.087	50.823
692.987	40.928
696.886	18.012
700.783	10.065
704.677	34.08
708.57	18.068
712.462	8.036
716.351	17.971
720.238	17.875
724.124	14.75
728.007	9.594
731.889	1.209
735.769	1.878
739.647	9.733
743.523	13.639
747.397	6.073
751.269	0.079
755.139	2.459
759.008	4.398
762.875	0.79
766.739	20.842
770.602	0.572
774.463	8.167
778.323	5.826
782.18	30.483
786.035	16.769
789.889	34.032
793.741	30.784
797.591	39.638
801.439	50.609
805.285	66.794
809.129	81.947
812.971	119.081
816.812	166.2
820.651	188.354
824.488	190.848
828.323	181.898
832.156	174.736
835.987	130.748
839.817	153.897
843.644	159.881
847.47	191.034
851.294	195.136
855.116	216.364
858.936	232.205
862.755	240.692
866.571	281.322
870.386	266.976
874.199	271.715
878.01	272.373
881.82	216.98
885.627	182.523
889.433	126.202
893.236	90.606
897.038	88.344
900.838	98.681
904.637	85.687
908.433	56.315
912.228	50.142
916.021	40.073
919.812	68.828
923.601	75.337
927.388	101.281
931.174	105.704
934.958	152.481
938.739	112.204
942.52	130.783
946.298	91.958
950.074	56.129
953.849	26.877
957.622	26.67
961.393	23.705
965.162	31.457
968.93	11.222
972.696	8.065
976.459	24.635
980.222	17.37
983.982	19.093
987.74	13.513
991.497	19.526
995.252	11.273
999.005	2.036
1002.76	24.619
1006.51	22.299
1010.25	24.012
1014	26.707
1017.74	26.33
1021.49	20.952
1025.23	5.575
1028.96	10.323
1032.7	0.937
1036.44	28.593
1040.17	16.24
1043.9	17.92
1047.63	11.771
1051.36	4.398
1055.09	30.029
1058.81	30.016
1062.54	23.894
1066.26	9.573
1069.97	11.226
1073.69	18.847
1077.41	7.559
1081.12	16.193
1084.84	13.813
1088.55	23.456
1092.25	28.091
1095.96	30.744
1099.67	11.406
1103.37	9.329
1107.07	4.012
1110.77	7.618
1114.47	1.304
1118.16	36.965
1121.86	24.089
1125.55	8.655
1129.24	2.241
1132.93	15.825
1136.62	17.363
1140.31	30.725
1143.99	13.222
1147.67	20.456
1151.35	16.929
1155.03	3.176
1158.71	16.64
1162.39	32.531
1166.06	22.01
1169.73	22.482
1173.4	12.092
1177.07	22.539
1180.74	9.899
1184.4	16.305
1188.07	7.25
1191.73	2.35
1195.39	23.033
1199.05	14.43
1202.7	34.363
1206.36	7.297
1210.01	5.018
1213.66	27.881
1217.31	25.188
1220.96	14.562
1224.6	0.825
1228.25	54.033
1231.89	23.288
1235.53	35.577
1239.17	15.805
1242.81	8.008
1246.44	2.221
1250.08	6.431
1253.71	28.284
1257.34	36.417
1260.97	44.532
1264.6	45.686
1268.22	16.805
1271.85	10.899
1275.47	31.981
1279.09	34.15
1282.71	31.488
1286.33	30.219
1289.94	6.682
1293.56	25.353
1297.17	45.883
1300.78	24.335
1304.39	13.322
1307.99	4.303
1311.6	10.248
1315.2	12.182
1318.8	33.084
1322.4	28.856
1326	31.721
1329.6	44.574
1333.19	17.391
1336.79	30.99
1340.38	5.817
1343.97	8.629
1347.56	28.152
1351.14	24.34
1354.73	31.065
1358.31	24.827
1361.89	36.554
1365.47	24.275
1369.05	11.894
1372.63	15.549
1376.2	27.847
1379.78	14.65
1383.35	25.271
1386.92	41.883
1390.49	39.794
1394.05	58.581
1397.62	44.436
1401.18	48.294
1404.74	36.169
1408.3	36.267
1411.86	30.609
1415.42	7.455
1418.97	22.147
1422.53	33.729
1426.08	38.506
1429.63	20.255
1433.18	45.927
1436.72	32.79
1440.27	44.575
1443.81	32.017
1447.36	49.687
1450.89	56.554
1454.43	38.98
1457.97	48.543
1461.51	14.968
1465.04	47.315
1468.57	49.746
1472.1	45.781
1475.63	39.104
1479.16	27.882
1482.68	55.041
1486.21	27.992
1489.73	30.303
1493.25	26.995
1496.77	22.154
1500.29	18.642
1503.8	28.282
1507.32	18.639
1510.83	31.832
1514.34	34.853
1517.85	24.292
1521.36	44.645
