Measurement: Raman, 514 nm, ccw, Raman Data Processed
Mineral: Sulphur
Rruff sample: R040135
Ideal chemistry: S
Locality: Sicily, Italy
Source: University of Arizona Mineral Museum
Description: Yellow fragments
Measured chemistry: S_1.00_
Pin_id: L00272
Orientation: Laser parallel to -c* (0 0 -1). Fiducial mark perpendicular to laser is parallel to a [1 0 0]
Raman shift (cm-1)	intensity
55.323	0
59.501	18.05
63.677	24.089
67.851	5.947
72.024	1.484
76.195	40.46
80.364	209.806
84.531	454.686
88.697	1633.5
92.86	1483.86
97.022	752.69
101.183	565.702
105.341	600.583
109.498	609.153
113.653	596.298
117.806	548.941
121.958	583.02
126.108	523.514
130.256	512.117
134.402	521.643
138.547	661.363
142.69	1799.97
146.831	6233.47
150.97	7188.96
155.108	7818.5
159.244	4200.11
163.378	1050.82
167.51	514.63
171.641	337.551
175.77	243.582
179.897	324.722
184.023	641.966
188.146	866.309
192.269	675.747
196.389	759.098
200.507	465.334
204.624	595.643
208.74	1972.02
212.853	10480.1
216.965	23280.3
221.075	24989.7
225.183	2484.9
229.29	830.485
233.394	707.106
237.498	833.424
241.599	1454.12
245.699	3500.09
249.797	1073.27
253.893	227.627
257.988	116.152
262.081	77.821
266.172	82.615
270.261	86.518
274.349	108.526
278.435	61.63
282.519	68.835
286.602	49.124
290.683	47.488
294.762	59.907
298.84	66.363
302.916	82.851
306.99	39.371
311.062	48.925
315.133	52.513
319.202	66.135
323.27	25.797
327.335	10.494
331.4	8.22
335.462	1.035
339.522	18.291
343.581	26.573
347.639	17.9
351.694	20.266
355.748	17.668
359.8	9.117
363.851	20.33
367.9	44.649
371.947	68.874
375.993	82.076
380.036	132.3
384.079	162.549
388.119	195.852
392.158	210.204
396.195	283.599
400.23	349.034
404.264	632.5
408.296	1113.01
412.327	1314.53
416.356	1304.29
420.383	1823.12
424.408	2887.06
428.432	4469.15
432.454	6273.35
436.474	7336.36
440.493	5338.95
444.51	1832.49
448.526	859.148
452.54	971.858
456.552	1988.54
460.562	5705.21
464.571	15735.9
468.578	34807.6
472.584	51809.2
476.588	20970.9
480.59	5522.74
484.591	2423.89
488.59	1320.62
492.587	900.237
496.583	793.282
500.577	639.031
504.569	462.808
508.56	372.87
512.549	317.956
516.536	339.783
520.522	299.392
524.506	252.962
528.489	232.503
532.469	186.04
536.449	176.575
540.426	142.128
544.402	150.922
548.376	153.796
552.349	139.372
556.32	91.93
560.29	60.619
564.257	13.169
568.224	8.877
572.188	0.006
576.151	0.998
580.112	3.648
584.072	4.353
588.03	4.6
591.986	1.834
595.941	5.019
599.894	3.892
603.846	0.318
607.796	6.393
611.744	28.059
615.691	51.439
619.636	48.725
623.579	36.912
627.521	27.182
631.462	15.259
635.4	6.308
639.337	1.675
643.273	1.296
647.206	31.243
651.139	63.169
655.069	51.091
658.998	44.026
662.926	34.999
666.851	29.017
670.775	22.074
674.698	21.162
678.619	23.278
682.538	34.396
686.456	21.497
690.372	28.578
694.287	18.638
698.2	3.681
702.111	1.3
706.021	8.361
709.929	10.651
713.836	27.593
717.741	7.51
721.644	5.403
725.546	1.743
729.446	1.976
733.345	4.509
737.242	3.806
741.137	3.882
745.031	9.678
748.924	4.518
752.814	0.447
756.703	7.237
760.591	1.836
764.477	3.188
768.361	0.265
772.244	1.715
776.125	3.143
780.005	0.551
783.883	6.938
787.76	7.307
791.635	9.641
795.508	14.517
799.38	31.496
803.25	25.801
807.119	51.091
810.986	78.366
814.851	115.629
818.715	150.877
822.578	161.211
826.439	145.331
830.298	114.534
834.155	111.718
838.012	120.462
841.866	130.157
845.719	152.306
849.571	147.615
853.421	158.944
857.269	183.585
861.116	223.743
864.961	224.76
868.805	230.893
872.647	216.684
876.487	198.155
880.326	189.145
884.164	153.705
888	101.777
891.834	72.361
895.667	75.111
899.498	73.892
903.328	76.621
907.156	65.019
910.983	50.273
914.808	43.839
918.632	46.092
922.454	68.818
926.274	98.648
930.093	156.442
933.91	179.26
937.726	145.049
941.541	104.95
945.353	78.861
949.165	63.803
952.974	32.748
956.783	19.665
960.589	20.588
964.394	22.494
968.198	20.645
972	12.553
975.801	8.671
979.6	1.605
983.397	5.492
987.193	18.386
990.988	7.265
994.78	12.139
998.572	8.02
1002.36	7.913
1006.15	8.775
1009.94	11.64
1013.72	7.494
1017.51	0.337
1021.29	8.186
1025.07	8.249
1028.85	11.092
1032.63	1.066
1036.4	2.78
1040.18	2.963
1043.95	6.902
1047.72	8.785
1051.49	0.336
1055.26	0.461
1059.03	11.418
1062.79	11.317
1066.56	3.214
1070.32	3.117
1074.08	1.966
1077.84	7.931
1081.6	6.828
1085.36	13.725
1089.11	3.622
1092.87	3.532
1096.62	2.426
1100.37	0.413
1104.12	9.462
1107.86	12.349
1111.61	18.234
1115.36	3.871
1119.1	18.004
1122.84	1.887
1126.58	6.307
1130.32	10.164
1134.06	5.022
1137.79	5.878
1141.53	5.911
1145.26	1.641
1148.99	10.477
1152.72	15.13
1156.45	3.844
1160.17	13.687
1163.9	12.319
1167.62	8.136
1171.35	3.149
1175.07	8.998
1178.79	10.826
1182.5	18.601
1186.22	1.486
1189.93	5.15
1193.65	2.186
1197.36	8.99
1201.07	11.753
1204.78	9.527
1208.49	9.754
1212.19	8.122
1215.9	6.922
1219.6	2.702
1223.3	6.339
1227	12.206
1230.7	18.021
1234.4	19.802
1238.1	1.584
1241.79	8.375
1245.48	12.167
1249.17	3.09
1252.86	11.664
1256.55	5.426
1260.24	2.175
1263.92	23.674
1267.61	14.421
1271.29	15.143
1274.97	6.662
1278.65	6.352
1282.33	11.08
1286.01	2.208
1289.68	11.508
1293.36	22.219
1297.03	25.927
1300.7	10.605
1304.37	13.301
1308.04	5.031
1311.71	8.737
1315.37	8.438
1319.04	0.905
1322.7	5.601
1326.36	10.299
1330.02	2.21
1333.68	7.666
1337.33	1.964
1340.99	5.633
1344.64	6.318
1348.29	5.998
1351.94	2.682
1355.59	6.365
1359.24	19.047
1362.89	13.751
1366.53	4.429
1370.18	17.128
1373.82	13.044
1377.46	9.75
1381.1	10.454
1384.74	2.134
1388.37	4.79
1392.01	4.475
1395.64	11.865
1399.27	20.591
1402.9	26.306
1406.53	21.417
1410.16	18.126
1413.79	11.637
1417.41	11.345
1421.04	3.816
1424.66	4.504
1428.28	19.207
1431.9	12.485
1435.52	10.092
1439.13	18.464
1442.75	17.159
1446.36	18.825
1449.98	7.508
1453.59	23.094
1457.2	9.557
1460.8	4.219
1464.41	11.811
1468.02	6.465
1471.62	14.123
1475.22	12.81
1478.82	16.502
1482.42	15.2
1486.02	22.924
1489.62	11.648
1493.21	13.423
1496.81	21.079
1500.4	21.907
1503.99	0.735
1507.58	12.64
1511.17	2.595
1514.76	5.615
1518.34	11.737
1521.93	23.661
1525.51	23.673
1529.09	18.895
1532.67	16.615
1536.25	0
