Measurement: Raman, 514 nm, ccw, Raman Data Processed
Mineral: Sulphur
Rruff sample: R050006
Ideal chemistry: S
Locality: San Felipe, Mexicali, Baja California Norte, Mexico
Source: Eugene Schlepp
Description: Yellow single crystal
Measured chemistry: S_1.00_
Pin_id: L00244
Orientation: Laser parallel to -c* (0 0 -1). Fiducial mark perpendicular to laser is parallel to a [1 0 0]
Raman shift (cm-1)	intensity
48.666	0
52.873	18.977
57.079	20.14
61.283	22.103
65.484	11.977
69.684	4.194
73.881	6.159
78.076	26.554
82.27	122.556
86.461	545.591
90.65	1080.6
94.838	570.428
99.023	448.866
103.206	441.786
107.387	435.111
111.566	465.787
115.744	455.775
119.919	470.044
124.092	464.832
128.263	426.488
132.432	410.364
136.599	401.179
140.764	686.953
144.927	1941.72
149.088	3600.51
153.247	4714.36
157.404	2550.28
161.559	816.288
165.711	385.379
169.862	235.56
174.011	189.829
178.158	197.184
182.303	297.623
186.446	386.145
190.587	449.748
194.726	603.664
198.862	445.641
202.997	417.989
207.13	824.193
211.261	3683.66
215.39	14019.6
219.517	24767.7
223.642	4962.12
227.765	1071.79
231.886	547.64
236.005	540.573
240.122	1017.35
244.237	2614.76
248.35	1496.31
252.461	350.983
256.57	137.763
260.677	93.64
264.782	77.603
268.885	87.412
272.986	103.792
277.085	92.015
281.182	74.309
285.278	60.667
289.371	71.085
293.462	79.547
297.552	99.047
301.639	88.584
305.724	76.16
309.808	61.775
313.889	67.429
317.969	76.13
322.046	48.878
326.122	22.671
330.196	19.499
334.267	0.36
338.337	12.756
342.405	24.873
346.471	25.012
350.535	8.17
354.597	23.33
358.657	13.519
362.715	12.203
366.771	28.86
370.825	41.485
374.877	47.133
378.928	90.815
382.976	117.552
387.023	131.337
391.067	155.166
395.11	202.036
399.15	275.944
403.189	483.893
407.226	903.88
411.261	1166.91
415.294	1144.99
419.325	1543.13
423.354	2434.3
427.381	3735.04
431.406	5445.57
435.43	6782.99
439.451	5756.34
443.471	2350.74
447.488	945.458
451.504	843.79
455.518	1549.13
459.53	4338.49
463.54	12113.9
467.548	29055.3
471.554	43626.7
475.558	26678.5
479.561	7388.38
483.561	2699.77
487.559	1413.21
491.556	971.654
495.551	752.976
499.544	610.581
503.535	465.64
507.524	383.981
511.511	340.203
515.496	334.508
519.48	307.927
523.461	273.855
527.441	266.354
531.418	209.863
535.394	197.38
539.368	201.331
543.34	195.068
547.311	187.655
551.279	169.242
555.245	119.791
559.21	74.422
563.173	39.113
567.133	18.492
571.092	10.373
575.049	1.102
579.005	6.053
582.958	4.883
586.909	7.013
590.859	7.264
594.807	11.116
598.753	3.381
602.697	2.627
606.639	7.476
610.579	17.937
614.518	34.487
618.454	36.986
622.389	34.466
626.322	10.027
630.253	4.551
634.182	0.082
638.109	3.753
642.035	6.508
645.958	19.75
649.88	49.978
653.8	57.194
657.718	40.413
661.634	33.658
665.549	22.943
669.461	18.253
673.372	13.582
677.281	7.932
681.188	13.283
685.093	17.618
688.997	17.937
692.898	7.241
696.798	1.521
700.696	5.774
704.592	6.006
708.486	13.219
712.378	12.413
716.269	5.587
720.158	0.74
724.045	2.138
727.93	6.068
731.813	0.077
735.694	5.901
739.574	1.17
743.452	7.178
747.328	3.249
751.202	9.329
755.075	4.884
758.945	2.245
762.814	5.111
766.681	5.827
770.546	6.523
774.409	8.198
778.271	1.851
782.131	6.482
785.989	11.083
789.845	14.121
793.699	20.029
797.552	26.954
801.402	14.493
805.251	34.015
809.098	61.521
812.944	75.011
816.787	91.486
820.629	105.944
824.469	109.384
828.307	82.807
832.144	72.215
835.978	79.603
839.811	93.975
843.642	100.483
847.472	91.831
851.299	106.675
855.125	123.854
858.949	134.095
862.771	154.356
866.591	163.614
870.41	163.821
874.227	159.954
878.042	155.161
881.855	122.78
885.667	84.165
889.476	70.086
893.284	58.74
897.09	68.543
900.895	67.441
904.698	67.068
908.499	49.838
912.298	40.454
916.095	40.39
919.891	56.487
923.685	83.466
927.477	114.486
931.267	138.429
935.056	130.421
938.843	96.384
942.628	71.48
946.411	51.551
950.193	35.672
953.973	21.78
957.751	17.884
961.527	11.972
965.302	6.166
969.075	10.255
972.846	13.336
976.615	8.402
980.383	6.505
984.149	5.606
987.913	6.779
991.675	1.128
995.436	4.915
999.195	0.018
1002.95	0.054
1006.71	1.091
1010.46	9.13
1014.21	5.187
1017.96	3.216
1021.71	2.325
1025.46	8.491
1029.2	6.676
1032.95	1.73
1036.69	3.924
1040.43	3.99
1044.17	6.055
1047.9	7.472
1051.64	1.222
1055.37	0.332
1059.1	2.569
1062.83	5.663
1066.56	7.769
1070.29	4.866
1074.01	2.964
1077.73	5.069
1081.46	2.299
1085.17	1.398
1088.89	4.496
1092.61	5.594
1096.32	0.69
1100.04	10.784
1103.75	6.901
1107.46	3.991
1111.16	5.081
1114.87	3.168
1118.57	8.251
1122.28	11.333
1125.98	7.422
1129.67	2.501
1133.37	0.308
1137.07	0.352
1140.76	2.724
1144.45	0.154
1148.14	1.879
1151.83	6.9
1155.52	7.957
1159.21	0.019
1162.89	3.079
1166.57	1.132
1170.25	6.088
1173.93	0.139
1177.61	1.184
1181.28	1.772
1184.96	2.268
1188.63	3.307
1192.3	1.342
1195.97	3.424
1199.64	0.247
1203.3	2.356
1206.97	1.667
1210.63	12.353
1214.29	8.374
1217.95	9.378
1221.6	7.39
1225.26	6.402
1228.91	8.402
1232.57	3.403
1236.21	7.403
1239.86	5.377
1243.51	11.37
1247.16	0.36
1250.8	4.349
1254.44	9.334
1258.08	6.325
1261.72	6.204
1265.36	9.194
1268.99	1.173
1272.63	6.155
1276.26	9.092
1279.89	5.989
1283.52	12.84
1287.15	2.195
1290.77	3.746
1294.4	14.717
1298.02	5.652
1301.64	11.614
1305.26	9.545
1308.88	8.504
1312.49	8.454
1316.11	0.659
1319.72	9.135
1323.33	9.954
1326.94	9.773
1330.55	5.721
1334.15	5.67
1337.76	2.61
1341.36	0.556
1344.96	5.461
1348.56	7.404
1352.16	3.212
1355.75	5.261
1359.35	7.202
1362.94	4.147
1366.53	2.842
1370.12	8.021
1373.71	7.815
1377.3	3.771
1380.88	6.667
1384.46	8.591
1388.05	7.52
1391.63	4.471
1395.2	7.422
1398.78	3.362
1402.36	3.31
1405.93	14.206
1409.5	0.943
1413.07	1.884
1416.64	7.824
1420.21	4.761
1423.78	5.495
1427.34	1.435
1430.9	7.381
1434.46	5.238
1438.02	4.066
1441.58	5.005
1445.13	10.939
1448.69	5.871
1452.24	2.748
1455.79	5.685
1459.34	5.621
1462.89	7.554
1466.44	5.449
1469.98	6.373
1473.53	6.318
1477.07	2.256
1480.61	4.175
1484.14	10.143
1487.68	5.117
1491.22	15.07
1494.75	6.017
1498.28	2.002
1501.81	7.017
1505.34	6.055
1508.87	5.051
1512.4	2.712
1515.92	0.186
1519.44	5.638
1522.96	0
