Measurement: Raman, 514 nm, ccw, Raman Data Processed
Mineral: Sulphur
Rruff sample: R040135
Ideal chemistry: S
Locality: Sicily, Italy
Source: University of Arizona Mineral Museum
Description: Yellow fragments
Measured chemistry: S_1.00_
Pin_id: L00272
Orientation: Laser parallel to -c* (0 0 -1). Fiducial mark perpendicular to laser is parallel to a [1 0 0]
Raman shift (cm-1)	intensity
55.323	0
59.501	2.23
63.677	9.337
67.851	4.302
72.024	3.272
76.195	3.348
80.364	103.155
84.531	318.57
88.697	1202.43
92.86	1126.48
97.022	474.649
101.183	323.678
105.341	292.334
109.498	326.483
113.653	351.043
117.806	336.955
121.958	351.175
126.108	346.879
130.256	334.622
134.402	366.744
138.547	489.884
142.69	1213.92
146.831	3960.89
150.97	7400.82
155.108	10815.8
159.244	2343.81
163.378	675.881
167.51	391.024
171.641	267.236
175.77	234.52
179.897	204.875
184.023	272.297
188.146	401.783
192.269	751.839
196.389	1137.82
200.507	660.519
204.624	604.194
208.74	1508.85
212.853	7297.04
216.965	20493.3
221.075	25272.9
225.183	2681.7
229.29	940.919
233.394	713.418
237.498	945.071
241.599	2172.87
245.699	5546.05
249.797	1578.38
253.893	363.838
257.988	195.412
262.081	138.082
266.172	121.835
270.261	116.66
274.349	150.553
278.435	113.504
282.519	115.763
286.602	99.586
290.683	86.716
294.762	85.88
298.84	99.064
302.916	95.264
306.99	57.481
311.062	35.716
315.133	24.971
319.202	13.248
323.27	6.544
327.335	8.147
331.4	8.847
335.462	24.574
339.522	15.34
343.581	19.827
347.639	10.981
351.694	0.844
355.748	4.278
359.8	0.68
363.851	16.253
367.9	30.111
371.947	44.949
375.993	53.793
380.036	83.649
384.079	95.525
388.119	102.436
392.158	119.377
396.195	134.342
400.23	117.328
404.264	134.334
408.296	197.354
412.327	239.384
416.356	281.435
420.383	418.917
424.408	617.202
428.432	961.298
432.454	1339.88
436.474	1419.12
440.493	1035.35
444.51	446.809
448.526	349.283
452.54	432.088
456.552	836.402
460.562	2059.5
464.571	5102.59
468.578	15881.7
472.584	40002.8
476.588	18044.1
480.59	4760.26
484.591	2141.36
488.59	1204.14
492.587	773.856
496.583	524.839
500.577	428.545
504.569	312.53
508.56	288.746
512.549	276.484
516.536	249.626
520.522	230.064
524.506	211.032
528.489	178.012
532.469	151.989
536.449	127.977
540.426	130.051
544.402	123.568
548.376	130.88
552.349	143.605
556.32	121.566
560.29	73.516
564.257	38.463
568.224	26.401
572.188	22.692
576.151	6.004
580.112	12.221
584.072	4.567
588.03	0.476
591.986	4.084
595.941	6.087
599.894	5.869
603.846	5.871
607.796	1.093
611.744	1.83
615.691	9.995
619.636	22.705
623.579	28.41
627.521	20.439
631.462	7.097
635.4	5.735
639.337	4.332
643.273	6.915
647.206	18.654
651.139	29.093
655.069	20.727
658.998	16.397
662.926	35.106
666.851	18.846
670.775	11.6
674.698	11.356
678.619	18.109
682.538	27.855
686.456	24.59
690.372	25.312
694.287	2.021
698.2	5.284
702.111	2.889
706.021	6.037
709.929	7.678
713.836	17.305
717.741	8.92
721.644	16.522
725.546	6.112
729.446	1.109
733.345	0.808
737.242	3.663
741.137	0.376
745.031	0.959
748.924	4.029
752.814	4.328
756.703	0.873
760.591	6.161
764.477	9.466
768.361	3.755
772.244	4.417
776.125	4.744
780.005	5.939
783.883	10.358
787.76	13.647
791.635	8.637
795.508	8.811
799.38	24.044
803.25	37.296
807.119	56.542
810.986	73.779
814.851	114.007
818.715	144.226
822.578	153.435
826.439	124.635
830.298	117.833
834.155	108.017
838.012	117.314
841.866	112.482
845.719	116.63
849.571	127.721
853.421	127.365
857.269	152.33
861.116	163.584
864.961	171.664
868.805	167.761
872.647	159.906
876.487	155.986
880.326	159.299
884.164	133.877
888	85.662
891.834	55.147
895.667	45.349
899.498	57.533
903.328	52.923
907.156	40.805
910.983	41.514
914.808	39.506
918.632	32.539
922.454	35.171
926.274	46.047
930.093	78.076
933.91	94.711
937.726	94.763
941.541	96.79
945.353	73.816
949.165	47.862
952.974	32.905
956.783	19.944
960.589	10.996
964.394	4.035
968.198	5.065
972	14.486
975.801	9.237
979.6	2.32
983.397	1.344
987.193	1.571
990.988	0.441
994.78	3.449
998.572	7.453
1002.36	8.46
1006.15	2.461
1009.94	0.465
1013.72	2.486
1017.51	6.537
1021.29	0.96
1025.07	4.209
1028.85	0.746
1032.63	6.239
1036.4	5.223
1040.18	4.213
1043.95	5.785
1047.72	5.253
1051.49	6.249
1055.26	13.253
1059.03	11.251
1062.79	0.252
1066.56	6.252
1070.32	8.258
1074.08	4.261
1077.84	7.263
1081.6	3.263
1085.36	3.265
1089.11	9.269
1092.87	16.27
1096.62	10.272
1100.37	9.269
1104.12	5.307
1107.86	5.316
1111.61	8.406
1115.36	5.396
1119.1	8.493
1122.84	4.476
1126.58	0.531
1130.32	2.443
1134.06	17.411
1137.79	4.361
1141.53	6.254
1145.26	11.225
1148.99	8.186
1152.72	8.12
1156.45	9.082
1160.17	2.034
1163.9	6.805
1167.62	2.972
1171.35	2.921
1175.07	8.84
1178.79	11.72
1182.5	9.423
1186.22	7.296
1189.93	1.245
1193.65	5.798
1197.36	6.662
1201.07	7.412
1204.78	12.321
1208.49	8.232
1212.19	8.127
1215.9	2.053
1219.6	3.964
1223.3	5.826
1227	10.696
1230.7	11.733
1234.4	11.627
1238.1	7.524
1241.79	4.405
1245.48	7.312
1249.17	0.191
1252.86	3.067
1256.55	3.939
1260.24	4.829
1263.92	10.784
1267.61	7.645
1271.29	14.384
1274.97	15.179
1278.65	2.027
1282.33	0.1
1286.01	8.677
1289.68	6.52
1293.36	14.361
1297.03	11.203
1300.7	9.037
1304.37	13.876
1308.04	12.705
1311.71	1.529
1315.37	3.08
1319.04	7.646
1322.7	8.301
1326.36	10.072
1330.02	11.901
1333.68	9.723
1337.33	10.529
1340.99	8.349
1344.64	4.127
1348.29	8.17
1351.94	7.987
1355.59	5.811
1359.24	2.759
1362.89	2.573
1366.53	9.402
1370.18	3.257
1373.82	9.062
1377.46	2.86
1381.1	12.637
1384.74	6.438
1388.37	5.186
1392.01	6.911
1395.64	6.643
1399.27	9.365
1402.9	0.081
1406.53	1.102
1410.16	8.722
1413.79	9.503
1417.41	6.326
1421.04	8.149
1424.66	2.965
1428.28	11.427
1431.9	10.267
1435.52	10.109
1439.13	4.905
1442.75	8.743
1446.36	15.572
1449.98	17.364
1453.59	16.176
1457.2	5.686
1460.8	1.474
1464.41	7.241
1468.02	14.903
1471.62	16.807
1475.22	9.411
1478.82	12.225
1482.42	5.983
1486.02	3.812
1489.62	9.641
1493.21	18.467
1496.81	6.294
1500.4	9.053
1503.99	17.914
1507.58	7.783
1511.17	1.704
1514.76	5.152
1518.34	3.832
1521.93	5.241
1525.51	12.737
1529.09	19.48
1532.67	4.934
1536.25	0
