Measurement: Raman, 514 nm, ccw, Raman Data Processed
Mineral: Sulphur
Rruff sample: R050006
Ideal chemistry: S
Locality: San Felipe, Mexicali, Baja California Norte, Mexico
Source: Eugene Schlepp
Description: Yellow single crystal
Measured chemistry: S_1.00_
Pin_id: L00477
Orientation: Laser parallel to -b* (0 -1 0). Fiducial mark perpendicular to laser is parallel to -c [0 0 -1]
Raman shift (cm-1)	intensity
52.261	0
56.477	16.095
60.691	19.065
64.903	16.079
69.112	12.633
73.319	4.057
77.525	2.9
81.728	5.623
85.929	43.179
90.128	214.559
94.324	181.714
98.519	84.484
102.712	79.707
106.902	100.289
111.09	118.171
115.277	160.311
119.461	150.678
123.643	135.269
127.823	150.465
132.001	175.128
136.176	204.849
140.35	271.506
144.521	497.124
148.691	1500.74
152.858	7574.38
157.024	12414.1
161.187	2752.78
165.348	783.559
169.507	382.396
173.664	239.291
177.819	201.243
181.971	207.25
186.122	224.309
190.271	256.419
194.417	260.711
198.562	256.778
202.704	293.374
206.844	430.374
210.983	864.558
215.119	3461.53
219.253	26708
223.385	22766.9
227.515	2970.06
231.643	910.485
235.769	571.074
239.893	409.605
244.014	320.576
248.134	316.423
252.252	267.508
256.367	155.673
260.481	128.911
264.592	123.215
268.702	118.575
272.809	118.992
276.915	113.465
281.018	102.984
285.119	115.544
289.218	102.145
293.316	101.778
297.411	110.434
301.504	100.11
305.595	85.81
309.684	44.53
313.771	37.268
317.856	34.025
321.939	29.798
326.02	11.59
330.099	10.397
334.176	3.214
338.251	14.973
342.323	15.18
346.394	4.41
350.463	13.656
354.53	1.079
358.594	1.793
362.657	0.554
366.718	23.035
370.777	41.584
374.833	41.132
378.888	52.689
382.941	63.259
386.992	55.857
391.04	49.482
395.087	58.128
399.132	46.79
403.174	56.468
407.215	56.16
411.254	70.866
415.29	70.585
419.325	73.31
423.358	109.397
427.389	153.365
431.417	273.4
435.444	320.3
439.469	291.593
443.492	260.376
447.512	154.973
451.531	159.859
455.548	204.154
459.563	426.042
463.576	1043.42
467.587	2431.4
471.596	7659.17
475.603	17915.9
479.608	7150.79
483.611	2245.55
487.612	1034.4
491.611	576.238
495.608	394.307
499.603	313.16
503.596	260.554
507.587	188.431
511.577	153.813
515.564	137.885
519.549	145.361
523.533	131.801
527.514	111.473
531.493	109.143
535.471	93.841
539.447	99.51
543.42	95.289
547.392	88.191
551.362	103.902
555.329	91.576
559.295	84.255
563.259	52.976
567.221	19.635
571.181	11.323
575.139	7.058
579.095	2.908
583.049	0.863
587.002	2.236
590.952	0.832
594.9	3.949
598.847	5.61
602.792	1.867
606.734	10.923
610.675	5.415
614.614	4.999
618.55	0.401
622.485	0.96
626.418	7.422
630.349	9.773
634.279	0.106
638.206	3.426
642.131	0.266
646.055	10.028
649.976	0.309
653.896	11.584
657.814	1.875
661.729	11.185
665.643	9.517
669.555	8.738
673.465	4.235
677.373	14.609
681.28	12.979
685.184	10.342
689.087	2.694
692.987	11.035
696.886	3.366
700.783	10.684
704.677	6.988
708.57	3.277
712.462	4.556
716.351	1.824
720.238	5.081
724.124	3.328
728.007	6.564
731.889	10.785
735.769	7.968
739.647	0.328
743.523	1.752
747.397	3.502
751.269	2.658
755.139	2.276
759.008	6.148
762.875	1.338
766.739	10.171
770.602	3.19
774.463	3.003
778.323	0.468
782.18	4.457
786.035	9.492
789.889	9.439
793.741	12.451
797.591	25.372
801.439	29.409
805.285	44.08
809.129	67.028
812.971	98.016
816.812	150.036
820.651	179.081
824.488	176.125
828.323	153.121
832.156	123.117
835.987	101.793
839.817	108.137
843.644	136.084
847.47	144.101
851.294	152.038
855.116	160.906
858.936	169.665
862.755	206.694
866.571	242.629
870.386	241.502
874.199	232.625
878.01	220.519
881.82	212.567
885.627	143.39
889.433	91.076
893.236	58.695
897.038	53.738
900.838	48.322
904.637	45.024
908.433	52.944
912.228	41.869
916.021	39.412
919.812	27.236
923.601	31.195
927.388	48.169
931.174	61.093
934.958	70.991
938.739	67.955
942.52	50.925
946.298	36.573
950.074	25.864
953.849	15.944
957.622	5.744
961.393	10.961
965.162	10.947
968.93	7.993
972.696	1.03
976.459	5.937
980.222	6.902
983.982	0.134
987.74	0.828
991.497	3.788
995.252	3.759
999.005	2.726
1002.76	6.689
1006.51	1.283
1010.25	4.676
1014	2.635
1017.74	0.639
1021.49	4.026
1025.23	15.227
1028.96	0.824
1032.7	0.123
1036.44	10.069
1040.17	3.017
1043.9	1.974
1047.63	1.923
1051.36	0.886
1055.09	1.841
1058.81	8.796
1062.54	1.748
1066.26	6.866
1069.97	12.865
1073.69	12.85
1077.41	2.942
1081.12	2.927
1084.84	9.877
1088.55	11.303
1092.25	8.77
1095.96	7.714
1099.67	11.656
1103.37	4.594
1107.07	0.533
1110.77	3.593
1114.47	4.519
1118.16	1.449
1121.86	8.315
1125.55	12.362
1129.24	10.157
1132.93	4.071
1136.62	3.952
1140.31	0.868
1143.99	7.783
1147.67	12.669
1151.35	0.375
1155.03	7.717
1158.71	11.399
1162.39	5.137
1166.06	1.032
1169.73	2.282
1173.4	8.635
1177.07	7.475
1180.74	11.234
1184.4	10.182
1188.07	2.051
1191.73	5.919
1195.39	4.778
1199.05	7.634
1202.7	11.486
1206.36	14.209
1210.01	6.117
1213.66	0.034
1217.31	0.803
1220.96	9.644
1224.6	2.307
1228.25	4.229
1231.89	9.981
1235.53	13.814
1239.17	8.642
1242.81	5.461
1246.44	5.277
1250.08	2.981
1253.71	2.78
1257.34	11.535
1260.97	7.752
1264.6	8.472
1268.22	7.402
1271.85	10.587
1275.47	10.888
1279.09	7.683
1282.71	11.694
1286.33	11.358
1289.94	10.284
1293.56	0.061
1297.17	8.771
1300.78	15.551
1304.39	6.331
1307.99	7.112
1311.6	8.844
1315.2	0.12
1318.8	7.778
1322.4	9.55
1326	7.316
1329.6	6.002
1333.19	8.834
1336.79	5.491
1340.38	10.338
1343.97	15.076
1347.56	5.822
1351.14	4.668
1354.73	5.45
1358.31	13.982
1361.89	5.741
1365.47	6.421
1369.05	10.997
1372.63	0.689
1376.2	6.396
1379.78	6.153
1383.35	10.834
1386.92	12.621
1390.49	9.398
1394.05	12.048
1397.62	7.822
1401.18	3.405
1404.74	14.364
1408.3	9.11
1411.86	11.814
1415.42	2.56
1418.97	17.305
1422.53	3.001
1426.08	0.665
1429.63	10.435
1433.18	5.203
1436.72	11.976
1440.27	13.653
1443.81	14.428
1447.36	13.211
1450.89	17.955
1454.43	2.739
1457.97	8.537
1461.51	9.345
1465.04	21.109
1468.57	12.86
1472.1	13.561
1475.63	10.005
1479.16	11.294
1482.68	9.98
1486.21	10.65
1489.73	12.089
1493.25	0.371
1496.77	9.288
1500.29	8.938
1503.8	10.669
1507.32	9.372
1510.83	5.621
1514.34	5.952
1517.85	12.232
1521.36	5.373
