Measurement: Raman, 514 nm, ccw, Raman Data Processed
Mineral: Sulphur
Rruff sample: R040135
Ideal chemistry: S
Locality: Sicily, Italy
Source: University of Arizona Mineral Museum
Description: Yellow fragments
Measured chemistry: S_1.00_
Pin_id: L00267
Orientation: Laser parallel to -a* (-1 0 0). Fiducial mark perpendicular to laser is parallel to b [0 1 0]
Raman shift (cm-1)	intensity
55.323	0
59.501	5.128
63.677	8.646
67.851	6.743
72.024	2.127
76.195	5.318
80.364	62.167
84.531	360.631
88.697	950.589
92.86	820.751
97.022	310.059
101.183	199.254
105.341	169.098
109.498	182.456
113.653	197.238
117.806	190.385
121.958	195.851
126.108	205.686
130.256	252.838
134.402	317.004
138.547	460.455
142.69	826.798
146.831	2734.07
150.97	10709.3
155.108	21329.6
159.244	4440.93
163.378	1088.33
167.51	536.787
171.641	352.321
175.77	265.931
179.897	274.614
184.023	329.368
188.146	354.188
192.269	365.073
196.389	367.26
200.507	423.389
204.624	613.131
208.74	1375.61
212.853	6574.13
216.965	31372.7
221.075	42032.6
225.183	3962.64
229.29	1163.16
233.394	772.975
237.498	569.023
241.599	440.104
245.699	429.615
249.797	430.281
253.893	205.078
257.988	164.992
262.081	131.005
266.172	136.102
270.261	121.274
274.349	106.511
278.435	107.811
282.519	105.177
286.602	96.616
290.683	85.108
294.762	104.642
298.84	100.206
302.916	86.788
306.99	61.386
311.062	42.002
315.133	49.638
319.202	43.295
323.27	24.971
327.335	18.664
331.4	2.631
335.462	19.937
339.522	20.282
343.581	16.67
347.639	25.1
351.694	7.579
355.748	0.082
359.8	8.367
363.851	42.707
367.9	73.939
371.947	65.127
375.993	69.32
380.036	77.522
384.079	93.742
388.119	101.997
392.158	94.28
396.195	84.585
400.23	84.906
404.264	88.244
408.296	109.595
412.327	117.965
416.356	142.562
420.383	171.119
424.408	242.75
428.432	431.29
432.454	528.898
436.474	562.588
440.493	473.563
444.51	256.831
448.526	227.805
452.54	337.025
456.552	609.124
460.562	1518.84
464.571	3591.16
468.578	11174.5
472.584	28015.8
476.588	12627.5
480.59	3459.89
484.591	1582.31
488.59	896.639
492.587	604.014
496.583	448.573
500.577	339.034
504.569	257.631
508.56	215.963
512.549	187.639
516.536	160.296
520.522	152.068
524.506	144.186
528.489	138.697
532.469	118.395
536.449	110.487
540.426	113.824
544.402	121.324
548.376	119.521
552.349	95.598
556.32	96.642
560.29	57.674
564.257	26.73
568.224	9.921
572.188	10.426
576.151	2.587
580.112	0.355
584.072	4.717
588.03	2.676
591.986	3.623
595.941	5.541
599.894	6.38
603.846	12.528
607.796	3.202
611.744	0.037
615.691	3.215
619.636	12.413
623.579	13.116
627.521	7.694
631.462	1.744
635.4	6.793
639.337	3.31
643.273	4.807
647.206	9.286
651.139	14.755
655.069	12.247
658.998	13.774
662.926	8.339
666.851	3.946
670.775	16.585
674.698	16.237
678.619	13.889
682.538	18.526
686.456	20.15
690.372	16.316
694.287	4.363
698.2	1.052
702.111	4.508
706.021	7.048
709.929	8.572
713.836	9.082
717.741	3.578
721.644	4.062
725.546	1.746
729.446	0.036
733.345	3.403
737.242	3.195
741.137	8.496
745.031	3.677
748.924	4.833
752.814	0.9
756.703	1.088
760.591	4.13
764.477	2.728
768.361	0.068
772.244	2.412
776.125	3.326
780.005	8.949
783.883	8.215
787.76	8.238
791.635	12.286
795.508	30.388
799.38	35.495
803.25	52.657
807.119	88.892
810.986	142.121
814.851	209.344
818.715	275.561
822.578	286.76
826.439	238.036
830.298	189.444
834.155	165.502
838.012	173.815
841.866	200.04
845.719	207.637
849.571	213.775
853.421	222.631
857.269	252.486
861.116	328.52
864.961	346.654
868.805	364.79
872.647	355.035
876.487	361.132
880.326	301.932
884.164	227.652
888	145.906
891.834	91.711
895.667	67.723
899.498	64.765
903.328	67.838
907.156	64.878
910.983	54.802
914.808	34.92
918.632	37.385
922.454	38.586
926.274	59.602
930.093	100.655
933.91	115.83
937.726	106.005
941.541	74.179
945.353	52.356
949.165	35.609
952.974	24.79
956.783	20.968
960.589	11.151
964.394	9.325
968.198	7.787
972	2.772
975.801	0.95
979.6	3.883
983.397	1.28
987.193	7.436
990.988	4.591
994.78	4.748
998.572	2.894
1002.36	1.194
1006.15	1.429
1009.94	1.938
1013.72	1.048
1017.51	3.193
1021.29	6.337
1025.07	2.478
1028.85	4.626
1032.63	0.235
1036.4	2.909
1040.18	3.055
1043.95	1.392
1047.72	3.553
1051.49	3.704
1055.26	0.848
1059.03	0.006
1062.79	4.144
1066.56	1.706
1070.32	0.57
1074.08	6.564
1077.84	8.696
1081.6	3.826
1085.36	7.959
1089.11	7.083
1092.87	3.248
1096.62	3.457
1100.37	4.578
1104.12	3.7
1107.86	7.816
1111.61	6.943
1115.36	10.148
1119.1	8.223
1122.84	10.325
1126.58	5.416
1130.32	6.257
1134.06	6.326
1137.79	4.418
1141.53	2.507
1145.26	4.543
1148.99	2.198
1152.72	2.277
1156.45	2.711
1160.17	2.429
1163.9	8.489
1167.62	9.707
1171.35	10.764
1175.07	1.669
1178.79	8.713
1182.5	5.731
1186.22	5.778
1189.93	2.188
1193.65	0.85
1197.36	7.882
1201.07	10.915
1204.78	5.933
1208.49	2.948
1212.19	1.969
1215.9	6.877
1219.6	7.641
1223.3	5.595
1227	2.606
1230.7	1.615
1234.4	6.621
1238.1	5.624
1241.79	5.797
1245.48	7.793
1249.17	1.714
1252.86	2.827
1256.55	2.816
1260.24	6.797
1263.92	10.781
1267.61	3.763
1271.29	8.638
1274.97	7.607
1278.65	7.554
1282.33	6.656
1286.01	4.628
1289.68	5.594
1293.36	5.562
1297.03	10.529
1300.7	6.342
1304.37	0.999
1308.04	1.878
1311.71	2.182
1315.37	1.78
1319.04	7.738
1322.7	5.69
1326.36	6.64
1330.02	1.63
1333.68	0.417
1337.33	3.337
1340.99	4.266
1344.64	1.209
1348.29	5.145
1351.94	0.086
1355.59	2.022
1359.24	2.951
1362.89	5.912
1366.53	4.852
1370.18	5.789
1373.82	1.727
1377.46	13.663
1381.1	5.603
1384.74	3.546
1388.37	3.49
1392.01	6.335
1395.64	6.273
1399.27	6.219
1402.9	9.111
1406.53	3.071
1410.16	3.026
1413.79	3.982
1417.41	1.936
1421.04	0.107
1424.66	5.736
1428.28	3.477
1431.9	1.436
1435.52	5.719
1439.13	10.251
1442.75	0.207
1446.36	4.139
1449.98	5.058
1453.59	6.02
1457.2	2.981
1460.8	3.945
1464.41	4.574
1468.02	4.266
1471.62	0.799
1475.22	2.141
1478.82	4.077
1482.42	3.749
1486.02	1.174
1489.62	5.615
1493.21	9.975
1496.81	3.454
1500.4	3.382
1503.99	0.667
1507.58	5.11
1511.17	3.096
1514.76	3.104
1518.34	8.137
1521.93	2.989
1525.51	4.099
1529.09	3.28
1532.67	6.717
1536.25	0
