Measurement: Raman, 514 nm, ccw, Raman Data Processed
Mineral: Sulphur
Rruff sample: R050006
Ideal chemistry: S
Locality: San Felipe, Mexicali, Baja California Norte, Mexico
Source: Eugene Schlepp
Description: Yellow single crystal
Measured chemistry: S_1.00_
Pin_id: L00477
Orientation: Laser parallel to -b* (0 -1 0). Fiducial mark perpendicular to laser is parallel to -c [0 0 -1]
Raman shift (cm-1)	intensity
52.261	0
56.477	18.735
60.691	23.811
64.903	25.558
69.112	2.299
73.319	5.064
77.525	4.915
81.728	24.128
85.929	181.62
90.128	508.273
94.324	511.027
98.519	328.679
102.712	347.996
106.902	369.84
111.09	384.123
115.277	469.789
119.461	375.792
123.643	362.098
127.823	379.155
132.001	390.045
136.176	442.068
140.35	611.015
144.521	1197.91
148.691	3922.8
152.858	11025.7
157.024	19844.7
161.187	10323.7
165.348	2655.88
169.507	1027.11
173.664	567.427
177.819	430.836
181.971	468.334
186.122	841.916
190.271	1230.58
194.417	673.335
198.562	574.737
202.704	458.441
206.844	535.08
210.983	1032.96
215.119	4513.49
219.253	18107.4
223.385	29035.4
227.515	5015.81
231.643	1254.48
235.769	842.386
239.893	771.377
244.014	707.365
248.134	1084.83
252.252	1096.48
256.367	453.258
260.481	176.151
264.592	135.141
268.702	124.222
272.809	123.386
276.915	122.634
281.018	85.956
285.119	80.344
289.218	78.806
293.316	84.332
297.411	86.901
301.504	83.506
305.595	89.143
309.684	65.811
313.771	47.513
317.856	53.248
321.939	52.02
326.02	65.826
330.099	17.68
334.176	3.564
338.251	9.536
342.323	23.641
346.394	27.777
350.463	17.953
354.53	5.157
358.594	3.369
362.657	6.629
366.718	22.993
370.777	36.549
374.833	40.096
378.888	67.66
382.941	84.25
386.992	86.887
391.04	86.566
395.087	104.284
399.132	99.033
403.174	108.812
407.215	150.62
411.254	239.455
415.29	293.425
419.325	354.412
423.358	533.482
427.389	801.635
431.417	1200.57
435.444	1519.31
439.469	1885.29
443.492	1846.33
447.512	729.018
451.531	335.883
455.548	341.146
459.563	619.781
463.576	1638.79
467.587	4135.8
471.596	10191.8
475.603	21402.8
479.608	12204
483.611	3710.5
487.612	1489.75
491.611	820.157
495.608	540.128
499.603	405.327
503.596	336.141
507.587	232.93
511.577	207.022
515.564	172.644
519.549	172.175
523.533	162.026
527.514	118.827
531.493	108.764
535.471	109.699
539.447	92.753
543.42	107.94
547.392	101.055
551.362	110.337
555.329	107.269
559.295	75.214
563.259	47.119
567.221	30.103
571.181	17.173
575.139	19.437
579.095	0.393
583.049	2.124
587.002	6.033
590.952	7.939
594.9	5.722
598.847	7.376
602.792	3.043
606.734	11.907
610.675	5.816
614.614	2.408
618.55	15.177
622.485	7.771
626.418	25.337
630.349	15.915
634.279	0.476
638.206	5.037
642.131	3.44
646.055	4.136
649.976	14.242
653.896	12.603
657.814	17.965
661.729	25.346
665.643	26.773
669.555	21.241
673.465	19.731
677.373	13.228
681.28	16.724
685.184	18.212
689.087	28.683
692.987	22.138
696.886	2.574
700.783	0.013
704.677	15.377
708.57	17.742
712.462	8.086
716.351	15.413
720.238	2.723
724.124	3.012
728.007	6.282
731.889	20.413
735.769	6.615
739.647	12.486
743.523	9.475
747.397	4.014
751.269	8.485
755.139	0.953
759.008	5.294
762.875	9.477
766.739	1.481
770.602	18.966
774.463	3.635
778.323	3.607
782.18	4.568
786.035	0.513
789.889	8.301
793.741	11.699
797.591	29.552
801.439	30.846
805.285	38.715
809.129	68.596
812.971	102.467
816.812	144.328
820.651	171.159
824.488	185.998
828.323	165.742
832.156	141.572
835.987	126.374
839.817	114.164
843.644	141.943
847.47	157.804
851.294	164.361
855.116	201.98
858.936	219.666
862.755	250.035
866.571	284.8
870.386	299.599
874.199	301.21
878.01	275.908
881.82	258.503
885.627	198.828
889.433	119.691
893.236	85.665
897.038	64.496
900.838	96.173
904.637	78.433
908.433	69.596
912.228	54.27
916.021	36.909
919.812	31.43
923.601	49.056
927.388	55.986
931.174	75.617
934.958	98.279
938.739	88.032
942.52	63.684
946.298	60.606
950.074	31.256
953.849	14.92
957.622	22.595
961.393	12.26
965.162	20.92
968.93	13.586
972.696	7.324
976.459	2.972
980.222	8.617
983.982	10.258
987.74	8.944
991.497	8.677
995.252	1.689
999.005	3.964
1002.76	10.598
1006.51	5.22
1010.25	5.858
1014	10.483
1017.74	6.103
1021.49	7.72
1025.23	7.35
1028.96	8.973
1032.7	5.612
1036.44	0.785
1040.17	10.93
1043.9	9.537
1047.63	2.866
1051.36	8.724
1055.09	13.403
1058.81	3.057
1062.54	2.661
1066.26	0.717
1069.97	11.037
1073.69	3.656
1077.41	4.255
1081.12	16.846
1084.84	14.44
1088.55	6.026
1092.25	0.63
1095.96	20.234
1099.67	6.823
1103.37	5.398
1107.07	13.088
1110.77	22.661
1114.47	16.256
1118.16	2.815
1121.86	7.369
1125.55	13.913
1129.24	10.463
1132.93	1.026
1136.62	3.474
1140.31	15.028
1143.99	3.485
1147.67	5.99
1151.35	5.506
1155.03	3.84
1158.71	4.348
1162.39	13.846
1166.06	14.28
1169.73	1.676
1173.4	9.339
1177.07	3.814
1180.74	17.231
1184.4	2.056
1188.07	8.513
1191.73	13.54
1195.39	9.555
1199.05	0.099
1202.7	15.349
1206.36	11.814
1210.01	15.132
1213.66	2.52
1217.31	6.495
1220.96	7.928
1224.6	12.048
1228.25	7.939
1231.89	11.348
1235.53	11.587
1239.17	9.771
1242.81	4.914
1246.44	11.314
1250.08	7.691
1253.71	6.066
1257.34	15.439
1260.97	9.804
1264.6	12.143
1268.22	13.425
1271.85	9.778
1275.47	4.149
1279.09	21.472
1282.71	2.774
1286.33	6.014
1289.94	7.335
1293.56	17.638
1297.17	9.975
1300.78	19.302
1304.39	20.598
1307.99	2.896
1311.6	8.208
1315.2	1.559
1318.8	0.296
1322.4	14.95
1326	11.165
1329.6	20.387
1333.19	19.527
1336.79	25.758
1340.38	6.994
1343.97	15.158
1347.56	1.361
1351.14	8.523
1354.73	9.731
1358.31	6.892
1361.89	2.941
1365.47	22.109
1369.05	23.316
1372.63	14.497
1376.2	4.736
1379.78	11.996
1383.35	7.114
1386.92	19.42
1390.49	16.598
1394.05	24.869
1397.62	27.172
1401.18	21.425
1404.74	23.694
1408.3	18.978
1411.86	23.258
1415.42	4.552
1418.97	31.801
1422.53	10.714
1426.08	8.406
1429.63	6.672
1433.18	15.917
1436.72	2.144
1440.27	29.343
1443.81	16.6
1447.36	12.931
1450.89	2.032
1454.43	8.532
1457.97	2.555
1461.51	1.595
1465.04	14.644
1468.57	11.661
1472.1	16.59
1475.63	14.562
1479.16	17.484
1482.68	25.206
1486.21	29.069
1489.73	6.965
1493.25	3.868
1496.77	6.945
1500.29	15.051
1503.8	10.184
1507.32	18.079
1510.83	19.374
1514.34	14.999
1517.85	24.296
1521.36	0
