Measurement: Raman, 514 nm, ccw, Raman Data Processed
Mineral: Sulphur
Rruff sample: R050006
Ideal chemistry: S
Locality: San Felipe, Mexicali, Baja California Norte, Mexico
Source: Eugene Schlepp
Description: Yellow single crystal
Measured chemistry: S_1.00_
Pin_id: L00244
Orientation: Laser parallel to -c* (0 0 -1). Fiducial mark perpendicular to laser is parallel to a [1 0 0]
Raman shift (cm-1)	intensity
48.666	0
52.873	10.866
57.079	8.43
61.283	15.386
65.484	16.393
69.684	2.728
73.881	2.238
78.076	23.234
82.27	161.231
86.461	673.465
90.65	1113.88
94.838	588.242
99.023	425.313
103.206	394.942
107.387	403.04
111.566	432.546
115.744	489.413
119.919	481.65
124.092	514.803
128.263	513.676
132.432	501.695
136.599	594.645
140.764	1022.55
144.927	3178.44
149.088	9303.36
153.247	15989.3
157.404	6646.42
161.559	1715.59
165.711	756.851
169.862	467.219
174.011	357.692
178.158	363.264
182.303	439.934
186.446	539.697
190.587	948.095
194.726	1617.76
198.862	1119.3
202.997	835.654
207.13	1330.47
211.261	5359.14
215.39	25014.2
219.517	43582.3
223.642	9620.8
227.765	2195.56
231.886	1201.52
236.005	1222.54
240.122	2633.69
244.237	6790.02
248.35	3899.8
252.461	929.71
256.57	376.748
260.677	239.895
264.782	191.141
268.885	186.482
272.986	199.914
277.085	197.423
281.182	170.016
285.278	155.706
289.371	167.483
293.462	160.308
297.552	172.173
301.639	134.077
305.724	127.022
309.808	73.008
313.889	63.035
317.969	22.103
322.046	22.22
326.122	0.094
330.196	13.435
334.267	17.249
338.337	12.075
342.405	20.91
346.471	9.768
350.535	8.63
354.597	3.511
358.657	0.473
362.715	23.48
366.771	46.394
370.825	61.303
374.877	72.239
378.928	71.208
382.976	108.231
387.023	128.308
391.067	134.431
395.11	147.596
399.15	151.8
403.189	170.043
407.226	195.323
411.261	226.635
415.294	289.982
419.325	447.41
423.354	690.832
427.381	1143.62
431.406	1617.66
435.43	1865.28
439.451	1583.16
443.471	799.08
447.488	497.175
451.504	567.355
455.518	1047
459.53	2468.61
463.54	6155.23
467.548	18349.9
471.554	51911.5
475.558	35873.2
479.561	10425.5
483.561	3978.64
487.559	2135.22
491.556	1273.79
495.551	848.159
499.544	640.103
503.535	516.848
507.524	416.363
511.511	403.402
515.496	367.226
519.48	335.778
523.461	302.436
527.441	274.119
531.418	228.809
535.394	215.504
539.368	189.26
543.34	202.405
547.311	210.173
551.279	202.935
555.245	186.079
559.21	147.352
563.173	80.06
567.133	30.849
571.092	30.019
575.049	9.7
579.005	7.549
582.958	5.649
586.909	1.033
590.859	0.398
594.807	3.685
598.753	6.085
602.697	5.043
606.639	3.293
610.579	9.825
614.518	16.044
618.454	28.634
622.389	36.14
626.322	34.857
630.253	16.347
634.182	3.7
638.109	0.021
642.035	6.306
645.958	8.57
649.88	21.84
653.8	22.132
657.718	25.451
661.634	26.798
665.549	27.178
669.461	27.568
673.372	34.968
677.281	34.372
681.188	30.763
685.093	50.137
688.997	36.492
692.898	12.829
696.798	0.146
700.696	10.436
704.592	5.704
708.486	22.951
712.378	26.178
716.269	24.384
720.158	8.571
724.045	6.734
727.93	2.871
731.813	3.965
735.694	1.969
739.574	4.025
743.452	5.464
747.328	0.869
751.202	2.723
755.075	1.761
758.945	3.27
762.814	0.352
766.681	2.165
770.546	1.867
774.409	7.596
778.271	2.304
782.131	2.988
785.989	14.65
789.845	14.235
793.699	23.092
797.552	23.331
801.402	44.918
805.251	65.5
809.098	105.066
812.944	158.617
816.787	203.151
820.629	218.669
824.469	195.17
828.307	175.653
832.144	144.128
835.978	131.585
839.811	163.015
843.642	189.453
847.472	191.015
851.299	190.085
855.125	207.322
858.949	259.804
862.771	259.163
866.591	262.478
870.41	233.779
874.227	243.045
878.042	223.208
881.855	191.982
885.667	127.328
889.476	80.483
893.284	80.974
897.09	73.394
900.895	68.289
904.698	60.058
908.499	49.496
912.298	41.46
916.095	36.778
919.891	41.714
923.685	72.812
927.477	98.899
931.267	122.995
935.056	135.871
938.843	133.069
942.628	111.259
946.411	70.458
950.193	50.667
953.973	24.866
957.751	18.066
961.527	10.26
965.302	6.447
969.075	8.706
972.846	6.904
976.615	11.019
980.383	9.242
984.149	1.394
987.913	3.54
991.675	4.738
995.436	1.825
999.195	0.958
1002.95	4.094
1006.71	3.768
1010.46	2.351
1014.21	5.568
1017.96	10.773
1021.71	5.876
1025.46	2.984
1029.2	5.171
1032.95	5.365
1036.69	2.498
1040.43	0.831
1044.17	3.962
1047.9	5.684
1051.64	3.24
1055.37	0.403
1059.1	4.556
1062.83	5.104
1066.56	3.061
1070.29	3.208
1074.01	4.371
1077.73	5.516
1081.46	7.683
1085.17	5.834
1088.89	3.98
1092.61	5.127
1096.32	1.27
1100.04	2.408
1103.75	0.541
1107.46	5.672
1111.16	0.8
1114.87	10.925
1118.57	1.047
1122.28	10.165
1125.98	5.296
1129.67	4.42
1133.37	4.513
1137.07	3.627
1140.76	4.733
1144.45	2.339
1148.14	3.844
1151.83	5.935
1155.52	4.709
1159.21	5.73
1162.89	3.796
1166.57	2.884
1170.25	4.969
1173.93	0.957
1177.61	6.122
1181.28	9.189
1184.96	2.925
1188.63	6.179
1192.3	2.237
1195.97	4.297
1199.64	5.355
1203.3	5.396
1206.97	1.473
1210.63	0.478
1214.29	5.466
1217.95	0.505
1221.6	7.534
1225.26	0.568
1228.91	1.562
1232.57	8.588
1236.21	2.544
1239.86	1.566
1243.51	3.675
1247.16	5.69
1250.8	7.695
1254.44	8.713
1258.08	3.703
1261.72	6.712
1265.36	5.626
1268.99	2.609
1272.63	0.773
1276.26	2.588
1279.89	2.584
1283.52	10.579
1287.15	5.575
1290.77	8.552
1294.4	4.269
1298.02	6.595
1301.64	1.561
1305.26	5.54
1308.88	8.413
1312.49	5.295
1316.11	1.269
1319.72	4.151
1323.33	2.122
1326.94	5.997
1330.55	2.726
1334.15	8.694
1337.76	5.648
1341.36	8.601
1344.96	4.56
1348.56	4.496
1352.16	6.513
1355.75	2.241
1359.35	2.194
1362.94	7.132
1366.53	5.085
1370.12	7.019
1373.71	6.955
1377.3	3.905
1380.88	7.869
1384.46	3.826
1388.05	1.806
1391.63	6.785
1395.2	5.763
1398.78	5.722
1402.36	1.685
1405.93	0.652
1409.5	4.624
1413.07	2.593
1416.64	1.553
1420.21	6.525
1423.78	6.492
1427.34	8.42
1430.9	1.333
1434.46	0.682
1438.02	0.208
1441.58	6.426
1445.13	0.386
1448.69	6.347
1452.24	5.302
1455.79	9.063
1459.34	6.009
1462.89	0.876
1466.44	1.867
1469.98	4.796
1473.53	3.718
1477.07	8.404
1480.61	7.319
1484.14	9.215
1487.68	1.151
1491.22	0.91
1494.75	5.014
1498.28	10.973
1501.81	2.947
1505.34	4.98
1508.87	6.431
1512.4	6.576
1515.92	3.576
1519.44	3.808
1522.96	0
