Measurement: Raman, 514 nm, ccw, Raman Data Processed
Mineral: Sulphur
Rruff sample: R040135
Ideal chemistry: S
Locality: Sicily, Italy
Source: University of Arizona Mineral Museum
Description: Yellow fragments
Measured chemistry: S_1.00_
Pin_id: L00272
Orientation: Laser parallel to -c* (0 0 -1). Fiducial mark perpendicular to laser is parallel to a [1 0 0]
Raman shift (cm-1)	intensity
55.323	0
59.501	12.924
63.677	13.315
67.851	9.112
72.024	3.393
76.195	23.65
80.364	150.041
84.531	469.921
88.697	1665.68
92.86	1467.98
97.022	658.731
101.183	435.6
105.341	416.287
109.498	418.62
113.653	437.335
117.806	431.816
121.958	425.802
126.108	425.895
130.256	414.432
134.402	450.6
138.547	592.816
142.69	1443.91
146.831	4908.9
150.97	9195.86
155.108	14238.9
159.244	2815.92
163.378	823.059
167.51	467.288
171.641	329.609
175.77	274.025
179.897	257.534
184.023	325.13
188.146	447.809
192.269	918.114
196.389	1520.18
200.507	810.578
204.624	721.435
208.74	1715.81
212.853	8322.27
216.965	24904.6
221.075	33024.2
225.183	3250.84
229.29	1162.92
233.394	831.305
237.498	1092.9
241.599	2408.51
245.699	7157.79
249.797	1938.27
253.893	459.909
257.988	231.701
262.081	180.621
266.172	158.648
270.261	164.767
274.349	173.976
278.435	151.268
282.519	117.641
286.602	112.091
290.683	118.604
294.762	128.166
298.84	128.755
302.916	105.365
306.99	84.996
311.062	50.65
315.133	38.327
319.202	26.028
323.27	5.757
327.335	5.492
331.4	18.753
335.462	13.052
339.522	26.383
343.581	20.748
347.639	5.155
351.694	4.591
355.748	7.059
359.8	4.646
363.851	30.656
367.9	44.861
371.947	56.012
375.993	68.161
380.036	77.325
384.079	128.51
388.119	140.738
392.158	154.003
396.195	139.297
400.23	141.618
404.264	176.966
408.296	240.33
412.327	307.707
416.356	349.212
420.383	463.207
424.408	733.681
428.432	1191.4
432.454	1660.27
436.474	1822.49
440.493	1310.88
444.51	595.098
448.526	411.012
452.54	550.511
456.552	1020.37
460.562	2488.8
464.571	6076.23
468.578	18323.6
472.584	50095
476.588	22826.4
480.59	6019.9
484.591	2712.09
488.59	1507.16
492.587	942.976
496.583	688.866
500.577	506.802
504.569	447.583
508.56	383.484
512.549	350.329
516.536	324.126
520.522	285.706
524.506	266.212
528.489	223.462
532.469	189.707
536.449	183.949
540.426	155.213
544.402	168.985
548.376	161.303
552.349	180.522
556.32	145.733
560.29	100.936
564.257	55.131
568.224	39.357
572.188	11.679
576.151	1.254
580.112	11.691
584.072	2.694
588.03	16.349
591.986	3.18
595.941	4.516
599.894	3.324
603.846	5.759
607.796	1.904
611.744	1.448
615.691	10.863
619.636	37.753
623.579	32.633
627.521	30.543
631.462	19.334
635.4	2.131
639.337	7.109
643.273	6.599
647.206	25.296
651.139	32.021
655.069	38.789
658.998	35.585
662.926	26.416
666.851	28.285
670.775	23.176
674.698	23.087
678.619	27.007
682.538	30.919
686.456	34.817
690.372	34.7
694.287	11.567
698.2	3.58
702.111	7.244
706.021	12.049
709.929	11.84
713.836	14.616
717.741	25.377
721.644	21.122
725.546	6.852
729.446	4.562
733.345	0.941
737.242	3.216
741.137	2.486
745.031	0.877
748.924	4.072
752.814	4.016
756.703	5.277
760.591	0.365
764.477	2.138
768.361	2.563
772.244	2.86
776.125	1.293
780.005	1.287
783.883	11.12
787.76	8.515
791.635	9.827
795.508	16.609
799.38	19.731
803.25	34.093
807.119	54.447
810.986	104.792
814.851	137.126
818.715	185.449
822.578	187.766
826.439	168.092
830.298	132.381
834.155	122.665
838.012	128.94
841.866	146.192
845.719	156.447
849.571	156.7
853.421	161.585
857.269	197.604
861.116	213.867
864.961	242.127
868.805	222.383
872.647	207.558
876.487	203.714
880.326	182.783
884.164	162.742
888	109.085
891.834	72.181
895.667	58.839
899.498	64.241
903.328	59.794
907.156	54.579
910.983	52.686
914.808	32.837
918.632	31.588
922.454	42.919
926.274	62.843
930.093	94.904
933.91	112.91
937.726	131.015
941.541	128.126
945.353	108.209
949.165	53.312
952.974	30.8
956.783	26.086
960.589	12.211
964.394	12.327
968.198	14.442
972	11.541
975.801	12.638
979.6	8.748
983.397	8.854
987.193	8.941
990.988	7.021
994.78	13.097
998.572	1.17
1002.36	1.24
1006.15	2.321
1009.94	6.398
1013.72	0.536
1017.51	1.469
1021.29	2.585
1025.07	2.644
1028.85	3.692
1032.63	3.738
1036.4	1.212
1040.18	5.823
1043.95	6.85
1047.72	1.086
1051.49	3.143
1055.26	10.177
1059.03	5.215
1062.79	1.748
1066.56	4.281
1070.32	7.459
1074.08	10.623
1077.84	10.662
1081.6	9.772
1085.36	9.81
1089.11	6.855
1092.87	14.89
1096.62	9.922
1100.37	5.048
1104.12	2.031
1107.86	11.987
1111.61	5.994
1115.36	9.008
1119.1	7.008
1122.84	5.005
1126.58	3.284
1130.32	5.249
1134.06	4.237
1137.79	8.216
1141.53	11.189
1145.26	18.311
1148.99	7.269
1152.72	9.372
1156.45	3.296
1160.17	9.256
1163.9	3.044
1167.62	9.887
1171.35	2.844
1175.07	4.795
1178.79	7.754
1182.5	6.719
1186.22	5.888
1189.93	6.837
1193.65	2.649
1197.36	10.329
1201.07	9.142
1204.78	7.499
1208.49	7.013
1212.19	4.702
1215.9	1.564
1219.6	1.525
1223.3	13.39
1227	0.644
1230.7	9.27
1234.4	1.192
1238.1	14.096
1241.79	12.28
1245.48	5.18
1249.17	5.721
1252.86	1.439
1256.55	10.34
1260.24	1.243
1263.92	22.122
1267.61	3.996
1271.29	7.878
1274.97	7.747
1278.65	4.608
1282.33	10.265
1286.01	10.483
1289.68	11.35
1293.36	9.223
1297.03	12.151
1300.7	5.012
1304.37	8.851
1308.04	5.709
1311.71	10.561
1315.37	5.422
1319.04	2.268
1322.7	10.117
1326.36	10.965
1330.02	8.811
1333.68	10.651
1337.33	12.504
1340.99	4.348
1344.64	10.997
1348.29	5.821
1351.94	7.671
1355.59	5.519
1359.24	4.368
1362.89	18.21
1366.53	9.799
1370.18	0.773
1373.82	5.651
1377.46	12.503
1381.1	7.344
1384.74	1.169
1388.37	12.973
1392.01	12.743
1395.64	12.577
1399.27	7.46
1402.9	3.34
1406.53	11.915
1410.16	12.798
1413.79	12.677
1417.41	11.379
1421.04	5.065
1424.66	13.93
1428.28	3.796
1431.9	6.653
1435.52	13.5
1439.13	0.635
1442.75	15.226
1446.36	8.069
1449.98	11.943
1453.59	2.823
1457.2	2.61
1460.8	10.456
1464.41	10.789
1468.02	3.648
1471.62	18.486
1475.22	4.303
1478.82	13.171
1482.42	8.657
1486.02	10.51
1489.62	16.146
1493.21	12.978
1496.81	11.792
1500.4	8.598
1503.99	8.458
1507.58	5.318
1511.17	0.809
1514.76	0.887
1518.34	4.084
1521.93	5.109
1525.51	11.76
1529.09	3.787
1532.67	7.221
1536.25	0.019
