Measurement: Raman, 514 nm, ccw, Raman Data Processed
Mineral: Sulphur
Rruff sample: R040135
Ideal chemistry: S
Locality: Sicily, Italy
Source: University of Arizona Mineral Museum
Description: Yellow fragments
Measured chemistry: S_1.00_
Pin_id: L00492
Orientation: Laser parallel to b* (0 1 0). Fiducial mark perpendicular to laser is parallel to -c [0 0 -1]
Raman shift (cm-1)	intensity
55.323	0
59.501	17.249
63.677	22.915
67.851	1.284
72.024	7.224
76.195	16.03
80.364	86.081
84.531	250.245
88.697	1246.04
92.86	1205.15
97.022	590.479
101.183	467.814
105.341	455.901
109.498	492.593
113.653	489.801
117.806	513.463
121.958	496.744
126.108	469.996
130.256	448.161
134.402	437.256
138.547	450.522
142.69	758.744
146.831	1818.92
150.97	3689.12
155.108	5726.39
159.244	2276.76
163.378	650.251
167.51	344.865
171.641	244.609
175.77	211.486
179.897	285.493
184.023	444.627
188.146	558.884
192.269	569.261
196.389	643.053
200.507	425.151
204.624	446.178
208.74	1097.86
212.853	4912.27
216.965	17710.8
221.075	19987.5
225.183	2005.05
229.29	662.95
233.394	503.159
237.498	603.341
241.599	1374.12
245.699	3081.22
249.797	839.514
253.893	194.994
257.988	80.644
262.081	75.453
266.172	60.421
270.261	70.513
274.349	92.72
278.435	81.041
282.519	31.467
286.602	45.998
290.683	50.617
294.762	55.311
298.84	66.069
302.916	78.883
306.99	64.754
311.062	50.684
315.133	60.674
319.202	61.728
323.27	39.84
327.335	21.008
331.4	15.771
335.462	10.488
339.522	2.208
343.581	38.872
347.639	31.541
351.694	21.201
355.748	24.864
359.8	2.556
363.851	13.738
367.9	48.988
371.947	28.167
375.993	60.365
380.036	90.604
384.079	117.89
388.119	148.245
392.158	177.668
396.195	231.153
400.23	351.699
404.264	611.306
408.296	1052.05
412.327	1258.78
416.356	1231.92
420.383	1833.44
424.408	2819.63
428.432	4467.62
432.454	6122.86
436.474	7023.52
440.493	4961.96
444.51	1732.71
448.526	818.628
452.54	933.819
456.552	2138.98
460.562	5927.16
464.571	16429.4
468.578	33929.6
472.584	47419.9
476.588	18460.5
480.59	4845.98
484.591	2081.28
488.59	1176.56
492.587	883.13
496.583	692.04
500.577	537.916
504.569	387.664
508.56	361.785
512.549	300.345
516.536	287.074
520.522	257.471
524.506	220.212
528.489	190.316
532.469	159.823
536.449	137.205
540.426	110.663
544.402	138.36
548.376	126.766
552.349	118.265
556.32	56.776
560.29	15.191
564.257	0.755
568.224	13.618
572.188	4.426
576.151	25.962
580.112	7.649
584.072	12.573
588.03	0.173
591.986	4.887
595.941	3.715
599.894	4.649
603.846	8.505
607.796	6.785
611.744	24.154
615.691	57.468
619.636	53.718
623.579	31.952
627.521	9.044
631.462	10.057
635.4	10.044
639.337	17.003
643.273	15.94
647.206	35.858
651.139	33.761
655.069	63.656
658.998	49.537
662.926	39.428
666.851	29.348
670.775	7.282
674.698	31.26
678.619	7.261
682.538	34.247
686.456	5.212
690.372	20.152
694.287	15.07
698.2	4.963
702.111	21.827
706.021	13.664
709.929	9.474
713.836	33.257
717.741	10.016
721.644	6.646
725.546	1.316
729.446	12.082
733.345	21.124
737.242	4.656
741.137	6.207
745.031	16.282
748.924	13.13
752.814	3.878
756.703	34.133
760.591	9.007
764.477	5.152
768.361	2.34
772.244	8.501
776.125	3.642
780.005	18.762
783.883	35.83
787.76	28.879
791.635	26.552
795.508	26.378
799.38	40.38
803.25	20.388
807.119	26.377
810.986	64.35
814.851	83.304
818.715	91.242
822.578	88.307
826.439	92.754
830.298	83.642
834.155	99.457
838.012	82.497
841.866	80.193
845.719	112.159
849.571	90.941
853.421	105.505
857.269	154.119
861.116	148.832
864.961	182.408
868.805	177.11
872.647	171.718
876.487	165.218
880.326	139.318
884.164	115.916
888	90.554
891.834	85.567
895.667	49.99
899.498	92.626
903.328	74.248
907.156	77.878
910.983	44.541
914.808	24.509
918.632	54.98
922.454	56.35
926.274	85.873
930.093	157.023
933.91	158.6
937.726	118.203
941.541	84.901
945.353	62.573
949.165	47.504
952.974	22.158
956.783	32.806
960.589	34.462
964.394	21.129
968.198	10.789
972	5.688
975.801	10.673
979.6	13.179
983.397	0.22
987.193	18.377
990.988	14.03
994.78	4.35
998.572	10.231
1002.36	3.814
1006.15	34.585
1009.94	18.162
1013.72	19.182
1017.51	7.938
1021.29	10.561
1025.07	0.141
1028.85	3.733
1032.63	1.788
1036.4	17.01
1040.18	11.641
1043.95	6.271
1047.72	20.921
1051.49	20.58
1055.26	21.495
1059.03	17.129
1062.79	23.783
1066.56	13.445
1070.32	18.17
1074.08	29.921
1077.84	7.379
1081.6	13.571
1085.36	40.208
1089.11	5.871
1092.87	18.501
1096.62	2.756
1100.37	19.905
1104.12	23.187
1107.86	16.166
1111.61	34.778
1115.36	20.365
1119.1	8.946
1122.84	6.546
1126.58	0.558
1130.32	8.948
1134.06	21.273
1137.79	31.135
1141.53	38.42
1145.26	27.844
1148.99	13.55
1152.72	1.881
1156.45	23.624
1160.17	14.111
1163.9	17.617
1167.62	20.111
1171.35	38.584
1175.07	20.08
1178.79	10.57
1182.5	3.956
1186.22	9.218
1189.93	16.681
1193.65	28.129
1197.36	21.557
1201.07	28.959
1204.78	40.31
1208.49	19.667
1212.19	13.936
1215.9	6.703
1219.6	1.982
1223.3	29.269
1227	43.082
1230.7	50.181
1234.4	21.411
1238.1	26.831
1241.79	0.167
1245.48	2.158
1249.17	15.323
1252.86	7.551
1256.55	9.747
1260.24	51.901
1263.92	31.193
1267.61	18.381
1271.29	23.268
1274.97	4.371
1278.65	10.678
1282.33	20.406
1286.01	27.509
1289.68	36.515
1293.36	39.54
1297.03	47.606
1300.7	15.446
1304.37	33.495
1308.04	15.359
1311.71	6.095
1315.37	14.01
1319.04	6.939
1322.7	9.901
1326.36	32.844
1330.02	11.739
1333.68	16.643
1337.33	46.623
1340.99	5.531
1344.64	7.422
1348.29	7.328
1351.94	3.948
1355.59	11.853
1359.24	38.759
1362.89	62.641
1366.53	41.528
1370.18	47.465
1373.82	0.648
1377.46	26.373
1381.1	11.394
1384.74	2.626
1388.37	24.188
1392.01	19.318
1395.64	37.929
1399.27	30.879
1402.9	67.899
1406.53	70.882
1410.16	25.936
1413.79	20.54
1417.41	5.207
1421.04	25.07
1424.66	29.71
1428.28	34.557
1431.9	61.278
1435.52	53.175
1439.13	65.929
1442.75	65.731
1446.36	75.583
1449.98	38.769
1453.59	42.681
1457.2	28.401
1460.8	47.96
1464.41	31.595
1468.02	28.334
1471.62	68.197
1475.22	65.559
1478.82	63.192
1482.42	98.183
1486.02	89.139
1489.62	93.148
1493.21	67.181
1496.81	34.897
1500.4	51.129
1503.99	21.477
1507.58	7.99
1511.17	13.412
1514.76	71.116
1518.34	80.301
1521.93	87.826
1525.51	76.495
1529.09	110.939
1532.67	70.9
1536.25	0
