Measurement: Raman, 514 nm, ccw, Raman Data Processed
Mineral: Sulphur
Rruff sample: R040135
Ideal chemistry: S
Locality: Sicily, Italy
Source: University of Arizona Mineral Museum
Description: Yellow fragments
Measured chemistry: S_1.00_
Pin_id: L00267
Orientation: Laser parallel to -a* (-1 0 0). Fiducial mark perpendicular to laser is parallel to b [0 1 0]
Raman shift (cm-1)	intensity
55.323	0
59.501	16.716
63.677	24.396
67.851	5.849
72.024	14.946
76.195	20.795
80.364	225.861
84.531	1248.4
88.697	1708.8
92.86	1152.7
97.022	593.035
101.183	438.483
105.341	419.745
109.498	418.648
113.653	426.083
117.806	407.975
121.958	388.265
126.108	374.005
130.256	412.964
134.402	498.681
138.547	704.443
142.69	1503.08
146.831	6211.61
150.97	20005.1
155.108	20185.7
159.244	4477.25
163.378	1367.93
167.51	732.687
171.641	435.539
175.77	341.484
179.897	418.518
184.023	571.638
188.146	457.837
192.269	518.111
196.389	623.874
200.507	448.546
204.624	514.995
208.74	1056.43
212.853	4880.26
216.965	20169.1
221.075	26979.3
225.183	2579.39
229.29	979.943
233.394	886.85
237.498	859.523
241.599	1292.07
245.699	2890.85
249.797	2123.82
253.893	515.963
257.988	192.244
262.081	132.652
266.172	99.17
270.261	89.784
274.349	83.485
278.435	72.269
282.519	71.139
286.602	71.082
290.683	74.086
294.762	90.131
298.84	103.196
302.916	78.278
306.99	62.376
311.062	49.316
315.133	53.628
319.202	55.781
323.27	36.953
327.335	8.142
331.4	15.66
335.462	16.48
339.522	29.34
343.581	22.643
347.639	17.223
351.694	11.239
355.748	1.297
359.8	2.425
363.851	20.306
367.9	46.915
371.947	62.447
375.993	53.97
380.036	74.502
384.079	96.046
388.119	101.622
392.158	96.228
396.195	95.857
400.23	111.509
404.264	140.178
408.296	158.856
412.327	207.564
416.356	339.657
420.383	536.857
424.408	793.292
428.432	1093.81
432.454	1453.16
436.474	2037.7
440.493	1978.2
444.51	632.531
448.526	330.19
452.54	398.495
456.552	658.23
460.562	1610.87
464.571	3940.48
468.578	11255.1
472.584	26836.7
476.588	11618.2
480.59	3255.79
484.591	1500.41
488.59	873.954
492.587	589.787
496.583	424.219
500.577	346.957
504.569	269.854
508.56	230.253
512.549	204.954
516.536	204.809
520.522	191.364
524.506	174.662
528.489	134.966
532.469	116.263
536.449	107.551
540.426	102.853
544.402	109.149
548.376	108.405
552.349	100.98
556.32	82.847
560.29	40.045
564.257	23.234
568.224	8.493
572.188	3.261
576.151	13.014
580.112	4.614
584.072	4.881
588.03	3.302
591.986	1.385
595.941	4.273
599.894	7.226
603.846	2.723
607.796	0.618
611.744	5.152
615.691	12.225
619.636	15.939
623.579	18.777
627.521	16.41
631.462	22.137
635.4	12.723
639.337	5.291
643.273	12.835
647.206	13.36
651.139	14.877
655.069	10.413
658.998	20.987
662.926	11.607
666.851	13.266
670.775	17.96
674.698	17.678
678.619	25.406
682.538	19.125
686.456	15.826
690.372	12.51
694.287	12.177
698.2	13.826
702.111	11.46
706.021	16.076
709.929	25.151
713.836	26.257
717.741	21.822
721.644	9.245
725.546	6.897
729.446	1.99
733.345	2.482
737.242	2.044
741.137	0.632
745.031	3.663
748.924	0.199
752.814	3.547
756.703	3.091
760.591	5.132
764.477	4.1
768.361	4.182
772.244	2.558
776.125	0.704
780.005	3.963
783.883	0.784
787.76	13.46
791.635	14.696
795.508	20.82
799.38	25.984
803.25	36.354
807.119	60.359
810.986	95.565
814.851	147.754
818.715	169.943
822.578	206.122
826.439	156.303
830.298	121.465
834.155	108.696
838.012	127.845
841.866	150.981
845.719	159.103
849.571	171.227
853.421	183.541
857.269	205.615
861.116	244.701
864.961	288.792
868.805	298.879
872.647	330.027
876.487	303.09
880.326	284.04
884.164	192.974
888	123.879
891.834	84.509
895.667	67.214
899.498	68.149
903.328	71.948
907.156	69.995
910.983	55.751
914.808	41.17
918.632	43.234
922.454	40.31
926.274	53.941
930.093	79.965
933.91	94.07
937.726	93.395
941.541	88.515
945.353	62.647
949.165	32.766
952.974	22.993
956.783	22.106
960.589	9.264
964.394	7.374
968.198	5.481
972	8.593
975.801	6.712
979.6	11.852
983.397	1.949
987.193	4.153
990.988	3.353
994.78	3.486
998.572	2.905
1002.36	1.977
1006.15	1.108
1009.94	6.189
1013.72	4.268
1017.51	2.357
1021.29	1.529
1025.07	0.272
1028.85	1.682
1032.63	1.758
1036.4	3.845
1040.18	3.918
1043.95	3.001
1047.72	6.088
1051.49	1.832
1055.26	1.748
1059.03	8.333
1062.79	1.584
1066.56	9.561
1070.32	2.651
1074.08	5.739
1077.84	3.887
1081.6	5.117
1085.36	3.793
1089.11	0.711
1092.87	7.371
1096.62	2.537
1100.37	1.388
1104.12	8.682
1107.86	14.753
1111.61	7.819
1115.36	4.877
1119.1	2.936
1122.84	1.992
1126.58	6.047
1130.32	9.091
1134.06	1.141
1137.79	0.892
1141.53	4.346
1145.26	3.418
1148.99	0.459
1152.72	4.388
1156.45	4.261
1160.17	9.272
1163.9	11.295
1167.62	11.308
1171.35	8.312
1175.07	3.253
1178.79	6.248
1182.5	1.25
1186.22	6.227
1189.93	10.226
1193.65	2.037
1197.36	7.035
1201.07	6.123
1204.78	8.551
1208.49	5.013
1212.19	9.906
1215.9	8.882
1219.6	11.857
1223.3	5.83
1227	7.797
1230.7	4.957
1234.4	9.478
1238.1	5.404
1241.79	3.452
1245.48	10.385
1249.17	5.218
1252.86	11.16
1256.55	3.726
1260.24	5.993
1263.92	9.743
1267.61	6.862
1271.29	6.853
1274.97	9.875
1278.65	7.787
1282.33	4.701
1286.01	2.407
1289.68	9.516
1293.36	2.443
1297.03	4.96
1300.7	5.874
1304.37	6.782
1308.04	6.688
1311.71	5.594
1315.37	5.486
1319.04	7.307
1322.7	7.211
1326.36	10.403
1330.02	10.987
1333.68	12.877
1337.33	10.763
1340.99	2.641
1344.64	3.515
1348.29	6.394
1351.94	3.267
1355.59	9.149
1359.24	7.056
1362.89	9.925
1366.53	5.727
1370.18	10.588
1373.82	11.316
1377.46	2.165
1381.1	0.038
1384.74	4.887
1388.37	10.717
1392.01	8.465
1395.64	14.318
1399.27	9.219
1402.9	9.124
1406.53	5.026
1410.16	2.923
1413.79	7.587
1417.41	2.428
1421.04	0.324
1424.66	11.211
1428.28	2.105
1431.9	6.986
1435.52	8.88
1439.13	6.774
1442.75	4.359
1446.36	14.215
1449.98	6.09
1453.59	7.971
1457.2	8.849
1460.8	4.666
1464.41	9.345
1468.02	6.232
1471.62	11.117
1475.22	14.992
1478.82	8.441
1482.42	7.226
1486.02	6.571
1489.62	4.334
1493.21	10.131
1496.81	0.931
1500.4	0.345
1503.99	8.385
1507.58	9.133
1511.17	10.885
1514.76	12.696
1518.34	11.451
1521.93	5.938
1525.51	6.728
1529.09	9.473
1532.67	0.04
1536.25	0
