Measurement: Raman, 514 nm, ccw, Raman Data Processed
Mineral: Sulphur
Rruff sample: R050006
Ideal chemistry: S
Locality: San Felipe, Mexicali, Baja California Norte, Mexico
Source: Eugene Schlepp
Description: Yellow single crystal
Measured chemistry: S_1.00_
Pin_id: L00280
Orientation: Laser parallel to -a* (-1 0 0). Fiducial mark perpendicular to laser is parallel to -b [0 -1 0]
Raman shift (cm-1)	intensity
52.261	0
56.477	16.179
60.691	17.953
64.903	22.049
69.112	6.616
73.319	2.871
77.525	8.976
81.728	32.743
85.929	321.867
90.128	615.12
94.324	565.476
98.519	350.743
102.712	335.674
106.902	395.122
111.09	423.997
115.277	487.242
119.461	479.809
123.643	499.667
127.823	497.314
132.001	532.911
136.176	596.65
140.35	816.296
144.521	1719.87
148.691	6759.39
152.858	20743.9
157.024	24844.5
161.187	8250.09
165.348	2376.77
169.507	1047.53
173.664	639.366
177.819	483.276
181.971	521.259
186.122	604.313
190.271	512.433
194.417	584.691
198.562	728.227
202.704	579.247
206.844	606.347
210.983	1110.12
215.119	4546.9
219.253	22223.2
223.385	35132.9
227.515	7041.84
231.643	1687.95
235.769	1119.25
239.893	1076.43
244.014	1438.62
248.134	2723.47
252.252	2636.48
256.367	937.613
260.481	307.853
264.592	183.188
268.702	154.608
272.809	125.112
276.915	131.688
281.018	114.336
285.119	103.047
289.218	102.483
293.316	111.64
297.411	121.495
301.504	136.377
305.595	99.279
309.684	77.202
313.771	82.147
317.856	72.113
321.939	68.901
326.02	54.112
330.099	39.141
334.176	5.187
338.251	16.758
342.323	31.726
346.394	14.748
350.463	18.813
354.53	18.932
358.594	12.063
362.657	20.286
366.718	16.344
370.777	51.881
374.833	63.379
378.888	70.883
382.941	95.403
386.992	118.954
391.04	104.537
395.087	110.145
399.132	118.775
403.174	120.427
407.215	127.099
411.254	169.788
415.29	212.488
419.325	362.572
423.358	582.908
427.389	846.981
431.417	1203.53
435.444	1547.03
439.469	2100.62
443.492	2215.42
447.512	913.059
451.531	426.34
455.548	418.613
459.563	691.241
463.576	1680.07
467.587	4128.81
471.596	11576.5
475.603	26088.3
479.608	16010
483.611	5032.91
487.612	2010.61
491.611	1105.3
495.608	675.918
499.603	520.907
503.596	410.767
507.587	309.825
511.577	257.866
515.564	239.692
519.549	217.339
523.533	203.018
527.514	184.57
531.493	154.115
535.471	127.653
539.447	117.186
543.42	119.774
547.392	108.61
551.362	130.217
555.329	105.715
559.295	96.202
563.259	67.678
567.221	29.142
571.181	17.639
575.139	1.611
579.095	0.697
583.049	0.195
587.002	2.788
590.952	5.977
594.9	0.603
598.847	2.675
602.792	1.02
606.734	2.466
610.675	6.416
614.614	0.823
618.55	2.328
622.485	18.628
626.418	25.725
630.349	20.817
634.279	14.701
638.206	0.644
642.131	6.563
646.055	7.46
649.976	7.338
653.896	14.197
657.814	12.051
661.729	15.937
665.643	22.87
669.555	12.835
673.465	5.831
677.373	9.853
681.28	14.883
685.184	32.454
689.087	22.917
692.987	13.906
696.886	8.876
700.783	5.826
704.677	5.752
708.57	14.651
712.462	24.531
716.351	28.39
720.238	25.23
724.124	18.051
728.007	14.851
731.889	0.455
735.769	5.877
739.647	4.986
743.523	4.559
747.397	3.827
751.269	4.892
755.139	4.338
759.008	0.403
762.875	1.862
766.739	1.842
770.602	2.911
774.463	2.347
778.323	0.905
782.18	3.519
786.035	11.93
789.889	15.328
793.741	13.596
797.591	20.843
801.439	31.191
805.285	44.524
809.129	64.848
812.971	130.153
816.812	165.474
820.651	200.784
824.488	222.084
828.323	193.356
832.156	155.635
835.987	135.877
839.817	160.345
843.644	178.586
847.47	188.808
851.294	204.045
855.116	221.163
858.936	260.025
862.755	306.143
866.571	354.302
870.386	370.45
874.199	400.59
878.01	375.726
881.82	327.801
885.627	237.449
889.433	167.338
893.236	103.027
897.038	90.124
900.838	93.725
904.637	82.158
908.433	82.907
912.228	61.825
916.021	47.621
919.812	49.424
923.601	47.497
927.388	67.433
931.174	89.359
934.958	115.486
938.739	107.596
942.52	99.726
946.298	70.835
950.074	48.941
953.849	29.879
957.622	19.158
961.393	11.592
965.162	6.685
968.93	12.784
972.696	10.994
976.459	0.265
980.222	9.352
983.982	7.436
987.74	3.494
991.497	1.641
995.252	2.72
999.005	3.809
1002.76	2.884
1006.51	4.074
1010.25	2.124
1014	4.183
1017.74	6.693
1021.49	5.296
1025.23	4.343
1028.96	1.388
1032.7	6.431
1036.44	1.477
1040.17	1.858
1043.9	2.001
1047.63	0.042
1051.36	9.102
1055.09	7.157
1058.81	12.212
1062.54	7.27
1066.26	10.33
1069.97	2.389
1073.69	6.098
1077.41	5.611
1081.12	4.683
1084.84	13.781
1088.55	1.856
1092.25	4.921
1095.96	7.999
1099.67	1.059
1103.37	7.286
1107.07	4.657
1110.77	6.39
1114.47	1.435
1118.16	1.523
1121.86	2.487
1125.55	6.529
1129.24	1.555
1132.93	7.566
1136.62	3.424
1140.31	0.376
1143.99	0.387
1147.67	1.489
1151.35	6.441
1155.03	4.435
1158.71	4.436
1162.39	9.735
1166.06	1.733
1169.73	5.726
1173.4	7.713
1177.07	9.691
1180.74	5.676
1184.4	6.693
1188.07	5.488
1191.73	3.231
1195.39	1.697
1199.05	2.657
1202.7	5.025
1206.36	9.925
1210.01	12.878
1213.66	4.828
1217.31	12.734
1220.96	1.758
1224.6	5.659
1228.25	5.596
1231.89	11.495
1235.53	13.419
1239.17	3.336
1242.81	10.261
1246.44	7.325
1250.08	4.24
1253.71	5.943
1257.34	7.834
1260.97	13.733
1264.6	18.516
1268.22	7.233
1271.85	8.135
1275.47	7.872
1279.09	8.911
1282.71	10.801
1286.33	15.601
1289.94	3.469
1293.56	9.329
1297.17	12.194
1300.78	1.93
1304.39	4.197
1307.99	3.664
1311.6	8.616
1315.2	7.476
1318.8	1.333
1322.4	8.186
1326	8.037
1329.6	2.886
1333.19	8.402
1336.79	11.152
1340.38	7
1343.97	6.159
1347.56	2.687
1351.14	3.543
1354.73	14.386
1358.31	1.23
1361.89	6.075
1365.47	13.842
1369.05	3.689
1372.63	4.542
1376.2	3.374
1379.78	12.275
1383.35	8.114
1386.92	4.82
1390.49	4.695
1394.05	8.572
1397.62	3.453
1401.18	9.337
1404.74	11.22
1408.3	6.104
1411.86	1.883
1415.42	1.367
1418.97	1.235
1422.53	9.094
1426.08	10.965
1429.63	5.908
1433.18	6.66
1436.72	6.884
1440.27	7.748
1443.81	13.456
1447.36	7.317
1450.89	1.838
1454.43	6.021
1457.97	10.553
1461.51	10.158
1465.04	12.981
1468.57	11.793
1472.1	8.607
1475.63	8.437
1479.16	5.271
1482.68	12.142
1486.21	10.022
1489.73	10.505
1493.25	14.402
1496.77	7.328
1500.29	5.283
1503.8	1.269
1507.32	10.237
1510.83	1.409
1514.34	7.719
1517.85	7.28
1521.36	15.425
