Measurement: Raman, 514 nm, ccw, Raman Data Processed
Mineral: Sulphur
Rruff sample: R040135
Ideal chemistry: S
Locality: Sicily, Italy
Source: University of Arizona Mineral Museum
Description: Yellow fragments
Measured chemistry: S_1.00_
Pin_id: L00492
Orientation: Laser parallel to b* (0 1 0). Fiducial mark perpendicular to laser is parallel to -c [0 0 -1]
Raman shift (cm-1)	intensity
55.323	0
59.501	12.258
63.677	32.166
67.851	4.683
72.024	3.8
76.195	6.062
80.364	66.366
84.531	331.479
88.697	610.96
92.86	514.538
97.022	224.162
101.183	176.606
105.341	164.648
109.498	187.161
113.653	223.065
117.806	197.304
121.958	190.836
126.108	224.668
130.256	254.403
134.402	308.754
138.547	459.124
142.69	1064.39
146.831	4205.6
150.97	12113.8
155.108	15464
159.244	4061.22
163.378	1035.53
167.51	511.891
171.641	327.322
175.77	266.821
179.897	317.386
184.023	409.013
188.146	410.7
192.269	331.442
196.389	360.038
200.507	380.627
204.624	565.061
208.74	1417.76
212.853	7762.15
216.965	26843.6
221.075	29583.4
225.183	3253.56
229.29	1047.07
233.394	735.817
237.498	581.724
241.599	558.668
245.699	781.054
249.797	666.583
253.893	253.237
257.988	137.004
262.081	108.861
266.172	107.681
270.261	94.799
274.349	91.868
278.435	86.995
282.519	68.176
286.602	70.414
290.683	84.696
294.762	93.015
298.84	75.357
302.916	66.713
306.99	56.082
311.062	35.466
315.133	45.866
319.202	46.729
323.27	27.71
327.335	11.153
331.4	2.606
335.462	10.942
339.522	22.517
343.581	23.136
347.639	14.799
351.694	19.497
355.748	7.236
359.8	6.983
363.851	31.105
367.9	54.13
371.947	56.087
375.993	76.044
380.036	81.011
384.079	79.99
388.119	92.995
392.158	83.023
396.195	65.069
400.23	94.129
404.264	105.204
408.296	129.288
412.327	134.694
416.356	185.786
420.383	279.096
424.408	411.245
428.432	605.985
432.454	743.556
436.474	888.057
440.493	758.612
444.51	342.084
448.526	239.668
452.54	329.295
456.552	626.272
460.562	1494.37
464.571	3683.42
468.578	11231.5
472.584	22852.6
476.588	9963.63
480.59	2801.68
484.591	1310.74
488.59	766.697
492.587	509.587
496.583	377.227
500.577	282.709
504.569	235.268
508.56	178.298
512.549	164.791
516.536	146.125
520.522	151.434
524.506	119.264
528.489	112.085
532.469	85.898
536.449	83.736
540.426	88.044
544.402	93.704
548.376	102.51
552.349	89.273
556.32	78.036
560.29	31.776
564.257	21.565
568.224	0.295
572.188	4.61
576.151	8.825
580.112	8.669
584.072	2.68
588.03	7.947
591.986	1.645
595.941	1.35
599.894	5.481
603.846	0.81
607.796	0.661
611.744	3.942
615.691	6.417
619.636	15.837
623.579	11.428
627.521	4.736
631.462	4.019
635.4	9.283
639.337	7.532
643.273	9.764
647.206	2.98
651.139	12.182
655.069	12.39
658.998	15.625
662.926	11.9
666.851	5.205
670.775	12.538
674.698	16.899
678.619	21.263
682.538	22.925
686.456	20.953
690.372	20.278
694.287	7.588
698.2	8.877
702.111	5.153
706.021	11.415
709.929	13.663
713.836	11.898
717.741	7.12
721.644	12.328
725.546	0.594
729.446	1.642
733.345	0.814
737.242	4.465
741.137	8.215
745.031	9.011
748.924	1.455
752.814	3.212
756.703	1.602
760.591	0.828
764.477	4.987
768.361	3.184
772.244	10.694
776.125	5.329
780.005	3.665
783.883	9.624
787.76	6.483
791.635	6.459
795.508	18.369
799.38	42.254
803.25	68.169
807.119	79.105
810.986	117.054
814.851	159.005
818.715	212.914
822.578	192.832
826.439	180.759
830.298	129.675
834.155	122.589
838.012	142.497
841.866	160.398
845.719	170.293
849.571	176.141
853.421	183.902
857.269	213.049
861.116	250.654
864.961	288.558
868.805	298.413
872.647	290.275
876.487	289.183
880.326	237.833
884.164	165.392
888	102.837
891.834	66.573
895.667	54.417
899.498	52.241
903.328	55.876
907.156	60.087
910.983	43.276
914.808	26.216
918.632	31.167
922.454	39.326
926.274	50.237
930.093	89.839
933.91	73.735
937.726	82.633
941.541	67.539
945.353	48.449
949.165	36.353
952.974	17.259
956.783	23.161
960.589	12.065
964.394	0.036
968.198	3.859
972	8.794
975.801	4.747
979.6	4.638
983.397	7.62
987.193	5.619
990.988	8.51
994.78	1.395
998.572	2.293
1002.36	12.222
1006.15	2.577
1009.94	1.46
1013.72	0.635
1017.51	9.256
1021.29	9.133
1025.07	0.09
1028.85	8.988
1032.63	1.861
1036.4	0.735
1040.18	7.614
1043.95	10.53
1047.72	6.417
1051.49	0.504
1055.26	8.388
1059.03	10.261
1062.79	1.77
1066.56	0.885
1070.32	4.028
1074.08	11.821
1077.84	0.333
1081.6	14.519
1085.36	9.362
1089.11	7.213
1092.87	3.134
1096.62	11.969
1100.37	4.799
1104.12	4.627
1107.86	8.451
1111.61	14.271
1115.36	5.083
1119.1	0.904
1122.84	0.278
1126.58	6.531
1130.32	15.352
1134.06	9.148
1137.79	6.955
1141.53	12.754
1145.26	6.535
1148.99	3.512
1152.72	4.499
1156.45	8.041
1160.17	0.783
1163.9	19.512
1167.62	10.311
1171.35	20.053
1175.07	3.772
1178.79	8.501
1182.5	16.225
1186.22	4.7
1189.93	0.224
1193.65	5.939
1197.36	11.657
1201.07	7.363
1204.78	3.061
1208.49	0.661
1212.19	13.855
1215.9	11.424
1219.6	8.059
1223.3	11.75
1227	13.385
1230.7	10.056
1234.4	14.735
1238.1	0.588
1241.79	11.076
1245.48	11.737
1249.17	9.384
1252.86	14.034
1256.55	7.673
1260.24	12.381
1263.92	15.026
1267.61	14.643
1271.29	4.185
1274.97	0.812
1278.65	13.424
1282.33	14.092
1286.01	14.599
1289.68	18.196
1293.36	15.848
1297.03	13.42
1300.7	1.622
1304.37	1.1
1308.04	3.691
1311.71	0.277
1315.37	8.839
1319.04	15.41
1322.7	18.89
1326.36	6.44
1330.02	11.002
1333.68	14.562
1337.33	13.083
1340.99	12.65
1344.64	12.337
1348.29	19.67
1351.94	10.21
1355.59	8.77
1359.24	3.203
1362.89	3.273
1366.53	6.273
1370.18	14.814
1373.82	4.504
1377.46	15.026
1381.1	5.553
1384.74	1.972
1388.37	4.479
1392.01	11.957
1395.64	9.462
1399.27	12.048
1402.9	6.623
1406.53	9.19
1410.16	11.746
1413.79	12.291
1417.41	2.627
1421.04	7.888
1424.66	6.421
1428.28	13.918
1431.9	14.478
1435.52	5.019
1439.13	6.583
1442.75	15.118
1446.36	11.686
1449.98	3.227
1453.59	3.375
1457.2	7.911
1460.8	11.403
1464.41	11.905
1468.02	7.433
1471.62	7.814
1475.22	6.985
1478.82	12.829
1482.42	12.995
1486.02	8.495
1489.62	16.865
1493.21	14.352
1496.81	27.738
1500.4	6.262
1503.99	15.783
1507.58	6.321
1511.17	5.822
1514.76	1.533
1518.34	9.806
1521.93	7.229
1525.51	13.621
1529.09	13.372
1532.67	3.478
1536.25	0
