Measurement: Raman, 514 nm, ccw, Raman Data Processed
Mineral: Sulphur
Rruff sample: R050006
Ideal chemistry: S
Locality: San Felipe, Mexicali, Baja California Norte, Mexico
Source: Eugene Schlepp
Description: Yellow single crystal
Measured chemistry: S_1.00_
Pin_id: L00280
Orientation: Laser parallel to -a* (-1 0 0). Fiducial mark perpendicular to laser is parallel to -b [0 -1 0]
Raman shift (cm-1)	intensity
52.261	0
56.477	19.034
60.691	23.953
64.903	2.695
69.112	10.294
73.319	2.802
77.525	1.969
81.728	7.139
85.929	51.91
90.128	229.882
94.324	291.752
98.519	133.34
102.712	101.448
106.902	118.962
111.09	131.808
115.277	166.937
119.461	191.31
123.643	199.907
127.823	205.269
132.001	247.297
136.176	319.359
140.35	440.322
144.521	826.22
148.691	2595.09
152.858	10654
157.024	18204.9
161.187	7281.78
165.348	1782.76
169.507	669.777
173.664	411.847
177.819	331.965
181.971	297.132
186.122	308.343
190.271	332.598
194.417	360.54
198.562	389.935
202.704	412.233
206.844	632.931
210.983	1393.38
215.119	6079.28
219.253	31561.7
223.385	45061.6
227.515	9901.88
231.643	2023.36
235.769	997.983
239.893	701.779
244.014	498.582
248.134	475.315
252.252	439.474
256.367	301.718
260.481	229.037
264.592	192.418
268.702	182.853
272.809	180.337
276.915	181.777
281.018	179.441
285.119	174.062
289.218	158.723
293.316	153.414
297.411	187.124
301.504	167.856
305.595	120.598
309.684	83.352
313.771	76.117
317.856	53.895
321.939	53.688
326.02	23.502
330.099	18.338
334.176	3.811
338.251	20.364
342.323	11.185
346.394	11.431
350.463	19.716
354.53	8.044
358.594	0.407
362.657	2.137
366.718	23.579
370.777	37.945
374.833	63.294
378.888	76.65
382.941	83.015
386.992	83.402
391.04	89.809
395.087	71.232
399.132	62.668
403.174	62.113
407.215	79.568
411.254	100.032
415.29	119.502
419.325	121.975
423.358	148.46
427.389	220.962
431.417	380.475
435.444	497.086
439.469	489.876
443.492	413.266
447.512	270.504
451.531	236.37
455.548	292.047
459.563	635.717
463.576	1453.39
467.587	3552.86
471.596	10854.3
475.603	24015.8
479.608	14917.4
483.611	4748.43
487.612	1941.99
491.611	1025.99
495.608	702.98
499.603	518.666
503.596	411.559
507.587	309.745
511.577	248.708
515.564	220.025
519.549	201.914
523.533	205.677
527.514	172.962
531.493	162.24
535.471	154.512
539.447	142.8
543.42	155.095
547.392	171.428
551.362	170.761
555.329	144.051
559.295	128.328
563.259	62.574
567.221	44.807
571.181	18.123
575.139	11.414
579.095	16.211
583.049	4.511
587.002	6.102
590.952	6.057
594.9	3.406
598.847	1.341
602.792	2.828
606.734	1.9
610.675	0.982
614.614	5.911
618.55	0.911
622.485	11.098
626.418	15.003
630.349	5.884
634.279	3.75
638.206	6.595
642.131	4.587
646.055	2.81
649.976	1.069
653.896	13.651
657.814	8.392
661.729	12.17
665.643	13.974
669.555	13.808
673.465	8.673
677.373	8.551
681.28	12.613
685.184	16.952
689.087	18.138
692.987	11.972
696.886	3.792
700.783	11.596
704.677	5.387
708.57	3.162
712.462	8.921
716.351	6.664
720.238	12.394
724.124	2.113
728.007	2.814
731.889	2.499
735.769	2.839
739.647	6.218
743.523	3.639
747.397	0.095
751.269	2.309
755.139	3.36
759.008	3.145
762.875	7.875
766.739	5.953
770.602	3.811
774.463	0.382
778.323	8.786
782.18	11.201
786.035	8.607
789.889	18.976
793.741	21.142
797.591	27.567
801.439	37.902
805.285	63.768
809.129	103.109
812.971	157.458
816.812	217.798
820.651	260.129
824.488	281.451
828.323	240.763
832.156	195.066
835.987	173.366
839.817	179.65
843.644	205.924
847.47	223.189
851.294	223.392
855.116	232.839
858.936	265.012
862.755	304.207
866.571	364.454
870.386	378.724
874.199	379.241
878.01	365.361
881.82	323.444
885.627	241.546
889.433	158.883
893.236	96.699
897.038	78.269
900.838	69.256
904.637	78.464
908.433	73.573
912.228	58.719
916.021	48.873
919.812	43.954
923.601	46.058
927.388	75.164
931.174	101.282
934.958	107.445
938.739	102.613
942.52	92.082
946.298	61.025
950.074	41.198
953.849	26.403
957.622	16.595
961.393	12.786
965.162	6.97
968.93	8.151
972.696	11.335
976.459	11.519
980.222	1.69
983.982	1.867
987.74	12.164
991.497	6.333
995.252	5.899
999.005	2.706
1002.76	8.864
1006.51	2.018
1010.25	1.791
1014	0.607
1017.74	0.695
1021.49	2.836
1025.23	0.97
1028.96	6.132
1032.7	0.267
1036.44	4.394
1040.17	4.612
1043.9	1.789
1047.63	5.039
1051.36	3.779
1055.09	1.626
1058.81	4.607
1062.54	3.758
1066.26	5.982
1069.97	0.871
1073.69	5.278
1077.41	5.438
1081.12	2.595
1084.84	4.74
1088.55	2.88
1092.25	7.022
1095.96	5.161
1099.67	1.347
1103.37	4.481
1107.07	4.62
1110.77	6.762
1114.47	5.888
1118.16	7.012
1121.86	1.134
1125.55	10.254
1129.24	3.382
1132.93	1.538
1136.62	5.653
1140.31	7.768
1143.99	5.874
1147.67	8.978
1151.35	6.08
1155.03	0.028
1158.71	0.044
1162.39	4.024
1166.06	5.086
1169.73	5.06
1173.4	3.811
1177.07	0.894
1180.74	4.96
1184.4	0.987
1188.07	1.085
1191.73	4.162
1195.39	1.237
1199.05	5.96
1202.7	1.08
1206.36	3.981
1210.01	2.955
1213.66	4.01
1217.31	4.003
1220.96	0.043
1224.6	0.085
1228.25	3.132
1231.89	6.176
1235.53	1.375
1239.17	6.336
1242.81	2.374
1246.44	2.403
1250.08	3.427
1253.71	0.378
1257.34	5.586
1260.97	7.615
1264.6	5.649
1268.22	5.661
1271.85	4.684
1275.47	1.713
1279.09	1.14
1282.71	2.771
1286.33	2.786
1289.94	6.752
1293.56	6.769
1297.17	4.786
1300.78	3.764
1304.39	8.444
1307.99	5.767
1311.6	3.631
1315.2	6.67
1318.8	6.695
1322.4	4.671
1326	5.685
1329.6	7.615
1333.19	0.624
1336.79	1.608
1340.38	3.518
1343.97	4.613
1347.56	7.554
1351.14	3.067
1354.73	2.577
1358.31	5.513
1361.89	2.532
1365.47	1.52
1369.05	4.517
1372.63	4.518
1376.2	5.515
1379.78	4.514
1383.35	9.522
1386.92	4.493
1390.49	8.504
1394.05	5.523
1397.62	2.547
1401.18	10.518
1404.74	5.515
1408.3	8.537
1411.86	8.56
1415.42	6.583
1418.97	4.611
1422.53	3.641
1426.08	8.672
1429.63	2.7
1433.18	3.732
1436.72	2.953
1440.27	8.819
1443.81	2.87
1447.36	0.924
1450.89	0.985
1454.43	5.732
1457.97	4.788
1461.51	6.596
1465.04	8.633
1468.57	4.687
1472.1	3.727
1475.63	2.334
1479.16	4.359
1482.68	3.38
1486.21	6.369
1489.73	6.265
1493.25	8.255
1496.77	12.28
1500.29	7.33
1503.8	2.677
1507.32	3.559
1510.83	10.494
1514.34	8.315
1517.85	7.118
1521.36	0.03
