Measurement: Raman, 514 nm, ccw, Raman Data Processed
Mineral: Sulphur
Rruff sample: R040135
Ideal chemistry: S
Locality: Sicily, Italy
Source: University of Arizona Mineral Museum
Description: Yellow fragments
Measured chemistry: S_1.00_
Pin_id: L00267
Orientation: Laser parallel to -a* (-1 0 0). Fiducial mark perpendicular to laser is parallel to b [0 1 0]
Raman shift (cm-1)	intensity
55.323	0
59.501	12.007
63.677	12.019
67.851	1.195
72.024	8.199
76.195	15.96
80.364	138.166
84.531	652.622
88.697	1820.77
92.86	1517.31
97.022	593.157
101.183	404.001
105.341	349.57
109.498	324.709
113.653	348.32
117.806	341.333
121.958	367.696
126.108	351.635
130.256	353.745
134.402	360.33
138.547	418.916
142.69	764.374
146.831	2674.74
150.97	7864.07
155.108	13173.4
159.244	2573.83
163.378	746.304
167.51	425.846
171.641	292.463
175.77	217.158
179.897	217.927
184.023	279.767
188.146	403.673
192.269	892.823
196.389	1369.83
200.507	725.665
204.624	612.792
208.74	1134.96
212.853	5176.45
216.965	21841
221.075	29500.9
225.183	2971.84
229.29	1017.24
233.394	775.906
237.498	984.596
241.599	2534.92
245.699	6717.44
249.797	1845.14
253.893	428.986
257.988	222.951
262.081	150.019
266.172	141.175
270.261	136.412
274.349	139.717
278.435	123.091
282.519	119.535
286.602	94.045
290.683	110.611
294.762	115.872
298.84	105.832
302.916	102.465
306.99	51.111
311.062	38.773
315.133	38.451
319.202	23.145
323.27	4.144
327.335	11.429
331.4	11.725
335.462	29.052
339.522	18.434
343.581	15.862
347.639	18.327
351.694	16.827
355.748	3.627
359.8	7.988
363.851	19.221
367.9	51.368
371.947	55.472
375.993	54.581
380.036	77.704
384.079	108.942
388.119	119.016
392.158	128.218
396.195	136.443
400.23	125.689
404.264	148.952
408.296	185.226
412.327	227.509
416.356	280.799
420.383	420.111
424.408	646.415
428.432	1083.09
432.454	1536.52
436.474	1582.16
440.493	1269.52
444.51	570.306
448.526	410.767
452.54	523.076
456.552	995.751
460.562	2498.05
464.571	6115.34
468.578	19029.6
472.584	49080.9
476.588	21222.1
480.59	5762.43
484.591	2593.52
488.59	1439.42
492.587	898.185
496.583	643.9
500.577	504.227
504.569	403.239
508.56	361.152
512.549	323.094
516.536	294.677
520.522	274.255
524.506	264.369
528.489	209.479
532.469	170.078
536.449	155.707
540.426	154.152
544.402	154.565
548.376	153.652
552.349	138.731
556.32	136.8
560.29	71.86
564.257	37.957
568.224	24.145
572.188	12.265
576.151	3.467
580.112	4.656
584.072	2.442
588.03	0.085
591.986	1.256
595.941	4.386
599.894	9.398
603.846	9.027
607.796	9.059
611.744	2.21
615.691	9.974
619.636	21.915
623.579	45.758
627.521	37.521
631.462	22.23
635.4	8.903
639.337	0.441
643.273	3.665
647.206	15.836
651.139	23.485
655.069	28.172
658.998	23.909
662.926	24.684
666.851	21.488
670.775	17.318
674.698	20.16
678.619	25.003
682.538	33.004
686.456	28.648
690.372	28.451
694.287	2.76
698.2	4.004
702.111	13.749
706.021	8.478
709.929	23.192
713.836	25.893
717.741	21.582
721.644	5.256
725.546	4.913
729.446	4.554
733.345	1.161
737.242	1.763
741.137	2.692
745.031	1.428
748.924	1.124
752.814	7.731
756.703	9.863
760.591	5.13
764.477	0.126
768.361	4.977
772.244	3.713
776.125	0.664
780.005	0.026
783.883	3.376
787.76	5.716
791.635	8.037
795.508	5.176
799.38	26.416
803.25	28.576
807.119	39.876
810.986	72.17
814.851	114.455
818.715	134.026
822.578	139
826.439	132.26
830.298	102.513
834.155	92.758
838.012	98.987
841.866	119.202
845.719	137.407
849.571	131.301
853.421	136.411
857.269	152.3
861.116	189.459
864.961	183.626
868.805	202.899
872.647	202.038
876.487	191.092
880.326	165.063
884.164	142.085
888	79.962
891.834	61.326
895.667	59.408
899.498	54.071
903.328	51.845
907.156	52.704
910.983	41.889
914.808	32.118
918.632	28.546
922.454	29.48
926.274	55.423
930.093	77.221
933.91	98.201
937.726	112.278
941.541	106.372
945.353	86.546
949.165	49.659
952.974	34.824
956.783	15.979
960.589	8.25
964.394	10.369
968.198	13.473
972	16.667
975.801	4.083
979.6	1.206
983.397	0.289
987.193	7.371
990.988	5.485
994.78	10.566
998.572	1.638
1002.36	2.708
1006.15	0.78
1009.94	7.854
1013.72	0.152
1017.51	3.223
1021.29	2.291
1025.07	12.355
1028.85	8.417
1032.63	8.485
1036.4	3.546
1040.18	3.389
1043.95	1.681
1047.72	9.745
1051.49	5.811
1055.26	1.88
1059.03	6.952
1062.79	4.025
1066.56	2.707
1070.32	1.401
1074.08	6.681
1077.84	0.232
1081.6	9.858
1085.36	8.944
1089.11	6.027
1092.87	0.891
1096.62	3.197
1100.37	7.374
1104.12	7.446
1107.86	6.518
1111.61	0.583
1115.36	6.65
1119.1	1.293
1122.84	3.238
1126.58	0.042
1130.32	13.087
1134.06	3.158
1137.79	2.197
1141.53	7.226
1145.26	11.253
1148.99	9.277
1152.72	4.288
1156.45	11.284
1160.17	12.303
1163.9	3.307
1167.62	8.066
1171.35	8.237
1175.07	6.35
1178.79	11.356
1182.5	5.358
1186.22	3.358
1189.93	3.186
1193.65	3.921
1197.36	4.912
1201.07	6.895
1204.78	12.866
1208.49	7.853
1212.19	9.674
1215.9	1.501
1219.6	12.533
1223.3	9.502
1227	3.442
1230.7	9.411
1234.4	13.371
1238.1	11.328
1241.79	6.219
1245.48	8.172
1249.17	5.103
1252.86	12.988
1256.55	9.965
1260.24	11.723
1263.92	7.645
1267.61	3.461
1271.29	9.162
1274.97	1.05
1278.65	2.872
1282.33	4.79
1286.01	3.7
1289.68	5.584
1293.36	5.49
1297.03	13.401
1300.7	4.311
1304.37	6.219
1308.04	7.125
1311.71	8.8
1315.37	0.297
1319.04	9.606
1322.7	2.74
1326.36	5.638
1330.02	7.531
1333.68	7.423
1337.33	11.315
1340.99	5.202
1344.64	4.098
1348.29	4.015
1351.94	15.914
1355.59	9.813
1359.24	13.703
1362.89	0.457
1366.53	6.417
1370.18	6.107
1373.82	0.989
1377.46	12.878
1381.1	5.745
1384.74	3.18
1388.37	4.459
1392.01	11.308
1395.64	11.088
1399.27	1.007
1402.9	12.894
1406.53	6.636
1410.16	7.463
1413.79	7.297
1417.41	8.208
1421.04	11.119
1424.66	4.032
1428.28	2.894
1431.9	6.656
1435.52	12.559
1439.13	8.453
1442.75	4.357
1446.36	10.259
1449.98	3.161
1453.59	1.964
1457.2	8.862
1460.8	1.774
1464.41	3.321
1468.02	2.597
1471.62	10.331
1475.22	3.264
1478.82	12.201
1482.42	8.14
1486.02	4.091
1489.62	1.053
1493.21	11.022
1496.81	7.002
1500.4	4.991
1503.99	2.011
1507.58	1.898
1511.17	6.82
1514.76	9.608
1518.34	1.453
1521.93	11.934
1525.51	14.465
1529.09	8.579
1532.67	4.057
1536.25	0
