Measurement: Raman, 514 nm, ccw, Raman Data Processed
Mineral: Sulphur
Rruff sample: R050006
Ideal chemistry: S
Locality: San Felipe, Mexicali, Baja California Norte, Mexico
Source: Eugene Schlepp
Description: Yellow single crystal
Measured chemistry: S_1.00_
Pin_id: L00280
Orientation: Laser parallel to -a* (-1 0 0). Fiducial mark perpendicular to laser is parallel to -b [0 -1 0]
Raman shift (cm-1)	intensity
52.261	0
56.477	29.905
60.691	16.872
64.903	25.051
69.112	22.534
73.319	3.585
77.525	4.24
81.728	5.531
85.929	108.932
90.128	416.241
94.324	557.455
98.519	282.371
102.712	207.791
106.902	249.596
111.09	292.714
115.277	324.098
119.461	380.71
123.643	395.622
127.823	389.529
132.001	385.857
136.176	402.186
140.35	467.415
144.521	851.568
148.691	2837.67
152.858	8188.74
157.024	12355.8
161.187	4790.94
165.348	1240.09
169.507	547.272
173.664	336.496
177.819	252.76
181.971	259.062
186.122	296.4
190.271	438.284
194.417	923.77
198.562	1365.73
202.704	895.458
206.844	709.087
210.983	1169.89
215.119	5181.8
219.253	23356.4
223.385	32956.7
227.515	7362.16
231.643	1667.76
235.769	923.478
239.893	1149.22
244.014	2861.69
248.134	5909.74
252.252	2998.98
256.367	780.297
260.481	295.687
264.592	179.135
268.702	155.633
272.809	163.174
276.915	142.755
281.018	152.376
285.119	150.182
289.218	131.725
293.316	125.448
297.411	139.188
301.504	142.935
305.595	110.688
309.684	82.448
313.771	63.216
317.856	45.993
321.939	31.78
326.02	5.416
330.099	3.612
334.176	22.823
338.251	29.084
342.323	3.404
346.394	25.764
350.463	3.166
354.53	6.585
358.594	6.052
362.657	1.347
366.718	25.641
370.777	52.904
374.833	69.153
378.888	69.408
382.941	73.674
386.992	105.961
391.04	109.27
395.087	120.593
399.132	131.93
403.174	133.277
407.215	136.641
411.254	168.013
415.29	203.391
419.325	276.775
423.358	382.172
427.389	636.581
431.417	1031.01
435.444	1452.45
439.469	1563.88
443.492	1289.95
447.512	664.638
451.531	433.976
455.548	534.537
459.563	1022.04
463.576	2548.49
467.587	6307.94
471.596	19706.4
475.603	45277.8
479.608	27149.2
483.611	8338.4
487.612	3244.46
491.611	1751.39
495.608	1039.96
499.603	730.056
503.596	541.171
507.587	415.957
511.577	361.743
515.564	344.279
519.549	311.87
523.533	295.385
527.514	258.724
531.493	228.081
535.471	197.439
539.447	176.174
543.42	164.211
547.392	167.025
551.362	160.462
555.329	181.814
559.295	149.164
563.259	100.51
567.221	59.86
571.181	34.302
575.139	25.777
579.095	14.596
583.049	1.848
587.002	3.353
590.952	8.512
594.9	5.076
598.847	6.148
602.792	3.52
606.734	2.987
610.675	1.453
614.614	9.054
618.55	12.679
622.485	28.405
626.418	20.819
630.349	26.042
634.279	14.217
638.206	3.331
642.131	7.434
646.055	4.498
649.976	8.557
653.896	18.639
657.814	11.767
661.729	21.946
665.643	10.156
669.555	21.391
673.465	12.626
677.373	9.862
681.28	18.1
685.184	24.33
689.087	34.548
692.987	15.752
696.886	4.944
700.783	1.12
704.677	6.276
708.57	12.41
712.462	11.529
716.351	18.634
720.238	16.726
724.124	15.804
728.007	6.866
731.889	3.909
735.769	6.071
739.647	7.092
743.523	3.154
747.397	1.353
751.269	1.6
755.139	1.089
759.008	7.439
762.875	1.982
766.739	1.948
770.602	10.673
774.463	3.674
778.323	1.997
782.18	3.659
786.035	6.298
789.889	10.924
793.741	14.527
797.591	17.404
801.439	28.905
805.285	32.416
809.129	63.978
812.971	91.532
816.812	137.075
820.651	170.604
824.488	146.137
828.323	133.636
832.156	116.159
835.987	108.627
839.817	123.089
843.644	135.531
847.47	131.956
851.294	147.346
855.116	155.65
858.936	160.62
862.755	201.924
866.571	217.298
870.386	213.723
874.199	216.067
878.01	186.373
881.82	185.55
885.627	139.67
889.433	88.045
893.236	72.327
897.038	58.65
900.838	59.323
904.637	67.546
908.433	54.281
912.228	53.274
916.021	43.959
919.812	24.072
923.601	34.112
927.388	55.762
931.174	82.533
934.958	112.649
938.739	119.776
942.52	127.941
946.298	97.128
950.074	54.486
953.849	36.482
957.622	27.146
961.393	18.168
965.162	14.678
968.93	12.836
972.696	2.042
976.459	6.187
980.222	3.338
983.982	5.491
987.74	10.721
991.497	9.852
995.252	8.059
999.005	10.181
1002.76	2.291
1006.51	4.394
1010.25	3.499
1014	3.603
1017.74	0.634
1021.49	0.202
1025.23	2.886
1028.96	1.974
1032.7	5.191
1036.44	1.729
1040.17	6.358
1043.9	1.705
1047.63	0.819
1051.36	1.938
1055.09	7.051
1058.81	1.16
1062.54	6.271
1066.26	10.386
1069.97	7.511
1073.69	0.293
1077.41	0.974
1081.12	6.117
1084.84	5.246
1088.55	7.373
1092.25	10.498
1095.96	7.623
1099.67	1.743
1103.37	2.881
1107.07	0.997
1110.77	2.955
1114.47	4.243
1118.16	0.666
1121.86	4.417
1125.55	10.497
1129.24	3.577
1132.93	2.677
1136.62	1.804
1140.31	6.872
1143.99	1.942
1147.67	8.011
1151.35	9.07
1155.03	8.143
1158.71	6.201
1162.39	2.262
1166.06	7.271
1169.73	7.254
1173.4	2.312
1177.07	12.361
1180.74	6.415
1184.4	7.383
1188.07	1.569
1191.73	2.469
1195.39	6.487
1199.05	4.513
1202.7	9.305
1206.36	3.321
1210.01	7.31
1213.66	8.339
1217.31	3.367
1220.96	6.289
1224.6	4.102
1228.25	5.097
1231.89	6.11
1235.53	4.113
1239.17	5.108
1242.81	5.109
1246.44	3.105
1250.08	6.178
1253.71	1.163
1257.34	1.64
1260.97	9.484
1264.6	10.42
1268.22	5.411
1271.85	2.4
1275.47	6.375
1279.09	2.433
1282.71	5.315
1286.33	8.397
1289.94	11.282
1293.56	8.264
1297.17	0.241
1300.78	5.22
1304.39	6.197
1307.99	4.216
1311.6	4.192
1315.2	4.17
1318.8	4.148
1322.4	6.121
1326	8.959
1329.6	5.935
1333.19	0.224
1336.79	7.614
1340.38	2.594
1343.97	3.552
1347.56	8.547
1351.14	8.513
1354.73	6.478
1358.31	3.439
1361.89	6.404
1365.47	6.444
1369.05	3.116
1372.63	3.083
1376.2	7.042
1379.78	5.998
1383.35	2.965
1386.92	6.913
1390.49	1.136
1394.05	3.799
1397.62	7.724
1401.18	8.757
1404.74	7.624
1408.3	7.604
1411.86	5.336
1415.42	1.557
1418.97	3.536
1422.53	8.509
1426.08	1.513
1429.63	3.468
1433.18	4.982
1436.72	9.416
1440.27	11.407
1443.81	7.397
1447.36	7.394
1450.89	9.4
1454.43	1.409
1457.97	8.422
1461.51	8.276
1465.04	10.29
1468.57	7.313
1472.1	7.34
1475.63	6.09
1479.16	3.806
1482.68	7.787
1486.21	1.781
1489.73	1.579
1493.25	8.508
1496.77	4.467
1500.29	3.393
1503.8	4.24
1507.32	2.961
1510.83	0.894
1514.34	2.788
1517.85	8.752
1521.36	12.116
1524.86	0
