Measurement: Raman, 514 nm, ccw, Raman Data Processed
Mineral: Sulphur
Rruff sample: R050006
Ideal chemistry: S
Locality: San Felipe, Mexicali, Baja California Norte, Mexico
Source: Eugene Schlepp
Description: Yellow single crystal
Measured chemistry: S_1.00_
Pin_id: L00244
Orientation: Laser parallel to -c* (0 0 -1). Fiducial mark perpendicular to laser is parallel to a [1 0 0]
Raman shift (cm-1)	intensity
48.666	0
52.873	14.862
57.079	23.411
61.283	20.819
65.484	1.027
69.684	5.188
73.881	4.666
78.076	103.731
82.27	381.374
86.461	970.845
90.65	1589.09
94.838	949.823
99.023	794.66
103.206	893.37
107.387	998.603
111.566	1024.9
115.744	1052.56
119.919	1070.92
124.092	1042.98
128.263	980.885
132.432	1039.08
136.599	1417.18
140.764	3590.2
144.927	14605.2
149.088	23593.2
153.247	19071.3
157.404	8677.58
161.559	2814
165.711	1305.58
169.862	832.329
174.011	632.25
178.158	603.339
182.303	842.591
186.446	1102
190.587	1272.57
194.726	1635.25
198.862	1241.16
202.997	1198.99
207.13	3045.58
211.261	19494.9
215.39	49163.4
219.517	47860.6
223.642	10698
227.765	2632.75
231.886	1587.69
236.005	1744.26
240.122	2775.05
244.237	6334.22
248.35	3674.64
252.461	978.296
256.57	355.158
260.677	253.209
264.782	233.436
268.885	220.823
272.986	241.38
277.085	218.095
281.182	167.96
285.278	152.964
289.371	153.101
293.462	176.331
297.552	169.631
301.639	182.001
305.724	146.443
309.808	120.957
313.889	95.543
317.969	105.202
322.046	66.942
326.122	45.754
330.196	5.631
334.267	14.432
338.337	41.469
342.405	41.524
346.471	47.608
350.535	35.746
354.597	15.92
358.657	13.147
362.715	32.481
366.771	73.958
370.825	90.409
374.877	124.908
378.928	170.463
382.976	248.104
387.023	280.837
391.067	296.655
395.11	310.547
399.15	358.517
403.189	510.553
407.226	924.647
411.261	1184.8
415.294	1206.01
419.325	1595.55
423.354	2403.69
427.381	3709.41
431.406	5132.82
435.43	6098.3
439.451	5100.61
443.471	2210.55
447.488	1036.77
451.504	938.975
455.518	1700.66
459.53	4511.32
463.54	12130
467.548	30692.7
471.554	61085.4
475.558	40688.1
479.561	12081.3
483.561	4412.7
487.559	2360.47
491.556	1498.2
495.551	1077.02
499.544	836.062
503.535	624.011
507.524	528.04
511.511	441.769
515.496	417.935
519.48	374.418
523.461	345.17
527.441	296.931
531.418	239.702
535.394	228.481
539.368	231.334
543.34	252.921
547.311	252.213
551.279	239.517
555.245	200.933
559.21	118.726
563.173	71.529
567.133	41.515
571.092	19.709
575.049	18.13
579.005	6.535
582.958	3.095
586.909	6.59
590.859	6.843
594.807	10.523
598.753	11.081
602.697	1.218
606.639	6.4
610.579	5.32
614.518	29.274
618.454	54.775
622.389	57.33
626.322	41.646
630.253	17.89
634.182	8.024
638.109	3.91
642.035	7.102
645.958	30.082
649.88	64.034
653.8	81.963
657.718	64.917
661.634	62.915
665.549	51.977
669.461	29.436
673.372	24.291
677.281	31.482
681.188	46.652
685.093	52.79
688.997	50.896
692.898	20.969
696.798	3.007
700.696	11.998
704.592	6.936
708.486	21.834
712.378	29.697
716.269	19.525
720.158	21.317
724.045	8.07
727.93	0.777
731.813	6.43
735.694	3.755
739.574	0.885
743.452	6.016
747.328	1.655
751.202	1.565
755.075	1.149
758.945	2.266
762.814	0.488
766.681	6.406
770.546	3.677
774.409	3.727
778.271	3.74
782.131	5.72
785.989	11.67
789.845	27.546
793.699	26.498
797.552	35.137
801.402	66.98
805.251	93.8
809.098	167.595
812.944	253.364
816.787	321.108
820.629	345.825
824.469	312.513
828.307	248.173
832.144	219.907
835.978	256.515
839.811	258.129
843.642	304.69
847.472	299.229
851.299	313.515
855.125	353.388
858.949	385.468
862.771	427.901
866.591	441.345
870.41	407.814
874.227	403.15
878.042	390.153
881.855	332.737
885.667	221.643
889.476	151.003
893.284	123.789
897.09	143.991
900.895	126.484
904.698	119.137
908.499	86.532
912.298	80.493
916.095	60.313
919.891	74.856
923.685	110.98
927.477	163.162
931.267	201.665
935.056	205.364
938.843	183.541
942.628	147.651
946.411	94.028
950.193	47.402
953.973	33.784
957.751	21.013
961.527	13.25
965.302	9.458
969.075	17.657
972.846	4.852
976.615	7.041
980.383	4.243
984.149	6.852
987.913	2.095
991.675	8.271
995.436	6.421
999.195	7.565
1002.95	1.247
1006.71	6.908
1010.46	0.061
1014.21	3.201
1017.96	2.381
1021.71	7.522
1025.46	12.227
1029.2	6.948
1032.95	2.07
1036.69	1.674
1040.43	0.542
1044.17	1.386
1047.9	2.781
1051.64	7.097
1055.37	4.289
1059.1	9.48
1062.83	6.679
1066.56	1.874
1070.29	5.072
1074.01	2.21
1077.73	3.985
1081.46	14.177
1085.17	5.367
1088.89	7.554
1092.61	13.747
1096.32	10.926
1100.04	0.101
1103.75	4.27
1107.46	8.448
1111.16	4.662
1114.87	8.994
1118.57	4.144
1122.28	4.612
1125.98	5.755
1129.67	3.962
1133.37	1.004
1137.07	5.15
1140.76	10.246
1144.45	10.451
1148.14	5.544
1151.83	1.552
1155.52	5.639
1159.21	3.511
1162.89	7.608
1166.57	2.65
1170.25	9.849
1173.93	2.934
1177.61	8.998
1181.28	9.059
1184.96	5.058
1188.63	6.054
1192.3	11.027
1195.97	0.943
1199.64	3.093
1203.3	9.054
1206.97	4.092
1210.63	6.137
1214.29	9.159
1217.95	4.169
1221.6	4.887
1225.26	7.825
1228.91	11.412
1232.57	14.648
1236.21	2.64
1239.86	11.625
1243.51	12.153
1247.16	4.514
1250.8	7.367
1254.44	0.333
1258.08	1.729
1261.72	8.223
1265.36	13.168
1268.99	5.107
1272.63	7.043
1276.26	6.946
1279.89	10.476
1283.52	11.337
1287.15	0.762
1290.77	17.151
1294.4	15.06
1298.02	4.902
1301.64	17.81
1305.26	11.695
1308.88	2.597
1312.49	2.439
1316.11	3.327
1319.72	8.191
1323.33	6.915
1326.94	5.799
1330.55	4.555
1334.15	5.433
1337.76	2.302
1341.36	1.047
1344.96	4.945
1348.56	10.822
1352.16	11.693
1355.75	5.569
1359.35	7.446
1362.94	6.317
1366.53	6.683
1370.12	1.574
1373.71	6.463
1377.3	10.414
1380.88	7.287
1384.46	6.158
1388.05	8.059
1391.63	3.882
1395.2	5.702
1398.78	6.106
1402.36	10.17
1405.93	7.719
1409.5	9.47
1413.07	6.342
1416.64	4.204
1420.21	1.234
1423.78	7.62
1427.34	0.469
1430.9	10.324
1434.46	9.161
1438.02	6.022
1441.58	12.861
1445.13	14.723
1448.69	14.579
1452.24	7.449
1455.79	4.168
1459.34	10.983
1462.89	3.852
1466.44	4.743
1469.98	0.641
1473.53	8.39
1477.07	2.292
1480.61	5.216
1484.14	0.861
1487.68	9.085
1491.22	7.025
1494.75	7.025
1498.28	6.035
1501.81	10.109
1505.34	3.964
1508.87	1.104
1512.4	6.309
1515.92	12.662
1519.44	10.056
1522.96	0
