Measurement: Raman, 514 nm, ccw, Raman Data Processed
Mineral: Sulphur
Rruff sample: R040135
Ideal chemistry: S
Locality: Sicily, Italy
Source: University of Arizona Mineral Museum
Description: Yellow fragments
Measured chemistry: S_1.00_
Pin_id: L00492
Orientation: Laser parallel to b* (0 1 0). Fiducial mark perpendicular to laser is parallel to -c [0 0 -1]
Raman shift (cm-1)	intensity
55.323	0
59.501	9.217
63.677	41.147
67.851	6.06
72.024	12.661
76.195	82.835
80.364	207.94
84.531	549.554
88.697	1314.88
92.86	1181.42
97.022	660.025
101.183	527.302
105.341	564.83
109.498	597.367
113.653	652.766
117.806	680.922
121.958	680.76
126.108	718.269
130.256	773.22
134.402	885.398
138.547	1175.85
142.69	2356.25
146.831	7619.56
150.97	21185.9
155.108	32979.4
159.244	15203
163.378	3427.81
167.51	1503.84
171.641	945.095
175.77	747.571
179.897	1128.27
184.023	2148.17
188.146	2435.28
192.269	1176.59
196.389	864.232
200.507	791.043
204.624	954.074
208.74	2376.35
212.853	11788.2
216.965	34143.7
221.075	38268.2
225.183	4440.66
229.29	1518.46
233.394	1251.37
237.498	1225.53
241.599	1428.92
245.699	2194.7
249.797	1381.83
253.893	414.291
257.988	240.039
262.081	168.044
266.172	130.276
270.261	130.701
274.349	134.317
278.435	89.128
282.519	84.118
286.602	82.288
290.683	92.599
294.762	128.04
298.84	82.578
302.916	129.204
306.99	89.916
311.062	87.716
315.133	107.605
319.202	81.586
323.27	63.661
327.335	29.832
331.4	1.913
335.462	10.599
339.522	21.26
343.581	34.91
347.639	24.561
351.694	15.217
355.748	13.875
359.8	3.447
363.851	43.68
367.9	73.821
371.947	89.897
375.993	99
380.036	157.159
384.079	168.382
388.119	207.717
392.158	189.159
396.195	182.694
400.23	251.322
404.264	327.026
408.296	500.856
412.327	621.2
416.356	772.406
420.383	1203.56
424.408	1735.1
428.432	2480.32
432.454	3279.23
436.474	3963.4
440.493	3266.64
444.51	1123.88
448.526	557.065
452.54	709.632
456.552	1464.16
460.562	3741.49
464.571	9560.82
468.578	23120.2
472.584	37919.5
476.588	16169
480.59	4639.35
484.591	2096.85
488.59	1170.6
492.587	800.729
496.583	597.65
500.577	464.654
504.569	362.351
508.56	269.813
512.549	244.477
516.536	186.372
520.522	233.718
524.506	192.626
528.489	168.957
532.469	128.286
536.449	122.652
540.426	116.108
544.402	117.237
548.376	129.647
552.349	100.497
556.32	80.83
560.29	59.112
564.257	21.368
568.224	1.681
572.188	5.77
576.151	25.998
580.112	5.864
584.072	12.542
588.03	13.068
591.986	3.28
595.941	0.231
599.894	2.873
603.846	6.23
607.796	1.969
611.744	8.884
615.691	22.421
619.636	44.37
623.579	42.926
627.521	23.474
631.462	15.747
635.4	19.067
639.337	33.301
643.273	10.576
647.206	23.47
651.139	38.476
655.069	44.469
658.998	60.476
662.926	44.5
666.851	35.382
670.775	26.626
674.698	42.716
678.619	26.818
682.538	51.89
686.456	62.346
690.372	39.935
694.287	21.899
698.2	10.818
702.111	9.319
706.021	0.525
709.929	24.214
713.836	64.908
717.741	51.558
721.644	39.164
725.546	26.434
729.446	6.957
733.345	5.175
737.242	7.809
741.137	0.299
745.031	18.782
748.924	22.935
752.814	39.87
756.703	26.688
760.591	25.48
764.477	2.983
768.361	8.865
772.244	6.361
776.125	28.497
780.005	37.317
783.883	39.083
787.76	6.763
791.635	10.439
795.508	50.093
799.38	62.432
803.25	56.834
807.119	97.407
810.986	126.981
814.851	252.509
818.715	290.007
822.578	292.477
826.439	262.917
830.298	229.566
834.155	200.21
838.012	218.775
841.866	248.512
845.719	252.896
849.571	275.332
853.421	299.288
857.269	361.875
861.116	429.96
864.961	474.279
868.805	519.509
872.647	477.765
876.487	508.862
880.326	444.922
884.164	322.539
888	188.58
891.834	150.444
895.667	78.675
899.498	88.499
903.328	119.346
907.156	107.331
910.983	111.256
914.808	91.384
918.632	27.544
922.454	70.454
926.274	130.068
930.093	158.447
933.91	186.072
937.726	145.905
941.541	115.885
945.353	85.935
949.165	76.977
952.974	53.206
956.783	33.83
960.589	13.952
964.394	16.004
968.198	22.011
972	45.101
975.801	35.145
979.6	4.791
983.397	28.319
987.193	2.868
990.988	7.709
994.78	0.719
998.572	19.176
1002.36	42.146
1006.15	9.1
1009.94	22.077
1013.72	0.659
1017.51	9.515
1021.29	17.612
1025.07	50.46
1028.85	69.378
1032.63	5.264
1036.4	19.224
1040.18	38.502
1043.95	32.547
1047.72	0.504
1051.49	63.372
1055.26	42.261
1059.03	53.107
1062.79	16.987
1066.56	50.906
1070.32	53.019
1074.08	25.858
1077.84	70.71
1081.6	67.429
1085.36	48.224
1089.11	21.911
1092.87	16.644
1096.62	37.307
1100.37	2
1104.12	43.68
1107.86	72.342
1111.61	53.004
1115.36	25.618
1119.1	3.203
1122.84	11.8
1126.58	4.425
1130.32	21.713
1134.06	44.22
1137.79	17.229
1141.53	49.312
1145.26	24.597
1148.99	38.057
1152.72	10.554
1156.45	12.111
1160.17	28.444
1163.9	66.362
1167.62	45.505
1171.35	71.722
1175.07	29.859
1178.79	32.037
1182.5	12.965
1186.22	13.905
1189.93	30.95
1193.65	63.471
1197.36	31.291
1201.07	55.12
1204.78	44.57
1208.49	29.51
1212.19	16.373
1215.9	13.055
1219.6	49.783
1223.3	98.421
1227	60.977
1230.7	56.421
1234.4	55.892
1238.1	28.47
1241.79	57.099
1245.48	37.564
1249.17	29.817
1252.86	43.231
1256.55	52.94
1260.24	39.299
1263.92	27.528
1267.61	57.624
1271.29	20.753
1274.97	29.901
1278.65	25.957
1282.33	20.857
1286.01	91.556
1289.68	100.36
1293.36	73.085
1297.03	56.926
1300.7	31.457
1304.37	22.042
1308.04	26.368
1311.71	7.493
1315.37	55.065
1319.04	47.321
1322.7	42.749
1326.36	114.061
1330.02	78.374
1333.68	86.534
1337.33	19.409
1340.99	34.427
1344.64	58.434
1348.29	18.493
1351.94	52.469
1355.59	50.391
1359.24	70.227
1362.89	68.05
1366.53	107.764
1370.18	77.629
1373.82	39.375
1377.46	54.52
1381.1	13.29
1384.74	10.948
1388.37	16.779
1392.01	50.702
1395.64	116.651
1399.27	159.042
1402.9	116.412
1406.53	89.622
1410.16	76.884
1413.79	29.78
1417.41	10.809
1421.04	30.855
1424.66	24.954
1428.28	104.99
1431.9	72.137
1435.52	92.894
1439.13	118.476
1442.75	113.184
1446.36	85.008
1449.98	71.346
1453.59	67.721
1457.2	27.236
1460.8	24.497
1464.41	19.291
1468.02	35.174
1471.62	67.051
1475.22	141.762
1478.82	115.262
1482.42	134.088
1486.02	140.153
1489.62	96.839
1493.21	63.771
1496.81	49.656
1500.4	81.369
1503.99	10.15
1507.58	12.55
1511.17	2.58
1514.76	88.988
1518.34	75.921
1521.93	74.963
1525.51	119.921
1529.09	117.791
1532.67	116.6
1536.25	0
