Measurement: Raman, 514 nm, ccw, Raman Data Processed
Mineral: Talc
Rruff sample: R050087
Ideal chemistry: Mg_3_Si_4_O_10_(OH)_2_
Locality: St. Lawrence County, New York, USA
Source: University of Arizona Mineral Museum
Description: An aggregate of colorless foliated coarse single crystals
Measured chemistry: (Mg_.998_Fe_.002_)_3_(Si_.997_Al_.003_)_4_O_10_(OH_.966_F_.034_)_2_
Pin_id: M00333
Orientation: Laser parallel to c* (0 0 1). Fiducial mark perpendicular to laser is parallel to a [1 0 0]
Raman shift (cm-1)	intensity
95.948	0
100.883	1653.4
105.815	4845.85
110.744	5613.4
115.671	4457.86
120.596	1912.58
125.519	187.023
130.439	53.6191
135.356	2.97461
140.271	42.584
145.184	37.9355
150.094	244.65
155.002	117.137
159.908	150.447
164.811	401.898
169.711	407.131
174.61	626.789
179.505	1246.68
184.399	9235.52
189.29	17983.5
194.178	36190.7
199.064	20109.5
203.948	2403.73
208.829	786.037
213.708	585.678
218.585	554.732
223.459	499.598
228.33	810.111
233.199	600.746
238.066	212.316
242.93	140.58
247.792	169.695
252.651	54.8164
257.508	15.9609
262.363	152.277
267.215	59.709
272.064	170.666
276.912	262.127
281.756	1333.02
286.598	1966.5
291.438	2564.44
296.276	708.305
301.111	426.893
305.943	400.295
310.773	64.4238
315.601	0.621094
320.426	32.0137
325.248	457.074
330.068	630.314
334.886	836.592
339.701	550.295
344.514	998.598
349.324	2038.94
354.132	4723.62
358.938	7631.72
363.741	8036.49
368.541	3434.46
373.339	1214.59
378.135	1007.86
382.928	727.322
387.718	224.289
392.506	61.4883
397.292	218.047
402.075	1.25781
406.856	106.301
411.634	11.6855
416.41	23.4707
421.183	467.404
425.954	1248.16
430.722	2069.25
435.488	1766.31
440.251	770.277
445.012	660.965
449.77	1055.28
454.526	1050.59
459.28	868.406
464.03	1262.88
468.779	1432.34
473.525	872.334
478.268	186.898
483.009	55.1816
487.747	201.231
492.483	348.148
497.217	166.594
501.948	339.51
506.676	276.131
511.402	408.451
516.125	269.463
520.846	213.162
525.565	204.543
530.281	100.586
534.994	282.58
539.705	151.67
544.413	27.5098
549.119	207.824
553.822	15.1387
558.523	269.066
563.222	240.848
567.917	84.1465
572.611	56.4492
577.302	52.3262
581.99	346.81
586.676	95.0117
591.359	41.2383
596.04	54.8965
600.718	165.463
605.394	255.533
610.067	199.945
614.737	325.94
619.406	488.719
624.071	357.559
628.734	386.144
633.395	196.356
638.053	496.727
642.708	712.426
647.361	929.332
652.012	1351.94
656.66	2017.45
661.305	4089.69
665.948	8558.65
670.588	18418.2
675.226	26328.3
679.861	21586
684.494	10169
689.124	4590.05
693.752	2547.99
698.377	1410.13
702.999	1083.26
707.619	675.75
712.237	625.654
716.852	561.91
721.464	468.812
726.074	197.234
730.681	305.223
735.286	232.232
739.888	184.893
744.488	86.0898
749.085	76.5019
753.68	30.7988
758.272	40.2832
762.861	14.9902
767.448	371.309
772.033	376.272
776.614	329.15
781.194	681.246
785.77	1197
790.345	1303.94
794.916	881.197
799.485	471.508
804.052	351.144
808.616	554.141
813.177	76.793
817.736	316.277
822.292	109.496
826.846	235.684
831.397	75.1758
835.945	140.398
840.491	167.961
845.035	77.0273
849.576	124.16
854.114	244.019
858.65	376.59
863.183	111.988
867.713	396.453
872.241	56.4883
876.767	293.121
881.29	135.262
885.81	252.894
890.328	13.9883
894.843	405.234
899.356	76.6992
903.866	167.352
908.373	58.207
912.878	279.168
917.38	404.949
921.88	208.562
926.377	144.719
930.872	60.6406
935.364	27.418
939.853	232.477
944.34	49.2617
948.824	129.602
953.306	411.441
957.785	68.8203
962.261	96.8828
966.735	42.2461
971.207	162.41
975.675	197.734
980.141	287.289
984.605	401.215
989.066	263.273
993.524	303.062
997.98	123.543
1002.43	185.059
1006.88	630.144
1011.33	729.469
1015.78	1559.73
1020.22	1800.09
1024.66	1126.29
1029.1	505.586
1033.53	471.746
1037.97	582.938
1042.4	1566.62
1046.82	3394.31
1051.25	5432.01
1055.67	3714.79
1060.09	1456.98
1064.51	773.914
1068.92	403.387
1073.33	431.719
1077.74	409.848
1082.15	563.633
1086.55	278.238
1090.95	473.016
1095.35	64.8906
1099.75	109.559
1104.14	53.6172
1108.53	40.4453
1112.92	340.75
1117.31	417.848
1121.69	423.055
1126.07	517.703
1130.45	156.664
1134.82	252.094
1139.19	226.512
1143.57	382.047
1147.93	208.625
1152.3	119.945
1156.66	260.254
1161.02	46.6562
1165.38	111.867
1169.73	151.453
1174.08	76.9609
1178.43	111.484
1182.78	142.062
1187.12	212.75
1191.46	151.785
1195.8	382.051
1200.14	395.562
1204.47	224.16
1208.8	174.863
1213.13	99.1016
1217.46	333.117
1221.78	340.312
1226.1	254.644
1230.42	32.0547
1234.73	309.734
1239.04	388.594
1243.35	62.625
1247.66	673.289
1251.97	180.621
1256.27	168.109
1260.57	185.758
1264.86	229.629
1269.16	130.613
1273.45	303.769
1277.74	235.699
1282.03	337.016
1286.31	381.734
1290.59	120.488
1294.87	178.305
1299.14	200.57
1303.42	181.734
1307.69	161.438
1311.95	257.406
1316.22	306.621
1320.48	39.1484
1324.74	407.91
1329	425.879
1333.26	42.2734
1337.51	276.402
1341.76	283.598
1346	72.9219
1350.25	536.461
1354.49	219.926
1358.73	198.898
1362.96	309.117
1367.2	277.578
1371.43	231.176
1375.66	417.981
1379.88	109.004
1384.11	163.273
1388.33	196.785
1392.54	137.559
1396.76	256.606
1400.97	198.945
1405.18	330.574
1409.39	420.723
1413.59	118.227
1417.8	396.426
1421.99	111.246
1426.19	140.199
1430.38	200.637
1434.58	207.277
1438.77	207.879
1442.95	282.231
1447.13	517.852
1451.32	55.5508
1455.49	10.2344
1459.67	27.0781
1463.84	313.231
1468.01	483.156
1472.18	325.133
1476.35	471.57
1480.51	310.465
1484.67	26.7266
1488.83	474.84
1492.98	272.977
1497.13	138.703
1501.28	299.934
1505.43	430.773
1509.57	261.664
1513.71	419.043
1517.85	232.66
1521.99	179.43
1526.12	278.32
1530.25	389.816
1534.38	170.641
1538.5	312.453
1542.62	503.273
1546.74	262.578
1550.86	576.106
1554.98	782.102
1559.09	619.047
1563.2	344.121
1567.31	259.176
1571.41	0
