Measurement: Raman, 514 nm, ccw, Raman Data Processed
Mineral: Talc
Rruff sample: R050087
Ideal chemistry: Mg_3_Si_4_O_10_(OH)_2_
Locality: St. Lawrence County, New York, USA
Source: University of Arizona Mineral Museum
Description: An aggregate of colorless foliated coarse single crystals
Measured chemistry: (Mg_.998_Fe_.002_)_3_(Si_.997_Al_.003_)_4_O_10_(OH_.966_F_.034_)_2_
Pin_id: M00271
Orientation: Laser parallel to (0 -1 -1). Fiducial mark perpendicular to laser is parallel to a [1 0 0]
Raman shift (cm-1)	intensity
93.48	0
98.416	1372.02
103.349	5866.93
108.28	7460.63
113.208	6542.15
118.134	3237.85
123.058	387.861
127.979	34.9697
132.898	121.967
137.814	108.682
142.728	145.759
147.639	104.731
152.549	4.37109
157.455	107.656
162.359	39.291
167.261	25.3369
172.161	26.9736
177.058	174.177
181.952	1003.99
186.845	7328.25
191.734	17876.4
196.622	18076.1
201.507	2325.66
206.389	514.493
211.269	312.068
216.147	195.704
221.022	235.825
225.895	564.403
230.765	733.333
235.633	305.538
240.498	127.186
245.361	101.061
250.222	34.0723
255.08	151.477
259.936	266.345
264.789	15.5469
269.64	22.5889
274.488	125.596
279.334	210.982
284.178	1111.49
289.019	3077.42
293.857	1420.71
298.693	271.566
303.527	226.166
308.358	10.4844
313.187	9.53711
318.013	142.397
322.837	308.887
327.659	750.496
332.478	1406.05
337.294	1018.59
342.108	943.512
346.92	1692.31
351.729	3273.86
356.535	7657.15
361.34	13153.2
366.141	8094.2
370.94	2621.15
375.737	1567.03
380.531	1391.83
385.323	836.66
390.113	289.041
394.9	336.217
399.684	176.5
404.466	6.24609
409.245	12.6191
414.022	140.609
418.797	211.664
423.569	501.596
428.338	1787.9
433.105	3483.91
437.87	1290.1
442.632	565.93
447.391	695.652
452.149	1064.68
456.903	890.912
461.655	1212.99
466.405	2742.91
471.152	2224.98
475.897	641.955
480.639	250.508
485.378	176.775
490.116	114.709
494.85	144.316
499.582	252.592
504.312	498.545
509.039	623.189
513.764	496.519
518.486	548.539
523.206	296.242
527.923	102.623
532.638	135.746
537.35	0.392578
542.059	33.0547
546.766	161.268
551.471	154.684
556.173	193.863
560.873	30.2734
565.57	53.2031
570.264	233.152
574.957	110.529
579.646	49
584.333	177.088
589.018	87.8301
593.7	218.44
598.379	124.213
603.056	324.69
607.73	236.607
612.402	199.707
617.072	588.309
621.739	591.943
626.403	1009.31
631.065	918.713
635.724	584.76
640.381	1034.44
645.035	1432.01
649.687	1569.42
654.336	1989.72
658.983	2707.78
663.627	5233.6
668.268	12178.7
672.907	25803.1
677.544	32858.7
682.178	17715
686.809	7150.31
691.438	3290.78
696.065	1736.89
700.688	1109.47
705.31	792.363
709.929	499.529
714.545	307.543
719.158	3.2793
723.77	138.674
728.378	83.5019
732.984	8.63672
737.588	71.2129
742.189	62.9082
746.787	254.59
751.383	68.1914
755.976	72.7988
760.567	63.1621
765.155	89.0273
769.741	210.82
774.324	201.603
778.904	578.525
783.482	1552.94
788.058	2117.56
792.631	2048.09
797.201	1465.83
801.769	551.951
806.334	226.537
810.897	121.383
815.457	95.8945
820.014	109.365
824.569	120.766
829.122	260.188
833.671	139.883
838.219	310.971
842.763	279.727
847.306	254.574
851.845	403.1
856.382	510.928
860.917	717.535
865.448	776.516
869.978	431.9
874.505	419.441
879.029	188.766
883.55	196.25
888.069	146.147
892.586	168.705
897.1	342.816
901.611	200.978
906.12	250.711
910.626	195.603
915.129	214.648
919.63	81.5391
924.129	96.0801
928.625	29.3359
933.118	27.5215
937.609	232.519
942.097	204.822
946.582	76.8809
951.065	117.769
955.546	96.2852
960.023	84.8691
964.499	56.2539
968.971	73.2148
973.441	172.025
977.909	64.8555
982.374	75.3106
986.836	127.035
991.295	94.2207
995.753	192.088
1000.21	475.742
1004.66	773.281
1009.11	490.613
1013.55	945.027
1018	1665.28
1022.44	1046.04
1026.88	387.074
1031.32	292.393
1035.75	331.935
1040.18	621.5
1044.61	636.607
1049.04	1635.43
1053.46	1999.15
1057.88	832.648
1062.3	437.699
1066.71	162.551
1071.13	285.934
1075.54	297.527
1079.94	160.5
1084.35	455.727
1088.75	376.734
1093.15	457.684
1097.55	140.398
1101.94	479.383
1106.34	187.594
1110.73	100.344
1115.11	376.539
1119.5	149.387
1123.88	234.562
1128.26	171.82
1132.63	305.481
1137.01	9.02344
1141.38	140.406
1145.75	136.637
1150.12	220.852
1154.48	80.4961
1158.84	87.2461
1163.2	87.9023
1167.55	284.449
1171.91	395.734
1176.26	114.977
1180.61	305.133
1184.95	1.18359
1189.29	261.258
1193.63	93.293
1197.97	184.176
1202.31	130.035
1206.64	146.258
1210.97	52.707
1215.29	287.172
1219.62	64.6914
1223.94	127.914
1228.26	116.707
1232.57	190.285
1236.89	475.469
1241.2	67.1172
1245.51	574.359
1249.81	296.832
1254.12	273.262
1258.42	453.832
1262.72	415.426
1267.01	327.016
1271.3	603.668
1275.59	659.148
1279.88	571.805
1284.17	615.547
1288.45	458.856
1292.73	580.961
1297.01	699.566
1301.28	374.07
1305.55	633.324
1309.82	612.578
1314.09	840.16
1318.35	1048.74
1322.61	667.473
1326.87	659.316
1331.13	12.5078
1335.38	349.461
1339.63	249.496
1343.88	47.2227
1348.12	14.0625
1352.37	241.211
1356.61	97.6289
1360.85	375.211
1365.08	160.996
1369.31	112.867
1373.54	306.871
1377.77	253.18
1381.99	199.668
1386.22	380.023
1390.43	318.555
1394.65	206.375
1398.87	305.277
1403.08	202.492
1407.29	79
1411.49	326.852
1415.69	196.84
1419.89	31.0625
1424.09	166.707
1428.29	282.793
1432.48	57.3242
1436.67	584.852
1440.86	939.75
1445.04	1190.18
1449.23	1438.44
1453.4	1226.99
1457.58	1383.57
1461.76	1224.45
1465.93	1051.94
1470.1	675.785
1474.26	597.359
1478.43	343.301
1482.59	327.684
1486.75	509.473
1490.9	180.969
1495.06	191.738
1499.21	9.45312
1503.35	185.328
1507.5	73.0156
1511.64	183.848
1515.78	248.125
1519.92	79.0195
1524.05	158.309
1528.18	245.734
1532.31	339.961
1536.44	423.191
1540.56	172.492
1544.69	235.457
1548.8	309.164
1552.92	51.9648
1557.03	446.742
1561.14	234.672
1565.25	118.781
1569.36	1274.07
