Measurement: Raman, 514 nm, ccw, Raman Data Processed
Mineral: Talc
Rruff sample: R050087
Ideal chemistry: Mg_3_Si_4_O_10_(OH)_2_
Locality: St. Lawrence County, New York, USA
Source: University of Arizona Mineral Museum
Description: An aggregate of colorless foliated coarse single crystals
Measured chemistry: (Mg_.998_Fe_.002_)_3_(Si_.997_Al_.003_)_4_O_10_(OH_.966_F_.034_)_2_
Pin_id: M00418
Orientation: Laser parallel to (1 0 1). Fiducial mark perpendicular to laser is parallel to b [0 1 0]
Raman shift (cm-1)	intensity
93.48	0
98.416	934.381
103.349	2344
108.28	4053.72
113.208	3508.92
118.134	1623.68
123.058	250.859
127.979	28.3135
132.898	35.8525
137.814	81.29
142.728	14.6396
147.639	34.2725
152.549	13.7315
157.455	95.9033
162.359	117.449
167.261	189.109
172.161	409.684
177.058	738.033
181.952	3695.89
186.845	28394.5
191.734	38220.6
196.622	42111.1
201.507	6330.44
206.389	1138.96
211.269	475.102
216.147	294.146
221.022	266.798
225.895	331.173
230.765	332.457
235.633	125.702
240.498	46.7959
245.361	42.4404
250.222	61.1543
255.08	129.253
259.936	88.6865
264.789	39.7022
269.64	46.7871
274.488	27.3486
279.334	456.342
284.178	1128.96
289.019	1479.49
293.857	953.908
298.693	162.466
303.527	158.722
308.358	67.376
313.187	78.8603
318.013	27.3662
322.837	103.936
327.659	204.601
332.478	225.276
337.294	389.134
342.108	604.182
346.92	1161.41
351.729	2671.54
356.535	4974.32
361.34	5845.83
366.141	3869.48
370.94	1527.24
375.737	640.451
380.531	558.249
385.323	203.844
390.113	213.213
394.9	181.513
399.684	5.89453
404.466	2.19727
409.245	121.189
414.022	29.2021
418.797	93.6318
423.569	357.587
428.338	686.152
433.105	662.058
437.87	372.627
442.632	267.435
447.391	310.873
452.149	323.54
456.903	433.346
461.655	859.797
466.405	1204.08
471.152	1064.72
475.897	287.394
480.639	135.065
485.378	79.7168
490.116	23.6514
494.85	7.08594
499.582	177.366
504.312	241.699
509.039	155.995
513.764	136.263
518.486	50.4951
523.206	113.618
527.923	176.667
532.638	124.721
537.35	130.502
542.059	80.2471
546.766	2.44727
551.471	173.505
556.173	23.6172
560.873	32.2754
565.57	40.0059
570.264	50.1728
574.957	11.3047
579.646	100.335
584.333	17.7314
589.018	74.1113
593.7	183.932
598.379	18.2148
603.056	219.876
607.73	280.709
612.402	204.73
617.072	157.613
621.739	221.433
626.403	318.252
631.065	384.505
635.724	449.482
640.381	506.776
645.035	768.629
649.687	894.523
654.336	1602.43
658.983	2281.74
663.627	4735.32
668.268	10839.2
672.907	18077.5
677.544	19269.4
682.178	10978.5
686.809	4871.32
691.438	2362.7
696.065	1293.08
700.688	800.823
705.31	548.404
709.929	359.073
714.545	295.582
719.158	241.541
723.77	38.4922
728.378	56.6025
732.984	320.783
737.588	208.3
742.189	81.6074
746.787	145.974
751.383	44.6103
755.976	100.602
760.567	19.1934
765.155	42.7529
769.741	71.5254
774.324	116.769
778.904	189.531
783.482	228.684
788.058	292.719
792.631	259.741
797.201	57.8457
801.769	122.079
806.334	29.5977
810.897	191.768
815.457	138.269
820.014	30.2842
824.569	40.5176
829.122	118.211
833.671	28.0371
838.219	168.642
842.763	79.8232
847.306	146.097
851.845	216.462
856.382	285.972
860.917	210.766
865.448	246.137
869.978	82.2861
874.505	93.2285
879.029	46.9941
883.55	151.109
888.069	8.96289
892.586	81.2891
897.1	88.6094
901.611	162.99
906.12	119.137
910.626	84.5723
915.129	155.078
919.63	177.625
924.129	140.162
928.625	228.916
933.118	111.49
937.609	74.0312
942.097	148.519
946.582	60.4668
951.065	38.2559
955.546	20.7578
960.023	110.289
964.499	117.416
968.971	68.6191
973.441	66.4824
977.909	240.578
982.374	72.7519
986.836	152.861
991.295	153.262
995.753	250.678
1000.21	103.988
1004.66	398.885
1009.11	482.117
1013.55	843.818
1018	1063.6
1022.44	738.658
1026.88	370.103
1031.32	367.041
1035.75	513.162
1040.18	985.232
1044.61	2624.98
1049.04	5539.27
1053.46	5349.56
1057.88	1863.16
1062.3	819.537
1066.71	537.316
1071.13	318.619
1075.54	261.582
1079.94	281.654
1084.35	293.404
1088.75	197.697
1093.15	148.865
1097.55	293.934
1101.94	271.272
1106.34	122.443
1110.73	109.312
1115.11	274.279
1119.5	337.568
1123.88	319.662
1128.26	106.697
1132.63	254.09
1137.01	31.502
1141.38	143.324
1145.75	213.904
1150.12	223.533
1154.48	199.264
1158.84	19.0391
1163.2	167.924
1167.55	318.928
1171.91	59.0605
1176.26	54.3145
1180.61	115.67
1184.95	83.1562
1189.29	46.7734
1193.63	153.471
1197.97	26.2637
1202.31	60.1484
1206.64	14.1289
1210.97	52.209
1215.29	45.4023
1219.62	126.731
1223.94	27.834
1228.26	64.3672
1232.57	266.709
1236.89	54.416
1241.2	201.281
1245.51	31.2656
1249.81	230.455
1254.12	43.4883
1258.42	264.481
1262.72	224.717
1267.01	203.943
1271.3	18.7129
1275.59	128.615
1279.88	262.072
1284.17	173.609
1288.45	381.357
1292.73	231.258
1297.01	382.184
1301.28	160.215
1305.55	240.353
1309.82	311.602
1314.09	327.963
1318.35	238.453
1322.61	184.365
1326.87	358.047
1331.13	303.389
1335.38	289.266
1339.63	258.242
1343.88	56.291
1348.12	49.4395
1352.37	227.764
1356.61	33.6211
1360.85	94.6641
1365.08	213.065
1369.31	246.185
1373.54	224.772
1377.77	320.234
1381.99	78.0781
1386.22	81.9922
1390.43	62.9746
1394.65	121.147
1398.87	129.022
1403.08	71.4785
1407.29	96.0996
1411.49	138.641
1415.69	0.857422
1419.89	72.4043
1424.09	190.475
1428.29	62.7441
1432.48	54.0117
1436.67	94.2227
1440.86	318.51
1445.04	337.961
1449.23	215.434
1453.4	398.664
1457.58	364.068
1461.76	500.625
1465.93	426.65
1470.1	64.7422
1474.26	114.852
1478.43	251.361
1482.59	225.81
1486.75	300.594
1490.9	73.2617
1495.06	121.158
1499.21	194.731
1503.35	24.1992
1507.5	142.842
1511.64	151.652
1515.78	177.799
1519.92	295.92
1524.05	162.34
1528.18	199.269
1532.31	200.484
1536.44	181.047
1540.56	176.932
1544.69	100.547
1548.8	151.014
1552.92	213.057
1557.03	258.754
1561.14	170.559
1565.25	263.449
1569.36	194.443
