Measurement: Raman, 514 nm, ccw, Raman Data Processed
Mineral: Talc
Rruff sample: R040137
Ideal chemistry: Mg_3_Si_4_O_10_(OH)_2_
Locality: Murphy, North Carolina, USA
Source: University of Arizona Mineral Museum
Description: Colorless massive
Measured chemistry: (Mg_0.97_Fe_0.01_Al_0.01_)_3_Si_4.03_O_10_((OH)_0.99_F_0.01_)_2_
Pin_id: L00440
Orientation: Laser parallel to -1 0 0. Fiducial mark perpendicular to laser is parallel to 0 1 0
Raman shift (cm-1)	intensity
145.48	0
148.25	31.195
151.019	189.912
153.788	61.521
156.555	165.033
159.322	98.822
162.088	21.123
164.853	40.57
167.617	242.893
170.38	200.605
173.142	101.857
175.904	306.111
178.664	212.963
181.424	412.119
184.183	593.336
186.94	1046.43
189.698	3151.18
192.454	7617.33
195.209	7834.73
197.963	5753.26
200.717	2552.82
203.47	983.367
206.221	444.83
208.972	213.127
211.722	190.391
214.472	394.445
217.22	439.32
219.967	454.975
222.714	461.379
225.46	488.512
228.204	496.314
230.948	284.23
233.692	212.268
236.434	280.521
239.175	249.033
241.916	417.848
244.655	607
247.394	436.51
250.132	516.383
252.869	286.631
255.605	257.26
258.34	498.277
261.075	139.705
263.808	521.539
266.541	542.32
269.273	456.436
272.004	199.52
274.734	293.34
277.463	417.514
280.192	382.139
282.919	327.281
285.646	532.736
288.372	938.508
291.097	1224.62
293.821	901.033
296.544	817.746
299.266	574.934
301.988	392.488
304.709	640.396
307.428	578.621
310.147	432.699
312.865	300.891
315.583	461.211
318.299	412.449
321.015	364.389
323.729	507.049
326.443	750.297
329.156	643.516
331.868	527.824
334.579	802.598
337.29	727.801
339.999	623.408
342.708	589.361
345.416	588
348.123	602.395
350.829	707.812
353.534	936.723
356.239	1434.34
358.942	2352.23
361.645	2950.41
364.347	2779.2
367.048	1997.9
369.748	1137.96
372.448	947.156
375.146	628.242
377.844	507.895
380.54	587.766
383.236	617.848
385.932	668.961
388.626	534.355
391.319	305.043
394.012	467.449
396.704	348.52
399.394	226.906
402.084	350.043
404.774	441.766
407.462	443.684
410.15	145.781
412.836	240.348
415.522	206.262
418.207	269.051
420.891	282.082
423.575	135.371
426.257	468.816
428.939	572.414
431.619	747.918
434.299	701.812
436.978	765.848
439.657	820.02
442.334	594.324
445.011	518.785
447.687	460.527
450.361	638.723
453.036	763.543
455.709	546.125
458.381	451.172
461.053	327.68
463.724	413.023
466.394	922.988
469.063	992.156
471.731	727.812
474.398	552.812
477.065	598.824
479.731	294.992
482.396	151.309
485.06	767.77
487.723	364.371
490.385	331.105
493.047	607.98
495.708	314.984
498.368	522.137
501.027	539.41
503.685	376.801
506.342	614.312
508.999	461.93
511.655	419.656
514.31	297.473
516.964	325.391
519.617	283.398
522.27	18.492
524.921	389.703
527.572	288.004
530.222	216.383
532.871	364.852
535.52	293.391
538.167	371.996
540.814	170.688
543.46	429.449
546.105	141.715
548.749	377.102
551.393	44.023
554.035	354.895
556.677	340.43
559.318	41.691
561.958	180.566
564.597	240.203
567.236	290.359
569.874	240.059
572.511	71.324
575.147	377.387
577.782	515.52
580.416	304.773
583.05	123.574
585.683	192.809
588.315	191.664
590.946	30.531
593.576	289.395
596.206	138.289
598.834	197.188
601.462	46.098
604.089	94.996
606.715	316.914
609.341	205.629
611.965	115.609
614.589	283.07
617.212	4.223
619.834	140.094
622.456	51.344
625.076	177.121
627.696	116.496
630.315	125.137
632.933	73.051
635.551	271.211
638.167	419.344
640.783	197.457
643.398	265.508
646.012	243.605
648.625	471.617
651.237	550.914
653.849	652.059
656.46	460.676
659.07	639.324
661.679	722.301
664.288	1046.69
666.895	1715.32
669.502	2403.23
672.108	4101.1
674.713	6019.1
677.318	7016.91
679.921	5746.17
682.524	3916.8
685.126	2514.96
687.727	1674.27
690.328	1062.75
692.927	760.258
695.526	688.496
698.124	366.395
700.721	285.289
703.318	498.844
705.913	166.086
708.508	473.031
711.102	620.461
713.695	421.074
716.288	6.285
718.879	73.984
721.47	60.574
724.06	387.059
726.649	362.305
729.238	135.27
731.825	248.668
734.412	117.266
736.998	534.008
739.584	99.316
742.168	277.25
744.752	412.363
747.334	357.352
749.916	274.344
752.498	419.426
755.078	274.148
757.658	448.77
760.237	17.098
762.815	626.957
765.392	655.906
767.969	172.414
770.544	146.461
773.119	619.047
775.693	422.77
778.267	381.797
780.839	85.25
783.411	324.957
785.982	529.551
788.552	502.676
791.122	515.688
793.69	488.664
796.258	721.461
798.825	204.156
801.391	246.75
803.957	69.227
806.522	251.555
809.085	474.258
811.649	110.59
814.211	70.098
816.772	722.141
819.333	140.738
821.893	313.035
824.452	346.664
827.011	228.465
829.568	271.594
832.125	91.152
834.681	572.953
837.236	354.16
839.791	419.93
842.345	160.812
844.898	572.469
847.45	343.016
850.001	213.762
852.552	114.402
855.102	324.719
857.651	374.785
860.199	424.973
862.746	244.98
865.293	184.73
867.839	528.75
870.384	624.969
872.928	663.785
875.472	632.023
878.015	141.48
880.557	270.219
883.098	499.617
885.639	241.379
888.178	110.449
890.717	458.68
893.256	276.742
895.793	404.891
898.33	72.711
900.865	450.312
903.401	577.758
905.935	425.055
908.468	382.215
911.001	369.238
913.533	453.008
916.064	379.844
918.595	606.504
921.124	612.941
923.653	489.047
926.182	453.148
928.709	351.516
931.236	388.809
933.761	564.461
936.286	230.164
938.811	575.781
941.334	661.668
943.857	277.094
946.379	532.281
948.9	627.547
951.421	594.359
953.94	399.242
956.459	441.539
958.978	464.02
961.495	631.996
964.012	759.523
966.527	257.555
969.043	214.086
971.557	232.199
974.071	156.48
976.583	210.051
979.095	54.75
981.607	499.625
984.117	764.207
986.627	238.949
989.136	25.285
991.644	600.043
994.152	545.121
996.659	561.402
999.165	216.191
1001.67	209.285
1004.17	253.574
1006.68	386.781
1009.18	473.305
1011.68	259.824
1014.18	638.824
1016.68	635.148
1019.18	761.676
1021.68	518.23
1024.18	713.875
1026.68	360.336
1029.18	396.953
1031.67	423.602
1034.17	59.41
1036.66	251.328
1039.16	409.949
1041.65	638.234
1044.14	677.262
1046.63	1064.15
1049.12	1362.59
1051.62	1990.14
1054.11	1439.22
1056.59	1217.28
1059.08	950.566
1061.57	643.422
1064.06	470.809
1066.54	177.043
1069.03	371.863
1071.51	637.316
1073.99	70.621
1076.47	135.762
1078.96	373.461
1081.44	471.5
1083.92	389.344
1086.4	187.074
1088.88	365.133
1091.36	162.781
1093.83	502.094
1096.31	60.25
1098.79	9.699
1101.26	74.973
1103.73	24.18
1106.21	0
