Measurement: Raman, 514 nm, ccw, Raman Data Processed
Mineral: Talc
Rruff sample: R050087
Ideal chemistry: Mg_3_Si_4_O_10_(OH)_2_
Locality: St. Lawrence County, New York, USA
Source: University of Arizona Mineral Museum
Description: An aggregate of colorless foliated coarse single crystals
Measured chemistry: (Mg_.998_Fe_.002_)_3_(Si_.997_Al_.003_)_4_O_10_(OH_.966_F_.034_)_2_
Pin_id: M00196
Orientation: Laser parallel to a* (1 0 0). Fiducial mark perpendicular to laser is parallel to -b [0 -1 0]
Raman shift (cm-1)	intensity
95.948	0
100.883	1676.41
105.815	3763.01
110.744	4578.75
115.671	3174.93
120.596	1136.54
125.519	80.9648
130.439	81.2422
135.356	18.5
140.271	429.335
145.184	340.787
150.094	275.725
155.002	129.711
159.908	128.426
164.811	80.6611
169.711	185.545
174.61	344.818
179.505	1146.76
184.399	8796.03
189.29	15834.6
194.178	25107.7
199.064	12420
203.948	1481.83
208.829	426.236
213.708	372.256
218.585	512.01
223.459	737.535
228.33	834.951
233.199	420.266
238.066	97.0723
242.93	188.781
247.792	233.342
252.651	59.7891
257.508	0.470703
262.363	113.439
267.215	25.7188
272.064	139.135
276.912	157.697
281.756	838.002
286.598	1037.62
291.438	1054.78
296.276	359.506
301.111	163.332
305.943	109.188
310.773	27.9297
315.601	57.918
320.426	2.99414
325.248	124.768
330.068	595.641
334.886	517.387
339.701	349.662
344.514	602.711
349.324	1657.98
354.132	3802.83
358.938	5416.16
363.741	5023.89
368.541	2102.66
373.339	803.967
378.135	628.75
382.928	550.871
387.718	173.682
392.506	103.51
397.292	203.898
402.075	200.287
406.856	75.0684
411.634	102.805
416.41	149.004
421.183	142.469
425.954	820.504
430.722	1241.84
435.488	894.93
440.251	553.779
445.012	404.373
449.77	776.002
454.526	774.316
459.28	1018.69
464.03	1167.62
468.779	1625.65
473.525	804.816
478.268	343.1
483.009	170.266
487.747	394.881
492.483	220.191
497.217	362.338
501.948	350.99
506.676	292.137
511.402	474.99
516.125	173.535
520.846	137.766
525.565	54.6816
530.281	27.8223
534.994	83.082
539.705	127.623
544.413	1.81836
549.119	188.111
553.822	153.996
558.523	13.4414
563.222	83.3477
567.917	103.455
572.611	261.076
577.302	55.6211
581.99	47.8223
586.676	33.377
591.359	17.7051
596.04	51.168
600.718	204.31
605.394	245.272
610.067	23.8887
614.737	418.408
619.406	333.273
624.071	271.185
628.734	498.707
633.395	492.812
638.053	557.607
642.708	471.102
647.361	762.793
652.012	1129.2
656.66	1691.83
661.305	2963.8
665.948	6826.32
670.588	14381.6
675.226	19487.7
679.861	14841.4
684.494	6935.17
689.124	3258.89
693.752	1797.11
698.377	947.824
702.999	657.34
707.619	406.949
712.237	198.438
716.852	176.869
721.464	76.8418
726.074	330.422
730.681	327.543
735.286	128.633
739.888	264.768
744.488	219.125
749.085	122.557
753.68	152.115
758.272	18.877
762.861	42.623
767.448	124.314
772.033	39.7188
776.614	122.311
781.194	424.588
785.77	559.477
790.345	493.852
794.916	459.668
799.485	323.711
804.052	248.242
808.616	148.406
813.177	362.791
817.736	224.195
822.292	126.219
826.846	340.1
831.397	232.211
835.945	240.385
840.491	49.6367
845.035	463.574
849.576	256.051
854.114	248.935
858.65	178.838
863.183	397.633
867.713	187.113
872.241	228.58
876.767	413.594
881.29	200.391
885.81	130.941
890.328	42.8555
894.843	323.867
899.356	10.75
903.866	72.2383
908.373	94.25
912.878	264.637
917.38	217.398
921.88	144.883
926.377	40.0195
930.872	295.824
935.364	344.316
939.853	32.6719
944.34	206.391
948.824	27.8242
953.306	166.922
957.785	83.3281
962.261	295.918
966.735	254.891
971.207	206.652
975.675	183.098
980.141	127.977
984.605	172.231
989.066	237.504
993.524	9.02344
997.98	217.816
1002.43	570.344
1006.88	535.531
1011.33	749.965
1015.78	1124.97
1020.22	1269.39
1024.66	844.012
1029.1	286.641
1033.53	424.348
1037.97	379.961
1042.4	817.254
1046.82	2575.56
1051.25	3646.82
1055.67	1990.31
1060.09	814.199
1064.51	631.242
1068.92	482.059
1073.33	431.695
1077.74	506.832
1082.15	363.113
1086.55	360.18
1090.95	440.066
1095.35	260.586
1099.75	39.7305
1104.14	90.4414
1108.53	318.152
1112.92	99.2148
1117.31	320.184
1121.69	439.344
1126.07	209.231
1130.45	232.731
1134.82	206.621
1139.19	86.5391
1143.57	419.894
1147.93	351.066
1152.3	213.121
1156.66	345.082
1161.02	174.992
1165.38	191.805
1169.73	58.4375
1174.08	145.125
1178.43	147.746
1182.78	402.363
1187.12	187.883
1191.46	241.356
1195.8	342.754
1200.14	247
1204.47	51.5625
1208.8	224.727
1213.13	42.0898
1217.46	15.9805
1221.78	102.887
1226.1	82.8594
1230.42	227.805
1234.73	55.2109
1239.04	122.625
1243.35	33.8672
1247.66	119.266
1251.97	239.641
1256.27	189.637
1260.57	323.734
1264.86	238.129
1269.16	241.773
1273.45	244.106
1277.74	227.566
1282.03	207.922
1286.31	458.547
1290.59	418.234
1294.87	562.004
1299.14	462.09
1303.42	575.656
1307.69	583.988
1311.95	335.16
1316.22	474.109
1320.48	383.539
1324.74	516.031
1329	94.5859
1333.26	450.301
1337.51	0.011719
1341.76	223.109
1346	208.637
1350.25	297.664
1354.49	419.445
1358.73	391.723
1362.96	518.074
1367.2	518.824
1371.43	513.609
1375.66	364.664
1379.88	230.891
1384.11	45.7734
1388.33	108.383
1392.54	88.7148
1396.76	227.176
1400.97	140.684
1405.18	188.207
1409.39	28.9492
1413.59	164.867
1417.8	160.309
1421.99	33.9141
1426.19	185.242
1430.38	244.379
1434.58	727.195
1438.77	1055.66
1442.95	772.769
1447.13	1136.11
1451.32	653.359
1455.49	879.457
1459.67	671.973
1463.84	684.894
1468.01	365.191
1472.18	605.91
1476.35	147.023
1480.51	463.715
1484.67	136.211
1488.83	420.59
1492.98	398.305
1497.13	50.3398
1501.28	82.6133
1505.43	386.113
1509.57	169.293
1513.71	262.727
1517.85	385.492
1521.99	191.91
1526.12	170.992
1530.25	188.094
1534.38	191.754
1538.5	49.1094
1542.62	389.512
1546.74	405.434
1550.86	459.906
1554.98	224.988
1559.09	76.4883
1563.2	40.8242
1567.31	169.344
1571.41	0
