Measurement: Raman, 514 nm, ccw, Raman Data Processed
Mineral: Talc
Rruff sample: R050087
Ideal chemistry: Mg_3_Si_4_O_10_(OH)_2_
Locality: St. Lawrence County, New York, USA
Source: University of Arizona Mineral Museum
Description: An aggregate of colorless foliated coarse single crystals
Measured chemistry: (Mg_.998_Fe_.002_)_3_(Si_.997_Al_.003_)_4_O_10_(OH_.966_F_.034_)_2_
Pin_id: M00180
Orientation: Laser parallel to b* (0 1 0). Fiducial mark perpendicular to laser is parallel to c [0 0 1]
Raman shift (cm-1)	intensity
93.48	0
98.416	1135.65
103.349	4539.38
108.28	5540.65
113.208	3105.34
118.134	1046.21
123.058	84.0176
127.979	117.348
132.898	94.7246
137.814	258.473
142.728	193.065
147.639	48.5352
152.549	305.992
157.455	68.4922
162.359	24.8652
167.261	6.17188
172.161	219.549
177.058	340.283
181.952	900.178
186.845	4324.39
191.734	11268.8
196.622	6676.64
201.507	1420.17
206.389	234.742
211.269	229.768
216.147	30.9023
221.022	245.6
225.895	176.221
230.765	364.67
235.633	107.76
240.498	29.9395
245.361	142.035
250.222	104.516
255.08	85.9004
259.936	294.781
264.789	88.5469
269.64	42.0312
274.488	72.8008
279.334	2.41406
284.178	456.586
289.019	822.357
293.857	338.674
298.693	129.041
303.527	53.4277
308.358	73.1758
313.187	181.277
318.013	318.059
322.837	225.566
327.659	701.074
332.478	1076.8
337.294	848.883
342.108	821.41
346.92	1624.34
351.729	3870.17
356.535	8126.56
361.34	11317.4
366.141	5150.59
370.94	2070
375.737	1317.42
380.531	1077.68
385.323	550.535
390.113	287.914
394.9	141.685
399.684	187.432
404.466	195.951
409.245	115.693
414.022	134.162
418.797	299.227
423.569	650.539
428.338	1542.42
433.105	2111.56
437.87	536.566
442.632	197.486
447.391	273.963
452.149	192.875
456.903	513.891
461.655	1207.74
466.405	2294.16
471.152	1069.81
475.897	336
480.639	6.05469
485.378	125.977
490.116	167.57
494.85	435.945
499.582	217.041
504.312	258.971
509.039	311.812
513.764	136.525
518.486	224.109
523.206	151.545
527.923	73.8066
532.638	175.83
537.35	25.6934
542.059	101.111
546.766	78.4141
551.471	211.289
556.173	130.943
560.873	86.2285
565.57	194.418
570.264	202.482
574.957	86.3535
579.646	247.014
584.333	153.379
589.018	71.1269
593.7	17.2676
598.379	228.279
603.056	1.57617
607.73	296.043
612.402	160.975
617.072	223.877
621.739	201.236
626.403	255.463
631.065	280.373
635.724	398.08
640.381	506.338
645.035	594.955
649.687	818.443
654.336	1285.71
658.983	2197.96
663.627	4479.4
668.268	10089.4
672.907	20439.8
677.544	21046.9
682.178	9774.12
686.809	4421.39
691.438	2143.97
696.065	1471.9
700.688	1006.74
705.31	444.342
709.929	793.734
714.545	543.564
719.158	635.867
723.77	470.775
728.378	334.459
732.984	302.535
737.588	229.812
742.189	77.7227
746.787	454.44
751.383	395.527
755.976	199.289
760.567	152.106
765.155	108.381
769.741	218.871
774.324	304.672
778.904	581.766
783.482	786.992
788.058	1133.94
792.631	1496.82
797.201	1031.87
801.769	373.481
806.334	583.961
810.897	198.57
815.457	162.066
820.014	195.394
824.569	111.695
829.122	330.918
833.671	209.016
838.219	62.9375
842.763	120.754
847.306	127.469
851.845	113.121
856.382	245.699
860.917	372.281
865.448	57.0781
869.978	254.359
874.505	245.769
879.029	144.191
883.55	37.3125
888.069	93.3555
892.586	70.668
897.1	12.3828
901.611	229.062
906.12	81.1016
910.626	209.117
915.129	20.1172
919.63	237.031
924.129	44.4414
928.625	220.641
933.118	285.238
937.609	50.6914
942.097	261.16
946.582	22.5742
951.065	427.953
955.546	112.523
960.023	362.848
964.499	427.449
968.971	313.887
973.441	362.125
977.909	282.867
982.374	109.672
986.836	714.477
991.295	448.09
995.753	323.824
1000.21	192.461
1004.66	554.519
1009.11	598.258
1013.55	713.824
1018	590.969
1022.44	394.746
1026.88	415.91
1031.32	427.848
1035.75	331.504
1040.18	539.242
1044.61	694.953
1049.04	866.387
1053.46	615.094
1057.88	183.656
1062.3	227.371
1066.71	252.766
1071.13	492.019
1075.54	344.367
1079.94	397.969
1084.35	257.039
1088.75	54.0547
1093.15	184.047
1097.55	209.047
1101.94	318.086
1106.34	145.762
1110.73	347.707
1115.11	403.859
1119.5	267.906
1123.88	852.035
1128.26	390.176
1132.63	319.453
1137.01	231.492
1141.38	423.254
1145.75	105.398
1150.12	55.0312
1154.48	234.918
1158.84	431.949
1163.2	216.098
1167.55	11.793
1171.91	26.6406
1176.26	517.773
1180.61	136.293
1184.95	312.742
1189.29	145.215
1193.63	76.2148
1197.97	61.4688
1202.31	20.1016
1206.64	243.363
1210.97	239.863
1215.29	77.8672
1219.62	89.9805
1223.94	332.016
1228.26	177.406
1232.57	313.828
1236.89	218.269
1241.2	19.4727
1245.51	34.3438
1249.81	158.891
1254.12	282.152
1258.42	401.519
1262.72	41.0352
1267.01	384.344
1271.3	75.7617
1275.59	501.211
1279.88	193.703
1284.17	548.164
1288.45	459.734
1292.73	515.059
1297.01	449.766
1301.28	356.754
1305.55	19.2305
1309.82	318.277
1314.09	451.984
1318.35	593.691
1322.61	273.352
1326.87	474.305
1331.13	308.973
1335.38	557.887
1339.63	324.914
1343.88	361.535
1348.12	507.066
1352.37	483.785
1356.61	184.258
1360.85	363.422
1365.08	84.3008
1369.31	167.828
1373.54	485.836
1377.77	433.711
1381.99	135.91
1386.22	404.074
1390.43	464.617
1394.65	507.445
1398.87	151.41
1403.08	270.816
1407.29	152.008
1411.49	315.086
1415.69	309.965
1419.89	124.156
1424.09	491.231
1428.29	20.2344
1432.48	267.902
1436.67	241.75
1440.86	297.184
1445.04	269.039
1449.23	150.375
1453.4	591.367
1457.58	244.887
1461.76	100.469
1465.93	231.574
1470.1	502.969
1474.26	55.6992
1478.43	271.445
1482.59	204.231
1486.75	389.328
1490.9	143.641
1495.06	380.207
1499.21	133.211
1503.35	360.578
1507.5	55.4141
1511.64	139.633
1515.78	294.762
1519.92	258.516
1524.05	384.75
1528.18	463.066
1532.31	160.422
1536.44	187.367
1540.56	828.644
1544.69	144.68
1548.8	310.566
1552.92	475.164
1557.03	378.328
1561.14	92.4141
1565.25	425.242
1569.36	0.472656
