Measurement: Raman, 514 nm, ccw, Raman Data Processed
Mineral: Talc
Rruff sample: R040137
Ideal chemistry: Mg_3_Si_4_O_10_(OH)_2_
Locality: Murphy, North Carolina, USA
Source: University of Arizona Mineral Museum
Description: Colorless massive
Measured chemistry: (Mg_0.97_Fe_0.01_Al_0.01_)_3_Si_4.03_O_10_((OH)_0.99_F_0.01_)_2_
Pin_id: L00440
Orientation: Laser parallel to -1 0 0. Fiducial mark perpendicular to laser is parallel to 0 1 0
Raman shift (cm-1)	intensity
135.777	0
138.55	117.926
141.323	123.969
144.094	11.004
146.865	309.516
149.635	237.234
152.403	207.438
155.171	157.176
157.939	544.502
160.705	447.996
163.47	316.582
166.235	310.4
168.998	435.994
171.761	436.699
174.523	398.404
177.284	433.643
180.044	461.143
182.803	460.561
185.562	651.676
188.319	1504.32
191.076	3288.38
193.831	5483.76
196.586	4860.37
199.34	2908.16
202.093	1117.09
204.846	757.119
207.597	388.215
210.347	520.404
213.097	353.574
215.846	407.666
218.594	242.574
221.341	377.572
224.087	272.697
226.832	448.096
229.577	493.854
232.32	670.031
235.063	326.662
237.805	443.771
240.545	351.371
243.286	259.465
246.025	348.059
248.763	387.154
251.501	426.754
254.237	470.793
256.973	417.512
259.708	360.883
262.442	320.391
265.175	322.781
267.907	445.664
270.639	329.125
273.369	373.078
276.099	387.557
278.828	462.867
281.556	460.555
284.283	516.262
287.009	812.373
289.734	868.885
292.459	575.781
295.183	573.057
297.905	480.719
300.627	541.521
303.348	676.537
306.069	433.676
308.788	522.195
311.507	351.998
314.224	542.783
316.941	594.482
319.657	496.986
322.372	422.205
325.086	403.992
327.8	498.387
330.512	533.32
333.224	738.773
335.935	604.719
338.645	291.113
341.354	337.932
344.062	395.154
346.769	442.766
349.476	710.752
352.182	699.096
354.887	1007.79
357.591	1456.82
360.294	2496.17
362.996	2585.84
365.698	1995.82
368.398	1276.37
371.098	897.42
373.797	529.635
376.495	601.734
379.192	593.449
381.889	565.115
384.584	397
387.279	532.381
389.973	254.773
392.666	387.994
395.358	300.881
398.049	460.607
400.74	75.559
403.429	249.906
406.118	456.021
408.806	130.236
411.493	50.57
414.179	45.229
416.865	140.098
419.549	185.547
422.233	111.008
424.916	123.266
427.598	92.66
430.279	679.277
432.959	555.578
435.639	762.062
438.318	258.727
440.996	365.555
443.673	522.543
446.349	189.688
449.024	266.996
451.699	364.465
454.372	193.035
457.045	430.82
459.717	185.699
462.388	284.035
465.059	505.141
467.728	642.168
470.397	630.234
473.065	261.004
475.732	357.582
478.398	402.078
481.063	291.82
483.728	240.145
486.391	222.195
489.054	432.496
491.716	162.969
494.377	227.273
497.038	298.066
499.697	99.008
502.356	100.109
505.014	421.457
507.671	372.941
510.327	264.594
512.982	209.266
515.637	188.309
518.291	10.355
520.944	25.723
523.596	74.812
526.247	12.781
528.897	20.258
531.547	47.625
534.196	34.906
536.844	12.082
539.491	60.879
542.137	43.965
544.783	72.82
547.427	480.348
550.071	173.512
552.714	106.793
555.356	250.199
557.998	393.633
560.638	17.086
563.278	6.871
565.917	271.09
568.555	164.688
571.192	118.754
573.829	172.375
576.464	9.609
579.099	33.336
581.733	181.648
584.366	66.438
586.999	10.301
589.63	104.195
592.261	109.629
594.891	102.367
597.52	56.406
600.148	90.531
602.776	183.879
605.402	188.805
608.028	182.973
610.653	28.148
613.277	162.43
615.901	76.926
618.523	365.324
621.145	231.66
623.766	126.164
626.386	129.898
629.006	13.863
631.624	97.594
634.242	151.25
636.859	184.781
639.475	328.25
642.09	291.699
644.705	128.707
647.318	442.105
649.931	14.527
652.543	168.793
655.155	372.797
657.765	396.836
660.375	382.203
662.984	755.422
665.592	1182.07
668.199	1856
670.805	2899.19
673.411	4932.34
676.016	5765.43
678.62	5748.53
681.223	4301.66
683.825	2694.97
686.427	1778.75
689.028	1351.79
691.628	1013.69
694.227	480.246
696.825	559.414
699.423	615.82
702.02	615.809
704.616	177.738
707.211	160.199
709.805	241.531
712.399	83.703
714.992	381.793
717.584	622.266
720.175	494.496
722.765	294.559
725.355	126.145
727.944	332.805
730.532	634.211
733.119	565.148
735.705	153.867
738.291	196.77
740.876	317.301
743.46	258.969
746.043	169.285
748.626	209.492
751.207	380.398
753.788	190.195
756.368	470.086
758.947	319.867
761.526	509.539
764.104	129.102
766.68	322.656
769.257	701.512
771.832	30.781
774.406	82.855
776.98	162.473
779.553	250.738
782.125	599.648
784.697	536.605
787.267	564.906
789.837	695.953
792.406	599.16
794.974	427.215
797.542	414.805
800.108	492.609
802.674	660.297
805.239	364.219
807.804	131.715
810.367	130.656
812.93	658.82
815.492	473.184
818.053	563.594
820.613	290.297
823.173	317.016
825.732	353.516
828.29	430.582
830.847	256.867
833.403	239.418
835.959	206.605
838.514	142.871
841.068	238.523
843.621	544.035
846.174	30.934
848.726	6.211
851.277	801.324
853.827	456.316
856.376	261.199
858.925	566.078
861.473	49.207
864.02	755.281
866.566	289.664
869.112	283.93
871.656	118.109
874.2	399.641
876.744	359.223
879.286	732.664
881.828	346.52
884.369	440.285
886.909	460.078
889.448	493.918
891.987	392.52
894.524	72.582
897.061	355.492
899.598	558.242
902.133	130.672
904.668	97.297
907.202	344.73
909.735	456.668
912.267	628.496
914.799	530.227
917.33	19.125
919.86	352.363
922.389	203.699
924.918	460.504
927.445	99.539
929.972	300.207
932.499	471.336
935.024	392.426
937.549	363.504
940.073	544.547
942.596	265.613
945.118	416.699
947.64	447.773
950.161	507.648
952.681	516.414
955.2	492.324
957.719	253.66
960.236	44.398
962.753	84.398
965.27	74.984
967.785	513.512
970.3	563.676
972.814	196.312
975.327	339.508
977.84	371.945
980.351	302.922
982.862	160.66
985.372	55.715
987.882	511.902
990.39	383.637
992.898	190.906
995.405	10.422
997.912	161.781
1000.42	571.703
1002.92	622.996
1005.43	324.602
1007.93	403.875
1010.43	524.324
1012.93	801.801
1015.43	612.934
1017.93	567.086
1020.43	637.883
1022.93	687.367
1025.43	558.391
1027.93	229.398
1030.42	340.391
1032.92	681.371
1035.42	522.375
1037.91	253.258
1040.4	689.305
1042.9	715.527
1045.39	577.918
1047.88	917.07
1050.37	1077.71
1052.86	1163.49
1055.35	1200.64
1057.84	915.543
1060.33	562.773
1062.81	520.23
1065.3	485.371
1067.78	475.254
1070.27	362.727
1072.75	279.828
1075.23	596.43
1077.72	282.438
1080.2	48.559
1082.68	246.684
1085.16	386.871
1087.64	598.734
1090.12	221.465
1092.59	425.172
1095.07	605.91
1097.55	457.223
1100.02	87.168
1102.5	69.594
1104.97	507.621
1107.44	460.574
1109.92	139.59
1112.39	315.605
1114.86	274.602
