Measurement: Raman, 514 nm, ccw, Raman Data Processed
Mineral: Talc
Rruff sample: R050087
Ideal chemistry: Mg_3_Si_4_O_10_(OH)_2_
Locality: St. Lawrence County, New York, USA
Source: University of Arizona Mineral Museum
Description: An aggregate of colorless foliated coarse single crystals
Measured chemistry: (Mg_.998_Fe_.002_)_3_(Si_.997_Al_.003_)_4_O_10_(OH_.966_F_.034_)_2_
Pin_id: M00418
Orientation: Laser parallel to (1 0 1). Fiducial mark perpendicular to laser is parallel to b [0 1 0]
Raman shift (cm-1)	intensity
91.012	0
95.948	903.392
100.883	4313.62
105.815	7725.65
110.744	8923.5
115.671	7079.26
120.596	1452.85
125.519	233.77
130.439	90.4849
135.356	57.7998
140.271	13.7461
145.184	47.1841
150.094	36.3369
155.002	52.1855
159.908	78.7856
164.811	136.537
169.711	197.928
174.61	176.771
179.505	705.747
184.399	5513.72
189.29	13023.9
194.178	22812.3
199.064	6482.71
203.948	1413.36
208.829	410.745
213.708	317.696
218.585	277.139
223.459	405.052
228.33	710.378
233.199	368.087
238.066	87.1533
242.93	3.19092
247.792	5.04297
252.651	34.3794
257.508	24.7334
262.363	211.861
267.215	38.4824
272.064	21.0352
276.912	380.114
281.756	1077.61
286.598	2503.3
291.438	1635.54
296.276	692.4
301.111	813.331
305.943	328.648
310.773	75.2383
315.601	15.3389
320.426	322.022
325.248	769.696
330.068	1305.82
334.886	1471.02
339.701	1031.34
344.514	1616.22
349.324	3076.91
354.132	7604.58
358.938	13927.4
363.741	11080.2
368.541	4168.18
373.339	1971.2
378.135	1960.29
382.928	1274.45
387.718	566.712
392.506	139.183
397.292	168.808
402.075	33.4609
406.856	228.978
411.634	150.658
416.41	201.859
421.183	666.071
425.954	1986.31
430.722	4085.18
435.488	2306.33
440.251	845.556
445.012	911.954
449.77	1583.89
454.526	1233.11
459.28	947.791
464.03	1521.77
468.779	1793.44
473.525	588.854
478.268	194.137
483.009	138.382
487.747	32.582
492.483	88.7305
497.217	145.832
501.948	554.892
506.676	627.908
511.402	414.884
516.125	195.812
520.846	192.696
525.565	151.531
530.281	131.469
534.994	68.3867
539.705	32.7295
544.413	68.3731
549.119	47.7217
553.822	28.5879
558.523	15.0762
563.222	32.5547
567.917	6.07519
572.611	49.2109
577.302	51.4492
581.99	54.6387
586.676	35.2315
591.359	62.5518
596.04	18.9873
600.718	217.316
605.394	31.5264
610.067	132.398
614.737	87.2832
619.406	213.17
624.071	100.09
628.734	317.654
633.395	460.569
638.053	546.523
642.708	716.627
647.361	993.872
652.012	1604.08
656.66	2582.25
661.305	4808.37
665.948	11063.5
670.588	25268.7
675.226	36711.8
679.861	23831.9
684.494	10584.8
689.124	4764.77
693.752	2698.8
698.377	1514.94
702.999	1055.17
707.619	676.102
712.237	510.117
716.852	406.042
721.464	205.017
726.074	370.275
730.681	179.344
735.286	311.933
739.888	242.546
744.488	333.659
749.085	249.676
753.68	218.275
758.272	150.756
762.861	39.8789
767.448	64.8574
772.033	184.322
776.614	345.575
781.194	896.834
785.77	1600.79
790.345	2033.92
794.916	1885.02
799.485	842.914
804.052	524.26
808.616	221.22
813.177	213.307
817.736	225.401
822.292	160.755
826.846	77.8477
831.397	40.8447
835.945	117.003
840.491	234.233
845.035	136.561
849.576	222.778
854.114	110.978
858.65	112.154
863.183	58.332
867.713	186.654
872.241	251.078
876.767	15.5049
881.29	192.996
885.81	6.46875
890.328	131.023
894.843	18.4395
899.356	42.6699
903.866	46.3613
908.373	51.666
912.878	87.4228
917.38	80.7461
921.88	47.8291
926.377	10.8818
930.872	124.941
935.364	192.051
939.853	104.888
944.34	86.874
948.824	51.6074
953.306	12.6768
957.785	170.005
962.261	83.54
966.735	94.4121
971.207	178.273
975.675	12.4629
980.141	197.227
984.605	350.201
989.066	249.86
993.524	274.5
997.98	274.094
1002.43	406.637
1006.88	482.128
1011.33	817.786
1015.78	1839.16
1020.22	1777.22
1024.66	882.009
1029.1	659.645
1033.53	350.714
1037.97	559.773
1042.4	782.664
1046.82	1549.41
1051.25	2599.93
1055.67	1486.8
1060.09	509.398
1064.51	467.126
1068.92	352.046
1073.33	151.32
1077.74	216.126
1082.15	368.696
1086.55	308.223
1090.95	285.489
1095.35	347.923
1099.75	239.675
1104.14	232.328
1108.53	228.839
1112.92	2.42481
1117.31	219.623
1121.69	781.117
1126.07	416.574
1130.45	319.994
1134.82	394.379
1139.19	37.7617
1143.57	100.158
1147.93	1.48633
1152.3	32.7949
1156.66	124.002
1161.02	221.402
1165.38	121.32
1169.73	463.529
1174.08	218.728
1178.43	48.1582
1182.78	9.24805
1187.12	80.3184
1191.46	36.1289
1195.8	80.2441
1200.14	58.4551
1204.47	101.658
1208.8	74.9394
1213.13	184.172
1217.46	126.344
1221.78	59.6504
1226.1	91.1484
1230.42	100.434
1234.73	160.908
1239.04	264.383
1243.35	7.38477
1247.66	145.066
1251.97	169.518
1256.27	264.971
1260.57	115.428
1264.86	205.893
1269.16	292.17
1273.45	164.383
1277.74	132.445
1282.03	299.744
1286.31	323.965
1290.59	221.555
1294.87	257.19
1299.14	227.633
1303.42	145.176
1307.69	285.932
1311.95	363.967
1316.22	128.762
1320.48	217.963
1324.74	403.527
1329	352.324
1333.26	149.203
1337.51	180.111
1341.76	264.488
1346	218.938
1350.25	345.398
1354.49	409.361
1358.73	191.94
1362.96	174.103
1367.2	179.338
1371.43	314.17
1375.66	250.488
1379.88	188.736
1384.11	417.062
1388.33	260.527
1392.54	53.0078
1396.76	175.523
1400.97	234.787
1405.18	221.051
1409.39	201.914
1413.59	367.856
1417.8	158.984
1421.99	268.928
1426.19	203.324
1430.38	263.648
1434.58	141.066
1438.77	160.023
1442.95	101.922
1447.13	215.955
1451.32	425.732
1455.49	302.012
1459.67	314.615
1463.84	382.711
1468.01	159.293
1472.18	194.066
1476.35	324.057
1480.51	191.26
1484.67	165.898
1488.83	147.184
1492.98	100.625
1497.13	96.3066
1501.28	49.2793
1505.43	271.31
1509.57	282.543
1513.71	118.016
1517.85	252.723
1521.99	210.578
1526.12	260.502
1530.25	17.832
1534.38	154.957
1538.5	375.893
1542.62	262.721
1546.74	300.648
1550.86	189.559
1554.98	400.865
1559.09	108.482
1563.2	65.7227
1567.31	285.707
1571.41	0
