Measurement: Raman, 514 nm, ccw, Raman Data Processed
Mineral: Talc
Rruff sample: R050087
Ideal chemistry: Mg_3_Si_4_O_10_(OH)_2_
Locality: St. Lawrence County, New York, USA
Source: University of Arizona Mineral Museum
Description: An aggregate of colorless foliated coarse single crystals
Measured chemistry: (Mg_.998_Fe_.002_)_3_(Si_.997_Al_.003_)_4_O_10_(OH_.966_F_.034_)_2_
Pin_id: M00178
Orientation: Laser parallel to (1 1 0). Fiducial mark perpendicular to laser is parallel to c [0 0 1]
Raman shift (cm-1)	intensity
99.649	0
104.582	1766.99
109.512	3167.06
114.44	2333.88
119.365	1109.1
124.288	127.508
129.209	138.429
134.127	56.415
139.043	168.565
143.956	4.53906
148.867	236.65
153.775	22.9648
158.681	94.8828
163.585	81.6113
168.486	259.877
173.385	319.467
178.282	256.758
183.176	1034.56
188.067	3185.88
192.956	12264.7
197.843	12588.7
202.727	1773.46
207.609	381.449
212.489	534.586
217.366	229.74
222.24	357.176
227.112	122.272
231.982	292.467
236.849	123.436
241.714	325.185
246.577	9
251.437	85.7402
256.294	217.818
261.149	112.955
266.002	0.978516
270.852	70.6562
275.7	136.08
280.545	148.18
285.388	553.834
290.229	1795.93
295.067	949.619
299.902	10.6172
304.735	230.92
309.566	57.9473
314.394	176.801
319.22	142.002
324.043	233.508
328.864	189.404
333.682	676.846
338.498	606.639
343.311	525.055
348.122	720.598
352.931	1418.3
357.737	3401.5
362.54	6175.89
367.341	3787.47
372.14	1108.33
376.936	697.545
381.73	595.578
386.521	331.938
391.31	35.7266
396.096	210.305
400.88	84.0293
405.661	103.297
410.44	31.041
415.216	45.0488
419.99	255.225
424.761	270.815
429.53	916.057
434.297	1663.28
439.061	672.391
443.822	407.613
448.581	334.918
453.337	484.107
458.091	413.06
462.843	428.494
467.592	719.209
472.338	544.09
477.082	1.77148
481.824	213.789
486.563	24.9141
491.3	174.789
496.034	260.19
500.765	241.275
505.494	220.182
510.221	80.9062
514.945	38.4336
519.666	443.725
524.385	359.768
529.102	183.607
533.816	380.178
538.527	105.535
543.236	209.834
547.943	117.205
552.647	42.4199
557.348	283.07
562.047	21.834
566.744	39.4395
571.438	68.7559
576.129	144.711
580.818	133.24
585.504	80.1699
590.188	20.5547
594.87	1.76172
599.549	211.387
604.225	195.606
608.899	208.523
613.57	105.162
618.239	281.334
622.905	188.109
627.569	279.539
632.23	379.83
636.889	294.463
641.545	398.541
646.198	623.367
650.849	725.811
655.498	978.398
660.144	1445.31
664.787	2703.5
669.428	5733.92
674.067	12173.2
678.703	15015.5
683.336	7450.08
687.967	3303.38
692.595	1499.61
697.221	1097.56
701.844	660.92
706.465	546.379
711.083	186.418
715.698	298.58
720.311	408.225
724.922	339.492
729.53	433
734.135	137.457
738.738	456.926
743.338	25.3633
747.936	344.961
752.531	134.055
757.124	130.691
761.714	158.875
766.302	330.484
770.887	330.231
775.469	163.402
780.049	235.41
784.626	789.449
789.201	969.953
793.773	1141.18
798.343	764.773
802.91	525.477
807.475	166.973
812.037	27.3359
816.596	122.449
821.153	79.1133
825.707	153.07
830.259	229.805
834.808	427.578
839.355	132.297
843.899	61.3711
848.441	57.8867
852.98	196.707
857.516	327.305
862.05	224.137
866.581	391.066
871.11	99.5156
875.636	268.273
880.159	6.79688
884.68	39.9609
889.199	169.84
893.714	115.953
898.228	224.082
902.738	209.926
907.246	13.6914
911.752	86.1211
916.255	426.434
920.755	146.719
925.253	24.5977
929.748	126.836
934.241	153.496
938.731	49.6797
943.218	162.582
947.703	131.035
952.186	120.922
956.665	73.1445
961.142	445.695
965.617	54.7383
970.089	312.43
974.558	112.535
979.025	231.641
983.489	202.379
987.951	372.305
992.41	252.527
996.866	266.238
1001.32	170.781
1005.77	111.762
1010.22	305.953
1014.67	362.957
1019.11	686.164
1023.55	423.055
1027.99	311.695
1032.42	375.898
1036.86	401.098
1041.29	821.824
1045.72	706.188
1050.14	1530.12
1054.56	1687.41
1058.98	737.223
1063.4	466.352
1067.82	146.965
1072.23	454.707
1076.64	212.32
1081.05	431.106
1085.45	267.613
1089.85	42.4414
1094.25	126.988
1098.65	311.566
1103.04	113.816
1107.43	91.1094
1111.82	267.793
1116.21	159.754
1120.59	250.098
1124.97	439.418
1129.35	189.273
1133.73	129.969
1138.1	15.5625
1142.47	168.992
1146.84	234.445
1151.21	28.0078
1155.57	25.6289
1159.93	360.449
1164.29	237.363
1168.64	123.328
1172.99	529.348
1177.34	152.551
1181.69	69.9219
1186.04	400.348
1190.38	426.961
1194.72	231.234
1199.05	225.336
1203.39	73.4375
1207.72	357.68
1212.05	71.75
1216.37	145.816
1220.7	237.625
1225.02	112.883
1229.34	262.602
1233.65	270.469
1237.97	105.508
1242.28	474.504
1246.59	23.4531
1250.89	203.016
1255.19	131.215
1259.49	284.133
1263.79	435.406
1268.09	390.215
1272.38	159.281
1276.67	280.828
1280.95	140.449
1285.24	468.762
1289.52	67.793
1293.8	213.961
1298.08	236.269
1302.35	305.734
1306.62	292.34
1310.89	537.754
1315.15	260.688
1319.42	27.168
1323.68	300.086
1327.94	249.461
1332.19	91.2773
1336.44	488.668
1340.69	321.297
1344.94	415.324
1349.19	143.152
1353.43	101.367
1357.67	274.711
1361.9	211.481
1366.14	226.199
1370.37	350.703
1374.6	234.363
1378.83	308.195
1383.05	219.199
1387.27	35.8203
1391.49	252.75
1395.7	40.8398
1399.92	186.641
1404.13	102.289
1408.34	325.043
1412.54	160.938
1416.74	451.023
1420.94	154.375
1425.14	233.367
1429.34	16.375
1433.53	173.816
1437.72	489.137
1441.9	131.828
1446.09	311.93
1450.27	525.988
1454.45	253.203
1458.63	413.453
1462.8	477.668
1466.97	680.398
1471.14	410.508
1475.31	444.824
1479.47	412.793
1483.63	39.8945
1487.79	373.477
1491.94	614.438
1496.09	188.562
1500.24	388.922
1504.39	443.461
1508.54	373.543
1512.68	619.586
1516.82	570.746
1520.95	414.242
1525.09	587.18
1529.22	447.707
1533.35	326.445
1537.47	96.8945
1541.6	249.41
1545.72	143.57
1549.83	250.332
1553.95	345.082
1558.06	394.328
1562.17	503.285
1566.28	142.953
1570.38	3.91406
