Measurement: Raman, 514 nm, ccw, Raman Data Processed
Mineral: Talc
Rruff sample: R050087
Ideal chemistry: Mg_3_Si_4_O_10_(OH)_2_
Locality: St. Lawrence County, New York, USA
Source: University of Arizona Mineral Museum
Description: An aggregate of colorless foliated coarse single crystals
Measured chemistry: (Mg_.998_Fe_.002_)_3_(Si_.997_Al_.003_)_4_O_10_(OH_.966_F_.034_)_2_
Pin_id: M00271
Orientation: Laser parallel to (0 -1 -1). Fiducial mark perpendicular to laser is parallel to a [1 0 0]
Raman shift (cm-1)	intensity
92.246	0
97.182	1482.28
102.116	5410.32
107.047	6716.39
111.976	6085.57
116.903	4152.71
121.827	809.399
126.749	90.125
131.668	149.714
136.585	79.3164
141.5	222.523
146.412	47.5723
151.321	5.77344
156.229	43.4395
161.134	165.441
166.036	118.514
170.936	55.9297
175.834	216.103
180.729	783.811
185.622	6342.07
190.512	15518.7
195.4	18490.1
200.286	5359.86
205.169	713.688
210.049	211.197
214.928	110.377
219.803	234.123
224.677	401.398
229.548	982.209
234.416	398.385
239.282	39.2715
244.146	81.3652
249.007	34.0332
253.866	156.328
258.722	4.88672
263.576	106.18
268.427	153.897
273.276	34.6973
278.123	301.754
282.967	1310.44
287.809	3526.52
292.648	1529.92
297.485	466.07
302.319	363.697
307.151	131.019
311.98	31.7832
316.807	142.121
321.631	20.4551
326.454	516.781
331.273	1279.93
336.09	955.064
340.905	684.283
345.717	1276.53
350.527	2476.47
355.334	5992.96
360.139	10417
364.941	7509.79
369.741	2588.58
374.538	1251.31
379.333	976.971
384.126	682.24
388.916	330.176
393.703	97.1231
398.488	345.164
403.271	54.7246
408.051	38.2441
412.828	84.4356
417.603	23.7852
422.376	483.873
427.146	1617.56
431.914	3097.27
436.679	1462.26
441.442	426.16
446.202	627.731
450.96	1137.31
455.715	795.887
460.467	1207.26
465.218	1934.17
469.965	1762.87
474.711	560.564
479.454	153.547
484.194	169.049
488.932	177.848
493.667	140.336
498.4	280.457
503.13	503.174
507.858	432.56
512.583	493.615
517.306	683.334
522.026	526.721
526.744	201.773
531.459	116.545
536.172	173.102
540.882	75.4043
545.59	44.7227
550.295	45.6797
554.998	9.2832
559.698	57.2109
564.396	130.959
569.091	81.8574
573.784	37.3281
578.474	97.334
583.162	289.773
587.847	196.065
592.529	149.445
597.209	130.935
601.887	391.969
606.562	224.691
611.235	168.812
615.905	334.371
620.572	748.189
625.237	1257.12
629.9	1122.32
634.56	635.854
639.217	1058.4
643.872	1253.06
648.524	1786.57
653.174	2007.8
657.821	2382.78
662.466	4709.53
667.108	10080.4
671.748	21894.2
676.385	29314.7
681.02	17992.4
685.652	7585.31
690.281	3789.28
694.908	1855.97
699.533	1046.29
704.155	499.885
708.774	326.697
713.391	231.162
718.005	53.1172
722.617	270.541
727.226	14.3613
731.833	15.4258
736.437	26.9668
741.039	69.6719
745.638	161.106
750.234	95.7617
754.828	78.9941
759.419	42.4609
764.008	232.762
768.595	114.918
773.178	217.934
777.759	445.873
782.338	1265.91
786.914	1720.82
791.488	1656.51
796.059	1209.76
800.627	436.404
805.193	152.853
809.756	166.406
814.317	277.822
818.875	352.44
823.431	150.119
827.984	416.955
832.534	367.217
837.082	367.676
841.627	302.611
846.17	658.521
850.71	509.42
855.248	991.604
859.783	838.588
864.316	958.854
868.846	615.684
873.373	564.066
877.898	627.672
882.42	365.234
886.94	417.422
891.457	330.137
895.971	460.383
900.483	282.609
904.993	329.172
909.5	271.094
914.004	480.16
918.505	121.066
923.004	123.805
927.501	86.5156
931.995	152.062
936.486	219.508
940.975	194.664
945.461	159.656
949.945	24.6172
954.426	327.977
958.904	181.375
963.38	418.289
967.853	158.848
972.324	262.863
976.792	224.391
981.258	15.1719
985.72	151.941
990.181	514.703
994.639	208.191
999.094	541.496
1003.55	1231.62
1008	420.555
1012.44	1069.51
1016.89	1334.75
1021.33	1307.34
1025.77	783.785
1030.21	488.047
1034.64	314.586
1039.07	576.762
1043.5	871.316
1047.93	1494.78
1052.35	2157.67
1056.78	866.551
1061.19	609.184
1065.61	468.551
1070.02	447.789
1074.43	192.856
1078.84	608.484
1083.25	751.973
1087.65	492.512
1092.05	261.551
1096.45	445.246
1100.85	479.445
1105.24	385.574
1109.63	1.13672
1114.02	293.34
1118.4	511.844
1122.78	361.906
1127.16	509.66
1131.54	148.668
1135.92	357.582
1140.29	214.438
1144.66	50.9453
1149.02	27.2734
1153.39	38.5039
1157.75	192.762
1162.11	120.902
1166.46	9.58203
1170.82	419.144
1175.17	276.906
1179.52	175.527
1183.86	215.125
1188.21	187.293
1192.55	17.1328
1196.89	63.9414
1201.22	291.953
1205.55	234.973
1209.88	15.9492
1214.21	141.891
1218.54	270.707
1222.86	29.5703
1227.18	144.668
1231.5	105.887
1235.81	406.051
1240.12	19.3594
1244.43	557.129
1248.74	221.394
1253.04	591.918
1257.34	308.582
1261.64	722.441
1265.94	631.445
1270.23	683.523
1274.52	756.551
1278.81	506.223
1283.1	469.668
1287.38	507.523
1291.66	585.641
1295.94	807.793
1300.21	740.047
1304.48	535.375
1308.75	768.758
1313.02	792.32
1317.29	794.051
1321.55	753.707
1325.81	500.035
1330.06	341.41
1334.32	274.988
1338.57	365.773
1342.82	240.555
1347.06	158.219
1351.31	4.07031
1355.55	89.6875
1359.79	118.531
1364.02	127.551
1368.26	108.809
1372.49	359.152
1376.71	224.551
1380.94	311.117
1385.16	355.656
1389.38	39.9688
1393.6	150.328
1397.81	380.922
1402.02	6.96484
1406.23	203.297
1410.44	22.9297
1414.64	201.863
1418.85	336.68
1423.04	143.519
1427.24	269.527
1431.43	614.09
1435.62	562.012
1439.81	1210.9
1444	1198.97
1448.18	1538.86
1452.36	1587.8
1456.54	1795.15
1460.71	1408.36
1464.89	1246
1469.06	1067.65
1473.22	778.035
1477.39	838.902
1481.55	679.992
1485.71	572.551
1489.86	219.297
1494.02	111.676
1498.17	155.297
1502.32	171.309
1506.46	175.738
1510.61	278.434
1514.75	148.535
1518.88	394.184
1523.02	296.566
1527.15	236.625
1531.28	261.481
1535.41	481.055
1539.53	360.957
1543.66	156.035
1547.78	213.062
1551.89	248.359
1556.01	160.019
1560.12	348.898
1564.23	95.3047
1568.33	5.74219
