Measurement: Raman, 514 nm, ccw, Raman Data Processed
Mineral: Talc
Rruff sample: R050087
Ideal chemistry: Mg_3_Si_4_O_10_(OH)_2_
Locality: St. Lawrence County, New York, USA
Source: University of Arizona Mineral Museum
Description: An aggregate of colorless foliated coarse single crystals
Measured chemistry: (Mg_.998_Fe_.002_)_3_(Si_.997_Al_.003_)_4_O_10_(OH_.966_F_.034_)_2_
Pin_id: M00418
Orientation: Laser parallel to (1 0 1). Fiducial mark perpendicular to laser is parallel to b [0 1 0]
Raman shift (cm-1)	intensity
91.012	0
95.948	1594.7
100.883	4551.08
105.815	7376.4
110.744	7190.43
115.671	5346.61
120.596	1842.4
125.519	194.483
130.439	8.02051
135.356	16.9795
140.271	68.4853
145.184	100.672
150.094	65.1445
155.002	5.92773
159.908	96.8057
164.811	192.062
169.711	276.772
174.61	476.926
179.505	1323.11
184.399	12256.6
189.29	24413.2
194.178	38373.2
199.064	15901.3
203.948	2132.98
208.829	553.171
213.708	393.048
218.585	455.438
223.459	872.468
228.33	1140.07
233.199	456.01
238.066	112.492
242.93	121.9
247.792	86.5967
252.651	63.1045
257.508	36.7129
262.363	43.793
267.215	31.6426
272.064	19.1846
276.912	287.688
281.756	1385.94
286.598	2603.24
291.438	2528.1
296.276	737.951
301.111	415.192
305.943	318.1
310.773	121.568
315.601	5.98828
320.426	226.899
325.248	359.265
330.068	686.964
334.886	939.717
339.701	719.94
344.514	1103.1
349.324	2305.54
354.132	5545.95
358.938	8541.23
363.741	7467.66
368.541	3158.11
373.339	1087.59
378.135	1031.06
382.928	743.545
387.718	549.935
392.506	144.392
397.292	18.9473
402.075	150.125
406.856	23.1562
411.634	49.6172
416.41	125.353
421.183	523.329
425.954	1478.64
430.722	2465.51
435.488	1851.72
440.251	911.334
445.012	1102.23
449.77	1692.3
454.526	1482.8
459.28	1094.81
464.03	1349.78
468.779	1330
473.525	534.549
478.268	146.753
483.009	132.828
487.747	95.7734
492.483	9.49609
497.217	29.0381
501.948	328.174
506.676	306.241
511.402	314.163
516.125	244.939
520.846	290.562
525.565	5.96289
530.281	126.295
534.994	117.498
539.705	111.497
544.413	143.676
549.119	187.753
553.822	62.3213
558.523	6.13281
563.222	188.282
567.917	160.562
572.611	217.67
577.302	27.3809
581.99	135.386
586.676	143.208
591.359	63.3848
596.04	39.9688
600.718	93.3115
605.394	137.136
610.067	52.3682
614.737	134.766
619.406	437.177
624.071	511.629
628.734	594.119
633.395	415.74
638.053	634.327
642.708	785.1
647.361	1139.77
652.012	1523.37
656.66	2434.9
661.305	4555.32
665.948	10340.2
670.588	22346.1
675.226	30029.2
679.861	21803.3
684.494	9966.04
689.124	4550.75
693.752	2508.35
698.377	1395.08
702.999	952.211
707.619	698.988
712.237	472.117
716.852	347.728
721.464	355.451
726.074	130.217
730.681	218.039
735.286	167.277
739.888	167.031
744.488	153.252
749.085	86.7031
753.68	245.166
758.272	142.465
762.861	40.3145
767.448	176.781
772.033	285.732
776.614	145.018
781.194	702.279
785.77	842.209
790.345	745.371
794.916	645.375
799.485	515.135
804.052	223.156
808.616	191.846
813.177	149.58
817.736	150.15
822.292	82.6758
826.846	104.611
831.397	197.662
835.945	163.32
840.491	145.402
845.035	56.4414
849.576	35.9473
854.114	273.568
858.65	336.287
863.183	199.123
867.713	156.935
872.241	28.498
876.767	42.8281
881.29	311.477
885.81	268.459
890.328	155.143
894.843	68.6387
899.356	62.7227
903.866	124.062
908.373	156.94
912.878	133.162
917.38	141.195
921.88	51.1348
926.377	3.86133
930.872	70.4746
935.364	31.0625
939.853	150.449
944.34	127.734
948.824	218.934
953.306	183.961
957.785	136.752
962.261	9.28906
966.735	93.8633
971.207	163.725
975.675	293.525
980.141	159.211
984.605	190.775
989.066	185.283
993.524	205.707
997.98	172.393
1002.43	1107.7
1006.88	687.469
1011.33	1128.08
1015.78	1993.56
1020.22	1856.2
1024.66	1039.65
1029.1	620.299
1033.53	581.893
1037.97	664.484
1042.4	1539
1046.82	3983.42
1051.25	6015.29
1055.67	3055.84
1060.09	2557.73
1064.51	509.815
1068.92	556.871
1073.33	270.074
1077.74	341.519
1082.15	310.275
1086.55	205.986
1090.95	127.434
1095.35	137.426
1099.75	225.773
1104.14	16.1875
1108.53	32.7305
1112.92	181.117
1117.31	366.574
1121.69	421.053
1126.07	323.018
1130.45	15.5371
1134.82	194.652
1139.19	72.1914
1143.57	215.795
1147.93	165.457
1152.3	107.801
1156.66	78.7402
1161.02	94.3066
1165.38	185.963
1169.73	28.3984
1174.08	33.7051
1178.43	166.035
1182.78	49.873
1187.12	88.7539
1191.46	55.2266
1195.8	230.746
1200.14	119.717
1204.47	280.816
1208.8	3.0293
1213.13	57.7734
1217.46	184.482
1221.78	226.803
1226.1	18.8027
1230.42	23.9102
1234.73	315.381
1239.04	180.943
1243.35	211.283
1247.66	138.324
1251.97	248.131
1256.27	244.822
1260.57	12.4668
1264.86	100.904
1269.16	125.531
1273.45	333.527
1277.74	272.623
1282.03	232.481
1286.31	286.772
1290.59	373.125
1294.87	192.65
1299.14	299.518
1303.42	145.185
1307.69	271.051
1311.95	147.461
1316.22	286.568
1320.48	381.539
1324.74	312.764
1329	335.596
1333.26	113.154
1337.51	217.459
1341.76	13.8809
1346	325.777
1350.25	214.795
1354.49	280.863
1358.73	68.0977
1362.96	206.508
1367.2	157.023
1371.43	163.676
1375.66	109.42
1379.88	263.268
1384.11	255.795
1388.33	111.342
1392.54	338.315
1396.76	243.783
1400.97	270.727
1405.18	50.1289
1409.39	197.861
1413.59	5.14062
1417.8	165.721
1421.99	27.4004
1426.19	205.565
1430.38	144.49
1434.58	446.684
1438.77	435.912
1442.95	494.764
1447.13	564.5
1451.32	428.084
1455.49	380.756
1459.67	619.721
1463.84	422.973
1468.01	370.541
1472.18	248.361
1476.35	396.43
1480.51	367.065
1484.67	305.898
1488.83	295.953
1492.98	97.9082
1497.13	290.342
1501.28	176.707
1505.43	120.307
1509.57	340.06
1513.71	116.115
1517.85	156.613
1521.99	114.539
1526.12	8.10352
1530.25	159.775
1534.38	259.451
1538.5	313.279
1542.62	50.2422
1546.74	85.4766
1550.86	140.938
1554.98	368.275
1559.09	191.254
1563.2	56.2266
1567.31	3.08203
1571.41	0
