Measurement: Raman, 514 nm, ccw, Raman Data Processed
Mineral: Talc
Rruff sample: R050087
Ideal chemistry: Mg_3_Si_4_O_10_(OH)_2_
Locality: St. Lawrence County, New York, USA
Source: University of Arizona Mineral Museum
Description: An aggregate of colorless foliated coarse single crystals
Measured chemistry: (Mg_.998_Fe_.002_)_3_(Si_.997_Al_.003_)_4_O_10_(OH_.966_F_.034_)_2_
Pin_id: M00271
Orientation: Laser parallel to (0 -1 -1). Fiducial mark perpendicular to laser is parallel to a [1 0 0]
Raman shift (cm-1)	intensity
99.649	0
104.582	923.388
109.512	1178.98
114.44	954.458
119.365	456.723
124.288	61.3496
129.209	89.7969
134.127	44.0957
139.043	149.389
143.956	93.9297
148.867	219.312
153.775	158.914
158.681	91.0977
163.585	69.25
168.486	184.094
173.385	21.5293
178.282	135.258
183.176	516.785
188.067	1856.29
192.956	4090.62
197.843	2537.85
202.727	602.209
207.609	228.207
212.489	157.094
217.366	200.428
222.24	259.594
227.112	295.639
231.982	206.656
236.849	136.406
241.714	296.762
246.577	186.834
251.437	77.5117
256.294	188.477
261.149	147.736
266.002	169.57
270.852	189.57
275.7	22.8047
280.545	170.025
285.388	118.539
290.229	392.197
295.067	253.44
299.902	147.213
304.735	19.6699
309.566	157.174
314.394	8.42969
319.22	215.916
324.043	198.035
328.864	228.43
333.682	158.117
338.498	212.07
343.311	327.275
348.122	496.705
352.931	1242.43
357.737	2487.03
362.54	3345.29
367.341	1560.93
372.14	450.688
376.936	449.623
381.73	465.504
386.521	194.414
391.31	158.606
396.096	60.1191
400.88	249.897
405.661	106.674
410.44	47.0527
415.216	4.26562
419.99	167.951
424.761	267.519
429.53	517.754
434.297	816.176
439.061	210.945
443.822	223.394
448.581	201.01
453.337	93.5098
458.091	279.779
462.843	450.398
467.592	784.92
472.338	389.195
477.082	199.387
481.824	269.478
486.563	163.467
491.3	11.6191
496.034	205.969
500.765	25.2832
505.494	220.385
510.221	23.2832
514.945	318.994
519.666	144.545
524.385	208.873
529.102	73.2129
533.816	169.856
538.527	269.533
543.236	38.959
547.943	1.84961
552.647	67.9297
557.348	374.133
562.047	77.2324
566.744	45.6738
571.438	220.273
576.129	283.885
580.818	179.268
585.504	382.658
590.188	339.83
594.87	393.025
599.549	416.586
604.225	258.609
608.899	291.6
613.57	209.69
618.239	663.818
622.905	557.172
627.569	581.621
632.23	567.742
636.889	311.477
641.545	537.576
646.198	550.473
650.849	752.979
655.498	650.394
660.144	851.557
664.787	1704.54
669.428	3585.73
674.067	6654.79
678.703	6642.46
683.336	3050.42
687.967	1496.22
692.595	569.275
697.221	342.272
701.844	337.832
706.465	150.988
711.083	104.018
715.698	67.6641
720.311	146.705
724.922	132.812
729.53	16.5566
734.135	133.891
738.738	240.029
743.338	60.8906
747.936	169.637
752.531	32.1914
757.124	87.5391
761.714	75.7207
766.302	25.1016
770.887	122.799
775.469	164.674
780.049	165.481
784.626	381.684
789.201	637.707
793.773	789.959
798.343	585.943
802.91	298.117
807.475	307.197
812.037	298.512
816.596	312.25
821.153	471.344
825.707	171.398
830.259	418.326
834.808	257.885
839.355	295.685
843.899	691.102
848.441	281.203
852.98	245.81
857.516	434.822
862.05	385.244
866.581	591.506
871.11	595.752
875.636	319.943
880.159	509.578
884.68	280.387
889.199	617.373
893.714	14.5391
898.228	68.8438
902.738	295.531
907.246	189.375
911.752	141.703
916.255	24.5
920.755	337.184
925.253	147.758
929.748	256.305
934.241	193.414
938.731	74.8047
943.218	214.555
947.703	234.078
952.186	122.531
956.665	175.266
961.142	105.164
965.617	276.727
970.089	117.117
974.558	161.062
979.025	22.9141
983.489	135.988
987.951	145.547
992.41	157.922
996.866	196.102
1001.32	364.367
1005.77	362.305
1010.22	237.047
1014.67	193.727
1019.11	297.875
1023.55	459.09
1027.99	299.648
1032.42	301.938
1036.86	455.383
1041.29	84.668
1045.72	142.41
1050.14	533.402
1054.56	314.566
1058.98	268.141
1063.4	122.234
1067.82	293.121
1072.23	169.156
1076.64	228.773
1081.05	220.242
1085.45	471.102
1089.85	155.465
1094.25	258.492
1098.65	368.715
1103.04	296.59
1107.43	107.32
1111.82	307.41
1116.21	77.4219
1120.59	193.773
1124.97	333.859
1129.35	204.504
1133.73	184.188
1138.1	158.684
1142.47	198.469
1146.84	18.1953
1151.21	220.223
1155.57	115.519
1159.93	306.676
1164.29	108.457
1168.64	121.93
1172.99	344.269
1177.34	403.883
1181.69	128.488
1186.04	242.781
1190.38	83.9258
1194.72	48.6484
1199.05	6.23828
1203.39	176.316
1207.72	119.324
1212.05	353.488
1216.37	283.84
1220.7	169.172
1225.02	93.5898
1229.34	274.148
1233.65	239.637
1237.97	258.902
1242.28	154.598
1246.59	250.371
1250.89	325.484
1255.19	349.715
1259.49	298.055
1263.79	224.375
1268.09	601.086
1272.38	570.871
1276.67	300.793
1280.95	267.953
1285.24	559.621
1289.52	472.086
1293.8	541.383
1298.08	319.106
1302.35	368.438
1306.62	541.539
1310.89	576.91
1315.15	573.441
1319.42	663.973
1323.68	427.656
1327.94	443.606
1332.19	393.523
1336.44	490.934
1340.69	384.75
1344.94	80.5625
1349.19	216.789
1353.43	246.852
1357.67	256.293
1361.9	219.961
1366.14	118.832
1370.37	223.176
1374.6	306.484
1378.83	71.8125
1383.05	306.633
1387.27	36.8008
1391.49	377.273
1395.7	183.176
1399.92	252.84
1404.13	231.934
1408.34	30.8945
1412.54	40.7539
1416.74	207.469
1420.94	141.531
1425.14	154.781
1429.34	113.055
1433.53	234.367
1437.72	624.176
1441.9	593.031
1446.09	887.414
1450.27	660.535
1454.45	639.129
1458.63	871.191
1462.8	503.688
1466.97	649.606
1471.14	281.922
1475.31	215.566
1479.47	263.418
1483.63	275.512
1487.79	277.5
1491.94	317.019
1496.09	195.832
1500.24	93.0938
1504.39	308.07
1508.54	12.2031
1512.68	54.1953
1516.82	450.262
1520.95	79.082
1525.09	281.176
1529.22	29.1016
1533.35	370.832
1537.47	289.559
1541.6	465.078
1545.72	282.945
1549.83	250.285
1553.95	313.41
1558.06	310.047
1562.17	235.672
1566.28	157.828
1570.38	28.9688
