Measurement: Raman, 514 nm, ccw, Raman Data Processed
Mineral: Talc
Rruff sample: R050087
Ideal chemistry: Mg_3_Si_4_O_10_(OH)_2_
Locality: St. Lawrence County, New York, USA
Source: University of Arizona Mineral Museum
Description: An aggregate of colorless foliated coarse single crystals
Measured chemistry: (Mg_.998_Fe_.002_)_3_(Si_.997_Al_.003_)_4_O_10_(OH_.966_F_.034_)_2_
Pin_id: M00196
Orientation: Laser parallel to a* (1 0 0). Fiducial mark perpendicular to laser is parallel to -b [0 -1 0]
Raman shift (cm-1)	intensity
95.948	0
100.883	1566.87
105.815	3721.19
110.744	4165.4
115.671	2197.05
120.596	457.488
125.519	35.1211
130.439	768.769
135.356	2251.29
140.271	1386.19
145.184	719.221
150.094	71.668
155.002	13.4922
159.908	178.394
164.811	118.947
169.711	57.9102
174.61	160.18
179.505	576.25
184.399	4609.07
189.29	8551.78
194.178	15637.7
199.064	6875.34
203.948	1086.44
208.829	447.545
213.708	446.315
218.585	529.086
223.459	492.137
228.33	660.289
233.199	416.404
238.066	210.418
242.93	16.918
247.792	71.5918
252.651	82.0391
257.508	112.439
262.363	138.315
267.215	20.373
272.064	72.8125
276.912	316.273
281.756	1038.01
286.598	1831.54
291.438	2032.37
296.276	554.91
301.111	328.615
305.943	34.8691
310.773	142.26
315.601	47.6992
320.426	78.1035
325.248	303.199
330.068	849.537
334.886	692.908
339.701	793.6
344.514	847.574
349.324	1822.6
354.132	4669.88
358.938	7097.06
363.741	6015.48
368.541	2771.14
373.339	1066
378.135	765.027
382.928	577.225
387.718	609.225
392.506	259.387
397.292	25.1777
402.075	165.383
406.856	36.0234
411.634	182.92
416.41	197.092
421.183	446.672
425.954	1517.4
430.722	2292.37
435.488	1426.08
440.251	355.623
445.012	412.701
449.77	615.799
454.526	815.106
459.28	794.519
464.03	1029.86
468.779	1278.84
473.525	723.4
478.268	218.385
483.009	249.389
487.747	325.029
492.483	373.688
497.217	334.234
501.948	393.668
506.676	604.992
511.402	639.191
516.125	349.269
520.846	482.223
525.565	131.043
530.281	168.719
534.994	282.391
539.705	49.8555
544.413	320.211
549.119	100.016
553.822	181.051
558.523	445.734
563.222	211.809
567.917	84.6914
572.611	331.984
577.302	86.1016
581.99	237.004
586.676	60.4258
591.359	211.516
596.04	82.8789
600.718	86.1953
605.394	71.5156
610.067	81.7266
614.737	215.488
619.406	308.438
624.071	520.285
628.734	603.184
633.395	639.844
638.053	652.324
642.708	998.637
647.361	1085.79
652.012	1296.06
656.66	1426.36
661.305	3416.59
665.948	7429.64
670.588	15642.8
675.226	20790.6
679.861	15102.1
684.494	7316.62
689.124	3408.72
693.752	1847.58
698.377	1203.48
702.999	873.438
707.619	787.156
712.237	478.457
716.852	537.695
721.464	149.566
726.074	104.387
730.681	138.219
735.286	524.777
739.888	273.086
744.488	63.0508
749.085	308.984
753.68	235.922
758.272	179.637
762.861	216.852
767.448	312.289
772.033	161.758
776.614	523.328
781.194	1073.51
785.77	1220.02
790.345	951.394
794.916	788.852
799.485	244.035
804.052	313.375
808.616	288.738
813.177	63.0078
817.736	290.238
822.292	401.598
826.846	190.008
831.397	273.981
835.945	265.684
840.491	376.781
845.035	494.016
849.576	50.4336
854.114	492.332
858.65	370.898
863.183	378.441
867.713	275.531
872.241	257.691
876.767	148.047
881.29	343.34
885.81	334.41
890.328	88.5234
894.843	266.082
899.356	95.332
903.866	300.234
908.373	97.082
912.878	215.879
917.38	125.629
921.88	66.25
926.377	39.8281
930.872	76.3086
935.364	283.039
939.853	96.2578
944.34	229.754
948.824	208.387
953.306	75.1289
957.785	54.957
962.261	414.398
966.735	416.707
971.207	223.93
975.675	217.074
980.141	229.152
984.605	433.109
989.066	312
993.524	166.824
997.98	416.598
1002.43	199.488
1006.88	322.461
1011.33	434.039
1015.78	895.566
1020.22	1215.88
1024.66	505.891
1029.1	332.078
1033.53	424.324
1037.97	357.055
1042.4	696.992
1046.82	1292.03
1051.25	1959.27
1055.67	1418.09
1060.09	493.668
1064.51	645.66
1068.92	626.266
1073.33	392.965
1077.74	296.168
1082.15	727.676
1086.55	524.945
1090.95	272.973
1095.35	448.242
1099.75	123.406
1104.14	159.652
1108.53	137.426
1112.92	422.703
1117.31	203.996
1121.69	334.684
1126.07	414.949
1130.45	431.098
1134.82	196.832
1139.19	424.211
1143.57	570.629
1147.93	55.1172
1152.3	248.805
1156.66	457.621
1161.02	332.598
1165.38	3.29297
1169.73	154.887
1174.08	79.8164
1178.43	233.406
1182.78	274.547
1187.12	110.711
1191.46	13.6719
1195.8	102.91
1200.14	468.75
1204.47	59.6172
1208.8	180.566
1213.13	276.621
1217.46	261.879
1221.78	263.348
1226.1	124.219
1230.42	293.223
1234.73	35.3672
1239.04	192.672
1243.35	272.176
1247.66	253.344
1251.97	104.242
1256.27	389.281
1260.57	31.4648
1264.86	523.961
1269.16	344.422
1273.45	323.281
1277.74	599.902
1282.03	285.668
1286.31	598.793
1290.59	625.293
1294.87	1003.07
1299.14	827.359
1303.42	904.367
1307.69	763.531
1311.95	624.648
1316.22	524.027
1320.48	426.891
1324.74	298.031
1329	323.644
1333.26	542.637
1337.51	218.383
1341.76	507.211
1346	488.453
1350.25	353.059
1354.49	396.019
1358.73	347.785
1362.96	221.18
1367.2	441.512
1371.43	221.535
1375.66	322.137
1379.88	138.793
1384.11	343.469
1388.33	194.465
1392.54	88.2852
1396.76	316.93
1400.97	173.801
1405.18	304.57
1409.39	374.062
1413.59	257.336
1417.8	364.43
1421.99	236.477
1426.19	246.555
1430.38	655.773
1434.58	1414.35
1438.77	1403.59
1442.95	1606.73
1447.13	1547.9
1451.32	1466.29
1455.49	1352.27
1459.67	1316.79
1463.84	1101.16
1468.01	841.574
1472.18	1089.14
1476.35	582.172
1480.51	429.703
1484.67	461.5
1488.83	436.34
1492.98	505.234
1497.13	419.492
1501.28	495.094
1505.43	396.488
1509.57	316.281
1513.71	265.824
1517.85	439.016
1521.99	149.07
1526.12	194.797
1530.25	402.992
1534.38	409.707
1538.5	354.91
1542.62	280.914
1546.74	295.668
1550.86	196.262
1554.98	121.754
1559.09	58.6523
1563.2	12.7188
1567.31	3.27344
1571.41	0
