Measurement: Raman, 514 nm, ccw, Raman Data Processed
Mineral: Talc
Rruff sample: R050087
Ideal chemistry: Mg_3_Si_4_O_10_(OH)_2_
Locality: St. Lawrence County, New York, USA
Source: University of Arizona Mineral Museum
Description: An aggregate of colorless foliated coarse single crystals
Measured chemistry: (Mg_.998_Fe_.002_)_3_(Si_.997_Al_.003_)_4_O_10_(OH_.966_F_.034_)_2_
Pin_id: M00333
Orientation: Laser parallel to c* (0 0 1). Fiducial mark perpendicular to laser is parallel to a [1 0 0]
Raman shift (cm-1)	intensity
95.948	0
100.883	1898.97
105.815	4385.33
110.744	5001.95
115.671	3523.43
120.596	1340.86
125.519	68.7285
130.439	70.5469
135.356	59.6309
140.271	207.006
145.184	121.59
150.094	46.6973
155.002	100.863
159.908	82.8262
164.811	316.268
169.711	185.926
174.61	445.004
179.505	815.078
184.399	3878.17
189.29	6645.43
194.178	11186.1
199.064	6190.25
203.948	1455.45
208.829	371.387
213.708	451.238
218.585	178.654
223.459	365.133
228.33	260.676
233.199	285.139
238.066	253.465
242.93	325.17
247.792	236.861
252.651	107.992
257.508	83.2227
262.363	201.672
267.215	101.641
272.064	255.746
276.912	331.547
281.756	853.08
286.598	1404.58
291.438	1506.22
296.276	687.672
301.111	454.891
305.943	58.791
310.773	323.402
315.601	106.439
320.426	330.141
325.248	691.217
330.068	955.977
334.886	1170.2
339.701	880.838
344.514	1541.89
349.324	2907.55
354.132	7707.23
358.938	11174.7
363.741	11043.6
368.541	5261.2
373.339	2110.12
378.135	1493.32
382.928	1087.78
387.718	579.482
392.506	139.525
397.292	128.473
402.075	292.35
406.856	21.5918
411.634	143.352
416.41	198.43
421.183	276.207
425.954	1675.07
430.722	2423.01
435.488	2049.57
440.251	709.182
445.012	397.107
449.77	432.123
454.526	481.551
459.28	1156.13
464.03	1357.38
468.779	1771.44
473.525	960.338
478.268	264.106
483.009	94.8555
487.747	287.603
492.483	391.338
497.217	403.014
501.948	397.685
506.676	351.35
511.402	619.992
516.125	138.352
520.846	460.197
525.565	282.738
530.281	115.231
534.994	333.668
539.705	14.9785
544.413	310.897
549.119	334.475
553.822	116.186
558.523	15.2559
563.222	61.6973
567.917	186.068
572.611	73.2969
577.302	167.334
581.99	47.0156
586.676	1.51758
591.359	12.2148
596.04	108.688
600.718	13.4238
605.394	141.019
610.067	162.791
614.737	289.121
619.406	176.269
624.071	291.281
628.734	332.154
633.395	389.641
638.053	483.582
642.708	649.686
647.361	711.996
652.012	1396.16
656.66	2231.18
661.305	4098.05
665.948	8953.79
670.588	20202.4
675.226	27704.8
679.861	22308.7
684.494	10178.6
689.124	4716.13
693.752	2605.39
698.377	1606.56
702.999	1389.99
707.619	949.367
712.237	668.949
716.852	647.969
721.464	583.957
726.074	538.676
730.681	572.352
735.286	548.672
739.888	642.758
744.488	222.426
749.085	416.301
753.68	228.754
758.272	186.543
762.861	359.078
767.448	231.961
772.033	340.691
776.614	605.18
781.194	1390.28
785.77	1718.24
790.345	1488.09
794.916	967.844
799.485	672.891
804.052	95.1836
808.616	274.781
813.177	237.566
817.736	304.777
822.292	126.539
826.846	256.543
831.397	29.5625
835.945	103.199
840.491	338.418
845.035	59.875
849.576	226.215
854.114	67.8828
858.65	6.37891
863.183	271.641
867.713	289.812
872.241	328.832
876.767	301.816
881.29	321.801
885.81	347.121
890.328	30.5078
894.843	236.856
899.356	197.152
903.866	78.4258
908.373	192.773
912.878	203.152
917.38	452.457
921.88	70.7109
926.377	370.023
930.872	163.371
935.364	4.64844
939.853	144.832
944.34	9.94531
948.824	295.969
953.306	109.25
957.785	332.742
962.261	264.438
966.735	255.996
971.207	55.7031
975.675	149.328
980.141	104.488
984.605	48.5469
989.066	30.9609
993.524	285.691
997.98	187.219
1002.43	247.519
1006.88	332.719
1011.33	294.906
1015.78	538.824
1020.22	665.785
1024.66	356.504
1029.1	467.637
1033.53	296.656
1037.97	161.441
1042.4	409.707
1046.82	456.957
1051.25	1091.93
1055.67	895.473
1060.09	589.34
1064.51	210.43
1068.92	457.484
1073.33	226.027
1077.74	163.309
1082.15	177.098
1086.55	293.394
1090.95	66.9844
1095.35	46.7812
1099.75	447.574
1104.14	243.094
1108.53	244.504
1112.92	187.316
1117.31	243.691
1121.69	759.699
1126.07	470.707
1130.45	327.328
1134.82	234.754
1139.19	142.336
1143.57	429.027
1147.93	154.582
1152.3	36.7461
1156.66	85.4102
1161.02	267.754
1165.38	51.9102
1169.73	49.6875
1174.08	0.785156
1178.43	24.0352
1182.78	598.902
1187.12	42.5547
1191.46	9.98438
1195.8	394.531
1200.14	251.106
1204.47	56.7617
1208.8	8.49219
1213.13	303.309
1217.46	206.215
1221.78	114.234
1226.1	260.332
1230.42	50.4922
1234.73	95.7031
1239.04	42.9844
1243.35	22.6641
1247.66	264.688
1251.97	90.1875
1256.27	295.863
1260.57	87.7148
1264.86	365.602
1269.16	350.699
1273.45	556.906
1277.74	172.512
1282.03	224.981
1286.31	293.981
1290.59	396.773
1294.87	208.336
1299.14	308.004
1303.42	302.992
1307.69	37.6875
1311.95	37.3945
1316.22	231.566
1320.48	155.762
1324.74	310.953
1329	225.637
1333.26	235.516
1337.51	163.586
1341.76	145.258
1346	217.621
1350.25	49.5547
1354.49	428
1358.73	161.32
1362.96	229.75
1367.2	407.441
1371.43	315.113
1375.66	243.344
1379.88	319.848
1384.11	16.3242
1388.33	272.391
1392.54	333.391
1396.76	17.4688
1400.97	316.406
1405.18	509.828
1409.39	153.969
1413.59	279.219
1417.8	532.824
1421.99	230.848
1426.19	245.5
1430.38	353.731
1434.58	307.535
1438.77	459.406
1442.95	7.03516
1447.13	92.6328
1451.32	250.074
1455.49	293.023
1459.67	217.398
1463.84	254.312
1468.01	167.738
1472.18	142.711
1476.35	389.316
1480.51	489.387
1484.67	69.957
1488.83	328.102
1492.98	272.797
1497.13	112.016
1501.28	423.398
1505.43	159.977
1509.57	255.953
1513.71	62.7461
1517.85	243.477
1521.99	367.223
1526.12	261.773
1530.25	98.5
1534.38	608.406
1538.5	270.676
1542.62	375.606
1546.74	155.676
1550.86	241.031
1554.98	535.766
1559.09	547.344
1563.2	288.664
1567.31	166.07
1571.41	0
