Measurement: Raman, 514 nm, ccw, Raman Data Processed
Mineral: Talc
Rruff sample: R050087
Ideal chemistry: Mg_3_Si_4_O_10_(OH)_2_
Locality: St. Lawrence County, New York, USA
Source: University of Arizona Mineral Museum
Description: An aggregate of colorless foliated coarse single crystals
Measured chemistry: (Mg_.998_Fe_.002_)_3_(Si_.997_Al_.003_)_4_O_10_(OH_.966_F_.034_)_2_
Pin_id: M00333
Orientation: Laser parallel to c* (0 0 1). Fiducial mark perpendicular to laser is parallel to a [1 0 0]
Raman shift (cm-1)	intensity
95.948	0
100.883	907.986
105.815	3707.3
110.744	3933.71
115.671	2837.45
120.596	1299.05
125.519	89.2353
130.439	107.051
135.356	16.3652
140.271	43.7803
145.184	13.2529
150.094	71.3701
155.002	171.688
159.908	22.1611
164.811	269.639
169.711	342.725
174.61	615.384
179.505	1030.48
184.399	5519.71
189.29	13197.4
194.178	40511.8
199.064	25014.3
203.948	2400.38
208.829	659.336
213.708	471.495
218.585	309.503
223.459	422.525
228.33	493.75
233.199	435.911
238.066	184.626
242.93	83.1992
247.792	8.07227
252.651	79.3877
257.508	100.353
262.363	116.546
267.215	78.8809
272.064	120.423
276.912	348.972
281.756	566.254
286.598	1388.92
291.438	2618.61
296.276	779.907
301.111	144.855
305.943	229.351
310.773	66.792
315.601	18.2676
320.426	18.3965
325.248	174.568
330.068	568.957
334.886	502.543
339.701	604.369
344.514	607.539
349.324	1375.91
354.132	2690.66
358.938	5041.6
363.741	6880.08
368.541	3301.64
373.339	1198.67
378.135	544.012
382.928	523.689
387.718	341.207
392.506	41.4297
397.292	135.731
402.075	117.711
406.856	5.21875
411.634	107.902
416.41	157.508
421.183	50.6523
425.954	702.672
430.722	1253.05
435.488	1658.39
440.251	551.664
445.012	263.065
449.77	515.496
454.526	888.578
459.28	645.691
464.03	504.381
468.779	855.109
473.525	246.785
478.268	188.225
483.009	11.5312
487.747	3.28516
492.483	43.8164
497.217	55.0703
501.948	222.338
506.676	320.432
511.402	62.2773
516.125	142.852
520.846	153.154
525.565	207.158
530.281	152.883
534.994	103.363
539.705	104.596
544.413	21.791
549.119	143.231
553.822	33.5742
558.523	154.068
563.222	119.285
567.917	54.1602
572.611	39.0723
577.302	145.684
581.99	83.2695
586.676	120.082
591.359	80.5996
596.04	191.398
600.718	64.1211
605.394	106.543
610.067	189.092
614.737	216.137
619.406	261.703
624.071	206.6
628.734	186.82
633.395	312.053
638.053	495.32
642.708	514.727
647.361	782.646
652.012	831.773
656.66	1310.2
661.305	2666.59
665.948	5475.37
670.588	12106.6
675.226	20082.5
679.861	18422.8
684.494	8609.98
689.124	3473.19
693.752	1924.7
698.377	1080.12
702.999	718.607
707.619	619.447
712.237	439.457
716.852	306.912
721.464	247.543
726.074	258.281
730.681	82.7637
735.286	314.529
739.888	253.273
744.488	75.5566
749.085	236.371
753.68	44.0684
758.272	191.15
762.861	188.156
767.448	215.238
772.033	44.0586
776.614	134.037
781.194	346.762
785.77	489.943
790.345	645.275
794.916	429.055
799.485	420.826
804.052	148.428
808.616	150.922
813.177	36.8242
817.736	64.1602
822.292	79.5625
826.846	126.061
831.397	64.5312
835.945	156.584
840.491	197.33
845.035	65.6484
849.576	168.428
854.114	61.1836
858.65	95.2734
863.183	149.184
867.713	269.123
872.241	81.7051
876.767	16.7051
881.29	30.6074
885.81	225.621
890.328	98.6113
894.843	263.781
899.356	25.166
903.866	140.19
908.373	86.7227
912.878	26.8047
917.38	325.664
921.88	78.4531
926.377	124.103
930.872	90.9668
935.364	139.002
939.853	346.361
944.34	8.38477
948.824	246.764
953.306	126.885
957.785	37.7461
962.261	70.4004
966.735	1.08594
971.207	233.615
975.675	40.3496
980.141	202.141
984.605	288.34
989.066	125.152
993.524	243.56
997.98	219.762
1002.43	272.084
1006.88	214.324
1011.33	712.885
1015.78	790.525
1020.22	902.322
1024.66	610.156
1029.1	456.584
1033.53	419.346
1037.97	566.738
1042.4	1035.67
1046.82	2603.16
1051.25	5415.46
1055.67	3612.7
1060.09	964.707
1064.51	632.992
1068.92	343.998
1073.33	268.178
1077.74	310.041
1082.15	234.342
1086.55	6.95898
1090.95	172.955
1095.35	264.801
1099.75	62.9395
1104.14	218.992
1108.53	328.08
1112.92	6.86719
1117.31	247.695
1121.69	530.836
1126.07	304.367
1130.45	12.2051
1134.82	284.481
1139.19	189.209
1143.57	155.019
1147.93	199.92
1152.3	97.8984
1156.66	65.1894
1161.02	30.3984
1165.38	84.7812
1169.73	172.576
1174.08	249.734
1178.43	147.356
1182.78	17.1094
1187.12	183.934
1191.46	266.83
1195.8	146.807
1200.14	276.805
1204.47	77.2402
1208.8	155.207
1213.13	289.269
1217.46	152.842
1221.78	331.644
1226.1	344.728
1230.42	175.475
1234.73	94.8106
1239.04	505.627
1243.35	68.293
1247.66	55.2617
1251.97	272.846
1256.27	141.662
1260.57	346.674
1264.86	88.4883
1269.16	300.404
1273.45	191.424
1277.74	76.4785
1282.03	160.117
1286.31	211.525
1290.59	308.934
1294.87	177.49
1299.14	157.168
1303.42	109.359
1307.69	131.523
1311.95	251.631
1316.22	267.871
1320.48	72.2227
1324.74	209.66
1329	244.269
1333.26	397.777
1337.51	130.43
1341.76	186.152
1346	9.92578
1350.25	333.863
1354.49	6.37891
1358.73	390.769
1362.96	55.0547
1367.2	170.898
1371.43	193.75
1375.66	286.578
1379.88	112.707
1384.11	91.6719
1388.33	215.027
1392.54	198.301
1396.76	115.742
1400.97	177.363
1405.18	224.144
1409.39	6.86328
1413.59	174.086
1417.8	367.773
1421.99	36.4961
1426.19	193.519
1430.38	252.894
1434.58	222.973
1438.77	187.383
1442.95	240.922
1447.13	187.586
1451.32	319.465
1455.49	8.53125
1459.67	107.394
1463.84	249.805
1468.01	96.2188
1472.18	147.074
1476.35	115.375
1480.51	408.461
1484.67	145.375
1488.83	132.734
1492.98	316.988
1497.13	401.613
1501.28	353.758
1505.43	276.812
1509.57	297.32
1513.71	379.262
1517.85	173.828
1521.99	257.164
1526.12	287.051
1530.25	414.562
1534.38	288.945
1538.5	503.352
1542.62	180.75
1546.74	222.887
1550.86	340.211
1554.98	396.559
1559.09	302.609
1563.2	151.184
1567.31	250.598
1571.41	0
