Measurement: Raman, 514 nm, ccw, Raman Data Processed
Mineral: Talc
Rruff sample: R050087
Ideal chemistry: Mg_3_Si_4_O_10_(OH)_2_
Locality: St. Lawrence County, New York, USA
Source: University of Arizona Mineral Museum
Description: An aggregate of colorless foliated coarse single crystals
Measured chemistry: (Mg_.998_Fe_.002_)_3_(Si_.997_Al_.003_)_4_O_10_(OH_.966_F_.034_)_2_
Pin_id: M00178
Orientation: Laser parallel to (1 1 0). Fiducial mark perpendicular to laser is parallel to c [0 0 1]
Raman shift (cm-1)	intensity
99.649	0
104.582	1410.41
109.512	2767.15
114.44	2846.03
119.365	789.816
124.288	50.0518
129.209	14.6016
134.127	31.3193
139.043	113.096
143.956	78.3027
148.867	99.749
153.775	118.892
158.681	237.257
163.585	67.2734
168.486	237.617
173.385	309.867
178.282	514.213
183.176	1175.08
188.067	3720.55
192.956	12203.8
197.843	16369.1
202.727	1773.7
207.609	394.994
212.489	282.785
217.366	165.484
222.24	313.215
227.112	168.967
231.982	193.004
236.849	181.93
241.714	316.568
246.577	182.887
251.437	26.8809
256.294	57.5137
261.149	217.416
266.002	152.088
270.852	31.584
275.7	60.2715
280.545	226.703
285.388	591.643
290.229	2023.17
295.067	1205.44
299.902	103.393
304.735	95.9238
309.566	55.9746
314.394	81.2988
319.22	22.2754
324.043	37
328.864	155.631
333.682	663.594
338.498	328.9
343.311	435.529
348.122	655.51
352.931	1318.36
357.737	3024.95
362.54	6230.18
367.341	3790.65
372.14	1004.43
376.936	525.277
381.73	490.266
386.521	169.393
391.31	328.232
396.096	35.668
400.88	27.4746
405.661	47.459
410.44	57.5605
415.216	128.162
419.99	114.834
424.761	359
429.53	963.795
434.297	1901.97
439.061	586.217
443.822	303.326
448.581	264.281
453.337	140.555
458.091	276.861
462.843	420.324
467.592	751.342
472.338	638.984
477.082	100.082
481.824	249.096
486.563	167.205
491.3	74.2793
496.034	233.1
500.765	6.39648
505.494	215.76
510.221	479.787
514.945	304.674
519.666	452.416
524.385	389.012
529.102	294.449
533.816	179.744
538.527	253.994
543.236	10.166
547.943	89.2598
552.647	18.4375
557.348	234.152
562.047	178.732
566.744	136.973
571.438	121.846
576.129	275.565
580.818	14.5176
585.504	152.066
590.188	354.106
594.87	91.2461
599.549	250.588
604.225	21.4453
608.899	157.094
613.57	268.406
618.239	69.8164
622.905	279.785
627.569	185.764
632.23	309.045
636.889	219.121
641.545	445.721
646.198	377.592
650.849	677.221
655.498	792.504
660.144	1272.69
664.787	2416.63
669.428	5702.34
674.067	12308.8
678.703	15886.1
683.336	8152.18
687.967	3360.39
692.595	1859.68
697.221	809.119
701.844	659.295
706.465	380.557
711.083	417.555
715.698	334.91
720.311	86.7734
724.922	327.057
729.53	209.988
734.135	56.6289
738.738	130.184
743.338	146.93
747.936	57.7109
752.531	302.365
757.124	157.117
761.714	50.209
766.302	213.934
770.887	306.523
775.469	196.315
780.049	161.154
784.626	416.516
789.201	803.678
793.773	560.633
798.343	245.703
802.91	400.383
807.475	291.953
812.037	174.043
816.596	46.8438
821.153	112.586
825.707	182.57
830.259	158.191
834.808	47.0234
839.355	132.426
843.899	8.03125
848.441	203.039
852.98	201.887
857.516	286.094
862.05	160.555
866.581	440.754
871.11	294.512
875.636	267.203
880.159	17.3828
884.68	112.785
889.199	193.848
893.714	163.25
898.228	124.898
902.738	56.7227
907.246	130.606
911.752	95.7812
916.255	114.523
920.755	96.3477
925.253	236.047
929.748	63.5273
934.241	79.8047
938.731	120.887
943.218	57.7812
947.703	279.481
952.186	284.574
956.665	291.832
961.142	379.875
965.617	140.629
970.089	175.734
974.558	406.387
979.025	16.043
983.489	528.035
987.951	3.73047
992.41	171.504
996.866	326.348
1001.32	365.488
1005.77	223.371
1010.22	289.656
1014.67	514.172
1019.11	633.492
1023.55	507.227
1027.99	57.0195
1032.42	387.234
1036.86	207.75
1041.29	656.027
1045.72	678.695
1050.14	1824.55
1054.56	1663.46
1058.98	826.152
1063.4	429.652
1067.82	244
1072.23	200.586
1076.64	121.277
1081.05	239.922
1085.45	117.191
1089.85	60.8008
1094.25	381.879
1098.65	250.363
1103.04	178.742
1107.43	64.0625
1111.82	171.981
1116.21	18.5195
1120.59	83.8477
1124.97	457.641
1129.35	64.0664
1133.73	304.606
1138.1	274.012
1142.47	106.387
1146.84	400.715
1151.21	182.238
1155.57	213.547
1159.93	220.402
1164.29	389.574
1168.64	88.9258
1172.99	115.512
1177.34	101.789
1181.69	96.0977
1186.04	7.57422
1190.38	87.6211
1194.72	185.863
1199.05	157.144
1203.39	106.723
1207.72	76.1055
1212.05	346.519
1216.37	306.59
1220.7	58.7852
1225.02	251.723
1229.34	354.309
1233.65	118.215
1237.97	258.703
1242.28	69.7422
1246.59	297.723
1250.89	157.527
1255.19	537.168
1259.49	256.406
1263.79	404.742
1268.09	362.859
1272.38	362.18
1276.67	475.5
1280.95	247.457
1285.24	352.543
1289.52	559.809
1293.8	272.258
1298.08	197.91
1302.35	185.344
1306.62	319.434
1310.89	281.734
1315.15	301.246
1319.42	427.246
1323.68	275.227
1327.94	474.375
1332.19	298.699
1336.44	369.199
1340.69	119.945
1344.94	318.859
1349.19	35.7812
1353.43	339.144
1357.67	439.844
1361.9	250.453
1366.14	390.707
1370.37	123.258
1374.6	140.18
1378.83	26.625
1383.05	122.812
1387.27	94.6289
1391.49	151.367
1395.7	189.621
1399.92	4.15625
1404.13	275.996
1408.34	310.957
1412.54	263.449
1416.74	291.297
1420.94	0.464844
1425.14	17.0312
1429.34	186.453
1433.53	377.211
1437.72	409.508
1441.9	375.219
1446.09	182.262
1450.27	320.856
1454.45	24.707
1458.63	341.227
1462.8	353.207
1466.97	75.6914
1471.14	357.129
1475.31	80.6289
1479.47	269.727
1483.63	259.973
1487.79	188.184
1491.94	304.09
1496.09	144.852
1500.24	151.664
1504.39	357.484
1508.54	226.516
1512.68	420.852
1516.82	295.891
1520.95	65.5234
1525.09	221.242
1529.22	365.539
1533.35	95.8867
1537.47	173.988
1541.6	275.531
1545.72	321.922
1549.83	300.633
1553.95	380.223
1558.06	302.629
1562.17	341.629
1566.28	3.80859
1570.38	121.848
