Measurement: Raman, 514 nm, ccw, Raman Data Processed
Mineral: Talc
Rruff sample: R050087
Ideal chemistry: Mg_3_Si_4_O_10_(OH)_2_
Locality: St. Lawrence County, New York, USA
Source: University of Arizona Mineral Museum
Description: An aggregate of colorless foliated coarse single crystals
Measured chemistry: (Mg_.998_Fe_.002_)_3_(Si_.997_Al_.003_)_4_O_10_(OH_.966_F_.034_)_2_
Pin_id: M00180
Orientation: Laser parallel to b* (0 1 0). Fiducial mark perpendicular to laser is parallel to c [0 0 1]
Raman shift (cm-1)	intensity
93.48	0
98.416	467.865
103.349	1923.27
108.28	2809.75
113.208	2122.19
118.134	1192.8
123.058	172.273
127.979	188.431
132.898	195.988
137.814	114.439
142.728	348.277
147.639	355.057
152.549	150.129
157.455	118.074
162.359	240.943
167.261	361.123
172.161	256.924
177.058	660.086
181.952	2289.32
186.845	11940.7
191.734	26163.5
196.622	20323.7
201.507	2802.48
206.389	620.707
211.269	289.736
216.147	107.092
221.022	363.49
225.895	304.713
230.765	306.662
235.633	227.377
240.498	8.93555
245.361	195.039
250.222	163.594
255.08	48.9863
259.936	88.9316
264.789	9.84375
269.64	99.1504
274.488	173.043
279.334	287.894
284.178	755.711
289.019	1715.65
293.857	767.174
298.693	143.203
303.527	121.672
308.358	3.57422
313.187	21.7441
318.013	70.0391
322.837	146.898
327.659	261.871
332.478	295.746
337.294	518.953
342.108	459.994
346.92	585.811
351.729	1529
356.535	3355.08
361.34	5016.26
366.141	2614.43
370.94	861.699
375.737	458.486
380.531	199.113
385.323	304.691
390.113	44.0801
394.9	200.682
399.684	47.1504
404.466	150.377
409.245	2.83789
414.022	49.9531
418.797	34.9258
423.569	215.246
428.338	651.674
433.105	1052.61
437.87	636.609
442.632	180.1
447.391	476.518
452.149	597.244
456.903	316.584
461.655	333.834
466.405	427.969
471.152	382.629
475.897	115.123
480.639	3.48828
485.378	203.984
490.116	220.777
494.85	114.312
499.582	236.59
504.312	329.602
509.039	178.305
513.764	105.627
518.486	200.6
523.206	221.193
527.923	2.37891
532.638	286.17
537.35	242.977
542.059	202.435
546.766	60.3398
551.471	284.045
556.173	227.935
560.873	255.426
565.57	155.369
570.264	103.986
574.957	50.0312
579.646	162.693
584.333	79.9805
589.018	89.6309
593.7	41.293
598.379	146.91
603.056	67.5195
607.73	315.715
612.402	241.728
617.072	244.164
621.739	330.697
626.403	360.045
631.065	279.295
635.724	332.713
640.381	369.883
645.035	624.84
649.687	415.273
654.336	1160.02
658.983	1465.29
663.627	3104.2
668.268	7120.44
672.907	13365.8
677.544	13847.7
682.178	6573.18
686.809	2858.64
691.438	1407.13
696.065	875.926
700.688	676.787
705.31	470.94
709.929	539.715
714.545	273.926
719.158	401.603
723.77	324.072
728.378	169.228
732.984	198.731
737.588	271.408
742.189	76.584
746.787	166.199
751.383	199.695
755.976	232.695
760.567	61.3457
765.155	190.133
769.741	60.416
774.324	167.6
778.904	3.53516
783.482	166.391
788.058	533.453
792.631	516.941
797.201	373.332
801.769	346.316
806.334	246.602
810.897	336.578
815.457	348.598
820.014	173.566
824.569	225.551
829.122	276.816
833.671	4.05469
838.219	108.898
842.763	300.59
847.306	344.562
851.845	225.316
856.382	358.051
860.917	341.477
865.448	172.293
869.978	131.68
874.505	251.356
879.029	192.762
883.55	195.727
888.069	118.856
892.586	181.785
897.1	193.172
901.611	34.8516
906.12	120.777
910.626	69.2344
915.129	34.5391
919.63	226.621
924.129	209.602
928.625	296.254
933.118	301.633
937.609	15.8047
942.097	224.41
946.582	59.9062
951.065	77.5781
955.546	8.49609
960.023	195.328
964.499	344.231
968.971	48.0625
973.441	125.438
977.909	258.664
982.374	215.625
986.836	274.109
991.295	42.5508
995.753	134.781
1000.21	165.602
1004.66	94.7031
1009.11	329.066
1013.55	402.051
1018	684.062
1022.44	369.574
1026.88	471.234
1031.32	489.211
1035.75	535.586
1040.18	894.16
1044.61	1574.79
1049.04	3347.39
1053.46	2926.86
1057.88	1112.12
1062.3	610.523
1066.71	455.203
1071.13	146.719
1075.54	401.785
1079.94	385.543
1084.35	355.914
1088.75	204.348
1093.15	14.0508
1097.55	187.125
1101.94	264.102
1106.34	135.863
1110.73	158.894
1115.11	45.8633
1119.5	29.1836
1123.88	582.57
1128.26	270.512
1132.63	180.449
1137.01	20.6992
1141.38	274.426
1145.75	291.203
1150.12	161.035
1154.48	370.664
1158.84	259.16
1163.2	104.672
1167.55	265.293
1171.91	200.098
1176.26	356.953
1180.61	22.1445
1184.95	382.359
1189.29	139.375
1193.63	29.2812
1197.97	18.3359
1202.31	334.258
1206.64	189.902
1210.97	151.215
1215.29	145.906
1219.62	120.738
1223.94	435.148
1228.26	255.484
1232.57	74.125
1236.89	68.5352
1241.2	224.027
1245.51	304.012
1249.81	89.0508
1254.12	217.539
1258.42	104.875
1262.72	489.398
1267.01	418.945
1271.3	284.66
1275.59	133.207
1279.88	203.629
1284.17	356.465
1288.45	280.09
1292.73	350.086
1297.01	399.231
1301.28	275.879
1305.55	362.144
1309.82	281.383
1314.09	4.20312
1318.35	20.082
1322.61	437.602
1326.87	651.578
1331.13	244.238
1335.38	504.719
1339.63	411.348
1343.88	449.867
1348.12	114.684
1352.37	251.797
1356.61	200.184
1360.85	347.66
1365.08	514.848
1369.31	579.598
1373.54	452.141
1377.77	150.445
1381.99	543.531
1386.22	273.988
1390.43	269.394
1394.65	220.754
1398.87	95.457
1403.08	409.844
1407.29	16.7383
1411.49	465.555
1415.69	292.262
1419.89	9.15625
1424.09	211.887
1428.29	117.309
1432.48	542.953
1436.67	263.906
1440.86	262.262
1445.04	191.914
1449.23	456.5
1453.4	563.062
1457.58	419.793
1461.76	193.488
1465.93	669.5
1470.1	179.621
1474.26	421.016
1478.43	240.316
1482.59	227.375
1486.75	205.777
1490.9	217.262
1495.06	460.188
1499.21	291.25
1503.35	130.223
1507.5	143.164
1511.64	480.543
1515.78	526.703
1519.92	499.055
1524.05	554.391
1528.18	160.586
1532.31	401.172
1536.44	257.074
1540.56	209.023
1544.69	450.734
1548.8	439.086
1552.92	368.809
1557.03	294.848
1561.14	173.406
1565.25	1.54688
1569.36	0.34375
