Measurement: Raman, 514 nm, ccw, Raman Data Processed
Mineral: Talc
Rruff sample: R040137
Ideal chemistry: Mg_3_Si_4_O_10_(OH)_2_
Locality: Murphy, North Carolina, USA
Source: University of Arizona Mineral Museum
Description: Colorless massive
Measured chemistry: (Mg_0.97_Fe_0.01_Al_0.01_)_3_Si_4.03_O_10_((OH)_0.99_F_0.01_)_2_
Pin_id: L00440
Orientation: Laser parallel to -1 0 0. Fiducial mark perpendicular to laser is parallel to 0 1 0
Raman shift (cm-1)	intensity
149.635	0
152.403	0.734
155.171	122.186
157.939	114.053
160.705	19.467
163.47	131.133
166.235	209.383
168.998	232.793
171.761	220.408
174.523	221.51
177.284	265.525
180.044	142.029
182.803	260.695
185.562	531.277
188.319	1373.59
191.076	3377.46
193.831	5742.73
196.586	5129.2
199.34	3126.71
202.093	1115.19
204.846	644.547
207.597	284.748
210.347	485.736
213.097	337.492
215.846	389.98
218.594	323.176
221.341	127.055
224.087	51.596
226.832	346.785
229.577	582.6
232.32	598.99
235.063	205.512
237.805	472.141
240.545	328.957
243.286	156.014
246.025	213.348
248.763	260.98
251.501	338.924
254.237	297.195
256.973	195.818
259.708	214.834
262.442	214.18
265.175	283.859
267.907	293.867
270.639	134.307
273.369	535.107
276.099	326.277
278.828	507.781
281.556	719.594
284.283	681.793
287.009	784.293
289.734	747.148
292.459	680.328
295.183	713.898
297.905	627.867
300.627	472.141
303.348	405.691
306.069	411.512
308.788	285.363
311.507	332.254
314.224	413.918
316.941	521.758
319.657	410.648
322.372	330.273
325.086	470.172
327.8	441.043
330.512	592.434
333.224	634.312
335.935	546.488
338.645	559.211
341.354	262.312
344.062	475.766
346.769	409.559
349.476	683.668
352.182	718.078
354.887	1052.78
357.591	1477.76
360.294	2983
362.996	2701.46
365.698	2087.21
368.398	1433.2
371.098	849.422
373.797	645.879
376.495	632.547
379.192	589.434
381.889	556.527
384.584	583.828
387.279	627.012
389.973	494.703
392.666	573.023
395.358	421.098
398.049	359.094
400.74	312.082
403.429	319.273
406.118	448.238
408.806	257.387
411.493	206.715
414.179	346.215
416.865	155.891
419.549	76.5
422.233	101.133
424.916	21.484
427.598	302.031
430.279	782.734
432.959	687.805
435.639	930.23
438.318	786.492
440.996	577.516
443.673	530.648
446.349	312.199
449.024	453.879
451.699	415.711
454.372	247.699
457.045	649.816
459.717	452.051
462.388	334.402
465.059	316.938
467.728	772.027
470.397	774.25
473.065	167.035
475.732	331.246
478.398	259.648
481.063	562.875
483.728	26.254
486.391	319.781
489.054	663.453
491.716	397.262
494.377	131.199
497.038	485.262
499.697	379.453
502.356	383.762
505.014	457.988
507.671	492.805
510.327	407.527
512.982	422.352
515.637	447.277
518.291	272.312
520.944	153.258
523.596	182.66
526.247	237.941
528.897	103.32
531.547	108.789
534.196	34.344
536.844	119.977
539.491	265.73
542.137	91.625
544.783	137.59
547.427	493.59
550.071	319.602
552.714	37.266
555.356	163.449
557.998	460.539
560.638	230.859
563.278	101.492
565.917	129.348
568.555	225.793
571.192	322.543
573.829	240.422
576.464	22.227
579.099	105.582
581.733	52.246
584.366	173.316
586.999	110.039
589.63	216.805
592.261	26.449
594.891	250.25
597.52	93.035
600.148	413.609
602.776	240.246
605.402	356.879
608.028	103.516
610.653	176.555
613.277	234.305
615.901	190.961
618.523	417.617
621.145	165.148
623.766	177.582
626.386	150.914
629.006	75.305
631.624	18.492
634.242	167.566
636.859	103.48
639.475	409.316
642.09	315.137
644.705	161.809
647.318	497.723
649.931	193.535
652.543	289.246
655.155	455.52
657.765	531.914
660.375	707.348
662.984	868.234
665.592	1188.04
668.199	2243.82
670.805	3039.7
673.411	5115.97
676.016	5851.47
678.62	5703.84
681.223	4332.51
683.825	2888
686.427	1645.19
689.028	1440.56
691.628	1005.89
694.227	771.539
696.825	798.992
699.423	454.523
702.02	550.426
704.616	530.152
707.211	45.043
709.805	555.059
712.399	109.184
714.992	582.637
717.584	686.941
720.175	614.727
722.765	429.84
725.355	130.469
727.944	164.562
730.532	478.254
733.119	581.07
735.705	260.879
738.291	242.125
740.876	375.43
743.46	438.898
746.043	303.297
748.626	370.223
751.207	622.922
753.788	351.027
756.368	354.805
758.947	384.477
761.526	436.391
764.104	21.809
766.68	352.605
769.257	714.043
771.832	295.418
774.406	136.602
776.98	158.066
779.553	287.855
782.125	717.66
784.697	588.336
787.267	426.809
789.837	478.016
792.406	662.988
794.974	383.176
797.542	233.242
800.108	803.188
802.674	513.043
805.239	442.809
807.804	152.465
810.367	141.984
812.93	724.543
815.492	705.246
818.053	694.297
820.613	523.305
823.173	232.641
825.732	261.316
828.29	440.539
830.847	148.934
833.403	147.172
835.959	367.227
838.514	125.582
841.068	553.359
843.621	431.023
846.174	252.766
848.726	49.516
851.277	657.578
853.827	714.539
856.376	331.383
858.925	598.129
861.473	3.566
864.02	930.035
866.566	505.523
869.112	601.785
871.656	43.895
874.2	165.617
876.744	300.078
879.286	815.664
881.828	401.258
884.369	385.473
886.909	429.668
889.448	433.348
891.987	667.816
894.524	177.527
897.061	121.453
899.598	485.125
902.133	238.691
904.668	182.121
907.202	575.41
909.735	588.566
912.267	931.574
914.799	854.41
917.33	40.672
919.86	463.125
922.389	284.336
924.918	596.5
927.445	228.254
929.972	419.543
932.499	693.637
935.024	515.258
937.549	467.105
940.073	658.871
942.596	430.32
945.118	501.66
947.64	612.852
950.161	673.098
952.681	459.578
955.2	645.242
957.719	610.68
960.236	291.117
962.753	21.613
965.27	96.012
967.785	577.562
970.3	689.969
972.814	394.191
975.327	276.918
977.84	526.039
980.351	377.789
982.862	256.277
985.372	55.406
987.882	662.156
990.39	425.859
992.898	367.992
995.405	12.477
997.912	228.352
1000.42	688.172
1002.92	598.848
1005.43	311.109
1007.93	581.711
1010.43	419.195
1012.93	801.238
1015.43	802.652
1017.93	684.727
1020.43	506.785
1022.93	928.855
1025.43	620.945
1027.93	542.867
1030.42	324.605
1032.92	380.262
1035.42	401.102
1037.91	479.301
1040.4	706.984
1042.9	788.746
1045.39	888.688
1047.88	978.734
1050.37	1303.52
1052.86	1338.91
1055.35	1323.71
1057.84	226.414
1060.33	679.309
1062.81	830.895
1065.3	990.895
1067.78	340.656
1070.27	431.727
1072.75	266.68
1075.23	382.398
1077.72	38.477
1080.2	34.965
1082.68	232.738
1085.16	332.758
1087.64	695.035
1090.12	64.844
1092.59	0.797
1095.07	34.879
1097.55	478.488
