Measurement: Raman, 514 nm, ccw, Raman Data Processed
Mineral: Talc
Rruff sample: R050087
Ideal chemistry: Mg_3_Si_4_O_10_(OH)_2_
Locality: St. Lawrence County, New York, USA
Source: University of Arizona Mineral Museum
Description: An aggregate of colorless foliated coarse single crystals
Measured chemistry: (Mg_.998_Fe_.002_)_3_(Si_.997_Al_.003_)_4_O_10_(OH_.966_F_.034_)_2_
Pin_id: M00180
Orientation: Laser parallel to b* (0 1 0). Fiducial mark perpendicular to laser is parallel to c [0 0 1]
Raman shift (cm-1)	intensity
93.48	0
98.416	838.282
103.349	3965.51
108.28	8029.53
113.208	5262.13
118.134	2492.77
123.058	266.907
127.979	87.7363
132.898	7.07617
137.814	438.152
142.728	742.213
147.639	407.971
152.549	205.338
157.455	120.881
162.359	113.389
167.261	390.254
172.161	305.475
177.058	757.531
181.952	2740.28
186.845	13947.2
191.734	30248.6
196.622	19467.7
201.507	2906.06
206.389	591.781
211.269	233.121
216.147	246.607
221.022	362.164
225.895	605.959
230.765	398.684
235.633	48.168
240.498	32.1035
245.361	28.5469
250.222	28.9238
255.08	10.082
259.936	251.299
264.789	91.5586
269.64	113.519
274.488	185.762
279.334	288.603
284.178	1033.74
289.019	2063.47
293.857	714.713
298.693	355.457
303.527	364.209
308.358	151.902
313.187	34.9727
318.013	853.828
322.837	224.277
327.659	470.443
332.478	765.5
337.294	533.879
342.108	723.523
346.92	1170.69
351.729	2707.93
356.535	5475.67
361.34	8013.83
366.141	4018.12
370.94	1281.52
375.737	685.996
380.531	899.951
385.323	555.672
390.113	284.131
394.9	0.648438
399.684	138.01
404.466	101.357
409.245	2.34766
414.022	111.619
418.797	50.0059
423.569	608.123
428.338	1429.75
433.105	1835.91
437.87	540.131
442.632	569.225
447.391	677.34
452.149	1034.65
456.903	698.912
461.655	958.441
466.405	1775.2
471.152	1223.37
475.897	995.967
480.639	1594.3
485.378	113.936
490.116	127.022
494.85	245.086
499.582	239.818
504.312	230.328
509.039	388.627
513.764	315.709
518.486	312.57
523.206	104.207
527.923	143.57
532.638	35.209
537.35	277.828
542.059	71.2578
546.766	69.1758
551.471	208.844
556.173	80.4453
560.873	157.746
565.57	171.066
570.264	114.096
574.957	84.9785
579.646	51.1719
584.333	111.162
589.018	290.734
593.7	163.578
598.379	76.9922
603.056	173.381
607.73	203.894
612.402	403.098
617.072	11.8867
621.739	290.316
626.403	62.5996
631.065	416.648
635.724	504.621
640.381	648.393
645.035	792.443
649.687	925.891
654.336	1220.2
658.983	2233.37
663.627	4659.57
668.268	11095.4
672.907	21054
677.544	21445.8
682.178	10629.6
686.809	4524.09
691.438	2308.8
696.065	1259.33
700.688	865.25
705.31	604.121
709.929	566.457
714.545	368.766
719.158	479.066
723.77	382.176
728.378	198.094
732.984	370.685
737.588	155.25
742.189	243.435
746.787	177.621
751.383	217.582
755.976	110.08
760.567	78.0391
765.155	229.973
769.741	78.959
774.324	139.527
778.904	417.769
783.482	875.957
788.058	944.836
792.631	1063.23
797.201	690.289
801.769	315.834
806.334	76.25
810.897	258.228
815.457	193.74
820.014	125.918
824.569	234.949
829.122	128.209
833.671	162.404
838.219	425.721
842.763	122.66
847.306	122.783
851.845	134.275
856.382	235.941
860.917	88.5137
865.448	19.5352
869.978	182.481
874.505	16.4512
879.029	200.916
883.55	274.832
888.069	77.3223
892.586	147.766
897.1	63.043
901.611	146.215
906.12	59.8828
910.626	48.2539
915.129	134.422
919.63	20.9688
924.129	73.6836
928.625	315.215
933.118	85.8633
937.609	62.3398
942.097	207.258
946.582	315.234
951.065	110.133
955.546	103.141
960.023	444.945
964.499	200.332
968.971	264.348
973.441	334.418
977.909	210.16
982.374	416.918
986.836	619.82
991.295	373.523
995.753	400.422
1000.21	521.086
1004.66	426.383
1009.11	972.648
1013.55	1248.3
1018	1721.13
1022.44	1129.61
1026.88	686.586
1031.32	462.504
1035.75	832.129
1040.18	693.398
1044.61	1711.73
1049.04	3860.59
1053.46	3105.89
1057.88	1316.77
1062.3	880.148
1066.71	542.984
1071.13	440.215
1075.54	335.879
1079.94	261.652
1084.35	431.285
1088.75	437.449
1093.15	188.91
1097.55	468.383
1101.94	60.9727
1106.34	162.969
1110.73	29.3477
1115.11	347.469
1119.5	506.082
1123.88	499.992
1128.26	333.91
1132.63	129.254
1137.01	299.16
1141.38	175.125
1145.75	456.051
1150.12	57.9805
1154.48	290.195
1158.84	179.637
1163.2	77.7539
1167.55	166.969
1171.91	353.379
1176.26	268.805
1180.61	186.18
1184.95	234.844
1189.29	322
1193.63	160.481
1197.97	3.96875
1202.31	122.637
1206.64	203.906
1210.97	266.938
1215.29	133.227
1219.62	195.398
1223.94	26.5898
1228.26	86.2773
1232.57	4.01953
1236.89	223.883
1241.2	172.191
1245.51	213.184
1249.81	141.023
1254.12	323.227
1258.42	2.41406
1262.72	164.582
1267.01	252.832
1271.3	72.0938
1275.59	130.266
1279.88	167.316
1284.17	251.789
1288.45	253.934
1292.73	322.027
1297.01	229.129
1301.28	285.695
1305.55	461.938
1309.82	442.922
1314.09	337.086
1318.35	350.301
1322.61	95.543
1326.87	99.7969
1331.13	171.648
1335.38	27.4766
1339.63	315.273
1343.88	192.484
1348.12	101.477
1352.37	155.852
1356.61	152.719
1360.85	483.254
1365.08	211.391
1369.31	440.203
1373.54	242.426
1377.77	229.394
1381.99	98.543
1386.22	142.352
1390.43	318.754
1394.65	332.801
1398.87	183.102
1403.08	159.551
1407.29	147.055
1411.49	66.6016
1415.69	97.5781
1419.89	184.469
1424.09	178.637
1428.29	37.9805
1432.48	417.188
1436.67	400.535
1440.86	254.594
1445.04	342.703
1449.23	545.438
1453.4	367.852
1457.58	123.969
1461.76	218.137
1465.93	462.652
1470.1	49.4141
1474.26	504.734
1478.43	112.637
1482.59	363.266
1486.75	44.2734
1490.9	156.473
1495.06	270.914
1499.21	265.242
1503.35	95.2305
1507.5	383.461
1511.64	87.1406
1515.78	116.731
1519.92	342.731
1524.05	503.266
1528.18	520.484
1532.31	410.785
1536.44	67.2656
1540.56	279.004
1544.69	199.992
1548.8	482.57
1552.92	376.367
1557.03	425.566
1561.14	234.289
1565.25	338.793
1569.36	0.984375
