Measurement: Raman, 514 nm, ccw, Raman Data Processed
Mineral: Thomsonite-Ca
Rruff sample: R050091
Ideal chemistry: NaCa_2_(Al_5_Si_5_)O_20_6H_2_O
Locality: Amudikha River, near Mirny, Yakutia, Siberia, Russia
Source: Rock Currier
Description: Radial groups of colorless bladed crystals
Measured chemistry: (Na_0.94_[box]_0.06_)_Σ=1_(Ca_1.71_Na_0.29_)_Σ=2_(Si_5.35_Al_4.65_)O_20_·7.09H_2_O
Pin_id: M00227
Orientation: Laser parallel to c* (0 0 1). Fiducial mark perpendicular to laser is parallel to a [1 0 0]
Raman shift (cm-1)	intensity
73.144	0
77.333	49.379
81.521	8.921
85.706	265.716
89.89	480.082
94.071	822.646
98.251	1332.95
102.428	1720.5
106.604	2073.96
110.777	2743.37
114.949	2996.86
119.119	2986.78
123.286	3114.15
127.452	3205.14
131.615	2776.11
135.777	2100.57
139.937	1981.6
144.094	2405.9
148.25	2993.97
152.403	3831.17
156.555	5056.43
160.705	6730.43
164.853	9242.37
168.998	13528.5
173.142	19986.7
177.284	27885.2
181.424	28272.4
185.562	19444.9
189.698	12222.6
193.831	8345.74
197.963	6093.48
202.093	4638.78
206.221	4247.56
210.347	5283.73
214.472	8135.03
218.594	11699.3
222.714	11967.6
226.832	8338.8
230.948	4965.05
235.063	2640.47
239.175	1339.62
243.286	760.786
247.394	816.083
251.501	1724.44
255.605	3288.96
259.708	3793.73
263.808	1898.13
267.907	625.735
272.004	58.188
276.099	101.822
280.192	167.741
284.283	180.854
288.372	310.304
292.459	367.403
296.544	218.569
300.627	62.835
304.709	4.849
308.788	269.708
312.865	451.026
316.941	891.135
321.015	1352.05
325.086	1743.76
329.156	2166.27
333.224	2779.61
337.29	4065.78
341.354	4798.18
345.416	4320.85
349.476	3306.23
353.534	3150.92
357.591	3643.45
361.645	4208.09
365.698	3380.82
369.748	2021.64
373.797	1674.56
377.844	1696.57
381.889	980.678
385.932	347.886
389.973	123.196
394.012	27.494
398.049	64.52
402.084	136.32
406.118	47.336
410.15	193.768
414.179	600.25
418.207	1237.82
422.233	2258.45
426.257	3767.11
430.279	5800.8
434.299	7668.23
438.318	10768.4
442.334	13033.3
446.349	11785.7
450.361	8850.07
454.372	6375.39
458.381	5306.76
462.388	5845.08
466.394	8975.45
470.397	14698.9
474.398	17234.7
478.398	12316.8
482.396	7979.24
486.391	6291.02
490.385	5518.19
494.377	5223.81
498.368	4548.9
502.356	3587.37
506.342	3097.83
510.327	3401.64
514.31	4264.93
518.291	6061.65
522.27	9735.8
526.247	17364.3
530.222	30984.3
534.196	46518.6
538.167	50937.2
542.137	39175.2
546.105	25343.4
550.071	16261.7
554.035	10602
557.998	7140.49
561.958	5069.48
565.917	3832.52
569.874	2815.75
573.829	2195.32
577.782	1565.25
581.733	1126.53
585.683	898.163
589.63	717.153
593.576	749.5
597.52	1120.88
601.462	1928.89
605.402	2812.32
609.341	2702.7
613.277	1773.27
617.212	964.372
621.145	566.076
625.076	455.883
629.006	213.227
632.933	86.491
636.859	186.921
640.783	147.734
644.705	258.083
648.625	237.34
652.543	68.496
656.46	79.827
660.375	53.986
664.288	2.404
668.199	73.824
672.108	237.615
676.016	351.423
679.921	462.508
683.825	534.658
687.727	749.311
691.628	969.69
695.526	957.581
699.423	1345.95
703.318	1394.4
707.211	1296.92
711.102	1375.7
714.992	1455.88
718.879	1316.46
722.765	1400.97
726.649	1257.65
730.532	1081.88
734.412	931.126
738.291	818.384
742.168	686.644
746.043	579.896
749.916	406.134
753.788	308.346
757.658	215.521
761.526	181.642
765.392	81.694
769.257	121.657
773.119	31.474
776.98	21.456
780.839	53.344
784.697	46.256
788.552	3.366
792.406	64.292
796.258	40.865
800.108	11.25
803.957	50.199
807.804	170.361
811.649	96.361
815.492	185.248
819.333	62.136
823.173	8.654
827.011	36.716
830.847	14.289
834.681	31.268
838.514	56.291
842.345	49.484
846.174	138.422
850.001	164.107
853.827	202.564
857.651	251.779
861.473	241.792
865.293	207.568
869.112	268.129
872.928	248.431
876.744	307.472
880.557	427.265
884.369	349.804
888.178	419.078
891.987	483.081
895.793	570.846
899.598	578.351
903.401	499.591
907.202	787.59
911.001	1164.31
914.799	1555.75
918.595	1625.9
922.389	1572.7
926.182	1937.94
929.972	2250.31
933.761	2799.54
937.549	3194.94
941.334	3410.18
945.118	3740.96
948.9	4130.14
952.681	4076.61
956.459	4172.17
960.236	4350.17
964.012	4628.24
967.785	4856.35
971.557	4964.57
975.327	5215.45
979.095	5531.88
982.862	6021.52
986.627	6281.47
990.39	6541.76
994.152	6213.17
997.912	5462.19
1001.67	4427.2
1005.43	3722.52
1009.18	3203.89
1012.93	2814.31
1016.68	2518.87
1020.43	1979.17
1024.18	1657.78
1027.93	993.656
1031.67	914.714
1035.42	755.225
1039.16	718.64
1042.9	966.767
1046.63	1006.29
1050.37	1080.75
1054.11	1227.87
1057.84	1345.84
1061.57	1700.97
1065.3	1956.95
1069.03	2205.8
1072.75	2224.17
1076.47	2313.36
1080.2	2051.95
1083.92	1989.96
1087.64	1626.67
1091.36	1352.39
1095.07	1082.63
1098.79	907.493
1102.5	696.783
1106.21	521.291
1109.92	506.367
1113.62	313.723
1117.33	273.983
1121.04	257.354
1124.74	198.325
1128.44	92.272
1132.14	63.671
1135.83	60.495
1139.53	57.792
1143.22	114.974
1146.92	42.185
1150.61	6.543
1154.3	19.576
1157.98	64.948
1161.67	3.713
1165.35	12.538
1169.04	98.916
1172.72	5.364
1176.4	31.385
1180.07	30.1
1183.75	73.862
1187.42	5.345
1191.1	62.063
1194.77	84.851
1198.44	18.56
1202.1	75.064
1205.77	28.107
1209.43	85.339
1213.1	54.44
1216.76	49.017
1220.42	8.033
1224.07	29.424
1227.73	139.774
1231.38	86.809
1235.04	14.272
1238.69	67.728
1242.34	88.367
1245.99	103.952
1249.63	47.375
1253.28	37.656
1256.92	63.812
1260.56	6.001
1264.2	45.446
1267.84	17.017
1271.48	77.325
1275.11	28.394
1278.74	8.152
1282.38	1.889
1286.01	34.781
1289.63	47.242
1293.26	61.94
1296.89	20.795
1300.51	20.795
1304.13	31.445
1307.75	12.537
1311.37	27.985
1314.99	13.514
1318.6	35.31
1322.22	23.279
1325.83	35.854
1329.44	108.163
1333.05	35.854
1336.66	49.725
1340.26	60.536
1343.87	30.527
1347.47	99.621
1351.07	175.178
1354.67	25.586
1358.27	0.567
1361.86	80.596
1365.46	79.906
1369.05	57.428
1372.64	143.492
1376.23	133.54
1379.82	71.434
1383.41	98.719
1386.99	129.265
1390.57	133.274
1394.16	205.145
1397.74	200.63
1401.32	176.672
1404.89	159.933
1408.47	254.45
1412.04	160.978
1415.61	111.908
1419.18	156.178
1422.75	139.225
1426.32	123.447
1429.89	209.24
1433.45	86.451
1437.01	188.106
1440.58	205.438
1444.13	297.864
1447.69	271.66
1451.25	394.488
1454.81	342.562
1458.36	296.543
1461.91	254.201
1465.46	225.746
1469.01	194.156
1472.56	247
1476.1	251.615
1479.64	150.169
1483.19	287.222
1486.73	158.467
1490.27	306.825
1493.81	131.449
1497.34	66.544
1500.88	43.282
1504.41	85.712
1507.94	152.922
1511.47	89.998
1515	79.893
1518.53	179.165
1522.05	0.155
