Measurement: Raman, 514 nm, ccw, Raman Data Processed
Mineral: Thomsonite-Ca
Rruff sample: R050091
Ideal chemistry: NaCa_2_(Al_5_Si_5_)O_20_6H_2_O
Locality: Amudikha River, near Mirny, Yakutia, Siberia, Russia
Source: Rock Currier
Description: Radial groups of colorless bladed crystals
Measured chemistry: (Na_0.94_[box]_0.06_)_Σ=1_(Ca_1.71_Na_0.29_)_Σ=2_(Si_5.35_Al_4.65_)O_20_·7.09H_2_O
Pin_id: L00456
Orientation: Laser parallel to a* (1 0 0). Fiducial mark perpendicular to laser is parallel to b [0 1 0]
Raman shift (cm-1)	intensity
147.277	0
151.427	27.626
155.576	349.3
159.723	640.578
163.867	1246.9
168.01	2661.24
172.151	5489.89
176.29	10310.5
180.427	13867.6
184.562	11849.1
188.696	8077.84
192.827	6284.26
196.956	5943.85
201.084	4382.2
205.209	2965.94
209.333	2602.52
213.454	3409.41
217.574	4746.09
221.692	5359.91
225.808	4562.28
229.922	3489.43
234.034	1946
238.144	978.547
242.252	581.911
246.359	409.859
250.463	258.266
254.566	291.658
258.666	372.848
262.765	34.331
266.862	212.008
270.957	234.803
275.05	161.072
279.141	86.068
283.23	45.816
287.317	158.647
291.403	454.733
295.486	874.008
299.568	1133.29
303.647	1040.27
307.725	678.43
311.801	202.72
315.875	140.331
319.947	177.825
324.018	36.023
328.086	136.681
332.153	327.959
336.217	665.688
340.28	1230.77
344.341	1898.83
348.4	2390.52
352.457	2280.16
356.512	1631.04
360.566	1016
364.617	637.762
368.667	552.596
372.715	867.421
376.761	1117.48
380.805	941.207
384.847	822.378
388.887	855.453
392.926	953.432
396.962	1073.33
400.997	1015.43
405.03	1082.81
409.061	1077.47
413.09	1252.13
417.117	1668.3
421.143	2374.18
425.166	3243.46
429.188	4475.73
433.208	6721.14
437.226	10186.6
441.242	12542.2
445.256	10719.3
449.269	7563.93
453.28	5523.05
457.288	4665.19
461.295	4956.93
465.3	7222.9
469.304	12790
473.305	17393.7
477.305	12781.8
481.303	7677.6
485.298	6325.56
489.293	7106.27
493.285	8045.26
497.275	7337.2
501.264	4902.65
505.251	3517.68
509.236	3104.78
513.219	3248.01
517.2	4134.4
521.18	6656.97
525.157	11713.6
529.133	21589.7
533.107	34656.5
537.079	41303.7
541.05	34401.2
545.018	22788.9
548.985	14016.8
552.95	8484.96
556.913	6004.29
560.875	4534.87
564.834	3469.7
568.792	2719.84
572.748	2180.36
576.702	1880.24
580.654	1625.47
584.605	1275.1
588.553	1006.52
592.5	913.985
596.445	1077.55
600.389	1316.08
604.33	1429.31
608.27	1142.97
612.208	661.943
616.144	338.168
620.078	257.603
624.011	61.24
627.941	41.076
631.87	24.868
635.798	18.518
639.723	91.589
643.647	171.21
647.568	136.442
651.488	88.834
655.407	1.264
659.323	46.995
663.238	170.501
667.151	349.965
671.062	518.045
674.971	691.385
678.879	741.794
682.785	885.249
686.689	1097.09
690.591	1520.98
694.491	1958.12
698.39	2026.61
702.287	1916.96
706.182	1740.09
710.076	1693.61
713.968	1591.74
717.857	1553.5
721.746	1252.37
725.632	1096.15
729.517	915.997
733.4	738.899
737.281	531.853
741.16	372.849
745.038	299.877
748.913	230.924
752.788	245.97
756.66	243.002
760.531	290.008
764.399	461.977
768.267	753.903
772.132	1173.78
775.996	1127.61
779.857	799.373
783.718	529.077
787.576	415.862
791.433	307.089
795.288	277.135
799.141	128.107
802.992	86.666
806.842	21.534
810.69	11.434
814.536	9.974
818.381	17.27
822.223	79.901
826.065	41.654
829.904	101.93
833.741	12.753
837.577	72.02
841.412	37.436
845.244	2.517
849.075	6.616
852.904	81.019
856.731	81.457
860.556	111.705
864.38	108.816
868.202	27.792
872.023	71.628
875.842	126.351
879.658	182.967
883.474	264.471
887.287	297.875
891.099	309.153
894.909	385.304
898.718	548.323
902.524	747.214
906.329	1064.98
910.133	1409.62
913.934	1736.14
917.734	2247.54
921.532	2989.81
925.329	3912.96
929.124	4205.99
932.917	4143.91
936.708	3633.71
940.498	3116.4
944.286	2783.03
948.072	2626.61
951.857	2465.25
955.64	2222.65
959.421	2083.47
963.201	2115.48
966.979	2150.71
970.755	2292.78
974.529	2711.72
978.302	3296.46
982.073	3980.86
985.843	4565.68
989.611	4553.98
993.377	4204.48
997.141	3658.03
1000.9	3069.86
1004.66	2521.14
1008.42	2077.03
1012.18	1993.62
1015.94	1937.59
1019.69	1959.36
1023.45	1626.64
1027.2	1271.62
1030.95	892.542
1034.69	696.756
1038.44	691.82
1042.18	692.14
1045.93	786.057
1049.67	855.189
1053.41	913.242
1057.14	946.623
1060.88	1075.82
1064.62	1199.91
1068.35	1376.02
1072.08	1605.97
1075.81	1862.38
1079.54	2008.12
1083.26	1937.74
1086.99	1657.08
1090.71	1415.04
1094.43	1185.26
1098.15	992.163
1101.87	779.584
1105.59	568.382
1109.3	407.37
1113.01	273.326
1116.72	156.062
1120.43	162.537
1124.14	241.367
1127.85	137.408
1131.55	144.183
1135.26	84.019
1138.96	55.292
1142.66	37.616
1146.36	61.49
1150.05	27.152
1153.75	125.353
1157.44	81.387
1161.13	75.279
1164.82	30.533
1168.51	64.189
1172.2	12.053
1175.88	24.732
1179.57	50.633
1183.25	77.263
1186.93	124.494
1190.61	63.842
1194.28	53.649
1197.96	1.863
1201.63	9.529
1205.31	19.203
1208.98	40.793
1212.64	95.02
1216.31	77.398
1219.98	47.471
1223.64	59.769
1227.31	8.943
1230.97	1.38
1234.62	53.523
1238.28	53.16
1241.94	111.673
1245.59	92.009
1249.25	54.396
1252.9	63.709
1256.55	76.241
1260.2	2.626
1263.84	28.815
1267.49	28.733
1271.13	35.62
1274.77	90.324
1278.41	161.915
1282.05	94.556
1285.69	1.091
1289.32	11.082
1292.96	23.161
1296.59	21.557
1300.22	52.348
1303.85	73.895
1307.48	100.94
1311.1	57.031
1314.72	95.004
1318.35	43.444
1321.97	10.652
1325.59	52.028
1329.21	11.813
1332.82	42.264
1336.44	56.98
1340.05	32.074
1343.66	124.493
1347.27	88.604
1350.88	102.055
1354.49	65.914
1358.09	32.064
1361.7	44.977
1365.3	9.71
1368.9	115.093
1372.5	95.062
1376.1	77.222
1379.69	141.12
1383.29	85.688
1386.88	112.904
1390.47	92.367
1394.06	50.892
1397.65	17.208
1401.23	27.635
1404.82	43.651
1408.4	73.85
1411.98	85.537
1415.56	137.64
1419.14	119.246
1422.72	176.65
1426.3	86.555
1429.87	64.742
1433.44	45.066
1437.01	52.486
1440.58	22.013
1444.15	58.799
1447.71	116.65
1451.28	101.681
1454.84	158.926
1458.4	181.183
1461.96	175.131
1465.52	120.542
1469.08	80.568
1472.64	37.557
1476.19	18.704
1479.74	1.477
1483.29	62.038
1486.84	42.081
1490.39	116.631
1493.94	142.413
1497.48	146.846
1501.02	90.779
1504.57	105.941
1508.11	123.289
1511.64	43.438
1515.18	2.641
1518.72	34.606
1522.25	0
