Measurement: Raman, 514 nm, ccw, Raman Data Processed
Mineral: Thomsonite-Ca
Rruff sample: R050103
Ideal chemistry: NaCa_2_(Al_5_Si_5_)O_20_6H_2_O
Locality: Seeberg, Bohemia, Czech Republic
Source: Rock Currier
Description: Colorless prismatic crystals
Measured chemistry: Na_1.00_(Ca_0.92_Sr_0.08_)_2_(Al_5.00_Si_5.00_)O_20_Â·6H_2_O
Pin_id: L00246
Orientation: Laser parallel to c* (0 0 1). Fiducial mark perpendicular to laser is parallel to -a [-1 0 0]
Raman shift (cm-1)	intensity
93.48	0
98.416	1664.36
103.349	3729.95
108.28	6316.56
113.208	9794.99
118.134	10432.2
123.058	7223.65
127.979	2783.57
132.898	656.324
137.814	80.8193
142.728	18.5137
147.639	375.25
152.549	97.418
157.455	676.327
162.359	2774.92
167.261	6793.66
172.161	12543.5
177.058	17053.8
181.952	16019.6
186.845	11326.6
191.734	8884.82
196.622	6953
201.507	4926.57
206.389	3938.95
211.269	4794.56
216.147	6337.45
221.022	6322.6
225.895	4460.11
230.765	2328.93
235.633	683.753
240.498	116.816
245.361	104.625
250.222	139.08
255.08	307.33
259.936	73.2324
264.789	155.068
269.64	204.365
274.488	103.519
279.334	170.945
284.178	380.115
289.019	941.088
293.857	1277.52
298.693	1466.67
303.527	985.297
308.358	239.803
313.187	143.185
318.013	121.077
322.837	12.6699
327.659	161.32
332.478	844.428
337.294	1629.27
342.108	2459.02
346.92	2871.16
351.729	2007.12
356.535	1157.87
361.34	639.55
366.141	412.316
370.94	628.937
375.737	935.291
380.531	780.773
385.323	584.933
390.113	604.926
394.9	873.691
399.684	771.343
404.466	975.602
409.245	1032.59
414.022	1509.59
418.797	2476.53
423.569	4351.98
428.338	7264.55
433.105	11189.4
437.87	14045.5
442.632	12449.6
447.391	8059.26
452.149	5710.85
456.903	5733.77
461.655	9450.05
466.405	15970.3
471.152	19138.2
475.897	14320.6
480.639	9018.18
485.378	8549.14
490.116	9312.12
494.85	8332.85
499.582	5894.8
504.312	3933.14
509.039	3897.43
513.764	5408.7
518.486	10204.9
523.206	20529.8
527.923	37086.6
532.638	49963.7
537.35	45808.4
542.059	29547.4
546.766	16761.6
551.471	9864.62
556.173	6596.19
560.873	4277.15
565.57	3487.78
570.264	2670.51
574.957	2062.03
579.646	1688.16
584.333	1362.77
589.018	1208.33
593.7	1375.36
598.379	1443.66
603.056	1619
607.73	946.516
612.402	305.602
617.072	267.143
621.739	50.1123
626.403	90.5859
631.065	216.292
635.724	327.634
640.381	152.251
645.035	202.791
649.687	18.0254
654.336	40.9287
658.983	266.941
663.627	346.978
668.268	627.965
672.907	830.722
677.544	922.667
682.178	1317.35
686.809	1690.49
691.438	2224.61
696.065	2657.41
700.688	2526.35
705.31	2436.91
709.929	2266.64
714.545	2106.94
719.158	1788.96
723.77	1561.68
728.378	1117.99
732.984	744.903
737.588	552.237
742.189	434.34
746.787	244.858
751.383	212.904
755.976	414.407
760.567	640.388
765.155	1088.46
769.741	1464.38
774.324	1357.1
778.904	774.712
783.482	596.312
788.058	348.215
792.631	228.463
797.201	108.011
801.769	6.23926
806.334	6.35059
810.897	13.7109
815.457	24.8301
820.014	6.8584
824.569	143.574
829.122	89.9219
833.671	89.8809
838.219	132.917
842.763	133.777
847.306	48.8984
851.845	178.556
856.382	258.801
860.917	390.65
865.448	267.115
869.978	15.207
874.505	262.938
879.029	213.412
883.55	341.578
888.069	472.514
892.586	469.375
897.1	832.822
901.611	1071.19
906.12	1609.52
910.626	2281.14
915.129	3168.35
919.63	4169.94
924.129	5493.77
928.625	6140.38
933.118	6106.76
937.609	5500.13
942.097	4387.79
946.582	3617.91
951.065	3258.31
955.546	2982.59
960.023	2682.8
964.499	2638.99
968.971	2890.97
973.441	3240.08
977.909	4643.98
982.374	5376.96
986.836	5730.88
991.295	5075.43
995.753	3869.35
1000.21	3363.77
1004.66	2419.05
1009.11	2314.01
1013.55	2233.03
1018	2056.08
1022.44	1539.99
1026.88	1095
1031.32	801.467
1035.75	624.801
1040.18	641.418
1044.61	584.283
1049.04	933.549
1053.46	1097.63
1057.88	1238.63
1062.3	1378.93
1066.71	1780.1
1071.13	1812.59
1075.54	2549.82
1079.94	2777.5
1084.35	2474.65
1088.75	1849.7
1093.15	1559.16
1097.55	970.857
1101.94	597.848
1106.34	294.611
1110.73	301.037
1115.11	397.768
1119.5	478.283
1123.88	524.523
1128.26	222.953
1132.63	27.3086
1137.01	63.3203
1141.38	87.9727
1145.75	86.1699
1150.12	134.197
1154.48	59.002
1158.84	77.9219
1163.2	55.5508
1167.55	30.9336
1171.91	11.3145
1176.26	65.2754
1180.61	119.992
1184.95	160.07
1189.29	43.0625
1193.63	103.779
1197.97	134.41
1202.31	38.8711
1206.64	10.1895
1210.97	122.398
1215.29	39.6211
1219.62	70.3008
1223.94	284.393
1228.26	12.7656
1232.57	15.9297
1236.89	190.111
1241.2	160.559
1245.51	112.988
1249.81	132.703
1254.12	322.494
1258.42	226.852
1262.72	407.416
1267.01	184.606
1271.3	372.402
1275.59	337.162
1279.88	510.4
1284.17	268.978
1288.45	349.078
1292.73	313.328
1297.01	537.393
1301.28	384.484
1305.55	483.613
1309.82	267.867
1314.09	439.906
1318.35	93.8926
1322.61	451.035
1326.87	121.666
1331.13	112.215
1335.38	236.435
1339.63	218.535
1343.88	236.732
1348.12	231.281
1352.37	50.8359
1356.61	229.144
1360.85	186.789
1365.08	223.475
1369.31	221.371
1373.54	326.795
1377.77	92.041
1381.99	43.0371
1386.22	80.5547
1390.43	147.383
1394.65	48.0625
1398.87	256.08
1403.08	7.22461
1407.29	124.498
1411.49	0.445313
1415.69	7.73242
1419.89	3.92969
1424.09	196.99
1428.29	47.8496
1432.48	14.9238
1436.67	120.062
1440.86	297.551
1445.04	109.033
1449.23	310.754
1453.4	204.006
1457.58	354.91
1461.76	155.56
1465.93	263.283
1470.1	201.023
1474.26	143.152
1478.43	295.793
1482.59	242.363
1486.75	190.49
1490.9	123.936
1495.06	240.99
1499.21	57.1953
1503.35	41.9609
1507.5	83.6523
1511.64	262.293
1515.78	259.912
1519.92	231.147
1524.05	70.9121
1528.18	230.684
1532.31	194.324
1536.44	304.658
1540.56	319.057
1544.69	79.4551
1548.8	303.252
1552.92	248.873
1557.03	234.863
1561.14	377.994
1565.25	144.559
1569.36	265.779
