Measurement: Raman, 514 nm, ccw, Raman Data Processed
Mineral: Thomsonite-Ca
Rruff sample: R050091
Ideal chemistry: NaCa_2_(Al_5_Si_5_)O_20_6H_2_O
Locality: Amudikha River, near Mirny, Yakutia, Siberia, Russia
Source: Rock Currier
Description: Radial groups of colorless bladed crystals
Measured chemistry: (Na_0.94_[box]_0.06_)_Σ=1_(Ca_1.71_Na_0.29_)_Σ=2_(Si_5.35_Al_4.65_)O_20_·7.09H_2_O
Pin_id: L00326
Orientation: Laser parallel to b* (0 1 0). Fiducial mark perpendicular to laser is parallel to c [0 0 1]
Raman shift (cm-1)	intensity
52.937	0
57.132	258.119
61.325	129.892
65.515	155.039
69.704	371.711
73.891	235.222
78.076	131.557
82.26	24.037
86.441	116.564
90.62	118.926
94.797	236.409
98.973	777.605
103.146	1030.59
107.318	1464.71
111.487	2013.23
115.655	2663.06
119.821	2781.2
123.984	3037.81
128.146	3138.51
132.306	2783.97
136.464	2478.86
140.62	2690.93
144.774	3257.2
148.927	3862.91
153.077	4992.67
157.226	5901.82
161.372	6743.79
165.517	8691.92
169.659	11423.3
173.8	15976.2
177.939	20848.1
182.076	19004.5
186.211	12309.2
190.344	7999.75
194.475	6266.08
198.605	5029
202.732	3641.4
206.858	3172.32
210.981	3877.8
215.103	6156.88
219.223	8155.9
223.341	7288.58
227.457	4743.55
231.571	3202.1
235.684	1564.91
239.794	774.981
243.902	476.562
248.009	614.701
252.114	1148.32
256.217	2531.62
260.318	2553.98
264.417	1128.02
268.514	457.937
272.609	75.394
276.703	43.809
280.794	186.128
284.884	179.767
288.972	197.704
293.058	166.949
297.142	146.419
301.224	35.147
305.304	156.084
309.383	248.512
313.46	407.463
317.534	682.927
321.607	1035.04
325.678	1212.83
329.747	1375.91
333.815	1956.2
337.88	2837.43
341.944	3254.11
346.005	2727.46
350.065	2103.76
354.123	2136.09
358.179	2491.41
362.234	2749.71
366.286	2018
370.337	1206.3
374.386	1237.61
378.432	1219.95
382.478	828.274
386.521	651.226
390.562	698.837
394.602	646.195
398.639	411.369
402.675	314.426
406.709	646.095
410.742	547.553
414.772	634.509
418.8	947.635
422.827	1738.74
426.852	2809.78
430.875	3932.45
434.896	5464.44
438.916	7826.85
442.933	9178.21
446.949	7782.7
450.963	5987.11
454.975	4238.76
458.985	3502.05
462.994	4036.72
467	6642.7
471.005	11159.6
475.008	11278.3
479.009	6879.64
483.009	4527.86
487.006	3678.73
491.002	3477.15
494.996	3355.01
498.988	2739.09
502.978	2106.55
506.967	1963.24
510.953	2288.83
514.938	2879.1
518.921	4480.01
522.903	7648.39
526.882	13574.2
530.86	24020.4
534.836	34887
538.81	34413.8
542.782	24231
546.753	15218.5
550.721	9656.2
554.688	6211.21
558.653	4419.49
562.617	3180.04
566.578	2311.64
570.538	1784.77
574.496	1366.17
578.452	965.818
582.407	652.722
586.359	499.877
590.31	426.539
594.259	508.036
598.206	833.353
602.152	1423.49
606.096	1961.48
610.038	1683.4
613.978	1002.32
617.916	562.144
621.853	295.58
625.788	146.385
629.721	141.931
633.652	57.522
637.582	17.637
641.51	1.302
645.436	15.107
649.36	85.848
653.282	37.358
657.203	122.323
661.122	116.009
665.039	79.087
668.955	85.849
672.869	126.584
676.781	196.765
680.691	242.594
684.599	416.906
688.506	494.951
692.411	620.228
696.314	774.396
700.216	876.441
704.115	944.992
708.013	976.882
711.91	1046.27
715.804	1030.47
719.697	972.296
723.588	1046.25
727.477	1021.66
731.365	967.084
735.25	812.409
739.134	733.691
743.017	665.926
746.897	627.104
750.776	617.221
754.653	566.266
758.529	488.225
762.402	370.085
766.274	339.83
770.144	331.443
774.013	262.911
777.88	198.219
781.745	133.358
785.608	153.322
789.47	145.105
793.329	202.699
797.188	120.558
801.044	56.6
804.899	53.308
808.752	3.803
812.603	20.453
816.452	54.259
820.3	48.321
824.146	57.058
827.991	41.431
831.834	53.931
835.675	27.488
839.514	12.673
843.352	7.966
847.187	18.975
851.022	44.552
854.854	81.797
858.685	71.765
862.514	102.473
866.341	107.93
870.167	138.142
873.991	109.137
877.813	181.903
881.634	192.446
885.453	191.243
889.27	213.865
893.086	233.741
896.9	228.397
900.712	263.838
904.522	352.063
908.331	475.068
912.138	594.855
915.944	751.423
919.747	798.78
923.549	953.933
927.35	1149.87
931.148	1397.61
934.945	1684.14
938.741	1871.47
942.534	2215.59
946.326	2417.52
950.117	2669.93
953.905	2680.31
957.692	2834.47
961.478	3028.1
965.261	3361.37
969.043	3502.61
972.823	3671.41
976.602	3784.81
980.379	4028.25
984.154	4289.17
987.928	4766.89
991.7	4742.91
995.47	4391.53
999.239	3792.45
1003.01	3226.2
1006.77	2692.64
1010.53	2251.11
1014.3	2061.24
1018.06	1775.69
1021.82	1358.25
1025.57	988.127
1029.33	729.402
1033.08	551.671
1036.83	521.099
1040.59	496.346
1044.33	563.555
1048.08	648.015
1051.83	733.723
1055.57	864.876
1059.31	1060.05
1063.05	1281.14
1066.79	1557.31
1070.53	1726.39
1074.27	1733.54
1078	1625.56
1081.73	1395.14
1085.46	1216.67
1089.19	1067.75
1092.92	922.059
1096.64	808.362
1100.37	668.527
1104.09	542.476
1107.81	397.697
1111.53	356.696
1115.25	293.707
1118.97	234.226
1122.68	184.459
1126.39	161.533
1130.1	95.843
1133.81	78.465
1137.52	62.635
1141.23	38.918
1144.93	28.66
1148.64	35.859
1152.34	20.136
1156.04	62.873
1159.74	56.187
1163.43	28.303
1167.13	5.19
1170.82	30.39
1174.51	2.335
1178.2	37.129
1181.89	9.209
1185.58	38.116
1189.26	18.38
1192.95	33.672
1196.63	9.825
1200.31	9.557
1203.99	27.61
1207.67	13.445
1211.34	5.414
1215.02	39.43
1218.69	25.426
1222.36	26.183
1226.03	12.857
1229.7	12.987
1233.36	24.991
1237.03	8.705
1240.69	1.028
1244.35	16
1248.01	1.584
1251.67	40.333
1255.33	10.258
1258.98	22.169
1262.64	4.538
1266.29	20.687
1269.94	0.031
1273.59	47.066
1277.23	33.916
1280.88	10.627
1284.53	20.22
1288.17	3.321
1291.81	7.155
1295.45	24.395
1299.09	17.604
1302.72	5.309
1306.36	24.338
1309.99	25.082
1313.62	1.88
1317.25	7.213
1320.88	0.878
1324.51	16.042
1328.13	11.843
1331.75	36.912
1335.38	53.782
1339	14.584
1342.62	14.086
1346.23	26.893
1349.85	39.849
1353.46	37.156
1357.08	22.354
1360.69	16.449
1364.3	44.437
1367.9	27.301
1371.51	58.629
1375.12	61.726
1378.72	36.315
1382.32	46.676
1385.92	50.085
1389.52	39.815
1393.12	12.312
1396.71	51.056
1400.31	72.718
1403.9	48.265
1407.49	67.078
1411.08	101.899
1414.67	77.542
1418.25	62.586
1421.84	67.375
1425.42	51.969
1429	40.429
1432.58	23.577
1436.16	43.634
1439.74	71.794
1443.32	51.087
1446.89	57.742
1450.46	47.803
1454.03	47.73
1457.6	27.84
1461.17	41.815
1464.74	8.956
1468.3	27.198
1471.87	18.783
1475.43	35.497
1478.99	21.398
1482.55	4.841
1486.1	31.718
1489.66	2.561
1493.21	57.5
1496.77	70.562
1500.32	34.565
1503.87	29.041
1507.41	44.096
1510.96	3.96
1514.51	44.276
1518.05	40.403
1521.59	33.269
