Measurement: Raman, 514 nm, ccw, Raman Data Processed
Mineral: Thomsonite-Ca
Rruff sample: R050103
Ideal chemistry: NaCa_2_(Al_5_Si_5_)O_20_6H_2_O
Locality: Seeberg, Bohemia, Czech Republic
Source: Rock Currier
Description: Colorless prismatic crystals
Measured chemistry: Na_1.00_(Ca_0.92_Sr_0.08_)_2_(Al_5.00_Si_5.00_)O_20_Â·6H_2_O
Pin_id: L00246
Orientation: Laser parallel to c* (0 0 1). Fiducial mark perpendicular to laser is parallel to -a [-1 0 0]
Raman shift (cm-1)	intensity
93.48	0
98.416	2791.34
103.349	8236.98
108.28	13684.4
113.208	13700.9
118.134	8731.59
123.058	3809.79
127.979	767.428
132.898	506.951
137.814	40.1621
142.728	1179.69
147.639	1543.62
152.549	776.893
157.455	780.613
162.359	2681.97
167.261	6900.44
172.161	13026.7
177.058	16335.5
181.952	13376.2
186.845	7308.01
191.734	4504.76
196.622	3136.72
201.507	2349.2
206.389	3150.72
211.269	6205.33
216.147	10377.8
221.022	12714.7
225.895	13182.7
230.765	8319.62
235.633	2299.41
240.498	193.49
245.361	324.728
250.222	465.022
255.08	1438.9
259.936	925.053
264.789	226.205
269.64	21.4941
274.488	199.344
279.334	479.623
284.178	330.348
289.019	65.4688
293.857	42.9102
298.693	152.875
303.527	63.3174
308.358	150.327
313.187	89.1777
318.013	86.9209
322.837	449.799
327.659	953.9
332.478	1464.27
337.294	2208.52
342.108	2879.98
346.92	2609.56
351.729	2784.22
356.535	2814.12
361.34	2402.8
366.141	1767.97
370.94	1441.76
375.737	1200.24
380.531	1028.41
385.323	286.768
390.113	91.1523
394.9	213.691
399.684	173.951
404.466	133.623
409.245	33.418
414.022	389.529
418.797	1401.01
423.569	2824.57
428.338	5145.34
433.105	8014.19
437.87	9796.75
442.632	8800.22
447.391	5793.85
452.149	3931.54
456.903	3909.98
461.655	6505.53
466.405	11226.1
471.152	13531.9
475.897	10345.3
480.639	6324.57
485.378	5543.17
490.116	5955.65
494.85	5150.19
499.582	3637.93
504.312	2238.98
509.039	2208.45
513.764	3551.86
518.486	7299.49
523.206	15556.6
527.923	28890.4
532.638	39048.6
537.35	35693.1
542.059	22759.3
546.766	12915.3
551.471	7173.44
556.173	4212.69
560.873	2638.08
565.57	1745.67
570.264	1299.98
574.957	744.447
579.646	423.711
584.333	97.5957
589.018	306.049
593.7	348.393
598.379	975.531
603.056	1502.44
607.73	1248.89
612.402	791.475
617.072	442.004
621.739	516.324
626.403	161.398
631.065	401.269
635.724	290.982
640.381	359.56
645.035	118.049
649.687	224.469
654.336	356.869
658.983	356.326
663.627	428.375
668.268	236.434
672.907	350.412
677.544	572.551
682.178	765.354
686.809	1164.27
691.438	1533.91
696.065	1518.67
700.688	1676.94
705.31	1634.38
709.929	1560.72
714.545	1482.75
719.158	1512.13
723.77	1041.58
728.378	1133.87
732.984	946.234
737.588	546.894
742.189	466.481
746.787	352.568
751.383	510.66
755.976	220.07
760.567	216.789
765.155	353.852
769.741	655.25
774.324	803.91
778.904	400.857
783.482	348.926
788.058	313.068
792.631	197.236
797.201	254.385
801.769	94.6055
806.334	21.1309
810.897	161.648
815.457	156.629
820.014	97.8496
824.569	175.01
829.122	145.969
833.671	64.2051
838.219	67.2617
842.763	105.338
847.306	120.85
851.845	79.7402
856.382	130.346
860.917	96.6348
865.448	81.3262
869.978	188.578
874.505	117.324
879.029	34.957
883.55	212.44
888.069	388.697
892.586	508.537
897.1	617.061
901.611	854.096
906.12	1270.45
910.626	2480.61
915.129	3300.41
919.63	3776.23
924.129	3998.7
928.625	4798.65
933.118	5175.04
937.609	5027.01
942.097	4203.02
946.582	4165.44
951.065	3905.25
955.546	3890.91
960.023	3730.86
964.499	3456.82
968.971	3633.18
973.441	3635.2
977.909	4738.93
982.374	5262.55
986.836	5584.01
991.295	4703.49
995.753	3766.8
1000.21	2830.95
1004.66	2331
1009.11	2237.24
1013.55	1742.85
1018	1533.31
1022.44	928.174
1026.88	396.9
1031.32	434.668
1035.75	457.957
1040.18	355.603
1044.61	426.549
1049.04	825.787
1053.46	1171.71
1057.88	1340.79
1062.3	1582.18
1066.71	1767.27
1071.13	2091.07
1075.54	2022.08
1079.94	1955.22
1084.35	1529.93
1088.75	1206.11
1093.15	829.949
1097.55	491.535
1101.94	337.275
1106.34	139.871
1110.73	31.4355
1115.11	221.719
1119.5	592.406
1123.88	461.935
1128.26	54.0605
1132.63	50.0059
1137.01	173.879
1141.38	185.67
1145.75	34.9375
1150.12	68.3535
1154.48	76.2207
1158.84	174.477
1163.2	75.5312
1167.55	212.691
1171.91	233.606
1176.26	315.148
1180.61	35.2773
1184.95	214.789
1189.29	78.1953
1193.63	76.6523
1197.97	276.215
1202.31	349.996
1206.64	244.039
1210.97	341.398
1215.29	377.144
1219.62	203.356
1223.94	578.031
1228.26	396.863
1232.57	572.043
1236.89	681.277
1241.2	527.789
1245.51	490.598
1249.81	767.477
1254.12	774.402
1258.42	460.32
1262.72	907.617
1267.01	604.477
1271.3	532.387
1275.59	820.449
1279.88	883.223
1284.17	550.34
1288.45	707.203
1292.73	855.031
1297.01	592.602
1301.28	908.613
1305.55	928.106
1309.82	657.363
1314.09	856.879
1318.35	842.484
1322.61	785.844
1326.87	767.879
1331.13	826.633
1335.38	1004.46
1339.63	858.113
1343.88	900.414
1348.12	908.727
1352.37	1001.35
1356.61	910.863
1360.85	743.93
1365.08	1038.7
1369.31	677.617
1373.54	899.793
1377.77	804.816
1381.99	881.613
1386.22	804.379
1390.43	882.672
1394.65	736.777
1398.87	603.785
1403.08	706.606
1407.29	573.227
1411.49	753.598
1415.69	429.688
1419.89	739.457
1424.09	674.098
1428.29	847.531
1432.48	844.91
1436.67	985.309
1440.86	1066.88
1445.04	853.086
1449.23	904.734
1453.4	910.5
1457.58	1047.94
1461.76	995.074
1465.93	596.992
1470.1	523.777
1474.26	487.477
1478.43	790.141
1482.59	496.84
1486.75	639.516
1490.9	654.074
1495.06	441.375
1499.21	638.184
1503.35	473.324
1507.5	173.402
1511.64	378.555
1515.78	189.637
1519.92	660.004
1524.05	151.793
1528.18	430.176
1532.31	476.352
1536.44	392.742
1540.56	96.2344
1544.69	61.2617
1548.8	129.023
1552.92	186.211
1557.03	41.0508
1561.14	106.777
1565.25	44.0625
1569.36	251.691
