Measurement: Raman, 514 nm, ccw, Raman Data Processed
Mineral: Thomsonite-Ca
Rruff sample: R050103
Ideal chemistry: NaCa_2_(Al_5_Si_5_)O_20_6H_2_O
Locality: Seeberg, Bohemia, Czech Republic
Source: Rock Currier
Description: Colorless prismatic crystals
Measured chemistry: Na_1.00_(Ca_0.92_Sr_0.08_)_2_(Al_5.00_Si_5.00_)O_20_Â·6H_2_O
Pin_id: M00072
Orientation: Laser parallel to a* (1 0 0). Fiducial mark perpendicular to laser is parallel to b [0 1 0]
Raman shift (cm-1)	intensity
93.48	0
98.416	1621.09
103.349	2305
108.28	4889.13
113.208	10334.9
118.134	14052.3
123.058	6327.03
127.979	2158.7
132.898	335.791
137.814	60.3242
142.728	224.268
147.639	239.746
152.549	230.951
157.455	1267
162.359	2627.61
167.261	5238.84
172.161	10016.1
177.058	14749.9
181.952	13781
186.845	9624.86
191.734	7838.48
196.622	6156.15
201.507	4105.58
206.389	3140.44
211.269	3721.39
216.147	4933.84
221.022	5283.34
225.895	3756.03
230.765	1919.08
235.633	567.275
240.498	88.1816
245.361	24.834
250.222	43.1934
255.08	142.291
259.936	87.6035
264.789	241.904
269.64	137.93
274.488	1260.67
279.334	139.023
284.178	299.002
289.019	693.184
293.857	1116.93
298.693	1342.17
303.527	809.178
308.358	431.207
313.187	121.893
318.013	113.555
322.837	22.3047
327.659	206.127
332.478	596.551
337.294	1220.96
342.108	1970.81
346.92	2463.86
351.729	1883.8
356.535	1020.41
361.34	464.471
366.141	312.156
370.94	618.346
375.737	896.033
380.531	703.859
385.323	447.606
390.113	666.254
394.9	896.85
399.684	667.607
404.466	635.316
409.245	700.053
414.022	995.494
418.797	1528.98
423.569	3062.08
428.338	5472.02
433.105	8929.62
437.87	11478.4
442.632	10806.5
447.391	7158.87
452.149	4658.99
456.903	4207.52
461.655	6691.25
466.405	12291
471.152	16376.7
475.897	12410.1
480.639	7318.12
485.378	6506.41
490.116	7237.99
494.85	7062.71
499.582	4767.02
504.312	3102.92
509.039	2752.44
513.764	4126.19
518.486	7156
523.206	14851.9
527.923	28274.4
532.638	41476
537.35	40024.2
542.059	26626
546.766	14973.8
551.471	8542.24
556.173	5379.72
560.873	3762.11
565.57	2740.3
570.264	2410.36
574.957	1586.2
579.646	1335.62
584.333	1132.3
589.018	745.736
593.7	715.451
598.379	1321.75
603.056	1357.99
607.73	777.635
612.402	320.992
617.072	55.3203
621.739	19.3301
626.403	214.168
631.065	219.295
635.724	212.484
640.381	112.717
645.035	157.353
649.687	72.0508
654.336	69.5019
658.983	109.904
663.627	184.693
668.268	146.941
672.907	575.471
677.544	693.352
682.178	901.285
686.809	1126.13
691.438	1766.78
696.065	1931.68
700.688	2045.38
705.31	2095.9
709.929	1671.72
714.545	1477.11
719.158	1431.84
723.77	1001.27
728.378	850.377
732.984	560.152
737.588	173.576
742.189	211.635
746.787	3.13867
751.383	151.621
755.976	174.539
760.567	116.908
765.155	869.894
769.741	1051.18
774.324	1112.42
778.904	779.242
783.482	428.981
788.058	185.574
792.631	130.023
797.201	51.0469
801.769	70.4785
806.334	71.0137
810.897	97.9453
815.457	182.934
820.014	144.764
824.569	35.5117
829.122	100.234
833.671	166.459
838.219	22.7676
842.763	40.5703
847.306	205.035
851.845	222.113
856.382	473.768
860.917	524.047
865.448	650.988
869.978	419.602
874.505	281.014
879.029	214.106
883.55	393.746
888.069	336.986
892.586	607.754
897.1	545.356
901.611	871.352
906.12	1275.16
910.626	1595.5
915.129	2358.32
919.63	3013.4
924.129	3973.46
928.625	4508.25
933.118	4772.07
937.609	4181.97
942.097	3219.43
946.582	2881.98
951.065	2427.42
955.546	2163.77
960.023	2122.65
964.499	2010.47
968.971	2197.43
973.441	2506.35
977.909	3428.25
982.374	4299.6
986.836	4904.3
991.295	4354.48
995.753	3556.8
1000.21	3200.19
1004.66	2273.34
1009.11	1880.7
1013.55	1945.33
1018	1722.5
1022.44	1392.1
1026.88	1002.92
1031.32	669.545
1035.75	548.654
1040.18	537.719
1044.61	468.551
1049.04	583.963
1053.46	996.459
1057.88	935.434
1062.3	964.959
1066.71	1206.81
1071.13	1298.76
1075.54	1948.25
1079.94	2223.65
1084.35	2213.07
1088.75	1714.13
1093.15	1111.99
1097.55	799.467
1101.94	483.279
1106.34	432.443
1110.73	382.797
1115.11	391.356
1119.5	169.16
1123.88	436.07
1128.26	56.9297
1132.63	74.0781
1137.01	55.9297
1141.38	127.894
1145.75	123.227
1150.12	94.3672
1154.48	70.1914
1158.84	101.922
1163.2	92.7344
1167.55	20.0156
1171.91	21.1914
1176.26	137.34
1180.61	109.559
1184.95	105.488
1189.29	2.64453
1193.63	34.8203
1197.97	69.7305
1202.31	361.219
1206.64	55.4062
1210.97	256.59
1215.29	386.305
1219.62	38.9023
1223.94	101.856
1228.26	326.269
1232.57	252.191
1236.89	237.523
1241.2	476.777
1245.51	140.883
1249.81	269.414
1254.12	327.266
1258.42	318.867
1262.72	316.863
1267.01	166.504
1271.3	460.594
1275.59	587.285
1279.88	75.082
1284.17	155.031
1288.45	203.621
1292.73	336.836
1297.01	97.4062
1301.28	346.25
1305.55	449.969
1309.82	330.852
1314.09	324.559
1318.35	471.144
1322.61	338.559
1326.87	439.348
1331.13	520.074
1335.38	156.535
1339.63	346.348
1343.88	3.53125
1348.12	184.109
1352.37	94.1758
1356.61	289.387
1360.85	192.812
1365.08	136.496
1369.31	10.8594
1373.54	36.1289
1377.77	290.566
1381.99	129.434
1386.22	88.1484
1390.43	261.93
1394.65	134.75
1398.87	32.0117
1403.08	65.4219
1407.29	304.762
1411.49	25.2656
1415.69	272.184
1419.89	213.394
1424.09	111.332
1428.29	157.801
1432.48	196.422
1436.67	539.324
1440.86	720.371
1445.04	814.644
1449.23	782.266
1453.4	640.375
1457.58	534.414
1461.76	542.789
1465.93	402.953
1470.1	202.359
1474.26	308.293
1478.43	550.582
1482.59	314.094
1486.75	394.777
1490.9	350.707
1495.06	172.43
1499.21	119.34
1503.35	106.922
1507.5	201.144
1511.64	132.484
1515.78	84.375
1519.92	468.144
1524.05	150.496
1528.18	146.441
1532.31	187.031
1536.44	496.945
1540.56	410.902
1544.69	190.926
1548.8	69.207
1552.92	187.894
1557.03	231.324
1561.14	396.957
1565.25	158.883
1569.36	109.578
