Measurement: Raman, 514 nm, ccw, Raman Data Processed
Mineral: Thomsonite-Ca
Rruff sample: R050091
Ideal chemistry: NaCa_2_(Al_5_Si_5_)O_20_6H_2_O
Locality: Amudikha River, near Mirny, Yakutia, Siberia, Russia
Source: Rock Currier
Description: Radial groups of colorless bladed crystals
Measured chemistry: (Na_0.94_[box]_0.06_)_Σ=1_(Ca_1.71_Na_0.29_)_Σ=2_(Si_5.35_Al_4.65_)O_20_·7.09H_2_O
Pin_id: M00227
Orientation: Laser parallel to c* (0 0 1). Fiducial mark perpendicular to laser is parallel to a [1 0 0]
Raman shift (cm-1)	intensity
54.966	0
59.164	39.16
63.36	76.463
67.554	1086.36
71.747	3829.68
75.937	7385.55
80.125	10102.6
84.311	10702.6
88.496	10167.6
92.678	10559.7
96.858	11513.6
101.036	12218.2
105.212	10915.1
109.387	11602.4
113.559	14136.3
117.729	16470
121.897	13128.6
126.063	8523.44
130.228	5460.52
134.39	3939.31
138.55	3518.98
142.709	3387.64
146.865	3045.07
151.019	2892.56
155.171	2878.72
159.322	3354.84
163.47	4347.22
167.617	6173.53
171.761	9495.56
175.904	14723.7
180.044	18012.1
184.183	15860.9
188.319	11788.4
192.454	9824.33
196.586	8838.25
200.717	6827.36
204.846	4994.6
208.972	4465.81
213.097	4611.87
217.22	5651.77
221.341	6587.75
225.46	6003.48
229.577	4280.56
233.692	2514.39
237.805	1408.32
241.916	798.18
246.025	440.134
250.132	264.605
254.237	385.133
258.34	353.357
262.442	30.992
266.541	189.231
270.639	260.764
274.734	278.913
278.828	152.927
282.919	68.761
287.009	82.729
291.097	292.57
295.183	762.698
299.266	1228.12
303.348	1122.83
307.428	764.859
311.507	276.234
315.583	242.031
319.657	358.277
323.729	294.673
327.8	150.867
331.868	85.481
335.935	381.485
339.999	924.927
344.062	1660.8
348.123	2375.04
352.182	2265.84
356.239	1457.2
360.294	741.244
364.347	385.699
368.398	192.558
372.448	297.813
376.495	674.453
380.54	643.472
384.584	432.906
388.626	366.068
392.666	469.954
396.704	745.406
400.74	635.338
404.774	582.69
408.806	695.414
412.836	1011.47
416.865	1533.84
420.891	2067.48
424.916	3010.39
428.939	4787.45
432.959	7295.91
436.978	10728.8
440.996	13759.8
445.011	12543.4
449.024	9343.21
453.036	6575.84
457.045	5147.72
461.053	5479.85
465.059	8131.23
469.063	13675.8
473.065	18850.2
477.065	15160.4
481.063	9748.89
485.06	7642.39
489.054	7794.14
493.047	8902.4
497.038	8547.08
501.027	6206.84
505.014	4261.16
508.999	3382.9
512.982	3470.09
516.964	4692.79
520.944	7313.95
524.921	12449.5
528.897	22665.5
532.871	38341.9
536.844	47062.4
540.814	41884.5
544.783	28138.7
548.749	17468.2
552.714	11067.8
556.677	7427.75
560.638	5372.88
564.597	4069.21
568.555	3284.74
572.511	2637.46
576.464	2141.37
580.416	1811.45
584.366	1318.72
588.315	1169.3
592.261	1182.49
596.206	1131.42
600.148	1321.01
604.089	1512.07
608.028	1448.39
611.965	850.854
615.901	433.449
619.834	295.175
623.766	173.027
627.696	82
631.624	90.934
635.551	98.843
639.475	138.327
643.398	99.86
647.318	91.751
651.237	15.643
655.155	57.05
659.07	29.992
662.984	277.21
666.895	435.545
670.805	561.24
674.713	687.481
678.62	927.082
682.524	1063.07
686.427	1464.88
690.328	1686.48
694.227	2069.07
698.124	2299.02
702.02	2426.94
705.913	2129.68
709.805	2103.88
713.695	1841.78
717.584	1871.84
721.47	1693.82
725.355	1372.72
729.238	1242.54
733.119	1011.28
736.998	719.922
740.876	567.473
744.752	391.926
748.626	366.273
752.498	347.501
756.368	358.602
760.237	376.564
764.104	592.384
767.969	872.055
771.832	1349.58
775.693	1425.95
779.553	1085.16
783.411	815.222
787.267	591.974
791.122	459.868
794.974	299.627
798.825	193.51
802.674	130.498
806.522	91.374
810.367	1.424
814.211	30.156
818.053	39.435
821.893	14.687
825.732	22.731
829.568	22.751
833.403	8.248
837.236	44.166
841.068	54.481
844.898	52.881
848.726	98.08
852.552	120.114
856.376	53.007
860.199	182.778
864.02	252.436
867.839	121.966
871.656	199.404
875.472	179.732
879.286	214.926
883.098	377.009
886.909	462.024
890.717	567.915
894.524	594.687
898.33	649.341
902.133	899.887
905.935	1267.32
909.735	1757.64
913.533	2351.86
917.33	2962.97
921.124	3736.99
924.918	4547.92
928.709	5083.76
932.499	5154.57
936.286	4817.28
940.073	4399.93
943.857	3756.65
947.64	3326.77
951.421	3011.7
955.2	2764.59
958.978	2697.51
962.753	2721.03
966.527	2687.35
970.3	2615.51
974.071	2822.26
977.84	3439.43
981.607	4327.13
985.372	5384.37
989.136	5547.53
992.898	5099.78
996.659	4408.78
1000.42	3807.72
1004.17	3090.98
1007.93	2677.41
1011.68	2513.75
1015.43	2394.92
1019.18	2350.55
1022.93	1936.31
1026.68	1630.91
1030.42	1202.75
1034.17	997.255
1037.91	927.912
1041.65	966.872
1045.39	965.678
1049.12	996.438
1052.86	988.765
1056.59	1189.7
1060.33	1391.82
1064.06	1599.75
1067.78	1653.05
1071.51	1814.56
1075.23	2024.6
1078.96	2225.32
1082.68	2324.61
1086.4	2201.45
1090.12	1906.13
1093.83	1573.11
1097.55	1203.97
1101.26	949.118
1104.97	810.185
1108.68	567.116
1112.39	441.873
1116.1	324.143
1119.8	242.3
1123.5	341.669
1127.2	226.694
1130.9	93.018
1134.6	91.001
1138.3	119.016
1141.99	8.463
1145.69	22.762
1149.38	11.559
1153.07	33.523
1156.76	30.929
1160.44	2.168
1164.13	22.589
1167.81	103.879
1171.49	71.954
1175.17	36.973
1178.85	34.817
1182.52	12.154
1186.2	103.803
1189.87	1.455
1193.54	76.672
1197.21	22.051
1200.88	21.208
1204.55	85.167
1208.21	116.76
1211.88	58.268
1215.54	33.753
1219.2	26.037
1222.86	47.857
1226.51	31.299
1230.17	52.72
1233.82	30.105
1237.47	61.101
1241.12	108.1
1244.77	111.12
1248.42	72.889
1252.06	104.544
1255.71	61.249
1259.35	17.488
1262.99	15.316
1266.63	62.76
1270.26	25.327
1273.9	45.597
1277.53	47.656
1281.16	151.536
1284.8	82.907
1288.42	59.1
1292.05	10.908
1295.68	91.511
1299.3	77.322
1302.92	11.769
1306.55	36.063
1310.16	107.521
1313.78	94.978
1317.4	87.566
1321.01	102.99
1324.62	37.118
1328.24	119.612
1331.85	50.552
1335.45	7.365
1339.06	4.536
1342.66	114.148
1346.27	89.421
1349.87	91.612
1353.47	167.241
1357.07	168.753
1360.66	93.713
1364.26	92.564
1367.85	129.03
1371.44	50.555
1375.04	72.124
1378.62	5.536
1382.21	191.049
1385.8	173.334
1389.38	105.613
1392.96	109.727
1396.54	150.218
1400.12	108.667
1403.7	162.75
1407.28	28.215
1410.85	168.69
1414.42	125.092
1417.99	127.303
1421.56	153.152
1425.13	77.387
1428.7	138.831
1432.26	107.799
1435.83	117.552
1439.39	209.952
1442.95	275.811
1446.51	359.879
1450.06	293.228
1453.62	434.643
1457.17	309.267
1460.73	388.518
1464.28	177.472
1467.83	148.221
1471.37	118.902
1474.92	137.38
1478.46	216.329
1482.01	146.169
1485.55	105.909
1489.09	67.767
1492.63	121.964
1496.16	148.558
1499.7	33.738
1503.23	17.44
1506.76	141.289
1510.29	112.577
1513.82	74.335
1517.35	2.488
1520.88	38.439
1524.4	19.596
