Measurement: Raman, 514 nm, ccw, Raman Data Processed
Mineral: Thomsonite-Ca
Rruff sample: R050091
Ideal chemistry: NaCa_2_(Al_5_Si_5_)O_20_6H_2_O
Locality: Amudikha River, near Mirny, Yakutia, Siberia, Russia
Source: Rock Currier
Description: Radial groups of colorless bladed crystals
Measured chemistry: (Na_0.94_[box]_0.06_)_Σ=1_(Ca_1.71_Na_0.29_)_Σ=2_(Si_5.35_Al_4.65_)O_20_·7.09H_2_O
Pin_id: L00456
Orientation: Laser parallel to a* (1 0 0). Fiducial mark perpendicular to laser is parallel to b [0 1 0]
Raman shift (cm-1)	intensity
137.584	0
141.74	69.364
145.893	1231.58
150.044	3114.45
154.193	4983.08
158.341	6213.14
162.486	5888.54
166.63	4154.76
170.771	3371.09
174.911	4124.21
179.049	5571.85
183.184	4362.48
187.318	2577.7
191.45	2100.41
195.58	2155.88
199.708	2389.06
203.834	2571.92
207.958	2433.9
212.081	1853.13
216.201	1612.91
220.32	1807.81
224.436	1523.43
228.551	810.151
232.663	279.92
236.774	77.539
240.883	295.03
244.99	566.716
249.095	79.99
253.198	21.997
257.299	118.954
261.399	227.07
265.496	288.538
269.592	262.448
273.685	178.735
277.777	33.748
281.867	367.1
285.955	825.222
290.041	1388.11
294.125	1735.63
298.207	1871.42
302.288	1731.56
306.366	1583.24
310.443	1211.97
314.517	818.042
318.59	724.027
322.661	824.047
326.73	1057.73
330.797	1389.79
334.863	1608.87
338.926	2091.45
342.988	2491.97
347.047	2721.96
351.105	2173.82
355.161	1430.94
359.215	967.227
363.267	636.656
367.317	405.961
371.366	327.256
375.412	506.853
379.457	694.35
383.5	649.866
387.541	798.389
391.58	1304.24
395.617	1593.18
399.652	1302.91
403.686	631.834
407.717	443.36
411.747	498.028
415.775	671.004
419.801	798.269
423.825	1048.94
427.848	1495.92
431.868	2020.01
435.887	3039.51
439.904	4338.83
443.918	4652.94
447.932	3333.45
451.943	1972.82
455.952	1117.53
459.96	1000.51
463.966	1477.67
467.969	2641.55
471.972	4321.01
475.972	3931.87
479.97	2371.36
483.967	1679.49
487.961	1658.29
491.954	2170.55
495.945	2290.55
499.935	1691.48
503.922	1048.81
507.908	747.679
511.891	1040.58
515.873	1652.39
519.853	2570.53
523.832	4607.93
527.808	9042.83
531.783	16795
535.756	22549.1
539.727	19876.5
543.696	13254.3
547.663	8113.23
551.629	4998.96
555.592	3103.99
559.554	2070.59
563.514	1557.7
567.473	1112.41
571.429	805.851
575.384	583.881
579.337	437.406
583.288	330.898
587.237	297.662
591.185	170.617
595.13	132.377
599.074	160.267
603.016	353.794
606.957	328
610.895	177.288
614.832	60.74
618.767	25.352
622.7	94.118
626.631	55.036
630.561	18.109
634.489	37.058
638.415	8.767
642.339	29.707
646.261	44.226
650.182	32.159
654.101	53.56
658.018	92.708
661.933	26.174
665.847	43.321
669.758	79.235
673.668	59.987
677.577	30.823
681.483	104.575
685.388	97.811
689.29	131.58
693.192	345.198
697.091	426.681
700.988	519.206
704.884	503.593
708.778	442.099
712.67	418.388
716.561	425.589
720.45	510.471
724.337	456.496
728.222	278.689
732.105	198.55
735.987	108.327
739.867	137.856
743.745	86.295
747.622	6.65
751.496	24.105
755.369	0.024
759.241	65.891
763.11	125.664
766.978	199.307
770.844	299.817
774.708	387.174
778.57	335.403
782.431	264.483
786.29	161.411
790.147	130.182
794.003	65.79
797.857	84.224
801.709	128.436
805.559	25.171
809.407	28.449
813.254	45.207
817.099	11.069
820.943	37.062
824.784	7.361
828.624	21.571
832.462	43.961
836.299	34.546
840.134	44.542
843.967	38.947
847.798	46.017
851.628	11.717
855.455	50.041
859.281	32.081
863.106	57.864
866.929	101.39
870.75	140.634
874.569	109.614
878.386	86.351
882.202	103.856
886.016	163.142
889.829	237.214
893.639	252.063
897.448	230.695
901.256	266.893
905.061	366.267
908.865	520.706
912.667	742.683
916.468	892.208
920.267	1111.63
924.064	1299.86
927.859	1525.9
931.653	1641.74
935.445	1701.38
939.235	1647.83
943.024	1423.08
946.811	1303.95
950.596	1239.54
954.379	1294.63
958.161	1405.34
961.941	1591.09
965.72	1617.6
969.496	1616.54
973.272	1749.33
977.045	2064.37
980.817	2645.77
984.587	3118.91
988.355	3438.14
992.122	3188.39
995.887	2885.37
999.65	2399.28
1003.41	2078.91
1007.17	1762.16
1010.93	1560.65
1014.69	1462.63
1018.44	1320.31
1022.2	1166.85
1025.95	1101.3
1029.7	904.627
1033.44	858.977
1037.19	810.079
1040.94	670.688
1044.68	718.521
1048.42	857.747
1052.16	1072.61
1055.9	1248.64
1059.64	1484.39
1063.37	1653.38
1067.1	1779.95
1070.84	1816.78
1074.57	1816.93
1078.29	1819.71
1082.02	1701.37
1085.75	1491.14
1089.47	1142.88
1093.19	873.618
1096.91	676.611
1100.63	549.287
1104.35	416.879
1108.06	428.219
1111.78	270.973
1115.49	225.859
1119.2	159.165
1122.91	121.19
1126.61	134.577
1130.32	60.389
1134.02	83.512
1137.72	121.984
1141.42	101.181
1145.12	68.01
1148.82	35.827
1152.52	15.164
1156.21	26.546
1159.9	69.285
1163.59	66.722
1167.28	84.306
1170.97	49.961
1174.65	37.802
1178.34	25.228
1182.02	28.864
1185.7	28.593
1189.38	62.341
1193.06	23.64
1196.73	55.267
1200.41	73.378
1204.08	63.335
1207.75	49.453
1211.42	34.039
1215.09	25.109
1218.76	7.594
1222.42	46.543
1226.08	61.68
1229.75	26.144
1233.41	40.519
1237.06	15.664
1240.72	22.311
1244.38	56.383
1248.03	50.921
1251.68	51.62
1255.33	93.269
1258.98	107.851
1262.63	59.279
1266.27	54.628
1269.92	16.277
1273.56	1.695
1277.2	16.02
1280.84	19.015
1284.47	89.931
1288.11	108.812
1291.74	49.515
1295.38	46.14
1299.01	55.97
1302.64	48.328
1306.27	27.302
1309.89	5.534
1313.52	43.405
1317.14	54.244
1320.76	98.098
1324.38	94.851
1328	23.389
1331.62	8.782
1335.23	18.677
1338.85	9.901
1342.46	40.924
1346.07	76.263
1349.68	72.797
1353.29	90.767
1356.89	105.643
1360.49	118.332
1364.1	109.76
1367.7	7.936
1371.3	13.847
1374.9	6.275
1378.49	5.669
1382.09	19.327
1385.68	72.303
1389.27	73.546
1392.86	138.938
1396.45	110.446
1400.04	129.141
1403.62	94.592
1407.21	70.148
1410.79	13.411
1414.37	23.858
1417.95	23.08
1421.53	85.882
1425.1	155.136
1428.68	84.977
1432.25	149.923
1435.82	147.335
1439.39	128.305
1442.96	98.512
1446.53	52.83
1450.09	46.15
1453.66	49.847
1457.22	97.521
1460.78	101.641
1464.34	148.191
1467.89	123.151
1471.45	167.619
1475.01	169.172
1478.56	131.908
1482.11	115.945
1485.66	82.936
1489.21	57.172
1492.75	9.328
1496.3	48.221
1499.84	57.834
1503.38	140.76
1506.93	100.555
1510.46	84.695
1514	120.145
1517.54	162.55
1521.07	126.731
1524.61	0
