Measurement: Raman, 514 nm, ccw, Raman Data Processed
Mineral: Thomsonite-Ca
Rruff sample: R050103
Ideal chemistry: NaCa_2_(Al_5_Si_5_)O_20_6H_2_O
Locality: Seeberg, Bohemia, Czech Republic
Source: Rock Currier
Description: Colorless prismatic crystals
Measured chemistry: Na_1.00_(Ca_0.92_Sr_0.08_)_2_(Al_5.00_Si_5.00_)O_20_Â·6H_2_O
Pin_id: L00148
Orientation: Laser parallel to -b* (0 -1 0). Fiducial mark perpendicular to laser is parallel to -c [0 0 -1]
Raman shift (cm-1)	intensity
120.508	0
124.675	472.969
128.84	1158.19
133.003	578.948
137.164	0.327
141.323	53.398
145.48	458.507
149.635	736.461
153.788	1349.28
157.939	2370.83
162.088	3297.38
166.235	5234.31
170.38	8112.86
174.523	13199.5
178.664	18746.4
182.803	18588.7
186.94	11865.7
191.076	6763.11
195.209	4758.06
199.34	3641.97
203.47	2599.25
207.597	2406.82
211.722	3423.63
215.846	5787.26
219.967	8542.34
224.087	7982.19
228.204	5092.55
232.32	3026.21
236.434	1581.04
240.545	733.937
244.655	540.814
248.763	601.432
252.869	1074.57
256.973	2397.44
261.075	3107.42
265.175	1480.11
269.273	492.543
273.369	97.943
277.463	62.077
281.556	18.298
285.646	198.557
289.734	149.147
293.821	150.228
297.905	143.8
301.988	132.411
306.069	155.457
310.147	246.873
314.224	423.606
318.299	714.654
322.372	1130.05
326.443	1452.79
330.512	1571.6
334.579	1844.34
338.645	2748.14
342.708	3353.14
346.769	2828.44
350.829	2238.12
354.887	2288.34
358.942	2528.12
362.996	3024.16
367.048	2541.31
371.098	1502.91
375.146	1316.86
379.192	1266.96
383.236	683.911
387.279	475.87
391.319	269.83
395.358	110.779
399.394	58.289
403.429	38.445
407.462	52.134
411.493	193.24
415.522	281.793
419.549	796.506
423.575	1537.2
427.598	2440.75
431.619	3751.86
435.639	5448.8
439.657	7918.08
443.673	8869.23
447.687	7231.4
451.699	4998.39
455.709	3572.23
459.717	3157.9
463.724	3639.66
467.728	5911.38
471.731	10729.9
475.732	12210.7
479.731	7734.12
483.728	4708.14
487.723	3752.26
491.716	3426.55
495.708	3251.08
499.697	2585.91
503.685	2021.03
507.671	2019.79
511.655	2069.45
515.637	2659.51
519.617	3925.71
523.596	6622.09
527.572	12158.6
531.547	22145.4
535.52	33322.3
539.491	33019.5
543.46	24026.9
547.427	15624.5
551.393	9621.41
555.356	6347.79
559.318	4401.17
563.278	3252.35
567.236	2517.87
571.192	1892.52
575.147	1454.2
579.099	1042.77
583.05	901.575
586.999	639.628
590.946	346.928
594.891	580.518
598.834	864.519
602.776	1504.12
606.715	1956.45
610.653	1739.6
614.589	1038.74
618.523	721.111
622.456	483.846
626.386	524.29
630.315	389.992
634.242	294.097
638.167	291.192
642.09	209.315
646.012	221.36
649.931	254.01
653.849	341.904
657.765	166.753
661.679	45.649
665.592	120.386
669.502	84.901
673.411	173.187
677.318	173.186
681.223	131.022
685.126	169.729
689.028	448.597
692.927	495.561
696.825	709.621
700.721	661.771
704.616	742.008
708.508	854.335
712.399	852.756
716.288	845.289
720.175	948.994
724.06	793.837
727.944	831.808
731.825	711.843
735.705	632.922
739.584	407.041
743.46	383.194
747.334	257.377
751.207	317.581
755.078	292.802
758.947	205.03
762.815	55.252
766.68	25.458
770.544	71.635
774.406	37.26
778.267	40.611
782.125	12.883
785.982	3.354
789.837	5.425
793.69	80.258
797.542	39.784
801.391	2.006
805.239	143.174
809.085	83.913
812.93	37.777
816.772	25.01
820.613	68.317
824.452	76.129
828.29	52.832
832.125	14.409
835.959	79.79
839.791	182.821
843.621	184.759
847.45	164.694
851.277	157.573
855.102	254.33
858.925	595.024
862.746	614.602
866.566	381.099
870.384	341.553
874.2	183.886
878.015	292.084
881.828	381.145
885.639	336.064
889.448	266.881
893.256	291.568
897.061	287.116
900.865	413.538
904.668	390.84
908.468	622.025
912.267	684.078
916.064	755.989
919.86	767.778
923.653	879.423
927.445	1096.23
931.236	1371.21
935.024	1640.9
938.811	1888.71
942.596	2095.51
946.379	2450.25
950.161	2605.21
953.94	2614.97
957.719	2665.44
961.495	2820.53
965.27	2908.03
969.043	3183.31
972.814	3418.5
976.583	3512.26
980.351	3705.38
984.117	4252.85
987.882	4521.41
991.644	4523.17
995.405	4117.05
999.165	3558.99
1002.92	3279.59
1006.68	2404.79
1010.43	1815.56
1014.18	1776.36
1017.93	1665.89
1021.68	1567.46
1025.43	1247.69
1029.18	757.972
1032.92	608.037
1036.66	320.375
1040.4	421.648
1044.14	401.607
1047.88	572.486
1051.62	653.339
1055.35	575.368
1059.08	767.265
1062.81	957.633
1066.54	1119.16
1070.27	1398.88
1073.99	1409.03
1077.72	1459.23
1081.44	1369.08
1085.16	1139.21
1088.88	979.258
1092.59	869.508
1096.31	629.714
1100.02	519.935
1103.73	530.268
1107.44	460.753
1111.15	261.428
1114.86	152.444
1118.57	153.556
1122.27	234.743
1125.97	216.141
1129.67	237.63
1133.37	129.138
1137.07	190.784
1140.76	92.217
1144.45	166.466
1148.15	5.456
1151.84	75.634
1155.53	132.893
1159.21	67.59
1162.9	99.861
1166.58	20.404
1170.26	130.827
1173.94	21.179
1177.62	121.489
1181.3	181.764
1184.97	172.004
1188.65	142.529
1192.32	23.27
1195.99	0.938
1199.66	18.672
1203.33	18.591
1206.99	42.633
1210.65	93.1
1214.32	163.127
1217.98	213.651
1221.64	197.718
1225.29	178.021
1228.95	224.144
1232.6	128.076
1236.26	87.491
1239.91	266.689
1243.56	345.606
1247.2	364.366
1250.85	342.979
1254.49	251.177
1258.13	99.385
1261.78	117.314
1265.41	234.835
1269.05	243.327
1272.69	340.398
1276.32	457.185
1279.95	443.562
1283.59	217.645
1287.21	164.736
1290.84	203.54
1294.47	87.79
1298.09	74.732
1301.72	94.767
1305.34	204.484
1308.96	259.403
1312.58	446.351
1316.19	409.997
1319.81	298.099
1323.42	393.912
1327.03	171.726
1330.64	109.772
1334.25	57.578
1337.86	75.409
1341.46	153.232
1345.07	230.566
1348.67	188.216
1352.27	385.819
1355.87	113.201
1359.46	41.261
1363.06	43.986
1366.65	73.368
1370.25	56.87
1373.84	114.423
1377.43	361.989
1381.02	357.144
1384.6	397.249
1388.18	445.274
1391.77	145.247
1395.35	142.943
1398.93	36.198
1402.51	37.042
1406.08	150.426
1409.66	123.487
1413.23	295.979
1416.8	389.988
1420.37	207.168
1423.94	223.932
