Measurement: Raman, 514 nm, ccw, Raman Data Processed
Mineral: Thomsonite-Ca
Rruff sample: R050103
Ideal chemistry: NaCa_2_(Al_5_Si_5_)O_20_6H_2_O
Locality: Seeberg, Bohemia, Czech Republic
Source: Rock Currier
Description: Colorless prismatic crystals
Measured chemistry: Na_1.00_(Ca_0.92_Sr_0.08_)_2_(Al_5.00_Si_5.00_)O_20_Â·6H_2_O
Pin_id: M00072
Orientation: Laser parallel to a* (1 0 0). Fiducial mark perpendicular to laser is parallel to b [0 1 0]
Raman shift (cm-1)	intensity
93.48	0
98.416	708.549
103.349	1638.73
108.28	4638.56
113.208	7736.16
118.134	8817.88
123.058	3809.43
127.979	740.984
132.898	339.525
137.814	1391.04
142.728	3693.73
147.639	7369.05
152.549	11199.3
157.455	13819.2
162.359	13072
167.261	10777.4
172.161	10052
177.058	10815.5
181.952	9087.41
186.845	5875.01
191.734	4675.91
196.622	5091.81
201.507	4714.82
206.389	3373.17
211.269	2483.82
216.147	2203.59
221.022	1867.33
225.895	985.15
230.765	25.8008
235.633	201.305
240.498	530.598
245.361	375.674
250.222	266.334
255.08	95.5879
259.936	547.072
264.789	294.625
269.64	142.443
274.488	481.158
279.334	1234.58
284.178	2462.35
289.019	3487.56
293.857	3922.61
298.693	3743.53
303.527	3594.15
308.358	2594.21
313.187	1969.93
318.013	1864.58
322.837	2371.17
327.659	2800.07
332.478	3331.43
337.294	4172.38
342.108	4473.2
346.92	4130.89
351.729	2691.45
356.535	1313.91
361.34	533.236
366.141	343.191
370.94	467.537
375.737	753.244
380.531	844.252
385.323	1301.12
390.113	2116.15
394.9	1941.04
399.684	854.328
404.466	126.217
409.245	102.193
414.022	188.295
418.797	794.314
423.569	1224.58
428.338	2578.57
433.105	4430.6
437.87	6354.75
442.632	6170.11
447.391	3597.77
452.149	1683.79
456.903	1006.02
461.655	1772.14
466.405	3929.01
471.152	5729.84
475.897	4267.85
480.639	2453.14
485.378	2155.69
490.116	2626.52
494.85	2672.68
499.582	1675.33
504.312	986.459
509.039	1233.09
513.764	2355.42
518.486	5357.54
523.206	11610.9
527.923	22732.9
532.638	33960.3
537.35	32295.2
542.059	20632.6
546.766	11228.6
551.471	5983.66
556.173	3502.4
560.873	1998.31
565.57	1340.39
570.264	1029.73
574.957	532.332
579.646	438.223
584.333	314.434
589.018	280.996
593.7	168.943
598.379	370.273
603.056	335.258
607.73	162.506
612.402	225.594
617.072	155.481
621.739	347.951
626.403	462.644
631.065	474.879
635.724	182.562
640.381	419.01
645.035	504.065
649.687	414.17
654.336	383.443
658.983	10.8574
663.627	0.654297
668.268	16.5312
672.907	10.7695
677.544	73.1133
682.178	243.029
686.809	157.203
691.438	245.701
696.065	584.363
700.688	656.172
705.31	715.252
709.929	703.623
714.545	504.672
719.158	627.109
723.77	417.578
728.378	562.254
732.984	443.293
737.588	348.287
742.189	142.641
746.787	298.869
751.383	193.131
755.976	193.59
760.567	258.029
765.155	409.738
769.741	516.459
774.324	638.234
778.904	537.111
783.482	192.074
788.058	186.102
792.631	238.172
797.201	15.2578
801.769	110.273
806.334	59.1777
810.897	27.3262
815.457	186.022
820.014	69.2305
824.569	44.1562
829.122	106.385
833.671	29.5566
838.219	83.9512
842.763	58.123
847.306	98.1777
851.845	69.1289
856.382	186.93
860.917	518.568
865.448	267.131
869.978	154.684
874.505	160.519
879.029	194.705
883.55	162.861
888.069	49.1406
892.586	353.67
897.1	237.754
901.611	159.541
906.12	524.262
910.626	692.445
915.129	1074.49
919.63	1311.87
924.129	1914.02
928.625	2427.9
933.118	2469.13
937.609	2310.77
942.097	1955.06
946.582	1849.87
951.065	1790.98
955.546	1838.34
960.023	2133.66
964.499	2121.1
968.971	2465.19
973.441	2652
977.909	3277.27
982.374	4448.35
986.836	5403.31
991.295	5085.16
995.753	4066.89
1000.21	3411.28
1004.66	2208.99
1009.11	1849.98
1013.55	2115.47
1018	1812.57
1022.44	1530.98
1026.88	1377.8
1031.32	1023.51
1035.75	621.887
1040.18	758.049
1044.61	846.769
1049.04	1351.24
1053.46	1870.17
1057.88	2378.47
1062.3	2640.88
1066.71	2875.19
1071.13	3022.81
1075.54	2548.47
1079.94	2723.72
1084.35	2002.07
1088.75	1672.01
1093.15	1192.51
1097.55	851.621
1101.94	627.031
1106.34	412.022
1110.73	363.113
1115.11	367.232
1119.5	421.383
1123.88	370.643
1128.26	218.148
1132.63	227.453
1137.01	95.6016
1141.38	165.828
1145.75	58.3125
1150.12	38.8906
1154.48	34.9453
1158.84	75.293
1163.2	47.8438
1167.55	49.375
1171.91	88.1133
1176.26	133.336
1180.61	276.394
1184.95	282.383
1189.29	105.414
1193.63	166.5
1197.97	31.7148
1202.31	317.043
1206.64	152.441
1210.97	382.047
1215.29	166.934
1219.62	15.9023
1223.94	138.484
1228.26	340.144
1232.57	232.141
1236.89	384.902
1241.2	477.207
1245.51	469.199
1249.81	447.773
1254.12	478.18
1258.42	157.32
1262.72	474.523
1267.01	551.961
1271.3	633.688
1275.59	459.731
1279.88	167.035
1284.17	224.469
1288.45	84.2969
1292.73	465.406
1297.01	321.16
1301.28	338.625
1305.55	350.191
1309.82	533.652
1314.09	726.426
1318.35	594.324
1322.61	449.531
1326.87	431.82
1331.13	535.961
1335.38	51.625
1339.63	283.312
1343.88	514.117
1348.12	518.644
1352.37	192.047
1356.61	305.742
1360.85	412.949
1365.08	45.2539
1369.31	468.848
1373.54	635.766
1377.77	405.211
1381.99	674.051
1386.22	310.769
1390.43	377.195
1394.65	381.301
1398.87	259.652
1403.08	457.012
1407.29	177.133
1411.49	140.289
1415.69	375.207
1419.89	336.418
1424.09	336.762
1428.29	270.234
1432.48	469.555
1436.67	897.59
1440.86	953.168
1445.04	1261.09
1449.23	1081.5
1453.4	935.703
1457.58	1350.79
1461.76	987.695
1465.93	714.539
1470.1	510.285
1474.26	400.965
1478.43	621.613
1482.59	283.312
1486.75	589.332
1490.9	300.816
1495.06	337.5
1499.21	441.938
1503.35	143.062
1507.5	113.461
1511.64	172.606
1515.78	257.352
1519.92	260.781
1524.05	290.039
1528.18	124.109
1532.31	226.215
1536.44	403.949
1540.56	14.7852
1544.69	33.957
1548.8	351.356
1552.92	520.051
1557.03	455.75
1561.14	218.09
1565.25	605.539
1569.36	1.42969
