Measurement: Raman, 514 nm, ccw, Raman Data Processed
Mineral: Thomsonite-Ca
Rruff sample: R050103
Ideal chemistry: NaCa_2_(Al_5_Si_5_)O_20_6H_2_O
Locality: Seeberg, Bohemia, Czech Republic
Source: Rock Currier
Description: Colorless prismatic crystals
Measured chemistry: Na_1.00_(Ca_0.92_Sr_0.08_)_2_(Al_5.00_Si_5.00_)O_20_Â·6H_2_O
Pin_id: L00148
Orientation: Laser parallel to -b* (0 -1 0). Fiducial mark perpendicular to laser is parallel to -c [0 0 -1]
Raman shift (cm-1)	intensity
139.937	0
144.094	9.544
148.25	507.809
152.403	1576.53
156.555	2490.24
160.705	3058.15
164.853	3748.54
168.998	4717.02
173.142	5045.3
177.284	7128.34
181.424	8402.68
185.562	6438.51
189.698	4086.64
193.831	3225.63
197.963	3263.33
202.093	2769.55
206.221	1433.41
210.347	1083.99
214.472	1586.72
218.594	2370.12
222.714	2610.59
226.832	1681.99
230.948	775.349
235.063	342.504
239.175	147.872
243.286	64.142
247.394	8.602
251.501	154.394
255.605	523.562
259.708	1030.78
263.808	909.799
267.907	538.599
272.004	65.587
276.099	11.641
280.192	56.381
284.283	140.914
288.372	81.377
292.459	124.291
296.544	252.73
300.627	620.035
304.709	1154.71
308.788	1584.01
312.865	1157.04
316.941	1161.24
321.015	1395.62
325.086	1669.72
329.156	1563.15
333.224	1555.47
337.29	2116.55
341.354	2386.48
345.416	2555.22
349.476	1812.96
353.534	1759.58
357.591	1363.1
361.645	1064.5
365.698	855.726
369.748	706.744
373.797	646.374
377.844	703.362
381.889	789.033
385.932	1004.7
389.973	1290.43
394.012	1056.21
398.049	501.336
402.084	374.581
406.118	115.338
410.15	117.679
414.179	84.475
418.207	170.136
422.233	535.289
426.257	880.415
430.279	1315.52
434.299	2316.59
438.318	3600.2
442.334	4856.76
446.349	4481.03
450.361	3045.45
454.372	1855.52
458.381	1255.34
462.388	1030.18
466.394	1495.22
470.397	2790.19
474.398	3685
478.398	2740.2
482.396	1759.08
486.391	1543.46
490.385	1507.94
494.377	1371.84
498.368	1217.83
502.356	1086.23
506.342	1111.01
510.327	1120.54
514.31	1397.52
518.291	2272.38
522.27	3701.9
526.247	6384.02
530.222	11764.7
534.196	19018.7
538.167	22882.7
542.137	17186.4
546.105	10840.1
550.071	6733.77
554.035	4447.45
557.998	3161.12
561.958	2234.46
565.917	1404.84
569.874	959.846
573.829	1024.29
577.782	938.073
581.733	603.406
585.683	368.737
589.63	274.094
593.576	629.463
597.52	455.019
601.462	411.037
605.402	527.661
609.341	674.817
613.277	602.303
617.212	319.879
621.145	187.443
625.076	184.982
629.006	322.495
632.933	229.981
636.859	137.427
640.783	181.194
644.705	16.051
648.625	273.12
652.543	243.96
656.46	196.998
660.375	135.625
664.288	89.123
668.199	122.017
672.108	67.01
676.016	49.062
679.921	119.414
683.825	65.353
687.727	272.218
691.628	299.761
695.526	289.998
699.423	388.561
703.318	482.654
707.211	546.687
711.102	820.653
714.992	614.556
718.879	419.934
722.765	673.744
726.649	953.369
730.532	1050.62
734.412	814.767
738.291	669.532
742.168	635.774
746.043	749.49
749.916	973.137
753.788	776.812
757.658	590.225
761.526	573.525
765.392	666.707
769.257	849.763
773.119	712.688
776.98	305.484
780.839	258.149
784.697	340.683
788.552	403.085
792.406	364.775
796.258	222.3
800.108	153.939
803.957	125.562
807.804	197.161
811.649	276.297
815.492	274.684
819.333	42.735
823.173	102.871
827.011	93.798
830.847	129.202
834.681	298.155
838.514	37.8
842.345	40.136
846.174	18.73
850.001	247.518
853.827	436.617
857.651	375.614
861.473	214.565
865.293	133.494
869.112	192.376
872.928	371.176
876.744	400.023
880.557	198.712
884.369	117.217
888.178	4.371
891.987	153.96
895.793	502.253
899.598	510.475
903.401	378.633
907.202	206.932
911.001	135.199
914.799	403.458
918.595	741.655
922.389	629.79
926.182	617.86
929.972	605.866
933.761	833.816
937.549	1081.71
941.334	1419.56
945.118	1497.36
948.9	1551.16
952.681	1408.69
956.459	1456.31
960.236	1950.44
964.012	2282.06
967.785	2609.38
971.557	2332.36
975.327	2262.41
979.095	2250.05
982.862	2660.48
986.627	3586.95
990.39	3912.91
994.152	3744.89
997.912	2873.82
1001.67	2456.02
1005.43	1875.88
1009.18	1594.99
1012.93	1926.21
1016.68	1579.49
1020.43	1518.55
1024.18	1137.02
1027.93	1036.65
1031.67	899.785
1035.42	865.371
1039.16	923.711
1042.9	904.346
1046.63	997.26
1050.37	786.156
1054.11	861.227
1057.84	1190.29
1061.57	1684.98
1065.3	2093.8
1069.03	2222.17
1072.75	2020.29
1076.47	1838.29
1080.2	1526.78
1083.92	1605.36
1087.64	1653.61
1091.36	1371.62
1095.07	1009.65
1098.79	797.758
1102.5	346.119
1106.21	594.256
1109.92	572.24
1113.62	610.074
1117.33	547.949
1121.04	445.582
1124.74	333.107
1128.44	10.537
1132.14	192.084
1135.83	38.014
1139.53	295.863
1143.22	484.23
1146.92	510.945
1150.61	427.336
1154.3	94.014
1157.98	29.283
1161.67	52.754
1165.35	253.15
1169.04	308.939
1172.72	514.695
1176.4	510.152
1180.07	185.725
1183.75	1.205
1187.42	23.646
1191.1	75.275
1194.77	130.213
1198.44	155.918
1202.1	511.201
1205.77	506.051
1209.43	330.695
1213.1	165.061
1216.76	170.152
1220.42	244.576
1224.07	359.426
1227.73	404.51
1231.38	593.367
1235.04	702.238
1238.69	581.125
1242.34	510.029
1245.99	168.818
1249.63	256.91
1253.28	399.348
1256.92	675.322
1260.56	794.006
1264.2	801.588
1267.84	708.889
1271.48	604.041
1275.11	351.869
1278.74	45.062
1282.38	58.062
1286.01	419.863
1289.63	363.955
1293.26	554.285
1296.89	716.676
1300.51	488.27
1304.13	438.385
1307.75	229.398
1311.37	238.854
1314.99	138.527
1318.6	338.812
1322.22	689.803
1325.83	533.248
1329.44	542.996
1333.05	511.789
1336.66	485.525
1340.26	2.959
1343.87	83.184
1347.47	171.494
1351.07	210.719
1354.67	709.49
1358.27	615.395
1361.86	714.859
1365.46	777.918
1369.05	596.615
