Measurement: Raman, 514 nm, ccw, Raman Data Processed
Mineral: Thomsonite-Ca
Rruff sample: R050103
Ideal chemistry: NaCa_2_(Al_5_Si_5_)O_20_6H_2_O
Locality: Seeberg, Bohemia, Czech Republic
Source: Rock Currier
Description: Colorless prismatic crystals
Measured chemistry: Na_1.00_(Ca_0.92_Sr_0.08_)_2_(Al_5.00_Si_5.00_)O_20_Â·6H_2_O
Pin_id: M00072
Orientation: Laser parallel to a* (1 0 0). Fiducial mark perpendicular to laser is parallel to b [0 1 0]
Raman shift (cm-1)	intensity
93.48	0
98.416	352.048
103.349	1064.68
108.28	2298.82
113.208	4048.4
118.134	6336.63
123.058	2373.77
127.979	1191.26
132.898	532.084
137.814	266.475
142.728	438.392
147.639	700.058
152.549	1431.36
157.455	1829.75
162.359	2531.48
167.261	3616.38
172.161	5718.17
177.058	7412.46
181.952	5887.44
186.845	3178.5
191.734	1953.04
196.622	1475.07
201.507	1113.38
206.389	652.717
211.269	859.67
216.147	1013.07
221.022	1222.23
225.895	654.403
230.765	134.209
235.633	63.2383
240.498	117.431
245.361	206.037
250.222	73.2715
255.08	44.3945
259.936	86.9912
264.789	37.2549
269.64	71.6357
274.488	108.844
279.334	139.853
284.178	605.15
289.019	1198.69
293.857	2006.51
298.693	3359.65
303.527	4374.14
308.358	4490
313.187	3807.9
318.013	3664.33
322.837	3882.36
327.659	4200.54
332.478	4706.19
337.294	5409.37
342.108	4929.08
346.92	3730.31
351.729	2278.05
356.535	1414.29
361.34	626.041
366.141	262.312
370.94	6.00781
375.737	34.2324
380.531	3.42285
385.323	54.8145
390.113	118.286
394.9	253.744
399.684	134.902
404.466	4.10449
409.245	27.4336
414.022	307.029
418.797	486.148
423.569	1265.34
428.338	2489.27
433.105	5041.68
437.87	7275.59
442.632	7095.01
447.391	5010.95
452.149	2921.42
456.903	1881.44
461.655	1373.08
466.405	1586.36
471.152	1910.43
475.897	1949.07
480.639	1751.4
485.378	2102.51
490.116	2512.33
494.85	2599.91
499.582	2209.18
504.312	2098.2
509.039	2903.97
513.764	4379.19
518.486	7834.25
523.206	15162.3
527.923	28248.2
532.638	39965.9
537.35	37450.7
542.059	23423.7
546.766	12857.6
551.471	7323.4
556.173	4489.23
560.873	3113.2
565.57	2059.15
570.264	1592.06
574.957	1190.9
579.646	864.856
584.333	529.779
589.018	438.656
593.7	320.496
598.379	387.316
603.056	109.106
607.73	1.91211
612.402	99.7676
617.072	154.676
621.739	263.197
626.403	364.34
631.065	313.475
635.724	194.637
640.381	35.7402
645.035	233.832
649.687	232.91
654.336	142.824
658.983	89.6758
663.627	91.8144
668.268	102.877
672.907	100.242
677.544	29.4648
682.178	132.627
686.809	219.576
691.438	308.342
696.065	568.533
700.688	605.42
705.31	666.481
709.929	744.359
714.545	886.17
719.158	783.555
723.77	821.93
728.378	716.164
732.984	772.9
737.588	711.852
742.189	495.66
746.787	377.711
751.383	333.449
755.976	453.207
760.567	158.647
765.155	148.654
769.741	296.373
774.324	301.877
778.904	422.234
783.482	404.424
788.058	198.449
792.631	191.273
797.201	319.453
801.769	188.434
806.334	9.14648
810.897	38.7227
815.457	9.40234
820.014	145.9
824.569	112.398
829.122	59.3984
833.671	53.1699
838.219	0.763672
842.763	120.1
847.306	205.283
851.845	5.26953
856.382	114.594
860.917	479.324
865.448	185.682
869.978	122.924
874.505	267.053
879.029	47.8789
883.55	119.986
888.069	12.6621
892.586	133.076
897.1	122.83
901.611	279.994
906.12	169.162
910.626	142.236
915.129	326.32
919.63	414.471
924.129	797.715
928.625	848.473
933.118	1146.77
937.609	1176.05
942.097	1407.36
946.582	1396.53
951.065	1639.21
955.546	1817.61
960.023	2136.85
964.499	2641.22
968.971	2801.2
973.441	2819.74
977.909	3628.59
982.374	4756.82
986.836	5428.81
991.295	5519.81
995.753	4456.52
1000.21	3721.35
1004.66	2720.65
1009.11	2208.72
1013.55	2087.72
1018	2246.61
1022.44	1982.84
1026.88	1868.36
1031.32	1327.69
1035.75	1336.99
1040.18	1309.13
1044.61	1413.45
1049.04	1963.48
1053.46	2493
1057.88	3147.05
1062.3	3989.32
1066.71	4394.3
1071.13	4068.06
1075.54	3500.4
1079.94	3217.28
1084.35	2419.91
1088.75	1746.98
1093.15	1049.09
1097.55	779.465
1101.94	992.191
1106.34	494.846
1110.73	412.84
1115.11	495.914
1119.5	643.188
1123.88	369.586
1128.26	336.275
1132.63	161.953
1137.01	274.754
1141.38	27.6484
1145.75	182.562
1150.12	99.6289
1154.48	122.047
1158.84	64.5352
1163.2	140.685
1167.55	314.656
1171.91	229.656
1176.26	43.8594
1180.61	38.0996
1184.95	32.2578
1189.29	179.242
1193.63	273.494
1197.97	88.8301
1202.31	236.41
1206.64	220.824
1210.97	19.1367
1215.29	189.975
1219.62	14.5723
1223.94	36.7656
1228.26	82.043
1232.57	251.766
1236.89	296.859
1241.2	352.225
1245.51	150.197
1249.81	209.16
1254.12	123.822
1258.42	409.978
1262.72	364.582
1267.01	268.338
1271.3	422.801
1275.59	299.818
1279.88	231.156
1284.17	220.236
1288.45	388.211
1292.73	253.988
1297.01	280.106
1301.28	170.644
1305.55	200.41
1309.82	399.574
1314.09	345.033
1318.35	404.543
1322.61	437.344
1326.87	410.045
1331.13	267.256
1335.38	179.789
1339.63	58.8691
1343.88	110.488
1348.12	308.121
1352.37	227.305
1356.61	236.582
1360.85	160.363
1365.08	204.465
1369.31	100.404
1373.54	158.143
1377.77	136.957
1381.99	260.324
1386.22	62.6992
1390.43	47.6582
1394.65	23.1309
1398.87	21.8008
1403.08	138.19
1407.29	200.055
1411.49	3.31445
1415.69	112.182
1419.89	44.7344
1424.09	309.893
1428.29	135.721
1432.48	0.96875
1436.67	171.307
1440.86	523.172
1445.04	406.894
1449.23	701.775
1453.4	724.92
1457.58	331.322
1461.76	423.297
1465.93	650.85
1470.1	327.613
1474.26	247.598
1478.43	531.51
1482.59	391.043
1486.75	221.047
1490.9	17.8672
1495.06	316.748
1499.21	430.152
1503.35	261.559
1507.5	232.762
1511.64	317
1515.78	177.082
1519.92	389.309
1524.05	162.008
1528.18	388.09
1532.31	118.18
1536.44	414.496
1540.56	126.148
1544.69	177.926
1548.8	125.012
1552.92	165.051
1557.03	315.906
1561.14	185.848
1565.25	279.215
1569.36	185.129
