Measurement: Raman, 514 nm, ccw, Raman Data Processed
Mineral: Thomsonite-Ca
Rruff sample: R050091
Ideal chemistry: NaCa_2_(Al_5_Si_5_)O_20_6H_2_O
Locality: Amudikha River, near Mirny, Yakutia, Siberia, Russia
Source: Rock Currier
Description: Radial groups of colorless bladed crystals
Measured chemistry: (Na_0.94_[box]_0.06_)_Σ=1_(Ca_1.71_Na_0.29_)_Σ=2_(Si_5.35_Al_4.65_)O_20_·7.09H_2_O
Pin_id: L00456
Orientation: Laser parallel to a* (1 0 0). Fiducial mark perpendicular to laser is parallel to b [0 1 0]
Raman shift (cm-1)	intensity
140.355	0
144.509	14.9
148.66	231.595
152.81	685.059
156.958	885.947
161.105	1055.19
165.249	1537.59
169.391	2341.44
173.531	3907.1
177.669	6093.72
181.806	5934.85
185.94	3555.91
190.073	2016.4
194.204	1687.45
198.332	1382.06
202.459	993.972
206.584	802.814
210.707	885.574
214.828	1074.52
218.947	1346.06
223.064	1362.15
227.179	966.175
231.293	386.593
235.404	113.143
239.514	3.48
243.621	26.572
247.727	70.352
251.831	26.089
255.933	118.687
260.033	83.218
264.131	78.793
268.227	61.155
272.321	22.24
276.413	33.532
280.504	123.014
284.592	339.164
288.679	673.16
292.764	1030.31
296.847	1698.36
300.928	2625.48
305.007	3813.61
309.084	4102.77
313.159	3059.02
317.233	2780.03
321.304	2984.39
325.374	2977.86
329.442	3018.36
333.508	3707.68
337.572	4759.66
341.634	4967.37
345.694	3917.04
349.753	3112.86
353.809	2167.56
357.864	1303.69
361.916	793.722
365.967	450.798
370.016	153.368
374.064	26.861
378.109	0.097
382.152	1.222
386.194	37.241
390.233	111.163
394.271	233.437
398.307	294.507
402.341	163.844
406.374	134.149
410.404	80.615
414.433	253.433
418.459	415.383
422.484	682.817
426.507	1079.84
430.528	1976.53
434.547	3750.08
438.565	5747.97
442.58	6606.5
446.594	5560.33
450.606	3848.87
454.616	2521.45
458.624	1618.09
462.631	1343.78
466.635	1263.94
470.638	1615.49
474.639	1721.12
478.638	1446.08
482.635	1563.93
486.63	1841.3
490.624	2345.41
494.615	2544.03
498.605	2210.13
502.593	1881.62
506.579	1956.39
510.564	2196.17
514.546	3104.4
518.527	4762.49
522.506	7890.27
526.483	13562
530.458	23772
534.431	36289.4
538.403	36536.3
542.373	24922.6
546.341	14829.6
550.307	8988.53
554.271	5950.26
558.234	4138.99
562.195	2808.92
566.154	1983.71
570.111	1640.76
574.066	1294.64
578.019	988.312
581.971	747.09
585.921	581.048
589.869	512.328
593.815	416.896
597.76	327.711
601.703	287.639
605.644	159.617
609.583	151.616
613.52	83.629
617.455	38.654
621.389	17.312
625.321	50.717
629.251	42.754
633.18	19.798
637.106	17.187
641.031	50.201
644.954	21.734
648.875	28.657
652.795	31.561
656.712	55.196
660.628	59.386
664.542	15.718
668.455	42.062
672.365	5.804
676.274	38.487
680.181	24.167
684.086	163.705
687.99	278.479
691.891	287.947
695.791	335.344
699.689	446.049
703.586	549.634
707.48	720.333
711.373	717.062
715.264	736.006
719.154	707.863
723.041	774.619
726.927	772.372
730.811	681.205
734.693	574.795
738.574	466.435
742.453	454.595
746.33	452.152
750.205	437.87
754.079	337.325
757.95	220.726
761.82	234.071
765.689	251.358
769.555	340.588
773.42	290.76
777.283	309.429
781.144	255.484
785.004	255.48
788.862	237.128
792.718	180.655
796.572	147.088
800.425	96.18
804.276	141.311
808.125	69.693
811.972	80.94
815.818	9.734
819.662	8.632
823.504	22.595
827.345	8.337
831.183	27.702
835.02	16.486
838.856	5.852
842.689	39.406
846.521	13.129
850.351	21.01
854.18	27.017
858.006	74.933
861.831	35.794
865.655	18.609
869.476	52.365
873.296	16.017
877.114	67.501
880.93	15.914
884.745	6.718
888.558	43.599
892.369	34.896
896.179	69.151
899.987	87.361
903.793	86.529
907.597	71.658
911.4	87.766
915.201	194.864
919.001	339.938
922.798	531.981
926.594	663.013
930.388	814.031
934.181	921.036
937.972	1014.05
941.761	1171.05
945.548	1266.05
949.334	1263.09
953.118	1290.15
956.901	1507.21
960.681	1996.27
964.46	2437.99
968.238	2467.38
972.013	2529.61
975.787	2570.92
979.56	3029.53
983.33	3844.2
987.099	4796.47
990.866	5202.34
994.632	4714.26
998.396	3843.31
1002.16	3092.36
1005.92	2521.93
1009.68	2311.55
1013.43	2216.07
1017.19	2129.55
1020.94	1847.99
1024.7	1657.52
1028.45	1385.22
1032.19	1286.77
1035.94	1201.24
1039.69	1309.4
1043.43	1372.15
1047.17	1554.09
1050.91	1716.94
1054.65	2035.67
1058.39	2640.15
1062.13	3238.67
1065.86	3789.68
1069.59	3887.71
1073.32	3666.91
1077.05	3156.06
1080.78	2694.8
1084.5	2220.68
1088.23	1824.99
1091.95	1475.23
1095.67	1169.3
1099.39	881.152
1103.11	717.357
1106.82	540.911
1110.54	378.543
1114.25	409.09
1117.96	328.405
1121.67	290.094
1125.38	222.656
1129.08	149.183
1132.79	98.889
1136.49	75.524
1140.19	40.157
1143.89	107.935
1147.59	115.816
1151.28	110.912
1154.98	30.346
1158.67	13.81
1162.36	51.045
1166.05	31.63
1169.74	38.88
1173.43	59.94
1177.11	62.999
1180.79	28.059
1184.47	36.258
1188.15	13.101
1191.83	5.787
1195.51	10.807
1199.18	19.053
1202.86	50.847
1206.53	53.798
1210.2	6.511
1213.87	36.262
1217.54	2.944
1221.2	28.319
1224.86	1.222
1228.53	76.129
1232.19	69.365
1235.85	55.538
1239.5	60.691
1243.16	32.722
1246.81	57.591
1250.46	12.52
1254.12	6.411
1257.76	15.127
1261.41	39.803
1265.06	73.268
1268.7	80.695
1272.34	72.976
1275.99	23.2
1279.62	21.489
1283.26	5.198
1286.9	20.119
1290.53	21.681
1294.17	52.293
1297.8	96.782
1301.43	58.96
1305.06	49.225
1308.68	8.375
1312.31	24.4
1315.93	34.32
1319.56	28.99
1323.18	40.701
1326.8	37.318
1330.41	51.093
1334.03	73.043
1337.64	18.193
1341.26	41.816
1344.87	34.886
1348.47	27.795
1352.08	2.897
1355.69	18.944
1359.29	30.969
1362.9	22.523
1366.5	78.707
1370.1	75.83
1373.7	102.76
1377.29	41.333
1380.89	19.778
1384.48	9.708
1388.08	25.109
1391.67	19.299
1395.26	87.993
1398.84	84.941
1402.43	118.774
1406.01	85.441
1409.6	115.713
1413.18	51.089
1416.76	61.675
1420.34	9.193
1423.91	3.77
1427.49	32.505
1431.06	32.76
1434.63	92.162
1438.2	90.991
1441.77	113.095
1445.34	184.277
1448.9	152.443
1452.47	125.189
1456.03	87.983
1459.59	95.689
1463.15	76.733
1466.71	60.865
1470.27	54.417
1473.82	62.541
1477.37	66.211
1480.93	101.955
1484.48	94.724
1488.03	95.59
1491.57	61.653
1495.12	75.872
1498.66	65.367
1502.2	12.131
1505.75	6.605
1509.29	43.376
1512.82	15.117
1516.36	32.744
1519.89	2.33
