Measurement: Raman, 514 nm, ccw, Raman Data Processed
Mineral: Thomsonite-Ca
Rruff sample: R050091
Ideal chemistry: NaCa_2_(Al_5_Si_5_)O_20_6H_2_O
Locality: Amudikha River, near Mirny, Yakutia, Siberia, Russia
Source: Rock Currier
Description: Radial groups of colorless bladed crystals
Measured chemistry: (Na_0.94_[box]_0.06_)_Σ=1_(Ca_1.71_Na_0.29_)_Σ=2_(Si_5.35_Al_4.65_)O_20_·7.09H_2_O
Pin_id: L00326
Orientation: Laser parallel to b* (0 1 0). Fiducial mark perpendicular to laser is parallel to c [0 0 1]
Raman shift (cm-1)	intensity
52.937	0
57.132	113.909
61.325	116.942
65.515	140.613
69.704	81.64
73.891	41.704
78.076	3.899
82.26	36.134
86.441	39.453
90.62	175.558
94.797	447.114
98.973	958.005
103.146	1358.29
107.318	1721.6
111.487	2920.34
115.655	4885.58
119.821	5154.8
123.984	3893.09
128.146	3088.76
132.306	2403.82
136.464	2324.81
140.62	2365.5
144.774	2701.42
148.927	3317.36
153.077	4150.25
157.226	4673.26
161.372	4746.43
165.517	5262.76
169.659	5654.42
173.8	6694.7
177.939	8226.22
182.076	7683.98
186.211	5467.98
190.344	3959.21
194.475	3561.69
198.605	3335.42
202.732	2317.39
206.858	1486.63
210.981	1264.12
215.103	1388.27
219.223	1706.29
223.341	1611.46
227.457	1020.41
231.571	547.097
235.684	174.992
239.794	3.424
243.902	36.883
248.009	19.496
252.114	179.743
256.217	383.772
260.318	476.568
264.417	376.614
268.514	128.894
272.609	25.61
276.703	9.037
280.794	0.205
284.884	140.721
288.972	356.827
293.058	804.106
297.142	1381.56
301.224	2222.17
305.304	3037.93
309.383	3284.85
313.46	2561.91
317.534	2289.08
321.607	2502.45
325.678	2571.03
329.747	2612.78
333.815	3150.62
337.88	3969.7
341.944	4257.05
346.005	3456.63
350.065	2418.41
354.123	1627.38
358.179	956.497
362.234	443.755
366.286	149.148
370.337	36.336
374.386	2.785
378.432	152.722
382.478	200.269
386.521	395.894
390.562	533.616
394.602	359.464
398.639	147.472
402.675	14.312
406.709	93.242
410.742	48.717
414.772	75.636
418.8	336.11
422.827	582.722
426.852	1016.47
430.875	1781.34
434.896	3230.48
438.916	5279.99
442.933	6276.76
446.949	5195.13
450.963	3631.62
454.975	2369.22
458.985	1504.94
462.994	1168.77
467	1367.71
471.005	1959.81
475.008	2039.22
479.009	1557.42
483.009	1339.92
487.006	1547.12
491.002	1931.39
494.996	2162.89
498.988	1890.27
502.978	1533.85
506.967	1699.29
510.953	2094.14
514.938	2779.06
518.921	4429.1
522.903	7436.21
526.882	13106.4
530.86	22861.4
534.836	32821
538.81	32549
542.782	22517.6
546.753	13596.3
550.721	8364.97
554.688	5349.71
558.653	3696.5
562.617	2676.32
566.578	1983.71
570.538	1503.38
574.496	1183.22
578.452	982.254
582.407	784.306
586.359	607.366
590.31	544.433
594.259	433.507
598.206	426.656
602.152	415.856
606.096	356.05
610.038	278.232
613.978	192.888
617.916	128.548
621.853	83.677
625.788	14.781
629.721	35.844
633.652	25.852
637.582	60.763
641.51	17.459
645.436	30.864
649.36	24.491
653.282	21.316
657.203	7.393
661.122	13.696
665.039	32.865
668.955	23.736
672.869	64.328
676.781	99.767
680.691	151.731
684.599	215.088
688.506	291.229
692.411	458.428
696.314	595.992
700.216	655.562
704.115	712.113
708.013	759.376
711.91	852.406
715.804	868.34
719.697	843.855
723.588	919.374
727.477	909.47
731.365	911.104
735.25	906.509
739.134	834.743
743.017	825.791
746.897	793.844
750.776	845.682
754.653	1023.41
758.529	1273.03
762.402	669.547
766.274	676.951
770.144	657.247
774.013	664.433
777.88	583.511
781.745	461.465
785.608	415.281
789.47	369.769
793.329	276.463
797.188	248.015
801.044	211.798
804.899	117.741
808.752	74.251
812.603	75.548
816.452	91.369
820.3	96.497
824.146	25.649
827.991	5.229
831.834	10.836
835.675	20.694
839.514	29.427
843.352	15.39
847.187	13.506
851.022	2.789
854.854	38.756
858.685	1.815
862.514	57.526
866.341	29.781
870.167	6.049
873.991	24.973
877.813	2.045
881.634	2.03
885.453	29.509
889.27	9.19
893.086	57.819
896.9	0.598
900.712	61.957
904.522	86.48
908.331	91.977
912.138	152.446
915.944	272.886
919.747	399.309
923.549	562.71
927.35	708.085
931.148	810.449
934.945	1046.82
938.741	1035.2
942.534	1090.57
946.326	1254.97
950.117	1342.4
953.905	1496.92
957.692	1637.52
961.478	1992.19
965.261	2373.97
969.043	2457.8
972.823	2586.38
976.602	2750.69
980.379	3108.22
984.154	3787.07
987.928	4570.54
991.7	4889.75
995.47	4637.58
999.239	4043.67
1003.01	3325.92
1006.77	2789.03
1010.53	2452.03
1014.3	2238.23
1018.06	2109.1
1021.82	1913.49
1025.57	1648.69
1029.33	1367.52
1033.08	1159.51
1036.83	1091.98
1040.59	1134.48
1044.33	1256.25
1048.08	1393.11
1051.83	1627.01
1055.57	1921.67
1059.31	2270.44
1063.05	2730.9
1066.79	3251.8
1070.53	3460.51
1074.27	3373.03
1078	3169.24
1081.73	2735.2
1085.46	2260.4
1089.19	1885.91
1092.92	1658.28
1096.64	1393.71
1100.37	1080.29
1104.09	879.151
1107.81	798.029
1111.53	637.628
1115.25	511.249
1118.97	386.978
1122.68	295.869
1126.39	265.739
1130.1	226.64
1133.81	203.576
1137.52	140.395
1141.23	103.59
1144.93	92.619
1148.64	62.993
1152.34	68.432
1156.04	83.107
1159.74	39.958
1163.43	48.428
1167.13	17.065
1170.82	35.98
1174.51	5.52
1178.2	32.694
1181.89	47.374
1185.58	42.304
1189.26	17.653
1192.95	16.12
1196.63	42.688
1200.31	28.232
1203.99	10.642
1207.67	2.129
1211.34	1.013
1215.02	29.249
1218.69	9.341
1222.36	71.712
1226.03	31.019
1229.7	48.119
1233.36	9.8
1237.03	38.851
1240.69	29.489
1244.35	39.159
1248.01	19.57
1251.67	19.962
1255.33	28.323
1258.98	27.627
1262.64	34.826
1266.29	25.965
1269.94	26.166
1273.59	52.153
1277.23	3.104
1280.88	1.563
1284.53	20.123
1288.17	4.158
1291.81	13.158
1295.45	20.375
1299.09	15.557
1302.72	22.634
1306.36	29.541
1309.99	61.38
1313.62	11.202
1317.25	13.755
1320.88	29.187
1324.51	23.506
1328.13	4.705
1331.75	23.763
1335.38	41.69
1339	37.583
1342.62	30.08
1346.23	34.653
1349.85	33.391
1353.46	56.067
1357.08	47.584
1360.69	12.855
1364.3	61.954
1367.9	54.782
1371.51	35.745
1375.12	36.47
1378.72	34.854
1382.32	39.065
1385.92	36.058
1389.52	67.276
1393.12	55.459
1396.71	52.756
1400.31	62.587
1403.9	87.924
1407.49	57.193
1411.08	80.003
1414.67	75.286
1418.25	64.089
1421.84	67.978
1425.42	34.328
1429	13.048
1432.58	61.124
1436.16	35.155
1439.74	10.041
1443.32	23.692
1446.89	63.698
1450.46	64.72
1454.03	55.081
1457.6	42.06
1461.17	52.381
1464.74	42.195
1468.3	50.942
1471.87	22.121
1475.43	9.85
1478.99	1.465
1482.55	23.374
1486.1	81.262
1489.66	61.435
1493.21	43.174
1496.77	23.287
1500.32	42.219
1503.87	26.15
1507.41	13.618
1510.96	53.052
1514.51	38.576
1518.05	0.702
1521.59	9.763
1525.13	0
