Measurement: Raman, 514 nm, ccw, Raman Data Processed
Mineral: Thomsonite-Ca
Rruff sample: R050103
Ideal chemistry: NaCa_2_(Al_5_Si_5_)O_20_6H_2_O
Locality: Seeberg, Bohemia, Czech Republic
Source: Rock Currier
Description: Colorless prismatic crystals
Measured chemistry: Na_1.00_(Ca_0.92_Sr_0.08_)_2_(Al_5.00_Si_5.00_)O_20_Â·6H_2_O
Pin_id: L00148
Orientation: Laser parallel to -b* (0 -1 0). Fiducial mark perpendicular to laser is parallel to -c [0 0 -1]
Raman shift (cm-1)	intensity
109.387	0
113.559	1250.77
117.729	2593.67
121.897	2863.43
126.063	2135.71
130.228	1077.46
134.39	614.763
138.55	239.398
142.709	89.38
146.865	258.578
151.019	804.33
155.171	1177.83
159.322	1296.26
163.47	1759.41
167.617	2468.53
171.761	3525.24
175.904	5722.48
180.044	8159.99
184.183	6694.43
188.319	3810.41
192.454	2590.74
196.586	2149.31
200.717	1570.8
204.846	1015.11
208.972	778.193
213.097	928.9
217.22	1014.06
221.341	1309.52
225.46	1403.17
229.577	863.771
233.692	32.151
237.805	90.716
241.916	28.834
246.025	208.494
250.132	235.298
254.237	71.229
258.34	360.662
262.442	205.577
266.541	90.202
270.639	16.537
274.734	8.618
278.828	12.826
282.919	108.271
287.009	524.06
291.097	904.048
295.183	1276.59
299.266	2147.27
303.348	3427.84
307.428	4638.2
311.507	4637.99
315.583	3607.06
319.657	3585.42
323.729	3783.16
327.8	3820.33
331.868	3967
335.935	4623.2
339.999	5508.33
344.062	5270.4
348.123	4421.12
352.182	3341.91
356.239	2122.33
360.294	1162.16
364.347	744.094
368.398	404.006
372.448	104.923
376.495	46.466
380.54	8.257
384.584	250.538
388.626	251.951
392.666	209.116
396.704	337.781
400.74	228.391
404.774	202.919
408.806	98.787
412.836	66.443
416.865	280.374
420.891	567.797
424.916	582.822
428.939	1447.57
432.959	2764.67
436.978	5179.09
440.996	7299.61
445.011	7494.01
449.024	5848.19
453.036	3922.14
457.045	2545.83
461.053	1639.28
465.059	1432.45
469.063	1665.37
473.065	1938.03
477.065	1930.45
481.063	1692.71
485.06	2024.78
489.054	2326.53
493.047	2598.04
497.038	2639.44
501.027	2470.66
505.014	2363.39
508.999	2239.66
512.982	2807.92
516.964	4143.9
520.944	6743.66
524.921	11009.3
528.897	19026.1
532.871	33041.3
536.844	43920.7
540.814	38778.1
544.783	24938.7
548.749	14855
552.714	9270.01
556.677	6209.75
560.638	4246.55
564.597	2934.54
568.555	2156.39
572.511	1904.97
576.464	1635.92
580.416	1096.67
584.366	797.626
588.315	898.498
592.261	799.342
596.206	720.35
600.148	501.518
604.089	162.624
608.028	413.646
611.965	404.583
615.901	315.437
619.834	136.208
623.766	416.901
627.696	937.521
631.624	638.067
635.551	208.546
639.475	68.958
643.398	149.302
647.318	539.584
651.237	667.018
655.155	377.185
659.07	6.5
662.984	123.207
666.895	97.363
670.805	74.603
674.713	69.176
678.62	174.199
682.524	19.536
686.427	249.828
690.328	362.419
694.227	409.338
698.124	236.39
702.02	583.654
705.913	860.997
709.805	908.359
713.695	835.686
717.584	802.999
721.47	651.01
725.355	998.439
729.238	1028.8
733.119	966.342
736.998	576.036
740.876	484.326
744.752	751.764
748.626	749.153
752.498	506.496
756.368	294.255
760.237	152.02
764.104	179.229
767.969	496.399
771.832	413.533
775.693	320.611
779.553	147.681
783.411	354.721
787.267	611.734
791.122	388.725
794.974	325.498
798.825	82.448
802.674	169.354
806.522	166.206
810.367	352.918
814.211	218.084
818.053	5.509
821.893	124.524
825.732	94.236
829.568	249.41
833.403	139.595
837.236	29.988
841.068	127.04
844.898	8.46
848.726	124.24
852.552	430.302
856.376	366.574
860.199	443.009
864.02	369.521
867.839	176.106
871.656	372.765
875.472	529.49
879.286	356.276
883.098	53.106
886.909	69.94
890.717	207.079
894.524	284.21
898.33	301.438
902.133	198.773
905.935	23.707
909.735	26.064
913.533	101.667
917.33	309.569
921.124	567.639
924.918	695.803
928.709	874.062
932.499	882.514
936.286	1091.07
940.073	1459.72
943.857	1608.46
947.64	1627.31
951.421	1546.26
955.2	1545.31
958.978	1997.25
962.753	2456.51
966.527	3159.67
970.3	3185.2
974.071	2766.54
977.84	2856.77
981.607	3549.6
985.372	4743.64
989.136	6050.15
992.898	6002.78
996.659	5224.19
1000.42	4277.25
1004.17	3780.55
1007.93	2913.86
1011.68	2526.07
1015.43	2769.19
1019.18	2682.01
1022.93	2474.83
1026.68	1857.17
1030.42	1629.87
1034.17	1405.85
1037.91	1672.56
1041.65	1695.88
1045.39	1632.81
1049.12	1759.15
1052.86	2030.38
1056.59	2497.43
1060.33	3330.42
1064.06	4199.19
1067.78	4761.72
1071.51	4645.47
1075.23	4109.77
1078.96	3511.41
1082.68	2996
1086.4	2769.81
1090.12	2483.66
1093.83	1987.8
1097.55	1642.5
1101.26	986.492
1104.97	780.711
1108.68	584.929
1112.39	679.411
1116.1	603.826
1119.8	617.939
1123.5	662.136
1127.2	426.512
1130.9	10.825
1134.6	44.709
1138.3	39.719
1141.99	225.129
1145.69	519.357
1149.38	473.575
1153.07	217.029
1156.76	101.199
1160.44	0.981
1164.13	12.084
1167.81	145.005
1171.49	257.767
1175.17	460.351
1178.85	472.724
1182.52	255.073
1186.2	37.025
1189.87	50.921
1193.54	5.946
1197.21	264.226
1200.88	346.025
1204.55	437.813
1208.21	479.599
1211.88	325.406
1215.54	146.877
1219.2	58.414
1222.86	128.805
1226.51	309.532
1230.17	409.703
1233.82	540.884
1237.47	800.646
1241.12	630.102
1244.77	289.13
1248.42	127.946
1252.06	146.497
1255.71	304.799
1259.35	472.958
1262.99	420.484
1266.63	827.759
1270.26	798.029
1273.9	606.291
1277.53	192.504
1281.16	194.944
1284.8	58.518
1288.42	192.468
1292.05	621.969
1295.68	851.154
1299.3	742.318
1302.92	662.961
1306.55	547.131
1310.16	404.639
1313.78	380.916
1317.4	405.066
1321.01	456.92
1324.62	372.021
1328.24	518.381
1331.85	694.141
1335.45	550.307
1339.06	464.635
1342.66	190.139
1346.27	74.328
1349.87	59.508
1353.47	6.262
1357.07	235.779
1360.66	390.297
1364.26	584.648
1367.85	686.695
1371.44	741.145
1375.04	456.229
1378.62	271.959
1382.21	247.932
1385.8	334.643
1389.38	151.941
1392.96	374.309
1396.54	615.803
1400.12	670.863
1403.7	647.432
1407.28	630.012
1410.85	484.342
1414.42	387.818
1417.99	252.865
1421.56	94.641
1425.13	8.125
