Measurement: Raman, 514 nm, ccw, Raman Data Processed
Mineral: Thomsonite-Ca
Rruff sample: R050091
Ideal chemistry: NaCa_2_(Al_5_Si_5_)O_20_6H_2_O
Locality: Amudikha River, near Mirny, Yakutia, Siberia, Russia
Source: Rock Currier
Description: Radial groups of colorless bladed crystals
Measured chemistry: (Na_0.94_[box]_0.06_)_Σ=1_(Ca_1.71_Na_0.29_)_Σ=2_(Si_5.35_Al_4.65_)O_20_·7.09H_2_O
Pin_id: L00326
Orientation: Laser parallel to b* (0 1 0). Fiducial mark perpendicular to laser is parallel to c [0 0 1]
Raman shift (cm-1)	intensity
52.937	0
57.132	118.121
61.325	26.875
65.515	60.806
69.704	133.547
73.891	111.596
78.076	44.087
82.26	32.209
86.441	27.967
90.62	67.981
94.797	334.468
98.973	672.945
103.146	1014.17
107.318	1332.94
111.487	1775.82
115.655	2458.82
119.821	2560.22
123.984	2785.44
128.146	2969.71
132.306	2740.23
136.464	2567.18
140.62	2910.25
144.774	3547.31
148.927	4483.21
153.077	5636.24
157.226	6208.75
161.372	7016.15
165.517	8446.49
169.659	9754.81
173.8	12686.3
177.939	16652.3
182.076	15915.2
186.211	10798.3
190.344	7411.59
194.475	6097.08
198.605	5155.69
202.732	3573.4
206.858	2774.25
210.981	3086.24
215.103	4412.4
219.223	6189.42
223.341	5814.3
227.457	3805.43
231.571	2374.39
235.684	1292.88
239.794	635.829
243.902	464.624
248.009	599.461
252.114	1005.34
256.217	1993.28
260.318	2380.78
264.417	1277.5
268.514	539.35
272.609	115.332
276.703	29.576
280.794	117.575
284.884	136.846
288.972	148.447
293.058	43.373
297.142	70.572
301.224	300.569
305.304	441.638
309.383	467.781
313.46	513.004
317.534	675.307
321.607	892.697
325.678	1057.18
329.747	1159.75
333.815	1547.89
337.88	2249.26
341.944	2591.6
346.005	2200.22
350.065	1680.13
354.123	1638.28
358.179	1760.6
362.234	1937.11
366.286	1439.8
370.337	816.67
374.386	911.734
378.432	1073.99
382.478	918.577
386.521	792.934
390.562	674.551
394.602	365.304
398.639	99.225
402.675	79.658
406.709	68.575
410.742	0.569
414.772	185.663
418.8	618.134
422.827	1101.79
426.852	1894.63
430.875	2834.64
434.896	4025.84
438.916	6021.81
442.933	7205.85
446.949	6120.84
450.963	4561.55
454.975	3177.26
458.985	2523.24
462.994	2902.86
467	4580.69
471.005	8010.75
475.008	8473.07
479.009	5297.58
483.009	3346.32
487.006	2727.57
491.002	2554.67
494.996	2492.1
498.988	2061.84
502.978	1545.75
506.967	1512.98
510.953	1683.3
514.938	2217.8
518.921	3484.21
522.903	5819.01
526.882	10482.2
530.86	18758.7
534.836	27435.5
538.81	27652.6
542.782	19549.9
546.753	12497.5
550.721	7865.38
554.688	5063.44
558.653	3463.72
562.617	2507.48
566.578	1828.06
570.538	1413.79
574.496	1084.86
578.452	847.128
582.407	604.578
586.359	414.211
590.31	380.021
594.259	413.007
598.206	695.186
602.152	1064.72
606.096	1484.72
610.038	1357.26
613.978	835.273
617.916	448.547
621.853	294.967
625.788	148.525
629.721	102.216
633.652	65.034
637.582	72.974
641.51	11.968
645.436	12.811
649.36	7.268
653.282	32.6
657.203	47.004
661.122	90.734
665.039	72.694
668.955	13.835
672.869	50.94
676.781	161.719
680.691	213.672
684.599	324.467
688.506	395.821
692.411	601.998
696.314	688.755
700.216	764.78
704.115	860.765
708.013	865.757
711.91	913.276
715.804	881.807
719.697	959.854
723.588	878.991
727.477	919.361
731.365	896.401
735.25	833.194
739.134	820.92
743.017	771.573
746.897	760.151
750.776	767.647
754.653	747.058
758.529	703.226
762.402	590.596
766.274	536.707
770.144	427.7
774.013	396.569
777.88	338.31
781.745	260.918
785.608	238.391
789.47	223.693
793.329	183.884
797.188	161.659
801.044	84.235
804.899	53.195
808.752	2.873
812.603	18.438
816.452	36.273
820.3	3.116
824.146	53.898
827.991	33.02
831.834	23.632
835.675	15.715
839.514	10.765
843.352	0.117
847.187	8.341
851.022	8.126
854.854	23.349
858.685	33.372
862.514	31.118
866.341	42.711
870.167	76.131
873.991	91.406
877.813	85.526
881.634	69.482
885.453	146.276
889.27	127.919
893.086	127.411
896.9	145.753
900.712	190.949
904.522	228.334
908.331	303.903
912.138	415.661
915.944	525.278
919.747	575.754
923.549	704.091
927.35	856.293
931.148	1032.36
934.945	1284.31
938.741	1450.12
942.534	1648.82
946.326	1839.4
950.117	2078.85
953.905	2146.13
957.692	2208.67
961.478	2446.16
965.261	2763.31
969.043	2818.1
972.823	2993.79
976.602	3141.78
980.379	3391.15
984.154	3572.79
987.928	4044.15
991.7	4041.71
995.47	3737.55
999.239	3313.61
1003.01	2691.56
1006.77	2297.73
1010.53	1971.55
1014.3	1733.02
1018.06	1466.53
1021.82	1256.9
1025.57	919.219
1029.33	672.674
1033.08	519.923
1036.83	486.796
1040.59	487.565
1044.33	557.321
1048.08	591.089
1051.83	691.15
1055.57	838.885
1059.31	950.647
1063.05	1218.53
1066.79	1405.38
1070.53	1527.25
1074.27	1548.12
1078	1556.17
1081.73	1280.05
1085.46	1111.16
1089.19	974.432
1092.92	831.607
1096.64	714.47
1100.37	637.636
1104.09	520.604
1107.81	438.602
1111.53	324.626
1115.25	286.999
1118.97	196.314
1122.68	178.757
1126.39	166.173
1130.1	102.845
1133.81	77.203
1137.52	77.524
1141.23	50.112
1144.93	38.852
1148.64	22.251
1152.34	21.83
1156.04	7.764
1159.74	14.952
1163.43	22.62
1167.13	27.713
1170.82	28.795
1174.51	13.442
1178.2	2.36
1181.89	40.214
1185.58	10.455
1189.26	19.043
1192.95	0.391
1196.63	11.809
1200.31	11.663
1203.99	21.969
1207.67	21.099
1211.34	1.634
1215.02	47.648
1218.69	24.039
1222.36	7.571
1226.03	1.93
1229.7	26.951
1233.36	18.263
1237.03	3.922
1240.69	14.022
1244.35	20.952
1248.01	6.81
1251.67	14.77
1255.33	6.773
1258.98	36.289
1262.64	21.474
1266.29	5.215
1269.94	25.766
1273.59	22.218
1277.23	20.596
1280.88	44.049
1284.53	12.218
1288.17	17.302
1291.81	21.566
1295.45	0.653
1299.09	32.847
1302.72	20.916
1306.36	15.468
1309.99	27.248
1313.62	11.075
1317.25	3.019
1320.88	11.081
1324.51	7.2
1328.13	12.105
1331.75	22.021
1335.38	16.766
1339	17.356
1342.62	24.583
1346.23	33.123
1349.85	34.222
1353.46	27.411
1357.08	45.328
1360.69	0.32
1364.3	32.098
1367.9	63.495
1371.51	65.002
1375.12	31.154
1378.72	61.528
1382.32	36.162
1385.92	45.856
1389.52	65.007
1393.12	41.283
1396.71	41.97
1400.31	66.797
1403.9	59.601
1407.49	62.674
1411.08	55.925
1414.67	57.277
1418.25	56.996
1421.84	71.436
1425.42	74.479
1429	58.672
1432.58	34.296
1436.16	50.498
1439.74	43.044
1443.32	21.396
1446.89	59.365
1450.46	53.355
1454.03	49.175
1457.6	47.238
1461.17	52.36
1464.74	8.727
1468.3	28.067
1471.87	36.774
1475.43	18.168
1478.99	34.141
1482.55	27.594
1486.1	43.927
1489.66	39.533
1493.21	37.678
1496.77	43.918
1500.32	43.32
1503.87	50.611
1507.41	53.09
1510.96	8.485
1514.51	30.666
1518.05	41.81
1521.59	27.544
1525.13	1.695
