Measurement: Raman, 514 nm, ccw, Raman Data Processed
Mineral: Thomsonite-Ca
Rruff sample: R050103
Ideal chemistry: NaCa_2_(Al_5_Si_5_)O_20_6H_2_O
Locality: Seeberg, Bohemia, Czech Republic
Source: Rock Currier
Description: Colorless prismatic crystals
Measured chemistry: Na_1.00_(Ca_0.92_Sr_0.08_)_2_(Al_5.00_Si_5.00_)O_20_Â·6H_2_O
Pin_id: L00246
Orientation: Laser parallel to c* (0 0 1). Fiducial mark perpendicular to laser is parallel to -a [-1 0 0]
Raman shift (cm-1)	intensity
93.48	0
98.416	333.347
103.349	772.823
108.28	1453.56
113.208	1782.52
118.134	2119.44
123.058	1858.12
127.979	1818.95
132.898	1010.78
137.814	594.555
142.728	1005.32
147.639	1974.69
152.549	3000.86
157.455	4854.99
162.359	8520.17
167.261	14508.1
172.161	21951.7
177.058	25129.3
181.952	20087.1
186.845	11164.4
191.734	6878.66
196.622	4910.75
201.507	3933.6
206.389	4870.48
211.269	7941.32
216.147	10754.9
221.022	9974.79
225.895	6371.69
230.765	2976.65
235.633	1299.73
240.498	482.11
245.361	766.298
250.222	1968.51
255.08	3318.57
259.936	2568.35
264.789	843.406
269.64	76.96
274.488	18.7588
279.334	92.9932
284.178	311.621
289.019	243.857
293.857	134.422
298.693	56.2344
303.527	106.152
308.358	386.375
313.187	848.688
318.013	1454.15
322.837	1862.75
327.659	2344.42
332.478	3301.23
337.294	4108.53
342.108	4054.7
346.92	3270.91
351.729	3188.68
356.535	3727.03
361.34	3619.98
366.141	2568.53
370.94	1559.7
375.737	1470.54
380.531	835.074
385.323	221.385
390.113	64.8154
394.9	220.474
399.684	299.182
404.466	92.8809
409.245	266.15
414.022	849.561
418.797	1827.4
423.569	3647.34
428.338	6051.17
433.105	8833.87
437.87	11078.5
442.632	10348.8
447.391	7177.8
452.149	4924.7
456.903	5024.51
461.655	7498.27
466.405	12228
471.152	15011.7
475.897	11127.5
480.639	6842.28
485.378	5122.32
490.116	4516.81
494.85	3937.64
499.582	2966.54
504.312	2683.82
509.039	3314.47
513.764	5217.62
518.486	9343.77
523.206	18680.6
527.923	32397.2
532.638	43435
537.35	39059.2
542.059	25117.5
546.766	14917.9
551.471	8952.27
556.173	5437.1
560.873	3916.01
565.57	2651.37
570.264	1723.11
574.957	1329.68
579.646	812.137
584.333	667.168
589.018	494.424
593.7	822.342
598.379	1556.86
603.056	2263.96
607.73	2002.64
612.402	973.896
617.072	340.725
621.739	355.107
626.403	189.088
631.065	56.1562
635.724	61.7598
640.381	85.0059
645.035	195.117
649.687	160.815
654.336	23.8086
658.983	15.5586
663.627	28.3711
668.268	17.5391
672.907	226.916
677.544	196.701
682.178	498.154
686.809	596.146
691.438	879.67
696.065	1113.71
700.688	1267.42
705.31	1180.19
709.929	1142.39
714.545	1353.4
719.158	1427.98
723.77	1366.73
728.378	1083.19
732.984	896.391
737.588	661.062
742.189	553.697
746.787	463.019
751.383	270.478
755.976	157.102
760.567	18.3477
765.155	82.9277
769.741	78.0742
774.324	76.7578
778.904	91.0312
783.482	47.668
788.058	80.6211
792.631	106.746
797.201	31.4219
801.769	107.342
806.334	94.8555
810.897	10.0762
815.457	54.3809
820.014	6.07812
824.569	83.5938
829.122	27.1504
833.671	39.4434
838.219	122.647
842.763	47.8672
847.306	322.719
851.845	103.285
856.382	218.539
860.917	394.168
865.448	292.19
869.978	307.697
874.505	395.711
879.029	366.131
883.55	323.955
888.069	425.188
892.586	430.834
897.1	509.928
901.611	399.557
906.12	854.176
910.626	1016.54
915.129	1133.95
919.63	1550.29
924.129	1648.5
928.625	2119.33
933.118	2643.22
937.609	3268.5
942.097	3364.2
946.582	3417.66
951.065	3423.85
955.546	3660.05
960.023	4137.15
964.499	4298.82
968.971	4689.51
973.441	4855.31
977.909	5123.81
982.374	5878.59
986.836	6112.08
991.295	5354.98
995.753	4236.08
1000.21	3482.36
1004.66	2859.87
1009.11	2139.32
1013.55	2072.38
1018	1470.35
1022.44	1042.22
1026.88	680.26
1031.32	482.723
1035.75	323.838
1040.18	630.514
1044.61	506.422
1049.04	551.668
1053.46	945.686
1057.88	1252.77
1062.3	1541.54
1066.71	1883.51
1071.13	1848.73
1075.54	1595.9
1079.94	1535.78
1084.35	1249.86
1088.75	1034.98
1093.15	662.648
1097.55	529.799
1101.94	407.836
1106.34	214.406
1110.73	322.127
1115.11	253.932
1119.5	584.85
1123.88	618.582
1128.26	220.961
1132.63	44.748
1137.01	31.6895
1141.38	197.779
1145.75	128.316
1150.12	43.6504
1154.48	107.627
1158.84	153.815
1163.2	147.385
1167.55	79.4453
1171.91	129.508
1176.26	181.555
1180.61	7.75391
1184.95	1.39062
1189.29	216.246
1193.63	28.1719
1197.97	151.746
1202.31	69.9941
1206.64	123.441
1210.97	305.488
1215.29	27.3555
1219.62	27.0547
1223.94	139.219
1228.26	159.6
1232.57	254.807
1236.89	285.662
1241.2	86.5156
1245.51	390.147
1249.81	320.102
1254.12	131.629
1258.42	151.106
1262.72	241.623
1267.01	222.508
1271.3	370.691
1275.59	432.254
1279.88	371.602
1284.17	328.977
1288.45	110.287
1292.73	351.711
1297.01	416.49
1301.28	500.147
1305.55	150.518
1309.82	524.381
1314.09	332.633
1318.35	447.779
1322.61	272.322
1326.87	446.523
1331.13	126.291
1335.38	151.932
1339.63	271.994
1343.88	104.787
1348.12	300.67
1352.37	50.7383
1356.61	196.293
1360.85	154.035
1365.08	194.418
1369.31	250.963
1373.54	20.7578
1377.77	296.092
1381.99	329.375
1386.22	237.24
1390.43	31.7539
1394.65	386.301
1398.87	191.959
1403.08	173.861
1407.29	14.4609
1411.49	290.309
1415.69	23.377
1419.89	147.502
1424.09	64.9102
1428.29	84.3262
1432.48	182.537
1436.67	311.416
1440.86	150.102
1445.04	362.807
1449.23	158.768
1453.4	447.664
1457.58	253.785
1461.76	354.246
1465.93	135.076
1470.1	94.2637
1474.26	496.736
1478.43	108.967
1482.59	320.268
1486.75	135.301
1490.9	250.092
1495.06	183.262
1499.21	52.459
1503.35	174.133
1507.5	259.24
1511.64	109.488
1515.78	70.4414
1519.92	211.738
1524.05	167.594
1528.18	324.258
1532.31	43.3281
1536.44	268.512
1540.56	175.707
1544.69	132.242
1548.8	78.8516
1552.92	293.625
1557.03	10.2344
1561.14	168.352
1565.25	125.379
1569.36	139.723
