Measurement: Raman, 514 nm, ccw, Raman Data Processed
Mineral: Thomsonite-Ca
Rruff sample: R050091
Ideal chemistry: NaCa_2_(Al_5_Si_5_)O_20_6H_2_O
Locality: Amudikha River, near Mirny, Yakutia, Siberia, Russia
Source: Rock Currier
Description: Radial groups of colorless bladed crystals
Measured chemistry: (Na_0.94_[box]_0.06_)_Σ=1_(Ca_1.71_Na_0.29_)_Σ=2_(Si_5.35_Al_4.65_)O_20_·7.09H_2_O
Pin_id: M00227
Orientation: Laser parallel to c* (0 0 1). Fiducial mark perpendicular to laser is parallel to a [1 0 0]
Raman shift (cm-1)	intensity
71.747	0
75.937	1113.66
80.125	3769.89
84.311	4832.57
88.496	3915.01
92.678	3810.26
96.858	5270.45
101.036	7716.54
105.212	10699.6
109.387	15661.9
113.559	18105.7
117.729	15307.9
121.897	8823.69
126.063	4511.01
130.228	1994.17
134.39	615.661
138.55	1005.63
142.709	1829.38
146.865	2791.61
151.019	2430.53
155.171	1387.61
159.322	1179.29
163.47	2172.24
167.617	4125.23
171.761	7555.12
175.904	13251
180.044	15874.1
184.183	12675.4
188.319	7785.3
192.454	5310.3
196.586	4315.05
200.717	2871.29
204.846	2049.2
208.972	2429.6
213.097	3906.18
217.22	7132.68
221.341	9817.8
225.46	11027.5
229.577	11991.7
233.692	7440.74
237.805	2067.43
241.916	48.526
246.025	684.404
250.132	565.32
254.237	192.987
258.34	763.141
262.442	217.379
266.541	227.68
270.639	420.501
274.734	522.264
278.828	286.632
282.919	14.637
287.009	44.888
291.097	22.37
295.183	123.976
299.266	10.759
303.348	75.879
307.428	26.541
311.507	137.646
315.583	192.667
319.657	80.579
323.729	101.296
327.8	283.958
331.868	711.616
335.935	1422.03
339.999	2120.56
344.062	2543.27
348.123	2634.61
352.182	2584.27
356.239	2495.17
360.294	2710.21
364.347	2408.49
368.398	1736.51
372.448	1428.63
376.495	1560.87
380.54	1489.22
384.584	1084.7
388.626	851.331
392.666	725.085
396.704	622.846
400.74	678.497
404.774	660.399
408.806	666.244
412.836	936.381
416.865	1420.57
420.891	2005.83
424.916	2901.83
428.939	4512.15
432.959	6370.59
436.978	8946.35
440.996	11464
445.011	10748.1
449.024	8378.53
453.036	5967.08
457.045	4660.88
461.053	4886.68
465.059	7134.03
469.063	11511.4
473.065	15770.5
477.065	12555.4
481.063	8143.78
485.06	6476.89
489.054	6283.5
493.047	6809.09
497.038	6581.78
501.027	4997.24
505.014	3549.66
508.999	2866.08
512.982	3087.51
516.964	4131.9
520.944	6451.05
524.921	11249
528.897	20529.9
532.871	34357.5
536.844	41588.5
540.814	36501.2
544.783	24445.2
548.749	15385.3
552.714	9914.74
556.677	6498.83
560.638	4511
564.597	3392.71
568.555	2646.84
572.511	1972.46
576.464	1669.53
580.416	1153.55
584.366	827.514
588.315	713.68
592.261	847.573
596.206	784.12
600.148	1220.99
604.089	1691.9
608.028	1881.01
611.965	1204.93
615.901	768.176
619.834	508.614
623.766	402.226
627.696	462.48
631.624	189.473
635.551	186.056
639.475	9.931
643.398	92.898
647.318	117.095
651.237	102.197
655.155	108.694
659.07	225.231
662.984	193.025
666.895	345.521
670.805	381.204
674.713	520.03
678.62	577.021
682.524	774.309
686.427	932.399
690.328	1080.88
694.227	1429.52
698.124	1542.01
702.02	1628.87
705.913	1387.87
709.805	1409.6
713.695	1266.65
717.584	1318.77
721.47	1315.1
725.355	1009.62
729.238	955.239
733.119	655.884
736.998	372.651
740.876	317.24
744.752	201.941
748.626	98.647
752.498	72.33
756.368	59.964
760.237	75.517
764.104	70.979
767.969	80.358
771.832	478.649
775.693	585.845
779.553	339.932
783.411	216.899
787.267	86.72
791.122	96.31
794.974	17.467
798.825	5.924
802.674	179.566
806.522	39.072
810.367	84.327
814.211	208.525
818.053	138.952
821.893	123.478
825.732	3.113
829.568	33.562
833.403	34.845
837.236	8.345
841.068	39.982
844.898	67.035
848.726	123.946
852.552	210.639
856.376	157.136
860.199	320.438
864.02	425.496
867.839	367.301
871.656	368.894
875.472	430.333
879.286	401.547
883.098	620.503
886.909	788.191
890.717	907.299
894.524	996.757
898.33	1000.63
902.133	1279.22
905.935	1714.05
909.735	2475.49
913.533	3058.45
917.33	3900.1
921.124	4203.1
924.918	4505.01
928.709	4983.64
932.499	5262.99
936.286	5344.07
940.073	5121.78
943.857	4621.19
947.64	4369.09
951.421	4267.56
955.2	4368.24
958.978	4296.37
962.753	4250.58
966.527	4230.33
970.3	4192.76
974.071	4259.64
977.84	4816.88
981.607	5429.45
985.372	6265.17
989.136	6360.85
992.898	6029.76
996.659	5181.98
1000.42	4512.14
1004.17	3633.14
1007.93	3204.53
1011.68	2940.72
1015.43	2760.75
1019.18	2513.39
1022.93	1929.13
1026.68	1538.68
1030.42	1176.49
1034.17	990.424
1037.91	1113.04
1041.65	1069.21
1045.39	1179.43
1049.12	1283.56
1052.86	1211.72
1056.59	1444.98
1060.33	1862.05
1064.06	1993.68
1067.78	2180.2
1071.51	2254.61
1075.23	2291.94
1078.96	2368.86
1082.68	2428.1
1086.4	2322.99
1090.12	1723.92
1093.83	1391.81
1097.55	1217.68
1101.26	836.638
1104.97	671.622
1108.68	458.174
1112.39	373.351
1116.1	252.284
1119.8	167.287
1123.5	392.556
1127.2	161.897
1130.9	90.947
1134.6	71.488
1138.3	69.799
1141.99	33.467
1145.69	144.834
1149.38	12.494
1153.07	78.125
1156.76	29.048
1160.44	104.235
1164.13	28.88
1167.81	101.611
1171.49	39.965
1175.17	45.494
1178.85	142.618
1182.52	93.605
1186.2	77.655
1189.87	228.638
1193.54	228.917
1197.21	196.925
1200.88	72.432
1204.55	314.64
1208.21	227.398
1211.88	231.504
1215.54	266.712
1219.2	244.272
1222.86	347.753
1226.51	289.092
1230.17	25.957
1233.82	245.487
1237.47	288.191
1241.12	213.816
1244.77	300.096
1248.42	262.628
1252.06	232.707
1255.71	210.265
1259.35	166.812
1262.99	52.483
1266.63	225.556
1270.26	53.52
1273.9	214.121
1277.53	27.803
1281.16	236.26
1284.8	145.637
1288.42	182.308
1292.05	53.438
1295.68	61.927
1299.3	89.501
1302.92	161.324
1306.55	2.705
1310.16	50.84
1313.78	39.814
1317.4	151.252
1321.01	0.141
1324.62	122.535
1328.24	207.873
1331.85	47.29
1335.45	71.768
1339.06	14.699
1342.66	3.946
1346.27	60.928
1349.87	39.824
1353.47	97.405
1357.07	188.199
1360.66	157.764
1364.26	10.502
1367.85	90.644
1371.44	83.158
1375.04	149.899
1378.62	98.215
1382.21	77.664
1385.8	143.882
1389.38	102.404
1392.96	171.312
1396.54	115.729
1400.12	191.137
1403.7	91.15
1407.28	263.29
1410.85	136.175
1414.42	243.751
1417.99	228.953
1421.56	295.939
1425.13	261.055
1428.7	335.348
1432.26	268.89
1435.83	345.389
1439.39	366.674
1442.95	281.531
1446.51	489.285
1450.06	388.792
1453.62	670.758
1457.17	540.847
1460.73	433.863
1464.28	452.901
1467.83	286.042
1471.37	381.487
1474.92	286.405
1478.46	195.008
1482.01	202.177
1485.55	320.696
1489.09	107.308
1492.63	5.926
1496.16	182.62
1499.7	152.189
1503.23	41.039
1506.76	123.113
1510.29	149.754
1513.82	224.857
1517.35	8.736
1520.88	147.844
1524.4	0
