Measurement: Raman, 514 nm, ccw, Raman Data Processed
Mineral: Tilleyite
Rruff sample: R050227
Ideal chemistry: Ca_5_Si_2_O_7_(CO_3_)_2_
Locality: Crestmore Quarry, Riverside County, California, USA
Source: Marcus Origlieri
Description: Aggregate of colorless subhedral crystals
Pin_id: L00225
Orientation: Laser parallel to c* (0 0 1). Fiducial mark perpendicular to laser is parallel to a [1 0 0]
Raman shift (cm-1)	intensity
79.895	0
84.837	241.016
89.777	1413.63
94.714	2331.61
99.649	1812.5
104.582	2357.65
109.512	3381.12
114.44	3095.91
119.365	4203.7
124.288	2755.47
129.209	1560.68
134.127	1800.27
139.043	3644.34
143.956	4759.56
148.867	4330.8
153.775	5012.87
158.681	3986.62
163.585	1439.25
168.486	201.642
173.385	556.949
178.282	913.075
183.176	750.846
188.067	1004.11
192.956	1916.96
197.843	1895.17
202.727	1091.25
207.609	36.4932
212.489	185.193
217.366	278.977
222.24	86.9038
227.112	270.768
231.982	563.1
236.849	726.545
241.714	758.519
246.577	880.951
251.437	1088.61
256.294	1327.76
261.149	1628.91
266.002	1765.45
270.852	3074.13
275.7	4363.88
280.545	5174.59
285.388	4949.19
290.229	4267.63
295.067	4391.48
299.902	5113.26
304.735	4015.54
309.566	2764.01
314.394	2223.7
319.22	1850.08
324.043	1388.11
328.864	982.493
333.682	705.827
338.498	1003.81
343.311	1133.91
348.122	1682.12
352.931	2229.84
357.737	2108.02
362.54	1721.84
367.341	1476.02
372.14	971.889
376.936	514.215
381.73	257.889
386.521	1020.75
391.31	1002.68
396.096	1181.62
400.88	830.49
405.661	517.249
410.44	183.85
415.216	249.258
419.99	372.437
424.761	371.369
429.53	210.67
434.297	59.103
439.061	42.2656
443.822	27.6841
448.581	117.463
453.337	65.0811
458.091	43.3916
462.843	16.9761
467.592	31.9492
472.338	66.9126
477.082	243.954
481.824	381.43
486.563	241.528
491.3	160.181
496.034	131.366
500.765	326.219
505.494	374.124
510.221	349.027
514.945	301.491
519.666	578.494
524.385	846.023
529.102	896.203
533.816	765.024
538.527	1076.4
543.236	1565.14
547.943	1633.22
552.647	1199.63
557.348	679.358
562.047	623.727
566.744	248.749
571.438	188.383
576.129	262.815
580.818	205.887
585.504	178.952
590.188	84.9477
594.87	78.6533
599.549	82.0811
604.225	133.429
608.899	125.739
613.57	185.264
618.239	182.875
622.905	427.074
627.569	621.235
632.23	1216.62
636.889	2830.93
641.545	6401.82
646.198	8927.1
650.849	5161.93
655.498	2376.13
660.144	1649.65
664.787	1321.66
669.428	1129.95
674.067	987.19
678.703	924.172
683.336	652.587
687.967	814.221
692.595	1499.98
697.221	2092.2
701.844	1904.89
706.465	1060.7
711.083	1737.91
715.698	2472.18
720.311	1948.6
724.922	630.567
729.53	252.272
734.135	197.828
738.738	88.7954
743.338	3.96045
747.936	115.281
752.531	74.5933
757.124	35.4477
761.714	99.9512
766.302	24.8335
770.887	17.1299
775.469	13.0483
780.049	17.3296
784.626	38.3315
789.201	148.971
793.773	154.231
798.343	17.0317
802.91	32.8569
807.475	75.4917
812.037	16.9131
816.596	62.1826
821.153	83.0552
825.707	227.734
830.259	375.243
834.808	1122.6
839.355	984.818
843.899	434.914
848.441	196.909
852.98	33.8315
857.516	3.31641
862.05	182.496
866.581	694.273
871.11	350.039
875.636	211.55
880.159	303.981
884.68	629.211
889.199	979.881
893.714	2536.71
898.228	6909.33
902.738	22860.8
907.246	32351.8
911.752	10526.8
916.255	2738.76
920.755	1351.89
925.253	1091.27
929.748	1132.43
934.241	847.667
938.731	361.494
943.218	560.949
947.703	882.267
952.186	1214.56
956.665	504.26
961.142	274.217
965.617	249.648
970.089	372.244
974.558	535.994
979.025	892.896
983.489	887.966
987.951	717.845
992.41	715.907
996.866	797.651
1001.32	1178.47
1005.77	2399.9
1010.22	3800.85
1014.67	2769.97
1019.11	1214.51
1023.55	679.899
1027.99	828.139
1032.42	1101.4
1036.86	747.519
1041.29	477.539
1045.72	371.533
1050.14	420.313
1054.56	514.507
1058.98	789.247
1063.4	951.648
1067.82	1441.79
1072.23	3330.4
1076.64	20611.6
1081.05	34431.2
1085.45	18390
1089.85	28511.8
1094.25	37160.8
1098.65	5076.12
1103.04	1062.73
1107.43	534.006
1111.82	317.647
1116.21	525.028
1120.59	1028.78
1124.97	851.055
1129.35	226.005
1133.73	58.0723
1138.1	155.082
1142.47	37.5283
1146.84	65.1514
1151.21	53.4082
1155.57	69.2519
1159.93	9.47656
1164.29	2.38965
1168.64	33.4766
1172.99	21.9844
1177.34	7.34766
1181.69	17.0195
1186.04	167.691
1190.38	0.848633
1194.72	87.4941
1199.05	63.252
1203.39	132.352
1207.72	80.8799
1212.05	114.605
1216.37	196.376
1220.7	186.128
1225.02	202.059
1229.34	108.731
1233.65	239.102
1237.97	105.183
1242.28	86.3096
1246.59	128.904
1250.89	353.383
1255.19	75.7754
1259.49	251.751
1263.79	261.297
1268.09	155.023
1272.38	253.69
1276.67	254.165
1280.95	225.67
1285.24	311.599
1289.52	265.809
1293.8	256.621
1298.08	271.392
1302.35	186.523
1306.62	231.302
1310.89	94.1777
1315.15	182.958
1319.42	164.601
1323.68	52.5762
1327.94	167.192
1332.19	14.0557
1336.44	205.194
1340.69	207.478
1344.94	51.6191
1349.19	151.694
1353.43	48.5478
1357.67	146.658
1361.9	224.689
1366.14	210.832
1370.37	23.9482
1374.6	150.037
1378.83	255.325
1383.05	154.959
1387.27	1.25098
1391.49	42.6855
1395.7	212.938
1399.92	131.481
1404.13	189.484
1408.34	799.26
1412.54	939.875
1416.74	587.855
1420.94	528.88
1425.14	1145.96
1429.34	952.287
1433.53	1026.4
1437.72	340.461
1441.9	253.69
1446.09	68.4981
1450.27	222.612
1454.45	184.451
1458.63	79.5908
1462.8	218.245
1466.97	104.596
1471.14	1.27246
1475.31	123.287
1479.47	124.128
1483.63	39.623
1487.79	114.225
1491.94	441.668
1496.09	1298.3
1500.24	4162.46
1504.39	1308.22
1508.54	659.337
1512.68	727.421
1516.82	932.537
1520.95	327.114
1525.09	151.644
1529.22	168.043
1533.35	34.8145
1537.47	153.002
1541.6	226.315
1545.72	65.9023
1549.83	170.885
1553.95	343.336
1558.06	117.838
1562.17	47.9043
1566.28	206.559
1570.38	81.9023
