Measurement: Raman, 514 nm, ccw, Raman Data Processed
Mineral: Tilleyite
Rruff sample: R050227
Ideal chemistry: Ca_5_Si_2_O_7_(CO_3_)_2_
Locality: Crestmore Quarry, Riverside County, California, USA
Source: Marcus Origlieri
Description: Aggregate of colorless subhedral crystals
Pin_id: L00528
Orientation: Laser parallel to b* (0 1 0). Fiducial mark perpendicular to laser is parallel to -c [0 0 -1]
Raman shift (cm-1)	intensity
127.979	0
132.898	38.8701
137.814	360.545
142.728	788.708
147.639	1271.18
152.549	1903.05
157.455	1732.2
162.359	741.88
167.261	286.971
172.161	341.088
177.058	794.763
181.952	869.455
186.845	509.901
191.734	745.602
196.622	929.159
201.507	902.235
206.389	548.235
211.269	240.688
216.147	32.9971
221.022	120.989
225.895	141.227
230.765	330.784
235.633	525.6
240.498	480.309
245.361	503.916
250.222	714.466
255.08	1126.07
259.936	1591.15
264.789	1854.22
269.64	2653.23
274.488	4370.72
279.334	5654.66
284.178	5494.29
289.019	4377.24
293.857	3714.58
298.693	3228.26
303.527	2824.56
308.358	1537.06
313.187	1034.11
318.013	989.291
322.837	604.711
327.659	604.266
332.478	404.901
337.294	168.121
342.108	375.674
346.92	562.217
351.729	1049.72
356.535	1263.27
361.34	1222.2
366.141	745.878
370.94	470.295
375.737	118.42
380.531	141.397
385.323	1.18555
390.113	179.769
394.9	235.204
399.684	304.495
404.466	352.556
409.245	242.454
414.022	392.2
418.797	575.791
423.569	664.356
428.338	720.077
433.105	212.983
437.87	177.18
442.632	27.0381
447.391	11.4375
452.149	195.183
456.903	1.52734
461.655	58.1592
466.405	173.358
471.152	180.718
475.897	96.2344
480.639	364.781
485.378	440.089
490.116	304.879
494.85	279.639
499.582	210.231
504.312	373.53
509.039	452.926
513.764	322.487
518.486	233.949
523.206	935.838
527.923	1088.94
532.638	857.918
537.35	848.373
542.059	1193.55
546.766	1451.4
551.471	896.918
556.173	438.103
560.873	267.938
565.57	108.42
570.264	95.5039
574.957	132.219
579.646	130.514
584.333	37.5547
589.018	32.7871
593.7	15.0137
598.379	208.434
603.056	179.783
607.73	22.5371
612.402	33.5938
617.072	235.25
621.739	428.342
626.403	432.176
631.065	805.766
635.724	1414.18
640.381	3586.52
645.035	4782.69
649.687	3857.28
654.336	2182.25
658.983	1510.04
663.627	1097.77
668.268	785.697
672.907	683.252
677.544	394.002
682.178	542.859
686.809	428.254
691.438	745.773
696.065	1118.12
700.688	1002.09
705.31	958.121
709.929	1810.87
714.545	2611.23
719.158	2002.58
723.77	792.977
728.378	23.6289
732.984	85.9746
737.588	234.19
742.189	139.977
746.787	12.8496
751.383	96.543
755.976	56.5234
760.567	174.256
765.155	42.9473
769.741	42.7715
774.324	118.238
778.904	158.699
783.482	27.2832
788.058	0.722656
792.631	85.1133
797.201	35.4238
801.769	24.5117
806.334	95.3652
810.897	169.809
815.457	173.766
820.014	171.504
824.569	31.0703
829.122	69.4766
833.671	307.748
838.219	476.906
842.763	50.9707
847.306	54.0332
851.845	109.795
856.382	166.588
860.917	215.359
865.448	169.102
869.978	397.426
874.505	123.553
879.029	112.672
883.55	215.025
888.069	626.096
892.586	1307.09
897.1	3718.71
901.611	10990.8
906.12	16141.6
910.626	8236.83
915.129	2161.85
919.63	887.539
924.129	700.215
928.625	822.422
933.118	619.529
937.609	140.633
942.097	242.644
946.582	380.609
951.065	275.611
955.546	283.647
960.023	59.2754
964.499	426.781
968.971	165.184
973.441	620.791
977.909	481.606
982.374	943.268
986.836	1397.74
991.295	1193.07
995.753	644.801
1000.21	719.793
1004.66	739.045
1009.11	837.367
1013.55	1091.35
1018	354.34
1022.44	430.039
1026.88	454.443
1031.32	598.594
1035.75	639.754
1040.18	304.412
1044.61	355.701
1049.04	336.938
1053.46	191.504
1057.88	465.4
1062.3	569.127
1066.71	775
1071.13	1216.81
1075.54	4658.93
1079.94	16835.8
1084.35	27394.3
1088.75	23252
1093.15	18617.9
1097.55	5340.79
1101.94	1033.8
1106.34	218.91
1110.73	204.102
1115.11	460.365
1119.5	995.529
1123.88	676.234
1128.26	297.826
1132.63	283.559
1137.01	194.957
1141.38	82.0156
1145.75	40.2676
1150.12	229.981
1154.48	200.107
1158.84	85.3535
1163.2	29.5078
1167.55	30.6914
1171.91	111.137
1176.26	273.022
1180.61	10.8086
1184.95	69.3594
1189.29	170.596
1193.63	226.068
1197.97	253.154
1202.31	53.043
1206.64	465.041
1210.97	142.213
1215.29	68.084
1219.62	356.648
1223.94	190.856
1228.26	123.303
1232.57	238.516
1236.89	317.709
1241.2	294.777
1245.51	278.498
1249.81	118.67
1254.12	119.035
1258.42	179.807
1262.72	267.572
1267.01	225.012
1271.3	238.371
1275.59	199.461
1279.88	167.35
1284.17	199.941
1288.45	259.928
1292.73	369.156
1297.01	423.316
1301.28	187.967
1305.55	301.348
1309.82	362.359
1314.09	272.394
1318.35	236.406
1322.61	27.2871
1326.87	82.9961
1331.13	378.789
1335.38	175.391
1339.63	219.125
1343.88	298.283
1348.12	60.0176
1352.37	183.148
1356.61	210.783
1360.85	203.711
1365.08	59.25
1369.31	416.455
1373.54	260.883
1377.77	202.764
1381.99	188.088
1386.22	163.531
1390.43	236.777
1394.65	7.64648
1398.87	11.4219
1403.08	192.035
1407.29	212.766
1411.49	343.887
1415.69	448.238
1419.89	496.406
1424.09	555.348
1428.29	571.863
1432.48	827.832
1436.67	883.289
1440.86	339.766
1445.04	326.262
1449.23	129.059
1453.4	454.144
1457.58	173.406
1461.76	114.773
1465.93	104.398
1470.1	173.246
1474.26	162.414
1478.43	183.281
1482.59	23.0977
1486.75	276.211
1490.9	456.832
1495.06	216.043
1499.21	552.152
1503.35	724.211
1507.5	535.449
1511.64	326.82
1515.78	511.547
1519.92	416.285
1524.05	331.453
1528.18	112.617
1532.31	131.769
1536.44	141.562
1540.56	290.68
1544.69	119.668
1548.8	153.891
1552.92	92.9336
1557.03	486.305
1561.14	334.508
1565.25	294.457
1569.36	1.36719
