Measurement: Raman, 514 nm, ccw, Raman Data Processed
Mineral: Tilleyite
Rruff sample: R050227
Ideal chemistry: Ca_5_Si_2_O_7_(CO_3_)_2_
Locality: Crestmore Quarry, Riverside County, California, USA
Source: Marcus Origlieri
Description: Aggregate of colorless subhedral crystals
Pin_id: L00528
Orientation: Laser parallel to b* (0 1 0). Fiducial mark perpendicular to laser is parallel to -c [0 0 -1]
Raman shift (cm-1)	intensity
127.979	0
132.898	13.4668
137.814	486.809
142.728	909.463
147.639	1531.56
152.549	1849
157.455	1493.89
162.359	706.164
167.261	144.988
172.161	256.156
177.058	535.182
181.952	426.019
186.845	373.059
191.734	230.242
196.622	659.527
201.507	601.871
206.389	416.31
211.269	351.182
216.147	204.611
221.022	61.6465
225.895	209.9
230.765	248.068
235.633	445.996
240.498	189.408
245.361	273.732
250.222	335.463
255.08	884.896
259.936	1030.36
264.789	1262
269.64	1874.88
274.488	3488.41
279.334	4427.94
284.178	3688.51
289.019	2791.05
293.857	2058.67
298.693	1898.27
303.527	1580.61
308.358	1089.64
313.187	645.707
318.013	531.434
322.837	491.789
327.659	493.246
332.478	170.019
337.294	126.531
342.108	128.863
346.92	507.17
351.729	507.94
356.535	841.914
361.34	794.617
366.141	521.549
370.94	349.082
375.737	107.631
380.531	75.3203
385.323	70.5352
390.113	86.3008
394.9	246.062
399.684	392.713
404.466	88.0352
409.245	132.324
414.022	278.598
418.797	218.291
423.569	206.43
428.338	245.697
433.105	229.668
437.87	89.8769
442.632	162.688
447.391	129.371
452.149	147.438
456.903	83.5449
461.655	104.17
466.405	18.4492
471.152	42.9062
475.897	256.898
480.639	401.617
485.378	314.266
490.116	97.8106
494.85	328.156
499.582	292.062
504.312	130.545
509.039	293.832
513.764	130.022
518.486	300.092
523.206	217.283
527.923	511.408
532.638	207.287
537.35	429.248
542.059	402.103
546.766	519.803
551.471	330.463
556.173	263.906
560.873	124.102
565.57	4.875
570.264	47.1445
574.957	10
579.646	244.781
584.333	41.2773
589.018	10.416
593.7	84.168
598.379	220.191
603.056	302.748
607.73	56.7168
612.402	141.875
617.072	201.549
621.739	315.078
626.403	553.602
631.065	567.404
635.724	1093.62
640.381	1992.38
645.035	2433.62
649.687	2429.36
654.336	1959.51
658.983	1686.05
663.627	1550.26
668.268	1265.48
672.907	790.199
677.544	550.373
682.178	432.42
686.809	580.053
691.438	667.842
696.065	747.652
700.688	802.035
705.31	1139.01
709.929	1453.12
714.545	1656.18
719.158	1039.51
723.77	582.441
728.378	311.773
732.984	179.268
737.588	173.312
742.189	394.535
746.787	213.852
751.383	12.8008
755.976	169.246
760.567	139.047
765.155	91.4062
769.741	168.502
774.324	107.057
778.904	231.312
783.482	238.103
788.058	91.707
792.631	190.072
797.201	33.0508
801.769	1.27734
806.334	32.9805
810.897	44.3594
815.457	183.559
820.014	110.234
824.569	157.844
829.122	142.898
833.671	86.1289
838.219	373.863
842.763	258.742
847.306	104.324
851.845	105.312
856.382	161.902
860.917	89.457
865.448	217.047
869.978	147.66
874.505	114.277
879.029	79.6289
883.55	218.762
888.069	322.949
892.586	610.231
897.1	1557.07
901.611	4794.05
906.12	7041.91
910.626	3995.92
915.129	895.141
919.63	526.477
924.129	465.352
928.625	693.926
933.118	389.324
937.609	227.609
942.097	329.25
946.582	194.781
951.065	277.984
955.546	269.457
960.023	25.7422
964.499	228.144
968.971	424.269
973.441	508.644
977.909	774.566
982.374	1005.89
986.836	2379.52
991.295	2746.86
995.753	1052.55
1000.21	942.664
1004.66	1003.69
1009.11	832.414
1013.55	1010.59
1018	447.227
1022.44	419.254
1026.88	302.188
1031.32	537.918
1035.75	571.043
1040.18	418.383
1044.61	460.027
1049.04	297.957
1053.46	551.656
1057.88	389.141
1062.3	554.043
1066.71	777.184
1071.13	1801.62
1075.54	3533.93
1079.94	9474.25
1084.35	20604
1088.75	13509.1
1093.15	9001.02
1097.55	3010.69
1101.94	761.574
1106.34	421.66
1110.73	59.9453
1115.11	82.3672
1119.5	738.078
1123.88	882.902
1128.26	311.863
1132.63	402.762
1137.01	41.2031
1141.38	263.824
1145.75	302.613
1150.12	72.8945
1154.48	56.0039
1158.84	179.824
1163.2	105.348
1167.55	236.418
1171.91	244.356
1176.26	356.031
1180.61	159.102
1184.95	259.812
1189.29	50.5625
1193.63	402.035
1197.97	420.746
1202.31	124.352
1206.64	87.9336
1210.97	296.481
1215.29	20.9453
1219.62	73.4492
1223.94	293.809
1228.26	47.1758
1232.57	303.664
1236.89	95.9766
1241.2	85.4805
1245.51	288.856
1249.81	73.1523
1254.12	107.035
1258.42	28.7148
1262.72	319.852
1267.01	9.59375
1271.3	23.375
1275.59	184.391
1279.88	178.164
1284.17	334.68
1288.45	165.453
1292.73	118.688
1297.01	225.598
1301.28	341.539
1305.55	61.3047
1309.82	229.824
1314.09	243.703
1318.35	142.789
1322.61	146.887
1326.87	227.941
1331.13	511.949
1335.38	210.449
1339.63	279.106
1343.88	365.606
1348.12	276.137
1352.37	218.426
1356.61	485.473
1360.85	292.496
1365.08	22.1719
1369.31	95.7109
1373.54	237.211
1377.77	241.606
1381.99	297.977
1386.22	257.953
1390.43	199.18
1394.65	258.797
1398.87	377.336
1403.08	433.473
1407.29	365.242
1411.49	433.664
1415.69	350.203
1419.89	262.891
1424.09	403.969
1428.29	626.82
1432.48	796.898
1436.67	693.207
1440.86	187.496
1445.04	260.012
1449.23	203.934
1453.4	57.3555
1457.58	276.769
1461.76	571.074
1465.93	487.207
1470.1	270.18
1474.26	213.344
1478.43	36.7539
1482.59	145.981
1486.75	475.875
1490.9	139.668
1495.06	171.488
1499.21	809.055
1503.35	370.238
1507.5	452.848
1511.64	135.68
1515.78	245.215
1519.92	200.852
1524.05	292.055
1528.18	58.7383
1532.31	276.508
1536.44	195.016
1540.56	314.078
1544.69	145.027
1548.8	61.2812
1552.92	248.273
1557.03	296.543
1561.14	113.234
1565.25	355.156
1569.36	229.379
