Measurement: Raman, 514 nm, ccw, Raman Data Processed
Mineral: Tilleyite
Rruff sample: R050227
Ideal chemistry: Ca_5_Si_2_O_7_(CO_3_)_2_
Locality: Crestmore Quarry, Riverside County, California, USA
Source: Marcus Origlieri
Description: Aggregate of colorless subhedral crystals
Pin_id: L00359
Orientation: Laser parallel to (1 0 1). Fiducial mark perpendicular to laser is parallel to b [0 1 0]
Raman shift (cm-1)	intensity
95.948	0
100.883	5.24316
105.815	572.073
110.744	1440.03
115.671	510.21
120.596	868.325
125.519	700.21
130.439	443.041
135.356	743.989
140.271	2311.59
145.184	3580.1
150.094	2377.42
155.002	1736.74
159.908	1382.93
164.811	239.432
169.711	149.861
174.61	136.427
179.505	324.89
184.399	256.862
189.29	399.377
194.178	1259.6
199.064	1661.53
203.948	766.096
208.829	140.059
213.708	25.5508
218.585	16.3281
223.459	26.334
228.33	255.608
233.199	264.163
238.066	432.869
242.93	561.027
247.792	817.708
252.651	635.274
257.508	626.779
262.363	450.981
267.215	671.61
272.064	1332.89
276.912	1570.3
281.756	1433.3
286.598	1744.6
291.438	1667.71
296.276	1891.46
301.111	2922.28
305.943	1967.64
310.773	1094.24
315.601	871.979
320.426	625.862
325.248	548.325
330.068	304.624
334.886	371.012
339.701	375.497
344.514	416.188
349.324	540.332
354.132	606.836
358.938	669.111
363.741	805.114
368.541	820.347
373.339	573.027
378.135	345.695
382.928	176.143
387.718	355.344
392.506	755.312
397.292	1060.21
402.075	759.918
406.856	481.397
411.634	233.631
416.41	190.598
421.183	257.278
425.954	75.6836
430.722	113.59
435.488	19.9189
440.251	28.9629
445.012	57.6973
449.77	68.4316
454.526	64.9951
459.28	9.18945
464.03	126.95
468.779	63.2812
473.525	45.3154
478.268	169.41
483.009	97.25
487.747	125.293
492.483	121.07
497.217	80.3359
501.948	249.155
506.676	163.447
511.402	150.148
516.125	140.573
520.846	21.5127
525.565	341.913
530.281	378.226
534.994	284.321
539.705	507.91
544.413	867.565
549.119	969.015
553.822	779.602
558.523	547.483
563.222	291.029
567.917	217.869
572.611	321.569
577.302	51.6123
581.99	194.626
586.676	162.69
591.359	88.1113
596.04	155.029
600.718	177.792
605.394	117.662
610.067	216.648
614.737	140.273
619.406	192.843
624.071	283.957
628.734	515.529
633.395	657.021
638.053	1535.1
642.708	3309.64
647.361	6090.99
652.012	3270.88
656.66	1135.19
661.305	651.201
665.948	549.774
670.588	138.501
675.226	119.907
679.861	365.266
684.494	271.194
689.124	264.693
693.752	688.766
698.377	1160.44
702.999	1108.74
707.619	375.459
712.237	518.306
716.852	1001.63
721.464	1034.38
726.074	187.942
730.681	92.3057
735.286	55.1045
739.888	127.144
744.488	113.625
749.085	123.851
753.68	24.5752
758.272	127.152
762.861	2.70996
767.448	218.206
772.033	26.4229
776.614	35.5303
781.194	7.88574
785.77	101.385
790.345	18.7363
794.916	146.703
799.485	19.5371
804.052	105.613
808.616	33.1055
813.177	68.7285
817.736	38.7266
822.292	189.574
826.846	189.08
831.397	343.67
835.945	835.678
840.491	860.053
845.035	248.338
849.576	84.5606
854.114	103.736
858.65	161.231
863.183	212.975
867.713	299.228
872.241	404.043
876.767	201.262
881.29	329.408
885.81	349.338
890.328	645.465
894.843	1317.54
899.356	3697.14
903.866	12147
908.373	22666.5
912.878	5745.96
917.38	1678.08
921.88	769.752
926.377	355.94
930.872	479.891
935.364	384.207
939.853	258.582
944.34	218.494
948.824	337.191
953.306	302.602
957.785	378.316
962.261	210.281
966.735	158.486
971.207	62.8945
975.675	219.518
980.141	371.412
984.605	206.893
989.066	167.318
993.524	129.998
997.98	273.963
1002.43	507.246
1006.88	1024.85
1011.33	1321.99
1015.78	842.949
1020.22	336.346
1024.66	436.791
1029.1	404.623
1033.53	669.871
1037.97	355.148
1042.4	124.203
1046.82	74.375
1051.25	151.981
1055.67	82.959
1060.09	372.455
1064.51	322.389
1068.92	547.361
1073.33	1520.05
1077.74	9359.02
1082.15	18576.3
1086.55	4371.41
1090.95	12525.5
1095.35	22785.3
1099.75	2103.68
1104.14	565.068
1108.53	400.178
1112.92	224.707
1117.31	121.295
1121.69	425.141
1126.07	176.402
1130.45	104.451
1134.82	117.061
1139.19	15.084
1143.57	19.0801
1147.93	101.928
1152.3	131.881
1156.66	6.83789
1161.02	81.6328
1165.38	60.4297
1169.73	128.299
1174.08	101.519
1178.43	141.272
1182.78	163.697
1187.12	253.297
1191.46	34.0645
1195.8	65.0059
1200.14	119.971
1204.47	196.094
1208.8	152.334
1213.13	326.797
1217.46	165.871
1221.78	216.389
1226.1	193.107
1230.42	111.01
1234.73	80.4531
1239.04	403.816
1243.35	147.961
1247.66	203.873
1251.97	234.201
1256.27	118.633
1260.57	35.0449
1264.86	82.5059
1269.16	60.5547
1273.45	166.781
1277.74	96.6348
1282.03	265.408
1286.31	457.6
1290.59	161.459
1294.87	116.951
1299.14	90.9336
1303.42	240.588
1307.69	139.516
1311.95	95.416
1316.22	268.391
1320.48	324.426
1324.74	208.752
1329	129.775
1333.26	104.871
1337.51	207.029
1341.76	224.32
1346	60.0039
1350.25	245.504
1354.49	322.889
1358.73	55.6758
1362.96	221.549
1367.2	244.924
1371.43	195.221
1375.66	179.789
1379.88	208.432
1384.11	163.156
1388.33	172.275
1392.54	159.957
1396.76	228.523
1400.97	140.336
1405.18	211.727
1409.39	389.713
1413.59	462.469
1417.8	451.963
1421.99	429.33
1426.19	978.771
1430.38	532.025
1434.58	684.822
1438.77	274.586
1442.95	219.9
1447.13	221.062
1451.32	392.166
1455.49	201.162
1459.67	122.434
1463.84	327.5
1468.01	66.1406
1472.18	145.453
1476.35	103.4
1480.51	142.498
1484.67	206.82
1488.83	223.217
1492.98	327.85
1497.13	737.66
1501.28	2022.69
1505.43	772.338
1509.57	183.287
1513.71	411.147
1517.85	644.646
1521.99	146.967
1526.12	96.8574
1530.25	258.732
1534.38	490.166
1538.5	162.766
1542.62	247.947
1546.74	259.957
1550.86	238.074
1554.98	423.975
1559.09	432.779
1563.2	41.8906
1567.31	291.191
1571.41	0
