Measurement: Raman, 514 nm, ccw, Raman Data Processed
Mineral: Tilleyite
Rruff sample: R050227
Ideal chemistry: Ca_5_Si_2_O_7_(CO_3_)_2_
Locality: Crestmore Quarry, Riverside County, California, USA
Source: Marcus Origlieri
Description: Aggregate of colorless subhedral crystals
Pin_id: L00383
Orientation: Laser parallel to a* (1 0 0). Fiducial mark perpendicular to laser is parallel to b [0 1 0]
Raman shift (cm-1)	intensity
95.948	0
100.883	277.869
105.815	672.723
110.744	1318.43
115.671	1766.41
120.596	1445.03
125.519	1327.57
130.439	457.488
135.356	401.631
140.271	764.709
145.184	1175.45
150.094	1620.28
155.002	1580.9
159.908	1359.08
164.811	534.725
169.711	54.0234
174.61	27.7227
179.505	282.381
184.399	356.977
189.29	360.871
194.178	464.727
199.064	791.625
203.948	444.555
208.829	92.8457
213.708	257.111
218.585	2.8125
223.459	163.225
228.33	1.68359
233.199	161.158
238.066	126.902
242.93	88.7559
247.792	593.918
252.651	1060.62
257.508	1183.99
262.363	1261.37
267.215	1382.94
272.064	1810.15
276.912	2146.15
281.756	2829.88
286.598	2877.08
291.438	3149.72
296.276	3085.24
301.111	3369.16
305.943	3203.16
310.773	2075.15
315.601	1858.69
320.426	1216.77
325.248	901.527
330.068	426.266
334.886	489.562
339.701	587.945
344.514	839.869
349.324	1187.13
354.132	1340.02
358.938	1108.83
363.741	698.678
368.541	454.559
373.339	493.785
378.135	144.469
382.928	66.5195
387.718	348.168
392.506	517.584
397.292	682.828
402.075	363.859
406.856	231.574
411.634	43.5469
416.41	139.732
421.183	311.795
425.954	208.852
430.722	264.492
435.488	68
440.251	39.0156
445.012	32.4863
449.77	118.236
454.526	50.8691
459.28	113.168
464.03	272.213
468.779	140.19
473.525	196.471
478.268	26.8105
483.009	353.244
487.747	221.82
492.483	37.8652
497.217	260.273
501.948	458.342
506.676	385.248
511.402	396.781
516.125	398.83
520.846	587.289
525.565	864.705
530.281	726.963
534.994	836.631
539.705	830.893
544.413	1307.62
549.119	1309.56
553.822	904.322
558.523	676.396
563.222	329.268
567.917	300.312
572.611	231.805
577.302	353.26
581.99	335.66
586.676	388.758
591.359	477.338
596.04	437.102
600.718	129.766
605.394	234.643
610.067	379.955
614.737	830.709
619.406	1564.69
624.071	1229.1
628.734	867.309
633.395	1470.39
638.053	2401.45
642.708	3868.83
647.361	4259.92
652.012	3218.34
656.66	1316.44
661.305	426.842
665.948	483.371
670.588	299.678
675.226	89.1582
679.861	70.7949
684.494	124.818
689.124	266.861
693.752	567.256
698.377	889.291
702.999	648.164
707.619	95.3828
712.237	630.562
716.852	724.639
721.464	622.471
726.074	229.102
730.681	58.0098
735.286	3.98633
739.888	72.9941
744.488	12.9141
749.085	12.3281
753.68	68.5
758.272	122.727
762.861	251.547
767.448	39.5938
772.033	72.8398
776.614	144.144
781.194	19.6289
785.77	69.7031
790.345	57.0039
794.916	295.215
799.485	131.344
804.052	397.398
808.616	313.383
813.177	2.04688
817.736	124.996
822.292	368.238
826.846	233.867
831.397	467.816
835.945	789.481
840.491	1058.62
845.035	902.41
849.576	997.578
854.114	957.832
858.65	1354.17
863.183	817.586
867.713	885.379
872.241	643.359
876.767	435.555
881.29	685.43
885.81	519.777
890.328	1190.85
894.843	1957.81
899.356	4516.2
903.866	11017
908.373	13258.5
912.878	5622.48
917.38	1532.24
921.88	886.246
926.377	843.606
930.872	707.344
935.364	533.453
939.853	361.562
944.34	664.219
948.824	774.164
953.306	845.609
957.785	539.613
962.261	279.961
966.735	114.586
971.207	38.5938
975.675	267.652
980.141	606.359
984.605	618.727
989.066	404.367
993.524	551.277
997.98	781.461
1002.43	750.812
1006.88	1330.74
1011.33	1424.24
1015.78	1289.09
1020.22	610.234
1024.66	522.316
1029.1	299.781
1033.53	548.648
1037.97	201.91
1042.4	246.938
1046.82	7.87891
1051.25	248.316
1055.67	98.0781
1060.09	195.777
1064.51	311.688
1068.92	719.734
1073.33	2751.03
1077.74	9685.33
1082.15	13002
1086.55	6100.01
1090.95	12289
1095.35	14686.1
1099.75	2002.48
1104.14	783.766
1108.53	373.93
1112.92	90.7578
1117.31	78.7148
1121.69	246.809
1126.07	185.031
1130.45	371.34
1134.82	219.691
1139.19	57.9258
1143.57	177.594
1147.93	90.2383
1152.3	338.582
1156.66	26.4531
1161.02	292.191
1165.38	260.746
1169.73	248.371
1174.08	240.066
1178.43	188.793
1182.78	90.5469
1187.12	129.371
1191.46	353.211
1195.8	164.902
1200.14	296.648
1204.47	13.7617
1208.8	52.8008
1213.13	201.391
1217.46	109.894
1221.78	401.223
1226.1	483.125
1230.42	559.461
1234.73	649.934
1239.04	492.519
1243.35	359.148
1247.66	407.805
1251.97	437.465
1256.27	315.141
1260.57	685.781
1264.86	794.531
1269.16	694.152
1273.45	900.688
1277.74	723.996
1282.03	377.434
1286.31	509.324
1290.59	573.637
1294.87	986.648
1299.14	488.707
1303.42	710.809
1307.69	791.668
1311.95	893.574
1316.22	953.902
1320.48	1231.18
1324.74	743.496
1329	540.812
1333.26	450.375
1337.51	309.828
1341.76	123.273
1346	163.574
1350.25	282.141
1354.49	224.789
1358.73	193.445
1362.96	341.121
1367.2	77.0859
1371.43	131.543
1375.66	171.887
1379.88	264.312
1384.11	151.809
1388.33	169.902
1392.54	39.7031
1396.76	114.789
1400.97	849.297
1405.18	235.019
1409.39	184.805
1413.59	151.203
1417.8	146.242
1421.99	155.394
1426.19	426.191
1430.38	588.426
1434.58	880.398
1438.77	1283.05
1442.95	1349.12
1447.13	1411.34
1451.32	1643.55
1455.49	1489.71
1459.67	1293.12
1463.84	1053.25
1468.01	798.383
1472.18	549.356
1476.35	787.5
1480.51	596.938
1484.67	295.449
1488.83	162.785
1492.98	19.5703
1497.13	408.926
1501.28	702.898
1505.43	166.977
1509.57	226.262
1513.71	298.894
1517.85	407.477
1521.99	137.398
1526.12	121.25
1530.25	100.008
1534.38	347.559
1538.5	293.195
1542.62	269.387
1546.74	184.672
1550.86	364.672
1554.98	367.555
1559.09	287.75
1563.2	204.062
1567.31	18.4375
1571.41	0
