Measurement: Raman, 514 nm, ccw, Raman Data Processed
Mineral: Tilleyite
Rruff sample: R050227
Ideal chemistry: Ca_5_Si_2_O_7_(CO_3_)_2_
Locality: Crestmore Quarry, Riverside County, California, USA
Source: Marcus Origlieri
Description: Aggregate of colorless subhedral crystals
Pin_id: L00359
Orientation: Laser parallel to (1 0 1). Fiducial mark perpendicular to laser is parallel to b [0 1 0]
Raman shift (cm-1)	intensity
95.948	0
100.883	122.171
105.815	623.385
110.744	1849.7
115.671	1142.02
120.596	2309.8
125.519	1895.54
130.439	666.278
135.356	461.695
140.271	1317.3
145.184	2050.26
150.094	1559.24
155.002	2123.05
159.908	2706.13
164.811	638.435
169.711	199.775
174.61	111.769
179.505	480.965
184.399	386.947
189.29	334.894
194.178	875.877
199.064	1303.93
203.948	613.806
208.829	0.517578
213.708	37.5
218.585	34.29
223.459	248.329
228.33	558.613
233.199	684.876
238.066	539.287
242.93	424.797
247.792	568.61
252.651	916.143
257.508	1602.28
262.363	1843.05
267.215	1301.06
272.064	1419.07
276.912	2001.93
281.756	2346.97
286.598	2839.01
291.438	3039.75
296.276	2888.76
301.111	4516.68
305.943	3622.07
310.773	2192.61
315.601	1780.98
320.426	1392.87
325.248	1183.6
330.068	646.496
334.886	569.199
339.701	725.164
344.514	913.981
349.324	1491.67
354.132	2424.7
358.938	2003.92
363.741	1449.17
368.541	1274.94
373.339	762.521
378.135	346.124
382.928	314.285
387.718	278.221
392.506	382.055
397.292	568.11
402.075	432.731
406.856	122.392
411.634	167.867
416.41	53.1289
421.183	65.2588
425.954	176.2
430.722	65.3184
435.488	3.54102
440.251	45.1836
445.012	102.764
449.77	13.915
454.526	64.5332
459.28	22.9795
464.03	6.29297
468.779	4.19629
473.525	5.5293
478.268	106.49
483.009	353.599
487.747	158.227
492.483	256.245
497.217	66.9219
501.948	381.231
506.676	554.18
511.402	223.765
516.125	152.039
520.846	310.854
525.565	643.27
530.281	655.206
534.994	364.272
539.705	542.721
544.413	838.298
549.119	905.599
553.822	589.918
558.523	442.429
563.222	310.596
567.917	212.873
572.611	174.565
577.302	220.14
581.99	126.412
586.676	188.465
591.359	155.673
596.04	60.4902
600.718	188.69
605.394	45.7822
610.067	15.6387
614.737	77.1914
619.406	225.204
624.071	295.419
628.734	244.682
633.395	472.491
638.053	1160.14
642.708	2939.42
647.361	5242.45
652.012	2914.52
656.66	1202.96
661.305	615.457
665.948	295.988
670.588	324.133
675.226	292.397
679.861	207.424
684.494	102.988
689.124	403.098
693.752	552.606
698.377	1221.82
702.999	1141.5
707.619	527.396
712.237	391.518
716.852	918.938
721.464	799.338
726.074	368.654
730.681	26.3223
735.286	184.465
739.888	66.4199
744.488	60.748
749.085	135.777
753.68	105.344
758.272	161.438
762.861	187.832
767.448	37.1035
772.033	65.6875
776.614	5.83398
781.194	134.568
785.77	48.002
790.345	155.945
794.916	24.2949
799.485	0.109375
804.052	148.607
808.616	80.8731
813.177	253.289
817.736	199.584
822.292	22.6465
826.846	77.2285
831.397	140.572
835.945	511.361
840.491	607.486
845.035	186.533
849.576	18.4863
854.114	166.408
858.65	198.242
863.183	289.029
867.713	619.332
872.241	223.443
876.767	319.934
881.29	210.887
885.81	316.102
890.328	471.082
894.843	966.537
899.356	2474.12
903.866	8791.57
908.373	19050.8
912.878	5465.81
917.38	1594.01
921.88	841.336
926.377	770.262
930.872	697.572
935.364	433.56
939.853	230.785
944.34	454.092
948.824	647.996
953.306	1325.86
957.785	541.926
962.261	271.225
966.735	92.8926
971.207	217.691
975.675	558.731
980.141	489.018
984.605	645.816
989.066	333.625
993.524	159.107
997.98	167.373
1002.43	258.285
1006.88	1055.74
1011.33	1377.49
1015.78	924.621
1020.22	349.262
1024.66	298.348
1029.1	296.658
1033.53	361.867
1037.97	166.809
1042.4	13.2832
1046.82	239.477
1051.25	136.293
1055.67	96.1406
1060.09	317.975
1064.51	330.391
1068.92	438.49
1073.33	974.67
1077.74	6978.16
1082.15	18156
1086.55	4033.1
1090.95	9266.53
1095.35	21464.2
1099.75	2127.34
1104.14	491.016
1108.53	542.699
1112.92	156.676
1117.31	123.949
1121.69	503.562
1126.07	537.883
1130.45	25.998
1134.82	155.916
1139.19	114.951
1143.57	243.908
1147.93	142.162
1152.3	69.0332
1156.66	186.736
1161.02	135.44
1165.38	57.3438
1169.73	42.3652
1174.08	8.57031
1178.43	60.7129
1182.78	273.973
1187.12	112.586
1191.46	209.418
1195.8	0.480469
1200.14	165.777
1204.47	176.193
1208.8	231.902
1213.13	58.7734
1217.46	58.8066
1221.78	358.992
1226.1	208.332
1230.42	67.0137
1234.73	184.658
1239.04	75.4941
1243.35	291.623
1247.66	2.39648
1251.97	242.783
1256.27	27.9316
1260.57	64.5957
1264.86	29.2305
1269.16	70.8906
1273.45	85.6426
1277.74	5.48047
1282.03	5.00977
1286.31	251.965
1290.59	273.016
1294.87	213.607
1299.14	105.924
1303.42	55.1797
1307.69	220.348
1311.95	122.957
1316.22	179.705
1320.48	93.5762
1324.74	178.625
1329	329.742
1333.26	319.125
1337.51	342.262
1341.76	42.375
1346	340.553
1350.25	350.795
1354.49	229.15
1358.73	133.609
1362.96	133.617
1367.2	307.268
1371.43	196.106
1375.66	251.125
1379.88	432.477
1384.11	240.889
1388.33	26.5625
1392.54	239.856
1396.76	151.139
1400.97	192.818
1405.18	167.256
1409.39	483.428
1413.59	458.353
1417.8	292.16
1421.99	477.572
1426.19	580.098
1430.38	638.551
1434.58	481.221
1438.77	209.68
1442.95	298.75
1447.13	16.6445
1451.32	18.8789
1455.49	499.762
1459.67	62.5977
1463.84	181.508
1468.01	130.172
1472.18	214.887
1476.35	78.6484
1480.51	513.598
1484.67	328.574
1488.83	99.9062
1492.98	257.543
1497.13	637.41
1501.28	1359.56
1505.43	566.856
1509.57	556.84
1513.71	412.402
1517.85	406.984
1521.99	330.602
1526.12	248.43
1530.25	120.691
1534.38	366.035
1538.5	389.836
1542.62	72.6758
1546.74	381.352
1550.86	218.902
1554.98	284.375
1559.09	250.356
1563.2	498.285
1567.31	369.898
1571.41	0
