Measurement: Raman, 514 nm, ccw, Raman Data Processed
Mineral: Tilleyite
Rruff sample: R050227
Ideal chemistry: Ca_5_Si_2_O_7_(CO_3_)_2_
Locality: Crestmore Quarry, Riverside County, California, USA
Source: Marcus Origlieri
Description: Aggregate of colorless subhedral crystals
Pin_id: L00528
Orientation: Laser parallel to b* (0 1 0). Fiducial mark perpendicular to laser is parallel to -c [0 0 -1]
Raman shift (cm-1)	intensity
127.979	0
132.898	7.63379
137.814	141.949
142.728	809.042
147.639	1486.28
152.549	2559.16
157.455	2705.14
162.359	1238.25
167.261	27.4951
172.161	317.579
177.058	863.354
181.952	1011.73
186.845	805.796
191.734	910.985
196.622	1219.91
201.507	1229.37
206.389	564.421
211.269	286.103
216.147	121.537
221.022	31.1182
225.895	188.504
230.765	595.165
235.633	661.824
240.498	683.15
245.361	787.357
250.222	1149.91
255.08	1723.04
259.936	2628.12
264.789	2760.78
269.64	3554.2
274.488	5662.64
279.334	7810.85
284.178	7681.46
289.019	6409.1
293.857	5307.8
298.693	5473.77
303.527	4593.13
308.358	2652.16
313.187	1731.46
318.013	1261.95
322.837	1230.41
327.659	836.369
332.478	814.084
337.294	597.085
342.108	775.863
346.92	1387.53
351.729	2052.21
356.535	2274.07
361.34	1948.48
366.141	1275.53
370.94	826.019
375.737	310.617
380.531	295.91
385.323	239.929
390.113	344.67
394.9	505.144
399.684	666.365
404.466	596.327
409.245	435.029
414.022	615.473
418.797	542.645
423.569	686.514
428.338	690.547
433.105	395.519
437.87	261.085
442.632	116.478
447.391	21.7891
452.149	92.0273
456.903	68.5801
461.655	76.0156
466.405	191.148
471.152	22.7969
475.897	147.768
480.639	324.004
485.378	494.668
490.116	234.023
494.85	53.5625
499.582	148.541
504.312	535.354
509.039	536.231
513.764	284.066
518.486	583.273
523.206	1037.27
527.923	1358.97
532.638	1051.38
537.35	1104.52
542.059	1388.3
546.766	1798.76
551.471	1150.97
556.173	631.748
560.873	499.092
565.57	200.996
570.264	53.4258
574.957	56.3164
579.646	190.512
584.333	229.5
589.018	17.6602
593.7	92.7305
598.379	144.623
603.056	8.00391
607.73	242.695
612.402	219.057
617.072	200.24
621.739	246.41
626.403	509.924
631.065	872.078
635.724	1770.03
640.381	3929.95
645.035	5905.4
649.687	4959.26
654.336	2618.83
658.983	1632.3
663.627	1051.36
668.268	781.102
672.907	656.873
677.544	518.519
682.178	465.076
686.809	492.33
691.438	951.269
696.065	1454.89
700.688	1355.97
705.31	1250.32
709.929	1884.4
714.545	2984.52
719.158	2213.95
723.77	1153.29
728.378	553.299
732.984	35
737.588	36.4355
742.189	133.469
746.787	112.625
751.383	130.385
755.976	64.9375
760.567	191.373
765.155	135.65
769.741	167.24
774.324	7.69531
778.904	55.459
783.482	95.875
788.058	43.9473
792.631	149.65
797.201	164.996
801.769	9.87891
806.334	113.182
810.897	125.068
815.457	34.4219
820.014	111.231
824.569	121.439
829.122	179.709
833.671	217.809
838.219	667.752
842.763	225.555
847.306	56.248
851.845	68.8769
856.382	248.441
860.917	138.924
865.448	381.359
869.978	355.309
874.505	144.453
879.029	145.805
883.55	220.789
888.069	578.713
892.586	1446.47
897.1	4193.05
901.611	13292
906.12	20968.9
910.626	11120.5
915.129	2807.07
919.63	1202.84
924.129	1018.8
928.625	880.318
933.118	872.182
937.609	666.688
942.097	634.148
946.582	474.848
951.065	685.994
955.546	312.893
960.023	213.799
964.499	67.5879
968.971	553.297
973.441	507.738
977.909	713.16
982.374	1201.78
986.836	1175.62
991.295	941.566
995.753	523.885
1000.21	530.852
1004.66	1093.79
1009.11	1416.86
1013.55	993.518
1018	815.176
1022.44	386.312
1026.88	280.121
1031.32	514.557
1035.75	254.117
1040.18	89.4023
1044.61	228.152
1049.04	25.6465
1053.46	293.793
1057.88	216.461
1062.3	565.066
1066.71	726.135
1071.13	1206.24
1075.54	5650.08
1079.94	19090.6
1084.35	32766.8
1088.75	25799.7
1093.15	25190
1097.55	7269.04
1101.94	937.922
1106.34	318.402
1110.73	258.842
1115.11	114.723
1119.5	334.672
1123.88	549.932
1128.26	191.4
1132.63	3.19727
1137.01	264.269
1141.38	30.5391
1145.75	48.2344
1150.12	13.8594
1154.48	201.928
1158.84	295.217
1163.2	11.373
1167.55	44.2188
1171.91	123.293
1176.26	290.615
1180.61	168.44
1184.95	312.371
1189.29	139.035
1193.63	196.309
1197.97	354.59
1202.31	75.3223
1206.64	66.1758
1210.97	121.158
1215.29	73.6777
1219.62	77.5977
1223.94	256.418
1228.26	27.418
1232.57	157.574
1236.89	349.537
1241.2	135.17
1245.51	90.959
1249.81	44.7168
1254.12	149.393
1258.42	93.3008
1262.72	434.644
1267.01	94.6016
1271.3	216.682
1275.59	93.7676
1279.88	363.424
1284.17	178.535
1288.45	278
1292.73	28.8008
1297.01	280.934
1301.28	209.781
1305.55	370.258
1309.82	9.90234
1314.09	249.637
1318.35	301.918
1322.61	300.961
1326.87	314.703
1331.13	153.965
1335.38	233.043
1339.63	277.141
1343.88	92.2305
1348.12	273.684
1352.37	255.144
1356.61	250.133
1360.85	352.027
1365.08	350.117
1369.31	111.047
1373.54	194.269
1377.77	22.918
1381.99	127.824
1386.22	260.5
1390.43	354.547
1394.65	52.1211
1398.87	333.594
1403.08	179.68
1407.29	347.934
1411.49	563.551
1415.69	373.5
1419.89	359.75
1424.09	547.219
1428.29	867.828
1432.48	629.082
1436.67	844.578
1440.86	370.879
1445.04	170.445
1449.23	93.332
1453.4	436.363
1457.58	21.1406
1461.76	129.414
1465.93	21.6094
1470.1	263.172
1474.26	349.977
1478.43	41.2109
1482.59	209.672
1486.75	262.672
1490.9	174.223
1495.06	411.695
1499.21	986.449
1503.35	667.312
1507.5	705.519
1511.64	541.176
1515.78	553.894
1519.92	336.074
1524.05	252.953
1528.18	95.2539
1532.31	165.606
1536.44	119.91
1540.56	339.32
1544.69	131.238
1548.8	345.289
1552.92	226.875
1557.03	146.492
1561.14	235.598
1565.25	214.758
1569.36	188.453
