Measurement: Raman, 514 nm, ccw, Raman Data Processed
Mineral: Tilleyite
Rruff sample: R050227
Ideal chemistry: Ca_5_Si_2_O_7_(CO_3_)_2_
Locality: Crestmore Quarry, Riverside County, California, USA
Source: Marcus Origlieri
Description: Aggregate of colorless subhedral crystals
Pin_id: L00383
Orientation: Laser parallel to a* (1 0 0). Fiducial mark perpendicular to laser is parallel to b [0 1 0]
Raman shift (cm-1)	intensity
95.948	0
100.883	391.478
105.815	783.918
110.744	1775.32
115.671	2030.99
120.596	2117.7
125.519	1461.21
130.439	472.815
135.356	237.785
140.271	497.789
145.184	964.883
150.094	1600.65
155.002	2060.48
159.908	2193.85
164.811	1038.3
169.711	241.375
174.61	0.685547
179.505	328.121
184.399	260.717
189.29	110.738
194.178	526.75
199.064	681.33
203.948	305.051
208.829	56.6191
213.708	227.344
218.585	7.66992
223.459	95.3828
228.33	184.945
233.199	336.623
238.066	171.078
242.93	445.309
247.792	919.08
252.651	1468.93
257.508	1753.76
262.363	2038.83
267.215	1702.52
272.064	1623.15
276.912	2733.56
281.756	3342.28
286.598	3476.85
291.438	3783.95
296.276	3968.61
301.111	4208.59
305.943	4002.59
310.773	2947.12
315.601	2421.02
320.426	2145.71
325.248	1413.94
330.068	974.738
334.886	843.199
339.701	958.641
344.514	1546.85
349.324	1910.61
354.132	2469.4
358.938	1987.12
363.741	1363.33
368.541	636.356
373.339	506.838
378.135	179.004
382.928	284.533
387.718	339.629
392.506	708.389
397.292	593.727
402.075	314.623
406.856	158.232
411.634	112.193
416.41	231.397
421.183	157.934
425.954	162.766
430.722	1.53906
435.488	19.8398
440.251	128.297
445.012	49.5801
449.77	60.959
454.526	165.662
459.28	155.662
464.03	190.18
468.779	113.201
473.525	314.678
478.268	137.537
483.009	98.8125
487.747	143.449
492.483	245.428
497.217	73.8574
501.948	380.461
506.676	375.488
511.402	459.106
516.125	277.135
520.846	551.375
525.565	917.064
530.281	975.006
534.994	841.758
539.705	809.166
544.413	1237.56
549.119	1030.41
553.822	946.918
558.523	499.818
563.222	421.096
567.917	399.334
572.611	395.41
577.302	243
581.99	617.711
586.676	454.935
591.359	404.801
596.04	519.418
600.718	453.566
605.394	364.441
610.067	576.875
614.737	923.447
619.406	1534.82
624.071	1166.99
628.734	1235.25
633.395	1411.97
638.053	2658.42
642.708	4680.8
647.361	5518.08
652.012	3725.65
656.66	1566.64
661.305	836.518
665.948	558.092
670.588	76.1152
675.226	91.6914
679.861	32.8125
684.494	173.262
689.124	314.938
693.752	440.273
698.377	733.305
702.999	624.016
707.619	68.4375
712.237	367.926
716.852	803.957
721.464	547.356
726.074	142.961
730.681	110.039
735.286	237.859
739.888	115.879
744.488	62.1562
749.085	54.1367
753.68	108.898
758.272	9.20312
762.861	129.004
767.448	256.281
772.033	140.16
776.614	67.1484
781.194	31.6992
785.77	270.719
790.345	255.039
794.916	158.246
799.485	1.625
804.052	234.402
808.616	315.586
813.177	154.969
817.736	529.262
822.292	371.519
826.846	315.789
831.397	421.652
835.945	604.547
840.491	643.59
845.035	761.109
849.576	985.188
854.114	1171.36
858.65	1206.62
863.183	1045.91
867.713	940.738
872.241	673.809
876.767	729.309
881.29	725.266
885.81	870.531
890.328	1111.18
894.843	2107.14
899.356	5370.1
903.866	12793.9
908.373	14620.6
912.878	6135.93
917.38	1572.83
921.88	1173.38
926.377	1066.46
930.872	1102.89
935.364	530.227
939.853	599.484
944.34	611.785
948.824	1064.41
953.306	1309.36
957.785	931.824
962.261	399.856
966.735	266.215
971.207	11.8164
975.675	390.906
980.141	548.246
984.605	778.926
989.066	239.941
993.524	312.297
997.98	1101.07
1002.43	836.438
1006.88	1654.02
1011.33	2064.77
1015.78	1337.64
1020.22	1136.55
1024.66	487.039
1029.1	334.738
1033.53	489.348
1037.97	387.508
1042.4	383.871
1046.82	17.5117
1051.25	140.477
1055.67	332.688
1060.09	379.731
1064.51	416.426
1068.92	795.383
1073.33	2729.6
1077.74	10687.1
1082.15	12853.8
1086.55	6435.73
1090.95	13788.9
1095.35	14876.7
1099.75	2115.35
1104.14	549.078
1108.53	355.273
1112.92	189.707
1117.31	432.391
1121.69	132.246
1126.07	173.289
1130.45	169.246
1134.82	193.625
1139.19	22.8828
1143.57	33.293
1147.93	98.5234
1152.3	2.22266
1156.66	71.8242
1161.02	358.445
1165.38	51.2734
1169.73	253.715
1174.08	221.519
1178.43	128.894
1182.78	373.039
1187.12	17.2461
1191.46	221.484
1195.8	152.703
1200.14	171.992
1204.47	129.34
1208.8	162.75
1213.13	62.2109
1217.46	213.731
1221.78	10.2695
1226.1	454.606
1230.42	206.035
1234.73	260.375
1239.04	416.047
1243.35	517.695
1247.66	437.211
1251.97	284.731
1256.27	70.2578
1260.57	214.699
1264.86	735.227
1269.16	892.356
1273.45	628.57
1277.74	822.059
1282.03	608.281
1286.31	406.562
1290.59	802.59
1294.87	885.945
1299.14	637.543
1303.42	630.207
1307.69	868.926
1311.95	853.781
1316.22	942.656
1320.48	637.996
1324.74	541.863
1329	492.766
1333.26	302.719
1337.51	57.7266
1341.76	476.777
1346	494.676
1350.25	340.152
1354.49	42.082
1358.73	199.269
1362.96	364.195
1367.2	127.875
1371.43	364.68
1375.66	252.746
1379.88	368.84
1384.11	416.582
1388.33	452.254
1392.54	129.418
1396.76	340.816
1400.97	91.75
1405.18	260.723
1409.39	38.5859
1413.59	343.606
1417.8	123.387
1421.99	414.469
1426.19	411.57
1430.38	828.273
1434.58	993.281
1438.77	1273.02
1442.95	1516.29
1447.13	1698.91
1451.32	1827.07
1455.49	1493.98
1459.67	1517.01
1463.84	1038.32
1468.01	828.281
1472.18	390.953
1476.35	440.129
1480.51	766.473
1484.67	355.117
1488.83	300.055
1492.98	349.125
1497.13	329.922
1501.28	466.039
1505.43	213.16
1509.57	83.6133
1513.71	103.781
1517.85	125.84
1521.99	216.891
1526.12	151.402
1530.25	403.961
1534.38	378.312
1538.5	262.199
1542.62	145.613
1546.74	360.156
1550.86	241.312
1554.98	355.293
1559.09	349.074
1563.2	224.824
1567.31	4.73047
1571.41	0
