Measurement: Raman, 514 nm, ccw, Raman Data Processed
Mineral: Tilleyite
Rruff sample: R050227
Ideal chemistry: Ca_5_Si_2_O_7_(CO_3_)_2_
Locality: Crestmore Quarry, Riverside County, California, USA
Source: Marcus Origlieri
Description: Aggregate of colorless subhedral crystals
Pin_id: L00359
Orientation: Laser parallel to (1 0 1). Fiducial mark perpendicular to laser is parallel to b [0 1 0]
Raman shift (cm-1)	intensity
95.948	0
100.883	64.832
105.815	1228.08
110.744	3273.11
115.671	1797.6
120.596	1831.79
125.519	1579.06
130.439	399.737
135.356	215.378
140.271	769.638
145.184	508.024
150.094	880.77
155.002	2498.1
159.908	3591.2
164.811	1333.61
169.711	174.787
174.61	14.666
179.505	265.022
184.399	136.406
189.29	446.254
194.178	1428.46
199.064	1346.26
203.948	1020.93
208.829	325.897
213.708	126.073
218.585	251.984
223.459	832.436
228.33	1592.51
233.199	1286.07
238.066	562.95
242.93	493.688
247.792	1024.06
252.651	1987.69
257.508	4378.99
262.363	5140.57
267.215	3370.94
272.064	2909.14
276.912	3928.05
281.756	4343.16
286.598	4919.2
291.438	5023.38
296.276	5809.22
301.111	9220.92
305.943	7146.04
310.773	4408.77
315.601	3595.72
320.426	2816.55
325.248	1768.33
330.068	1150.25
334.886	992.622
339.701	1487.77
344.514	2367.36
349.324	4141.86
354.132	6127.56
358.938	4784.96
363.741	2702.47
368.541	1351.1
373.339	712.753
378.135	249.731
382.928	310.473
387.718	117.987
392.506	119.514
397.292	147.092
402.075	236.635
406.856	89.0859
411.634	142.649
416.41	62.3408
421.183	146.884
425.954	79.7764
430.722	70.8428
435.488	114.414
440.251	19.6592
445.012	143.402
449.77	56.793
454.526	12.1191
459.28	6.01172
464.03	64.3262
468.779	85.9356
473.525	207.242
478.268	171.58
483.009	146.412
487.747	337.602
492.483	161.205
497.217	23.2793
501.948	393.654
506.676	258.754
511.402	352.191
516.125	342.098
520.846	632.561
525.565	1216.42
530.281	1219.41
534.994	804.15
539.705	500.291
544.413	384.826
549.119	261.973
553.822	369.691
558.523	300.877
563.222	241.867
567.917	317.76
572.611	225.721
577.302	162.467
581.99	304.975
586.676	156.721
591.359	158.106
596.04	201.629
600.718	134.996
605.394	321.113
610.067	139.717
614.737	316.412
619.406	327.504
624.071	353.754
628.734	485.826
633.395	779.045
638.053	1731.91
642.708	4278.5
647.361	7286.66
652.012	4359.57
656.66	1926.73
661.305	937.244
665.948	512.039
670.588	368.664
675.226	486.59
679.861	233.588
684.494	389.359
689.124	172.297
693.752	456.565
698.377	693.143
702.999	764.475
707.619	546.867
712.237	515.539
716.852	767.568
721.464	612.924
726.074	63.9961
730.681	112.978
735.286	248.144
739.888	155.963
744.488	70.2656
749.085	76.9746
753.68	23.8691
758.272	340.566
762.861	49.1094
767.448	210.318
772.033	75.8106
776.614	44.5879
781.194	22.0566
785.77	81.2031
790.345	198.908
794.916	51.8848
799.485	127.703
804.052	6.02734
808.616	60.0176
813.177	97.4863
817.736	35.5547
822.292	91.3164
826.846	48.5215
831.397	188.904
835.945	204.109
840.491	133.238
845.035	204.473
849.576	246.791
854.114	183.121
858.65	175.533
863.183	189.891
867.713	749.082
872.241	365.24
876.767	44.2441
881.29	356.736
885.81	249.559
890.328	606.174
894.843	1310.51
899.356	3034.91
903.866	10687.3
908.373	19415.2
912.878	6593.45
917.38	1962.07
921.88	1025.39
926.377	1362.57
930.872	1004.52
935.364	713.092
939.853	335.242
944.34	439.103
948.824	1159.99
953.306	2021.63
957.785	593.648
962.261	494.238
966.735	199.953
971.207	140.209
975.675	561.91
980.141	776.049
984.605	852.627
989.066	157.207
993.524	236.143
997.98	201.316
1002.43	644.686
1006.88	541.137
1011.33	1208.67
1015.78	731.769
1020.22	443.963
1024.66	220.74
1029.1	162.559
1033.53	180.664
1037.97	5.11328
1042.4	115.004
1046.82	335.861
1051.25	78.8027
1055.67	114.877
1060.09	329.598
1064.51	293.004
1068.92	331.072
1073.33	1415.69
1077.74	8071.93
1082.15	14855
1086.55	3993.48
1090.95	9666.52
1095.35	17063.8
1099.75	2122.11
1104.14	648.57
1108.53	125.25
1112.92	279.168
1117.31	253.613
1121.69	476.582
1126.07	668.711
1130.45	131.363
1134.82	178.672
1139.19	326.598
1143.57	117.25
1147.93	218.957
1152.3	49.9531
1156.66	208.394
1161.02	335.277
1165.38	298.562
1169.73	70.2812
1174.08	128.422
1178.43	55.2969
1182.78	221.457
1187.12	237.793
1191.46	292.394
1195.8	297.402
1200.14	117.789
1204.47	149.539
1208.8	345.703
1213.13	194.188
1217.46	133.918
1221.78	132.051
1226.1	173.531
1230.42	342.324
1234.73	234.383
1239.04	603.719
1243.35	516.754
1247.66	437.168
1251.97	237.43
1256.27	319.91
1260.57	91.1055
1264.86	274.762
1269.16	152.863
1273.45	132.176
1277.74	149.879
1282.03	373.922
1286.31	286.215
1290.59	314.25
1294.87	312.797
1299.14	224.769
1303.42	187.156
1307.69	42.75
1311.95	399.57
1316.22	305.324
1320.48	322.473
1324.74	303.738
1329	208.012
1333.26	394.606
1337.51	264.773
1341.76	329.438
1346	413.414
1350.25	447.109
1354.49	472.352
1358.73	208.797
1362.96	375.727
1367.2	17.1328
1371.43	397.469
1375.66	414.461
1379.88	447.602
1384.11	164.238
1388.33	71.9062
1392.54	7.35938
1396.76	80.2578
1400.97	294.883
1405.18	102.203
1409.39	330.977
1413.59	357.008
1417.8	270
1421.99	25.5469
1426.19	380.102
1430.38	268.496
1434.58	133.234
1438.77	208.602
1442.95	63.3711
1447.13	12.5664
1451.32	190.519
1455.49	15.6797
1459.67	48.9805
1463.84	423.418
1468.01	78.9688
1472.18	73
1476.35	305.137
1480.51	96.3906
1484.67	315.406
1488.83	193.781
1492.98	373.414
1497.13	246.305
1501.28	485.82
1505.43	170.984
1509.57	410.148
1513.71	152.281
1517.85	453.766
1521.99	384.246
1526.12	356.805
1530.25	320.672
1534.38	240.266
1538.5	266.898
1542.62	125.531
1546.74	187.731
1550.86	143.609
1554.98	330.312
1559.09	508.934
1563.2	61.5117
1567.31	225.879
1571.41	0
