Measurement: Raman, 514 nm, ccw, Raman Data Processed
Mineral: Tilleyite
Rruff sample: R050227
Ideal chemistry: Ca_5_Si_2_O_7_(CO_3_)_2_
Locality: Crestmore Quarry, Riverside County, California, USA
Source: Marcus Origlieri
Description: Aggregate of colorless subhedral crystals
Pin_id: L00225
Orientation: Laser parallel to c* (0 0 1). Fiducial mark perpendicular to laser is parallel to a [1 0 0]
Raman shift (cm-1)	intensity
79.895	0
84.837	238.416
89.777	1328.26
94.714	2231.88
99.649	1937.78
104.582	2639.98
109.512	4129.67
114.44	4122.22
119.365	5364.43
124.288	3546.54
129.209	1993.17
134.127	2047.33
139.043	3649.09
143.956	4537.09
148.867	4966.72
153.775	5796.68
158.681	5049.2
163.585	2098.29
168.486	675.044
173.385	702.656
178.282	1391.98
183.176	1283.8
188.067	1100.98
192.956	1666.94
197.843	1631
202.727	1083.1
207.609	58.9048
212.489	320.216
217.366	333.205
222.24	60.23
227.112	398.863
231.982	729.331
236.849	933.148
241.714	942.455
246.577	881.544
251.437	1210.82
256.294	1593.34
261.149	2028.43
266.002	2387.32
270.852	3872.72
275.7	5616.51
280.545	6463.59
285.388	6186.83
290.229	5541.17
295.067	5369.24
299.902	5850.01
304.735	4670.05
309.566	3150.45
314.394	2820.44
319.22	2359.18
324.043	1853.93
328.864	1142.22
333.682	964.796
338.498	1168.23
343.311	1418.76
348.122	2228.88
352.931	2884.95
357.737	2739.93
362.54	2392.15
367.341	2055.19
372.14	1497.89
376.936	749.266
381.73	299.161
386.521	359.368
391.31	719.75
396.096	865.205
400.88	669.652
405.661	452.026
410.44	172.272
415.216	185.345
419.99	411.201
424.761	391.802
429.53	221.551
434.297	87.1182
439.061	70.3057
443.822	56.7407
448.581	40.4492
453.337	49.126
458.091	70.8242
462.843	63.5703
467.592	12.3638
472.338	2.45459
477.082	150.482
481.824	352.669
486.563	150.294
491.3	128.339
496.034	230.764
500.765	289.106
505.494	497.748
510.221	336.376
514.945	380.557
519.666	736.358
524.385	1049.76
529.102	1149.57
533.816	872.754
538.527	1222.34
543.236	1663.19
547.943	1567.32
552.647	1041.67
557.348	765.213
562.047	477.944
566.744	428.943
571.438	313.918
576.129	247.87
580.818	221.81
585.504	245.03
590.188	259.205
594.87	172.727
599.549	159.813
604.225	84.1685
608.899	143.152
613.57	150.921
618.239	333.768
622.905	451.836
627.569	653.568
632.23	1259.08
636.889	3019.21
641.545	6447.74
646.198	8583.88
650.849	5696.32
655.498	2847.41
660.144	1761.24
664.787	1344.51
669.428	1314.89
674.067	920.234
678.703	853.855
683.336	672.812
687.967	899.275
692.595	1685.4
697.221	2370.89
701.844	1753.76
706.465	1440.03
711.083	2217.97
715.698	2969.61
720.311	2141.98
724.922	764.963
729.53	907.432
734.135	238.393
738.738	6.68066
743.338	61.6406
747.936	121.114
752.531	90.6221
757.124	33.7412
761.714	37.5605
766.302	100.467
770.887	25.1045
775.469	58.2539
780.049	28.2422
784.626	14.3105
789.201	30.8574
793.773	148.108
798.343	153.331
802.91	24.5684
807.475	29.0146
812.037	49.8359
816.596	32.2002
821.153	114.192
825.707	183.878
830.259	463.335
834.808	923.591
839.355	968.657
843.899	530.55
848.441	205.311
852.98	142.985
857.516	138.603
862.05	303.196
866.581	639.782
871.11	270.348
875.636	214.606
880.159	237.846
884.68	509.762
889.199	1127.34
893.714	2474.18
898.228	7389.02
902.738	22803.2
907.246	30151.4
911.752	11664.6
916.255	2921.28
920.755	1459.93
925.253	1491.87
929.748	1208.27
934.241	839.36
938.731	535.04
943.218	558.172
947.703	1265.6
952.186	1396.65
956.665	607.214
961.142	273.372
965.617	136.35
970.089	285.474
974.558	486.75
979.025	909.154
983.489	1029.67
987.951	539.639
992.41	624.11
996.866	639.119
1001.32	1187.01
1005.77	2280.03
1010.22	4083.02
1014.67	3056.65
1019.11	1123.11
1023.55	638.383
1027.99	737.325
1032.42	873.632
1036.86	515.107
1041.29	289.423
1045.72	325.339
1050.14	250.874
1054.56	342.644
1058.98	553.665
1063.4	747.873
1067.82	1213.84
1072.23	3369.49
1076.64	22067.5
1081.05	36426.5
1085.45	22823.3
1089.85	31532.8
1094.25	37274.2
1098.65	6039.22
1103.04	1167.51
1107.43	519.489
1111.82	386.688
1116.21	250.438
1120.59	232.366
1124.97	201.297
1129.35	93.2871
1133.73	128.755
1138.1	68.7148
1142.47	77.9121
1146.84	113.887
1151.21	24.7725
1155.57	38.8164
1159.93	15.8818
1164.29	25.9346
1168.64	58.9522
1172.99	20.4258
1177.34	62.7315
1181.69	78.3311
1186.04	57.6143
1190.38	86.8994
1194.72	24.2822
1199.05	101.062
1203.39	183.198
1207.72	151.915
1212.05	69.3574
1216.37	43.7295
1220.7	69.0234
1225.02	94.7168
1229.34	2.61816
1233.65	8.70508
1237.97	141.935
1242.28	270.636
1246.59	197.125
1250.89	287.874
1255.19	56.2227
1259.49	231.779
1263.79	214.287
1268.09	400.119
1272.38	152.84
1276.67	151.628
1280.95	156.321
1285.24	292.668
1289.52	173.885
1293.8	223.714
1298.08	202.686
1302.35	181.731
1306.62	235.693
1310.89	69.5772
1315.15	182.285
1319.42	189.074
1323.68	9.92578
1327.94	144.41
1332.19	124.103
1336.44	129.58
1340.69	438.951
1344.94	53.3965
1349.19	12.8867
1353.43	279.435
1357.67	198.883
1361.9	146.707
1366.14	153.658
1370.37	60.3184
1374.6	139.756
1378.83	146.674
1383.05	284.869
1387.27	137.484
1391.49	211.973
1395.7	146
1399.92	203.758
1404.13	193.315
1408.34	842.547
1412.54	1093.82
1416.74	585.084
1420.94	662.691
1425.14	1352.11
1429.34	1177.97
1433.53	1005.07
1437.72	543.029
1441.9	224.965
1446.09	101.219
1450.27	230.42
1454.45	252.266
1458.63	99.7344
1462.8	115.256
1466.97	144.475
1471.14	194.273
1475.31	137.744
1479.47	94.9824
1483.63	163.988
1487.79	393.539
1491.94	523.125
1496.09	1619.88
1500.24	4627.28
1504.39	1944.5
1508.54	870.697
1512.68	725.594
1516.82	923.619
1520.95	515.988
1525.09	288.883
1529.22	89.5801
1533.35	208.025
1537.47	139.94
1541.6	85.918
1545.72	185.438
1549.83	69.7598
1553.95	511.469
1558.06	109.379
1562.17	203.799
1566.28	355.006
1570.38	18.7773
