Measurement: Raman, 514 nm, ccw, Raman Data Processed
Mineral: Tilleyite
Rruff sample: R050227
Ideal chemistry: Ca_5_Si_2_O_7_(CO_3_)_2_
Locality: Crestmore Quarry, Riverside County, California, USA
Source: Marcus Origlieri
Description: Aggregate of colorless subhedral crystals
Pin_id: L00225
Orientation: Laser parallel to c* (0 0 1). Fiducial mark perpendicular to laser is parallel to a [1 0 0]
Raman shift (cm-1)	intensity
79.895	0
84.837	222.895
89.777	1639.75
94.714	2601.99
99.649	2476.59
104.582	3809.25
109.512	6094.9
114.44	6274.78
119.365	7383.05
124.288	4181.51
129.209	1953
134.127	1784.94
139.043	3175.38
143.956	3888.8
148.867	5158.83
153.775	7165.29
158.681	5749.51
163.585	2292.2
168.486	583.605
173.385	856.03
178.282	1621.39
183.176	1425.5
188.067	1287.15
192.956	1955.37
197.843	2073.88
202.727	1277.95
207.609	257.163
212.489	401.748
217.366	224.04
222.24	399.022
227.112	1116.45
231.982	1395.21
236.849	1290.15
241.714	948.16
246.577	1245.49
251.437	2561.5
256.294	3958.19
261.149	4278.84
266.002	4073.66
270.852	5627.35
275.7	8438.75
280.545	10131.7
285.388	9522.07
290.229	8228.3
295.067	8534.44
299.902	9472.32
304.735	7099.69
309.566	4927.55
314.394	4107.02
319.22	3338.83
324.043	2470.11
328.864	1572.9
333.682	1394.45
338.498	1780.23
343.311	2666.21
348.122	4692.25
352.931	5810.79
357.737	4983.17
362.54	3521.09
367.341	2628.82
372.14	1660.57
376.936	631.973
381.73	300.91
386.521	245.15
391.31	576.54
396.096	613.968
400.88	456.216
405.661	311.588
410.44	156.638
415.216	148.439
419.99	291.935
424.761	311.631
429.53	120.839
434.297	94.9121
439.061	65.2046
443.822	164.139
448.581	6.49951
453.337	25.395
458.091	186.652
462.843	30.0796
467.592	71.8975
472.338	186.765
477.082	346.143
481.824	546.175
486.563	320.516
491.3	268.225
496.034	261.294
500.765	567.237
505.494	651.283
510.221	591.839
514.945	432.682
519.666	924.773
524.385	1582.1
529.102	1522.67
533.816	1076.52
538.527	1179.74
543.236	1785.2
547.943	1574.7
552.647	1126.23
557.348	639.766
562.047	420.306
566.744	286.83
571.438	389.245
576.129	305.77
580.818	210.701
585.504	173.781
590.188	111.347
594.87	93.6792
599.549	195.715
604.225	116.21
608.899	194.015
613.57	140.607
618.239	276.464
622.905	551.269
627.569	741.127
632.23	1575.17
636.889	3564.39
641.545	7826.11
646.198	9992.71
650.849	6343.6
655.498	3185.27
660.144	2423.2
664.787	1657.39
669.428	1430.1
674.067	1110.38
678.703	796.194
683.336	907.148
687.967	1005.42
692.595	1731.64
697.221	2459.98
701.844	2066.48
706.465	1631.63
711.083	2862.39
715.698	3094.31
720.311	2122.45
724.922	823.456
729.53	184.061
734.135	110.957
738.738	151.694
743.338	15.8818
747.936	111.172
752.531	49.9839
757.124	388.518
761.714	3.33203
766.302	61.8418
770.887	44.1162
775.469	4.88965
780.049	73.0811
784.626	42.5801
789.201	57.4883
793.773	5.77539
798.343	86.416
802.91	49.5225
807.475	15.209
812.037	109.634
816.596	44.9004
821.153	29.9658
825.707	120.686
830.259	408.115
834.808	680.287
839.355	627.219
843.899	275.94
848.441	80.043
852.98	15.082
857.516	117.171
862.05	395.304
866.581	616.119
871.11	359.043
875.636	321.795
880.159	301.03
884.68	536.822
889.199	1078.65
893.714	2540.73
898.228	7879.48
902.738	24976.6
907.246	31036.6
911.752	12061.1
916.255	3229.34
920.755	1761.23
925.253	1965.42
929.748	1895.72
934.241	1224.68
938.731	794.029
943.218	829.637
947.703	1566
952.186	2061.46
956.665	872.685
961.142	357.264
965.617	363.931
970.089	348.832
974.558	806.922
979.025	1459.13
983.489	1494.38
987.951	1096.32
992.41	751.982
996.866	789.161
1001.32	1515.35
1005.77	2451.03
1010.22	3875.46
1014.67	2875.96
1019.11	1338.46
1023.55	796.122
1027.99	771.878
1032.42	688.31
1036.86	529.281
1041.29	347.346
1045.72	380.076
1050.14	311.027
1054.56	434.956
1058.98	593.134
1063.4	873.502
1067.82	1260.49
1072.23	3545.1
1076.64	24175.7
1081.05	35779.2
1085.45	29958.4
1089.85	34855.8
1094.25	34729.1
1098.65	6260.22
1103.04	1313.17
1107.43	501.348
1111.82	348.772
1116.21	186.667
1120.59	256.046
1124.97	160.39
1129.35	19.1729
1133.73	2.35449
1138.1	53.9072
1142.47	85.875
1146.84	48.2871
1151.21	31.2305
1155.57	10.8857
1159.93	27.4531
1164.29	23.335
1168.64	1544.53
1172.99	40.4668
1177.34	192.44
1181.69	164.03
1186.04	52.0225
1190.38	23.9463
1194.72	40.7842
1199.05	60.2373
1203.39	19.6523
1207.72	118.498
1212.05	104.589
1216.37	91.0801
1220.7	69.7471
1225.02	17.8037
1229.34	200.69
1233.65	285.5
1237.97	81.541
1242.28	143.505
1246.59	110.904
1250.89	249.978
1255.19	209.441
1259.49	286.81
1263.79	253.281
1268.09	274.602
1272.38	305.433
1276.67	164.998
1280.95	217.785
1285.24	280.312
1289.52	326.681
1293.8	94.792
1298.08	260.601
1302.35	256.383
1306.62	197.884
1310.89	135.318
1315.15	211.512
1319.42	123.088
1323.68	172.088
1327.94	76.7324
1332.19	153.59
1336.44	62.2744
1340.69	404.174
1344.94	61.6289
1349.19	203.29
1353.43	112.744
1357.67	147.414
1361.9	207.005
1366.14	127.34
1370.37	195.611
1374.6	62.9688
1378.83	146.385
1383.05	5.06445
1387.27	121.59
1391.49	263.647
1395.7	208.4
1399.92	147.33
1404.13	260.484
1408.34	747.551
1412.54	925.094
1416.74	525.516
1420.94	714.412
1425.14	900.271
1429.34	1270.7
1433.53	1172.44
1437.72	686.834
1441.9	362.644
1446.09	168.141
1450.27	224.461
1454.45	261.18
1458.63	14.084
1462.8	15.7969
1466.97	74.0078
1471.14	149.764
1475.31	24.8809
1479.47	2.54883
1483.63	299.004
1487.79	107.106
1491.94	379.365
1496.09	1086.28
1500.24	3933.66
1504.39	1650.61
1508.54	801.045
1512.68	628.533
1516.82	1028.8
1520.95	335.125
1525.09	174.904
1529.22	167.481
1533.35	42.9062
1537.47	125.769
1541.6	319.357
1545.72	218.25
1549.83	186.279
1553.95	117.074
1558.06	142.898
1562.17	79.4375
1566.28	149.674
1570.38	91.2637
