Measurement: Raman, 514 nm, ccw, Raman Data Processed
Mineral: Tilleyite
Rruff sample: R050227
Ideal chemistry: Ca_5_Si_2_O_7_(CO_3_)_2_
Locality: Crestmore Quarry, Riverside County, California, USA
Source: Marcus Origlieri
Description: Aggregate of colorless subhedral crystals
Pin_id: L00383
Orientation: Laser parallel to a* (1 0 0). Fiducial mark perpendicular to laser is parallel to b [0 1 0]
Raman shift (cm-1)	intensity
95.948	0
100.883	282.496
105.815	713.637
110.744	1275.38
115.671	1637.13
120.596	1296.82
125.519	952.809
130.439	448.453
135.356	401.943
140.271	810.769
145.184	1012.91
150.094	1292.93
155.002	1514.95
159.908	1335.16
164.811	327.555
169.711	187.65
174.61	68.3516
179.505	61.8633
184.399	166.174
189.29	201.231
194.178	612.133
199.064	618.219
203.948	412.752
208.829	70.1504
213.708	63.8789
218.585	230.113
223.459	1.66211
228.33	148.076
233.199	59.8535
238.066	186.711
242.93	397.275
247.792	485.053
252.651	784.404
257.508	1282.38
262.363	1250.56
267.215	1318.89
272.064	1806.69
276.912	2192.31
281.756	2902.05
286.598	3030.08
291.438	3142.17
296.276	3211.4
301.111	3336.63
305.943	3058.05
310.773	1824.15
315.601	1459.1
320.426	1103.36
325.248	798.311
330.068	637.141
334.886	414.955
339.701	579.477
344.514	695.506
349.324	1138.61
354.132	1140.33
358.938	1187.61
363.741	892.486
368.541	677.164
373.339	414.199
378.135	228.193
382.928	1045.82
387.718	343.09
392.506	323.059
397.292	579.639
402.075	314.815
406.856	78.5957
411.634	110.846
416.41	188.537
421.183	445.047
425.954	167.057
430.722	413.002
435.488	56.0039
440.251	48.6797
445.012	47.9277
449.77	172.551
454.526	34.0625
459.28	97.8398
464.03	58.0898
468.779	95.7012
473.525	111.853
478.268	229.639
483.009	104.988
487.747	216.906
492.483	46.373
497.217	35.2246
501.948	273.68
506.676	404.416
511.402	342.217
516.125	527.016
520.846	767.295
525.565	1069.05
530.281	877.506
534.994	952.111
539.705	950.221
544.413	1305.49
549.119	1242.61
553.822	680.787
558.523	530.693
563.222	427.916
567.917	203.406
572.611	282.467
577.302	421.574
581.99	277.281
586.676	236.66
591.359	416.615
596.04	198.273
600.718	553.131
605.394	316.457
610.067	475.215
614.737	805.885
619.406	1397.65
624.071	1382.54
628.734	1124.88
633.395	1182.49
638.053	2570.89
642.708	4053.58
647.361	4571.66
652.012	3362.9
656.66	1250.71
661.305	909.143
665.948	286.19
670.588	132.871
675.226	267.152
679.861	191.049
684.494	81.4609
689.124	357.394
693.752	371.996
698.377	744.297
702.999	657.93
707.619	197.766
712.237	546.592
716.852	649.305
721.464	783.537
726.074	585.09
730.681	102.414
735.286	51.6484
739.888	4.30469
744.488	109.215
749.085	57.5391
753.68	57.8008
758.272	19.1562
762.861	103.203
767.448	87.9297
772.033	182.832
776.614	20.3828
781.194	40.2109
785.77	51.5703
790.345	388.789
794.916	334.926
799.485	255.988
804.052	112.992
808.616	311.219
813.177	308.328
817.736	425.473
822.292	443.281
826.846	194.731
831.397	621.277
835.945	918.207
840.491	1037.25
845.035	984.945
849.576	983.055
854.114	1374.26
858.65	1288.13
863.183	1040.94
867.713	829.004
872.241	837.078
876.767	627.316
881.29	739.469
885.81	598.258
890.328	1115.39
894.843	1894.98
899.356	4652.56
903.866	11145.3
908.373	13982.9
912.878	6198.45
917.38	1636.96
921.88	921.531
926.377	992.246
930.872	673.356
935.364	374.715
939.853	51.6523
944.34	433.363
948.824	663.762
953.306	643.469
957.785	323.539
962.261	284.949
966.735	197.656
971.207	33
975.675	112.953
980.141	224.578
984.605	187.543
989.066	374.812
993.524	69.3555
997.98	883.199
1002.43	775.543
1006.88	1298.54
1011.33	1317.64
1015.78	1120.38
1020.22	904.012
1024.66	424.488
1029.1	410.523
1033.53	363.973
1037.97	249.438
1042.4	43.957
1046.82	8.1875
1051.25	164.004
1055.67	179.34
1060.09	2.33594
1064.51	294.727
1068.92	528.652
1073.33	2556.7
1077.74	9583.56
1082.15	12603
1086.55	5953.52
1090.95	12486.3
1095.35	14392.3
1099.75	2446.4
1104.14	531.699
1108.53	517.227
1112.92	472.977
1117.31	273.879
1121.69	132.926
1126.07	334.531
1130.45	223.859
1134.82	293.312
1139.19	117.164
1143.57	9.85156
1147.93	36.5156
1152.3	100.949
1156.66	36.7656
1161.02	119.238
1165.38	361.309
1169.73	312.461
1174.08	22.4844
1178.43	103.359
1182.78	147.137
1187.12	173.398
1191.46	131.086
1195.8	24.7617
1200.14	244.062
1204.47	44.9102
1208.8	188.875
1213.13	436.152
1217.46	516.457
1221.78	346.066
1226.1	326.41
1230.42	339.773
1234.73	468.973
1239.04	361.668
1243.35	376.125
1247.66	512.594
1251.97	329.062
1256.27	141.594
1260.57	321.254
1264.86	813.019
1269.16	588.301
1273.45	658.84
1277.74	516.965
1282.03	937.359
1286.31	591.356
1290.59	678.199
1294.87	872.207
1299.14	775.078
1303.42	705.742
1307.69	890.082
1311.95	1014.09
1316.22	900.797
1320.48	761.734
1324.74	695.598
1329	482.898
1333.26	350.086
1337.51	315.152
1341.76	375.168
1346	23.9023
1350.25	264.082
1354.49	213.141
1358.73	105.258
1362.96	251.262
1367.2	170.848
1371.43	268.371
1375.66	125.414
1379.88	250.832
1384.11	275.004
1388.33	188.469
1392.54	50.2891
1396.76	153.625
1400.97	7.66406
1405.18	25.9609
1409.39	62.8438
1413.59	502.918
1417.8	379.856
1421.99	140.391
1426.19	774.707
1430.38	554.773
1434.58	1144.32
1438.77	1200.38
1442.95	1438.6
1447.13	1706.65
1451.32	1775.14
1455.49	1662.27
1459.67	1318.46
1463.84	1290.4
1468.01	787.305
1472.18	772.637
1476.35	865.91
1480.51	699.519
1484.67	249.523
1488.83	63.9258
1492.98	256.375
1497.13	619.062
1501.28	706.184
1505.43	349.418
1509.57	46.1406
1513.71	104.848
1517.85	419.406
1521.99	480.508
1526.12	162.195
1530.25	382.723
1534.38	326.824
1538.5	366.961
1542.62	482.762
1546.74	471.785
1550.86	426.457
1554.98	113.672
1559.09	186.93
1563.2	302.125
1567.31	308.785
1571.41	0
