Measurement: Raman, 514 nm, ccw, Raman Data Processed
Mineral: Titanite
Rruff sample: R050114
Ideal chemistry: CaTiSiO_5_
Locality: Isthak Valley Iskardu, Northern Areas Gilgit, Pakistan
Source: Syed Shah
Description: Yellowish-brown fragment
Measured chemistry: (Ca_0.99_Na_0.01_)(Ti_0.96_Al_0.03_Fe^3+^_0.01_)Si_1.00_O_4_(O_0.95_F_0.05_)
Pin_id: L00193
Orientation: Laser parallel to c* (0 0 1). Fiducial mark perpendicular to laser is parallel to -a [-1 0 0]
Raman shift (cm-1)	intensity
49.365	0
53.566	120.817
57.765	349.952
61.962	579.079
66.157	898.23
70.349	752.607
74.54	345.667
78.729	85.618
82.916	54.981
87.101	88.574
91.284	51.777
95.465	228.551
99.644	470.33
103.82	611.654
107.995	711.902
112.168	955.345
116.339	1174.8
120.508	1381.94
124.675	1701
128.84	2215.48
133.003	2708.93
137.164	4039.62
141.323	9585.8
145.48	17288.8
149.635	10262.5
153.788	6366.06
157.939	7202.4
162.088	8938.96
166.235	8876.95
170.38	7191.14
174.523	5970.56
178.664	5573.17
182.803	5660
186.94	5739.06
191.076	5638.39
195.209	6109.04
199.34	7131.03
203.47	8411.38
207.597	9122.07
211.722	9053.13
215.846	9143.56
219.967	9701.43
224.087	10347.4
228.204	11610.9
232.32	14052.1
236.434	16039.4
240.545	12356.8
244.655	10802.4
248.763	11650.2
252.869	12471.5
256.973	12402.1
261.075	11177.5
265.175	9584.16
269.273	7991.97
273.369	6970.86
277.463	6800.79
281.556	7720.02
285.646	9801.84
289.734	13772.5
293.821	16509.3
297.905	13827.9
301.988	10033.3
306.069	9338.45
310.147	11374.1
314.224	17670.4
318.299	25597.2
322.372	23374.5
326.443	17562.3
330.512	15400.7
334.579	14359.5
338.645	11658.7
342.708	9878.2
346.769	12317.9
350.829	20497.9
354.887	23218.2
358.942	13908.7
362.996	7469.56
367.048	4750.69
371.098	3185.1
375.146	1939.8
379.192	1073.82
383.236	520.202
387.279	537.99
391.319	437.222
395.358	452.937
399.394	188.189
403.429	102.007
407.462	57.386
411.493	104.782
415.522	66.129
419.549	921.579
423.575	2207.58
427.598	2644.09
431.619	1848.09
435.639	944.587
439.657	194.572
443.673	318.171
447.687	694.128
451.699	813.682
455.709	654.201
459.717	195.144
463.724	658.258
467.728	2444.19
471.731	4295.65
475.732	5126.63
479.731	5518.16
483.728	5520.26
487.723	6072.95
491.716	6486.25
495.708	6300.19
499.697	5614.78
503.685	5000.02
507.671	4465.94
511.655	4252.54
515.637	4159.82
519.617	4237.82
523.596	4476.52
527.572	4845.94
531.547	5156.1
535.52	5776.99
539.491	6008.64
543.46	6131.05
547.427	5664.23
551.393	4488.17
555.356	3872.9
559.318	4128.42
563.278	6704.71
567.236	11310.3
571.192	16007.8
575.147	18742
579.099	20281.6
583.05	23562
586.999	26683.2
590.946	30615.3
594.891	35678.2
598.834	40032.4
602.776	42980.1
606.715	43069.4
610.653	40448
614.589	36723.5
618.523	32442.6
622.456	27884.8
626.386	23756.1
630.315	20708.5
634.242	18562.7
638.167	16629.1
642.09	14467.8
646.012	12788.7
649.931	11141.7
653.849	10266.3
657.765	9212.25
661.679	8339.3
665.592	7267.42
669.502	6316.61
673.411	6056.87
677.318	5328.19
681.223	4820.56
685.126	4153.98
689.028	3728.43
692.927	3253.93
696.825	3050.45
700.721	2538
704.616	2294.56
708.508	2036.12
712.399	1644.66
716.288	1445.19
720.175	1376.68
724.06	943.157
727.944	826.784
731.825	690.688
735.705	659.548
739.584	595.311
743.46	366.962
747.334	200.487
751.207	217.872
755.078	41.907
758.947	130.621
762.815	161.65
766.68	312.61
770.544	273.608
774.406	162.025
778.267	71.366
782.125	217.688
785.982	541.756
789.837	910.828
793.69	1665.46
797.542	2172.59
801.391	2751.57
805.239	3523.52
809.085	4250.2
812.93	5296.77
816.772	6081.83
820.613	6527.15
824.452	6772.71
828.29	7368.52
832.125	7464.61
835.959	7730.96
839.791	8967.61
843.621	11194.6
847.45	14691.9
851.277	19739.4
855.102	25206.9
858.925	28834.5
862.746	27392.1
866.566	26669.6
870.384	29517.2
874.2	32914.7
878.015	34142.1
881.828	35859.5
885.639	38456.7
889.448	38193.8
893.256	30910.7
897.061	21287.4
900.865	14233.9
904.668	10290.2
908.468	8135.18
912.267	6205.57
916.064	4116.17
919.86	2274.37
923.653	1265.77
927.445	644.973
931.236	231.498
935.024	52.61
938.811	136.831
942.596	301.206
946.379	225.311
950.161	266.13
953.94	106.602
957.719	62.741
961.495	354.688
965.27	697.947
969.043	1332.72
972.814	2122.97
976.583	2691.04
980.351	2713.68
984.117	2455.34
987.882	2180.88
991.644	2106.33
995.405	2160.82
999.165	2172.09
1002.92	2155.75
1006.68	2021.25
1010.43	1951.17
1014.18	1975.52
1017.93	2128.29
1021.68	2421.49
1025.43	2748.1
1029.18	3010.14
1032.92	3061.59
1036.66	2938.47
1040.4	2767.77
1044.14	2419.49
1047.88	2032.62
1051.62	1648.19
1055.35	1181.17
1059.08	972.602
1062.81	752.518
1066.54	701.087
1070.27	756.387
1073.99	1027.44
1077.72	1629.18
1081.44	2837.51
1085.16	4249.81
1088.88	5632.02
1092.59	5653.58
1096.31	4345.09
1100.02	2606.3
1103.73	1347.75
1107.44	795.89
1111.15	507.147
1114.86	265.145
1118.57	141.558
1122.27	130.741
1125.97	11.329
1129.67	20.967
1133.37	6.449
1137.07	59.77
1140.76	132.484
1144.45	130.88
1148.15	1.848
1151.84	200.952
1155.53	681.593
1159.21	1514.09
1162.9	2695.46
1166.58	4005.7
1170.26	6259.81
1173.94	9914.78
1177.62	14669.6
1181.3	16454.3
1184.97	13908.8
1188.65	10433.3
1192.32	8907.57
1195.99	9331.76
1199.66	9925.83
1203.33	9299.81
1206.99	8403.67
1210.65	8127.44
1214.32	8171.11
1217.98	7364.74
1221.64	6378.31
1225.29	5922.8
1228.95	6265.89
1232.6	6602.11
1236.26	6878.11
1239.91	6889.86
1243.56	6756.29
1247.2	6670.77
1250.85	6048.77
1254.49	5100.07
1258.13	4027.38
1261.78	3278.72
1265.41	2676.32
1269.05	2342.83
1272.69	2107.54
1276.32	1961.09
1279.95	1897.86
1283.59	1855.22
1287.21	1840.16
1290.84	2145.3
1294.47	2566.47
1298.09	3059.44
1301.72	3576.96
1305.34	3713.61
1308.96	3614.23
1312.58	3441.2
1316.19	3129.83
1319.81	2992.33
1323.42	2638.45
1327.03	2226.44
1330.64	1917.3
1334.25	1635
1337.86	1494.49
1341.46	1385.71
1345.07	1378.55
1348.67	1359.01
1352.27	1232.31
1355.87	1122.93
1359.46	885.761
1363.06	626.462
1366.65	451.286
1370.25	210.26
1373.84	104.575
1377.43	10.168
1381.02	11.578
1384.6	3.838
1388.18	70.305
1391.77	100.763
1395.35	131.547
1398.93	54.355
1402.51	4.126
1406.08	178.259
1409.66	194.31
1413.23	365.465
1416.8	565.586
1420.37	757.733
1423.94	981.062
1427.51	1308.65
1431.08	1565.55
1434.64	1866.83
1438.2	2187.61
1441.76	2555.9
1445.32	2912.66
1448.88	3187.93
1452.43	3285.14
1455.99	3126.06
1459.54	2841.33
1463.09	2563.33
1466.64	2150.17
1470.19	1759.4
1473.74	1370.54
1477.28	979.952
1480.83	777.532
1484.37	478.699
1487.91	358.16
1491.45	258.495
1494.98	168.49
1498.52	112.032
1502.05	154.033
1505.59	111.064
1509.12	104.468
1512.65	87.188
1516.17	32.133
1519.7	8.62
