Measurement: Raman, 514 nm, ccw, Raman Data Processed
Mineral: Titanite
Rruff sample: R040033
Ideal chemistry: CaTiSiO_5_
Locality: Brazil
Source: University of Arizona Mineral Museum
Description: Green flattened wedge-shaped single crystals
Measured chemistry: (Ca_0.97_Fe^3+^_0.03_)_Σ=1_(Ti_0.97_Al_0.03_)_Σ=1_Si_1.00_O_5_; Fe^3+^ assigned for charge balance
Pin_id: L00086
Orientation: Laser parallel to a [1 0 0]. Fiducial mark perpendicular to laser is parallel to b* (0 1 0)
Raman shift (cm-1)	intensity
51.466	0
55.666	193.996
59.863	21.389
64.059	20.983
68.253	444.418
72.445	1432.32
76.635	2703.37
80.823	3192.5
85.009	3028.67
89.193	2646.48
93.375	1920.04
97.554	1077.8
101.732	534.737
105.908	350.901
110.082	345.835
114.254	386.509
118.424	370.029
122.592	602.432
126.758	781.662
130.922	1343.88
135.083	3868.38
139.243	11810.1
143.401	15793.6
147.557	7852.48
151.711	3275.22
155.863	3245.14
160.013	4109.38
164.161	4289.03
168.308	4099.27
172.452	4421.58
176.594	5049.4
180.734	5683.85
184.872	6014.17
189.008	5850.4
193.143	6354.57
197.275	7323.71
201.405	8081.81
205.534	8353.85
209.66	8104.82
213.784	8042.7
217.907	8688.33
222.027	10205.8
226.146	12654.2
230.263	16592.5
234.377	16243.1
238.49	11392.8
242.601	10122
246.709	11349.5
250.816	12748.8
254.921	12541.7
259.024	10828.1
263.125	8970.6
267.224	7023.16
271.321	5493.64
275.416	4927.93
279.51	5275.92
283.601	7032.76
287.69	10037.6
291.778	11618.9
295.863	10994.4
299.947	11802.3
304.029	14308.7
308.108	18062.4
312.186	26503.1
316.262	36491.7
320.336	31907.3
324.408	22513.7
328.478	18699
332.546	16170.2
336.612	14274.1
340.677	14213.6
344.739	19386.7
348.799	26672.2
352.858	23031.1
356.915	12848.6
360.969	6833.46
365.022	3804.8
369.073	2142.6
373.122	864.843
377.169	240.531
381.215	60.355
385.258	86.875
389.299	108.115
393.339	155.13
397.376	373.065
401.412	890.862
405.446	1669.48
409.478	3734.88
413.508	7940.03
417.536	14341.9
421.562	19472.5
425.586	16993.7
429.609	9664.66
433.629	4584.22
437.648	2046.43
441.665	391.374
445.68	425.024
449.693	974.798
453.704	1102.18
457.713	736.843
461.721	98.835
465.726	817.335
469.73	1724.04
473.731	2014.33
477.731	2571.21
481.729	3327.69
485.725	3801.8
489.72	4148.53
493.712	4046.64
497.703	3667.96
501.691	3199.68
505.678	2856.07
509.663	2773.14
513.646	3030.9
517.627	3377.35
521.607	3706.51
525.584	4335.38
529.56	5562.97
533.534	6960.29
537.506	8140.35
541.476	9039.69
545.444	8867.12
549.41	8248.44
553.375	6840.55
557.337	5998.43
561.298	6215.09
565.257	7790.53
569.214	9727.76
573.17	11158.8
577.123	12235.6
581.075	14888.1
585.024	18705.5
588.972	24311.7
592.918	30505.6
596.863	38463.7
600.805	46160.2
604.746	52700.5
608.685	53999.6
612.621	50878.7
616.557	46771.1
620.49	40041
624.421	35085.9
628.351	29500.2
632.279	25535.9
636.205	22187.6
640.129	19091.3
644.051	16724.5
647.972	14526.2
651.89	13269.7
655.807	11520.6
659.722	10541.7
663.636	9619.78
667.547	8364.98
671.457	7677.26
675.365	6952.63
679.271	6373.8
683.175	5737.59
687.077	5131.29
690.978	4713.82
694.877	4198.53
698.774	3789.39
702.669	3156.66
706.562	2915.11
710.454	2421.59
714.344	2213.08
718.232	1960.58
722.118	1567.07
726.002	1556.55
729.885	1271.99
733.766	963.392
737.645	715.74
741.522	399.022
745.397	262.227
749.271	45.66
753.143	56.747
757.013	141.257
760.881	316.22
764.748	284.622
768.613	98.472
772.476	0.432
776.337	130.803
780.196	235.11
784.054	337.378
787.91	572.02
791.764	934.7
795.616	1442.11
799.467	2084.6
803.316	3157.82
807.163	4420.63
811.008	6229.83
814.851	7849.56
818.693	9062.85
822.533	9752.72
826.371	9935.02
830.208	10457.8
834.042	11306.1
837.875	13916.8
841.706	17913.8
845.536	24574.3
849.363	33478
853.189	41272
857.013	42992.1
860.836	38539.4
864.656	34775.8
868.475	34894.2
872.292	33681.7
876.108	28279.3
879.922	24134.8
883.733	21847.3
887.544	19064.9
891.352	14634.1
895.159	10271.5
898.964	7981.66
902.767	7328.64
906.568	8496.96
910.368	9748.33
914.166	8597.74
917.962	5434.92
921.757	2903.68
925.55	1430.6
929.341	623.933
933.13	219.166
936.918	37.798
940.703	195.993
944.488	298.957
948.27	264.356
952.051	182.216
955.83	10.27
959.607	256.104
963.383	615.584
967.156	967.442
970.928	1322.26
974.699	1591.88
978.468	1533.4
982.234	1327.67
986	1160.94
989.763	1107.73
993.525	1175.96
997.285	1253.15
1001.04	1424.2
1004.8	1613.26
1008.55	1905.62
1012.31	2009
1016.06	2169.72
1019.81	2394.76
1023.56	2535.12
1027.31	2527.8
1031.05	2504.79
1034.79	2550.09
1038.53	2453.69
1042.27	2117.59
1046.01	1593.78
1049.75	1178.26
1053.48	870.037
1057.22	692.172
1060.95	598.788
1064.68	531.08
1068.4	389.09
1072.13	487.585
1075.86	778.528
1079.58	1145.86
1083.3	1664.92
1087.02	2253.89
1090.74	2287.57
1094.45	2038.88
1098.17	1070.29
1101.88	512.246
1105.59	158.512
1109.3	49.786
1113.01	90.85
1116.71	35.737
1120.42	17.73
1124.12	44.403
1127.82	77.665
1131.52	38.591
1135.22	7.311
1138.91	13.809
1142.61	45.05
1146.3	12.985
1149.99	110.401
1153.68	282.475
1157.37	669.688
1161.06	1254.69
1164.74	1729.28
1168.42	2531.47
1172.1	4205.26
1175.78	7243.65
1179.46	9311.65
1183.14	8202.26
1186.81	5747.5
1190.48	4380.38
1194.15	4368.89
1197.83	4669.06
1201.49	4445.88
1205.16	4140.36
1208.82	4639.95
1212.49	5248.64
1216.15	4884.11
1219.81	3961.69
1223.46	3739.44
1227.12	3799.04
1230.78	4036.53
1234.43	4207.13
1238.08	4391.83
1241.73	4789.08
1245.38	5282.05
1249.03	5378.93
1252.67	4579.89
1256.31	3426.02
1259.95	2740.18
1263.6	2255.2
1267.23	1946.06
1270.87	1672.22
1274.51	1401.15
1278.14	1343.4
1281.77	1193.19
1285.4	1345.81
1289.03	1422.83
1292.66	1796.32
1296.28	2107.9
1299.91	2456.81
1303.53	2529.87
1307.15	2459.77
1310.77	2358.27
1314.38	2433.39
1318	2511.97
1321.61	2462.28
1325.23	2353.48
1328.84	1911.59
1332.45	1339.61
1336.06	1064.52
1339.66	925.302
1343.27	667.946
1346.87	674.438
1350.47	510.83
1354.07	427.18
1357.67	358.52
1361.26	240.881
1364.86	157.298
1368.45	79.573
1372.04	12.174
1375.63	90.88
1379.22	27.117
1382.81	12.262
1386.39	22.69
1389.98	12.692
1393.56	34.668
1397.14	20.077
1400.72	29.021
1404.3	30.769
1407.87	137.132
1411.45	167.909
1415.02	211.771
1418.59	215.63
1422.16	268.548
1425.73	373.581
1429.29	476.757
1432.86	601.113
1436.42	755.695
1439.98	919.547
1443.54	966.708
1447.1	954.186
1450.66	1107.33
1454.21	1043.36
1457.77	1099.2
1461.32	962.913
1464.87	920.58
1468.42	823.021
1471.96	665.294
1475.51	519.486
1479.06	402.276
1482.6	373.202
1486.14	262.066
1489.68	184.951
1493.22	255.725
1496.75	121.278
1500.29	115.022
1503.82	161.169
1507.35	91.621
1510.88	101.935
1514.41	4.827
1517.94	69.7
1521.46	0
