Measurement: Raman, 514 nm, ccw, Raman Data Processed
Mineral: Titanite
Rruff sample: R040033
Ideal chemistry: CaTiSiO_5_
Locality: Brazil
Source: University of Arizona Mineral Museum
Description: Green flattened wedge-shaped single crystals
Measured chemistry: (Ca_0.97_Fe^3+^_0.03_)_Σ=1_(Ti_0.97_Al_0.03_)_Σ=1_Si_1.00_O_5_; Fe^3+^ assigned for charge balance
Pin_id: L00157
Orientation: Laser parallel to -b* (0 -1 0). Fiducial mark perpendicular to laser is parallel to c [0 0 1]
Raman shift (cm-1)	intensity
51.466	0
55.666	300.39
59.863	121.585
64.059	150.116
68.253	487.87
72.445	1672.68
76.635	3233.76
80.823	4187.25
85.009	4544.81
89.193	4648.03
93.375	4727.46
97.554	4557.2
101.732	4713.03
105.908	5033.14
110.082	5276.23
114.254	5455.22
118.424	5346.85
122.592	5601.43
126.758	6383.62
130.922	6838.35
135.083	7941.61
139.243	10578.7
143.401	13082
147.557	13286.3
151.711	13718
155.863	16879.5
160.013	19665.4
164.161	17725.4
168.308	13958.6
172.452	12188.3
176.594	11711.6
180.734	12090.7
184.872	11662.4
189.008	11050.9
193.143	11493.1
197.275	12192
201.405	13343.6
205.534	14704.8
209.66	14698.6
213.784	14717
217.907	15132.6
222.027	15934.7
226.146	16548.7
230.263	17128.8
234.377	17156.5
238.49	17882.6
242.601	20633
246.709	24556.4
250.816	27347.8
254.921	27086.7
259.024	23153.3
263.125	18047.3
267.224	13945.3
271.321	11404.1
275.416	10542.2
279.51	10757.6
283.601	12113
287.69	14244.4
291.778	13663.5
295.863	12137.2
299.947	12630.6
304.029	13666.4
308.108	15042.6
312.186	17681.9
316.262	18116.1
320.336	14726.2
324.408	12530.2
328.478	12537.1
332.546	12861.8
336.612	11692.4
340.677	9776.85
344.739	8123.16
348.799	7223.29
352.858	6119.24
356.915	4984.98
360.969	4126.51
365.022	3372.81
369.073	2478.86
373.122	1554.66
377.169	632.186
381.215	175.525
385.258	381.744
389.299	641.467
393.339	1120.88
397.376	1401.09
401.412	1446.46
405.446	1092.07
409.478	107.661
413.508	2316.47
417.536	6250.36
421.562	8645.3
425.586	7387.25
429.609	4621.18
433.629	3119.07
437.648	2533.9
441.665	2131.71
445.68	2310.61
449.693	2993.8
453.704	4867.35
457.713	8804.31
461.721	15304.7
465.726	20418.5
469.73	17584.8
473.731	10316.7
477.731	5715.96
481.729	3313.65
485.725	2475.63
489.72	2090.89
493.712	1928.3
497.703	2023.69
501.691	2077.95
505.678	2139.06
509.663	2656.03
513.646	3170.84
517.627	3939.51
521.607	4637.01
525.584	5594.36
529.56	7431.55
533.534	9565.57
537.506	11545.4
541.476	13157.6
545.444	13423.3
549.41	13295.4
553.375	11837.8
557.337	10794.9
561.298	10356.3
565.257	9852.55
569.214	9224.1
573.17	9178.34
577.123	10232.9
581.075	12673.8
585.024	16585.1
588.972	21973.6
592.918	28077.5
596.863	35592.8
600.805	42998.4
604.746	48332.4
608.685	49660.2
612.621	46761.7
616.557	42659.8
620.49	37015.6
624.421	32940
628.351	27772.4
632.279	24122.7
636.205	21188.5
640.129	18532.7
644.051	15908.9
647.972	14172.5
651.89	12946.3
655.807	11189
659.722	10161.3
663.636	9137.36
667.547	7941.26
671.457	7321.94
675.365	6524.37
679.271	5801.53
683.175	5303.4
687.077	4769.45
690.978	4278.2
694.877	3802.09
698.774	3315.74
702.669	2727.76
706.562	2560.66
710.454	2073.16
714.344	1877.12
718.232	1674.96
722.118	1410.35
726.002	1406.07
729.885	1110.41
733.766	938.185
737.645	707.387
741.522	454.003
745.397	237.052
749.271	47.49
753.143	117.276
757.013	64.793
760.881	245.053
764.748	265.948
768.613	183.635
772.476	152.207
776.337	281.775
780.196	114.363
784.054	210.423
787.91	178.596
791.764	146.788
795.616	207.172
799.467	14.472
803.316	87.403
807.163	85.691
811.008	434.162
814.851	587.529
818.693	823.52
822.533	1086.02
826.371	1133.9
830.208	1403.43
834.042	1697.31
837.875	2189.73
841.706	2699.82
845.536	3537.59
849.363	4912.02
853.189	6324.08
857.013	7861.73
860.836	9868.94
864.656	12708.7
868.475	16823.8
872.292	18196.3
876.108	16268.2
879.922	14701.3
883.733	12759.7
887.544	10428.1
891.352	7500.11
895.159	5395.04
898.964	4683.57
902.767	4531.49
906.568	5407.31
910.368	5816.92
914.166	4894.6
917.962	2997.41
921.757	1679.33
925.55	970.596
929.341	525.809
933.13	310.587
936.918	294.143
940.703	81.585
944.488	13.528
948.27	42.98
952.051	85.347
955.83	52.459
959.607	137.232
963.383	181.573
967.156	189.065
970.928	196.882
974.699	341.054
978.468	418.522
982.234	542.608
986	489.086
989.763	531.16
993.525	552.928
997.285	577.096
1001.04	657.864
1004.8	837.002
1008.55	992.253
1012.31	1036.78
1016.06	1015.32
1019.81	960.944
1023.56	971.497
1027.31	617.3
1031.05	343.357
1034.79	206.66
1038.53	214.174
1042.27	118.889
1046.01	43.751
1049.75	28.695
1053.48	35.762
1057.22	79.961
1060.95	196.437
1064.68	74.405
1068.4	55.026
1072.13	212.372
1075.86	193.545
1079.58	243.653
1083.3	409.145
1087.02	448.665
1090.74	335.32
1094.45	266.521
1098.17	180.355
1101.88	104.912
1105.59	2.16
1109.3	44.655
1113.01	38.996
1116.71	72.747
1120.42	44.154
1124.12	134.471
1127.82	19.37
1131.52	13.743
1135.22	105.29
1138.91	28.611
1142.61	8.498
1146.3	43.862
1149.99	57.228
1153.68	0.726
1157.37	148.983
1161.06	176.468
1164.74	287.217
1168.42	369.82
1172.1	463.937
1175.78	761.36
1179.46	1020.36
1183.14	911.38
1186.81	709.168
1190.48	413.232
1194.15	493.582
1197.83	539.333
1201.49	533.923
1205.16	557.875
1208.82	565.833
1212.49	651.14
1216.15	548.158
1219.81	357.057
1223.46	379.555
1227.12	277.252
1230.78	246.678
1234.43	263.738
1238.08	285.095
1241.73	316.986
1245.38	338.422
1249.03	388.296
1252.67	285.125
1256.31	155.026
1259.95	128.093
1263.6	173.197
1267.23	40.528
1270.87	94.1
1274.51	35.965
1278.14	26.53
1281.77	12.526
1285.4	30.06
1289.03	55.556
1292.66	62.895
1296.28	17.822
1299.91	108.535
1303.53	65.351
1307.15	135.05
1310.77	84.598
1314.38	153.738
1318	116.034
1321.61	118.157
1325.23	147.14
1328.84	104.021
1332.45	99.824
1336.06	5.434
1339.66	198.291
1343.27	100.03
1346.87	176.771
1350.47	166.535
1354.07	182.378
1357.67	102.316
1361.26	153.678
1364.86	170.615
1368.45	120.704
1372.04	110.386
1375.63	177.698
1379.22	96.644
1382.81	115.233
1386.39	99.981
1389.98	136.843
1393.56	62.552
1397.14	36.819
1400.72	61.385
1404.3	107.75
1407.87	18.445
1411.45	156.513
1415.02	127.797
1418.59	142.761
1422.16	135.941
1425.73	110.903
1429.29	230.95
1432.86	247.316
1436.42	331.409
1439.98	346.469
1443.54	400.993
1447.1	379.76
1450.66	503.303
1454.21	439.394
1457.77	433.007
1461.32	354.257
1464.87	340.833
1468.42	334.433
1471.96	190.292
1475.51	242.254
1479.06	167.349
1482.6	249.571
1486.14	103.04
1489.68	155.015
1493.22	112.87
1496.75	10.538
1500.29	53.95
1503.82	130.44
1507.35	112.456
1510.88	143.747
1514.41	28.044
1517.94	158.117
